#------------------------------------------------------------------------------
#$Date: 2016-11-28 13:28:16 +0200 (Mon, 28 Nov 2016) $
#$Revision: 188723 $
#$URL: file:///home/coder/svn-repositories/cod/cif/2/01/97/2019717.cif $
#------------------------------------------------------------------------------
#
# This file is available in the Crystallography Open Database (COD),
# http://www.crystallography.net/. The original data for this entry
# were provided by IUCr Journals, http://journals.iucr.org/.
#
# The file may be used within the scientific community so long as
# proper attribution is given to the journal article from which the
# data were obtained.
#
data_2019717
loop_
_publ_author_name
'Paz Robles, Cristian'
'Mercado, Dar\'io'
'Suarez, Sebasti\'an'
'Baggio, Ricardo'
_publ_section_title
;
 Two drimane lactones, valdiviolide and 11-epivaldiviolide, in the form of
 a 1:1 cocrystal obtained from <i>Drimys winteri</i> extracts
;
_journal_coeditor_code           SK3569
_journal_issue                   12
_journal_name_full               'Acta Crystallographica Section C'
_journal_page_first
;
;
_journal_paper_doi               10.1107/S205322961402395X
_journal_volume                  70
_journal_year                    2014
_chemical_formula_moiety         'C15 H22 O3'
_chemical_formula_sum            'C15 H22 O3'
_chemical_formula_weight         250.32
_chemical_name_systematic        ?
_space_group_crystal_system      triclinic
_space_group_IT_number           1
_space_group_name_Hall           'P 1'
_space_group_name_H-M_alt        'P 1'
_symmetry_space_group_name_Hall  'P 1'
_symmetry_space_group_name_H-M   'P 1'
_atom_sites_solution_hydrogens   mixed
_audit_creation_method           SHELXL-2013
_cell_angle_alpha                78.423(5)
_cell_angle_beta                 84.663(5)
_cell_angle_gamma                65.460(5)
_cell_formula_units_Z            2
_cell_length_a                   6.6766(4)
_cell_length_b                   7.1292(4)
_cell_length_c                   16.0995(10)
_cell_measurement_reflns_used    3755
_cell_measurement_temperature    295(2)
_cell_measurement_theta_max      22.125
_cell_measurement_theta_min      3.701
_cell_volume                     682.87(8)
_computing_cell_refinement       'CrysAlisPro '
_computing_data_collection
;
CrysAlisPro (Oxford Diffraction, 2009)
;
_computing_data_reduction        'CrysAlisPro '
_computing_molecular_graphics
;
XP in SHELXTL (Sheldrick, 2008)
;
_computing_publication_material
;
SHELXL-2013, PLATON (Spek, 2009)
;
_computing_structure_refinement
;
SHELXL-2013 (Sheldrick, 2008)
;
_computing_structure_solution
;
SHELXS (Sheldrick, 2008)
;
_diffrn_ambient_temperature      295(2)
_diffrn_measured_fraction_theta_full 0.997
_diffrn_measured_fraction_theta_max 0.914
_diffrn_measurement_device_type  'Oxford Diffraction Gemini CCD S Ultra'
_diffrn_measurement_method       '\w scans, thick slices'
_diffrn_radiation_type           MoK\a
_diffrn_radiation_wavelength     0.71069
_diffrn_reflns_av_R_equivalents  0.0528
_diffrn_reflns_limit_h_max       8
_diffrn_reflns_limit_h_min       -9
_diffrn_reflns_limit_k_max       9
_diffrn_reflns_limit_k_min       -9
_diffrn_reflns_limit_l_max       21
_diffrn_reflns_limit_l_min       -20
_diffrn_reflns_number            21131
_diffrn_reflns_theta_full        26.000
_diffrn_reflns_theta_max         29.258
_diffrn_reflns_theta_min         3.653
_exptl_absorpt_coefficient_mu    0.083
_exptl_absorpt_correction_T_max  0.97
_exptl_absorpt_correction_T_min  0.96
_exptl_absorpt_correction_type   multi-scan
_exptl_absorpt_process_details
;
CrysAlisPro (Oxford Diffraction, 2009)
;
_exptl_crystal_colour            colourless
_exptl_crystal_density_diffrn    1.217
_exptl_crystal_description       blocks
_exptl_crystal_F_000             272
_exptl_crystal_size_max          0.30
_exptl_crystal_size_mid          0.22
_exptl_crystal_size_min          0.22
_refine_diff_density_max         0.238
_refine_diff_density_min         -0.167
_refine_ls_extinction_method     none
_refine_ls_goodness_of_fit_ref   1.009
_refine_ls_hydrogen_treatment    mixed
_refine_ls_matrix_type           full
_refine_ls_number_parameters     339
_refine_ls_number_reflns         6463
_refine_ls_number_restraints     7
_refine_ls_restrained_S_all      1.010
_refine_ls_R_factor_all          0.0680
_refine_ls_R_factor_gt           0.0486
_refine_ls_shift/su_max          0.000
_refine_ls_shift/su_mean         0.000
_refine_ls_structure_factor_coef Fsqd
_refine_ls_weighting_details
'w=1/[\s^2^(Fo^2^)+(0.0657P)^2^+0.0278P] where P=(Fo^2^+2Fc^2^)/3'
_refine_ls_weighting_scheme      calc
_refine_ls_wR_factor_gt          0.1155
_refine_ls_wR_factor_ref         0.1299
_reflns_number_gt                4929
_reflns_number_total             6463
_reflns_threshold_expression     'I > 2\s(I)'
_cod_data_source_file            sk3569sup1.cf
_cod_data_source_block           I
_cod_original_cell_volume        682.88(7)
_cod_database_code               2019717
_cod_database_fobs_code          2019717
#BEGIN Tags that were not found in dictionaries:
_shelx_hkl_file
;
   0   0  -3 333365. 4397.77  19
   0   0   4 1901.93 211.851  15
   0   0  -4 1900.80 200.866   8
   0   0  -4 1936.82 228.686  19
   0   0  -4 1906.73 254.570   9
   0   0   4 1701.28 209.952   3
   0   0   4 1736.75 220.380  11
   0   0  -5 115294. 2223.98   9
   0   0   5 120427. 2043.71  15
   0   0  -5 114189. 1996.29   8
   0   0   5 119107. 2126.22  11
   0   0  -5 119417. 2087.31   3
   0   0   5 116159. 2046.52   3
   0   0  -5 121223. 2066.09  15
   0   0  -6 268549. 4164.60  19
   0   0   6 256303. 3895.13  15
   0   0  -6 271335. 3890.36   8
   0   0  -6 247844. 3902.62  15
   0   0  -6 251600. 4033.28  11
   0   0  -6 253334. 3936.97   3
   0   0   6 275525. 3983.02   3
   0   0   6 287976. 4104.16  11
   0   0  -7 70102.1 1644.77  15
   0   0   7 65725.7 1615.11   3
   0   0  -7 74305.1 1630.00   8
   0   0   7 71503.8 1737.48  11
   0   0  -7 67746.0 1726.25  11
   0   0  -7 75204.3 1717.91   3
   0   0   7 65230.9 1599.10  15
   0   0   8 144822. 2949.18  19
   0   0   8 134894. 2611.37  15
   0   0  -8 139758. 2607.43   8
   0   0   8 138947. 2775.19  11
   0   0   9 488.197 201.678  11
   0   0   9 586.504 225.417  19
   0   0  -9 583.139 159.791   1
   0   0   9 557.937 188.248  15
   0   0   9 576.694 211.380   3
   0   0  -9 682.692 206.913   8
   0   0  10 31318.3 1193.71  15
   0   0 -10 31608.7 1377.44   1
   0   0 -10 32924.2 1206.19   8
   0   0  10 34793.3 1429.28  19
   0   0  10 29862.3 1277.83  11
   0   0  10 28928.7 1183.43   3
   0   0  11 6177.74 585.485   3
   0   0  11 6142.22 624.410  11
   0   0 -11 7190.87 575.082   8
   0   0 -11 6299.28 635.516   1
   0   0  11 7234.91 609.732  15
   0   0  11 7500.91 702.495  19
   0   0 -12 908.365 219.824   8
   0   0  12 979.453 302.214  19
   0   0 -12 1119.92 323.403   1
   0   0  12 1100.87 301.054  11
   0   0  12 957.958 256.164   3
   0   0  12 1136.52 270.490  15
   0   0 -13 6427.80 720.318   1
   0   0  13 6614.88 704.136  11
   0   0 -13 7933.06 652.263   8
   0   0  13 7032.24 651.158  15
   0   0  13 4786.59 601.887   3
   0   0  13 7101.73 747.740  19
   0   0  14 4659.50 659.767  19
   0   0  14 3757.61 492.023  15
   0   0 -14 3289.47 453.993   8
   0   0  14 3834.74 576.770  11
   0   0  14 3500.85 501.318   3
   0   0 -14 3355.47 568.840   1
   0   0  15 3065.79 460.605  15
   0   0 -15 3338.82 572.862   1
   0   0 -15 3145.01 580.619  17
   0   0 -15 2884.73 450.538   8
   0   0  15 4550.13 651.952  19
   0   0  15 2750.88 503.683  11
   0   0 -16 4727.69 712.282   1
   0   0  16 5076.84 717.566  19
   0   0 -16 4913.45 766.244  17
   0   0  16 3776.43 602.198  11
   0   0 -16 3599.40 501.015   8
   0   0  16 5242.87 621.426  15
   0   0 -17 6107.60 868.830  17
   0   0  17 3774.88 645.383  11
   0   0  17 4329.83 582.237  15
   0   0  17 4062.75 730.134  20
   0   0 -17 4036.56 694.773   1
   0   0 -17 3932.93 557.092   8
   0   0  17 5330.35 739.893  19
   0   0  18 488.739 297.492  11
   0   0  18 285.171 284.241  19
   0   0 -18 240.079 214.928   8
   0   0 -18 582.132 324.199  17
   0   0 -18-98.3696 212.085   1
   0   0  18-16.4086 223.032  20
   0   0  19 131.484 202.812  11
   0   0 -19 65.2587 138.423   8
   0   0 -19-416.064 277.820   1
   0   0  19 74.4218 209.336  20
   0   0  19-217.372 224.026  19
   0   0  20 53.4693 151.109  11
   0   0  20 77.7094 207.336  19
   0   0 -20-320.590 284.375   1
   0  -1  20 423.857 277.130  19
   0  -1  20 176.312 192.130  15
   0   1 -19 1260.99 489.834  21
   0   1 -19 911.507 345.439   8
   0  -1  19 423.806 305.003  19
   0   1 -19 615.884 302.058   1
   0  -1  19 720.240 337.209  20
   0  -1  19 351.672 239.619  15
   0   1 -19 1041.06 449.108  17
   0  -1  18 0.28085 143.902   3
   0  -1  18 77.6354 168.938  19
   0   1 -18 138.811 192.697   8
   0   1 -18 855.565 375.500  17
   0  -1  18 331.640 299.831  20
   0  -1  18 140.272 213.931  15
   0   1 -18 543.835 290.660   1
   0   1 -17 336.352 269.660   1
   0  -1  17-12.1139 134.195  11
   0  -1  17 270.575 246.643  20
   0  -1  17 147.577 177.848  19
   0  -1  17 668.069 285.051  15
   0   1 -17 385.301 282.926  17
   0   1 -17 58.3540 164.326   8
   0  -1  17-0.78728 217.608   3
   0  -1  16 349.487 226.406   3
   0   1 -16 435.377 278.365  17
   0  -1  16 334.896 212.589  11
   0  -1  16 54.5378 159.722  19
   0  -1  16 225.545 182.419  15
   0  -1  16 212.665 224.379  20
   0   1 -16 691.119 274.815   8
   0   1 -16-95.0910 226.243   1
   0  -1  15-129.938 256.583  20
   0  -1  15 289.265 188.664  11
   0   1 -15 275.794 198.878   8
   0  -1  15 349.847 204.310  19
   0   1 -15 158.846 174.371   1
   0  -1  15 304.525 235.860   3
   0  -1  15 332.248 194.909  15
   0  -1  14-152.934 190.311   3
   0   1 -14 313.693 198.339   8
   0  -1  14 113.087 149.806  15
   0  -1  14 54.5324 189.276  20
   0  -1  14-0.45542 168.067  19
   0  -1  14-30.1716 130.122  11
   0  -1  13 292.558 196.753  19
   0  -1  13 78.4470 185.240   3
   0  -1  13 75.5051 190.987  20
   0  -1  13 152.460 138.016  15
   0   1 -13 45.8468 134.617   8
   0  -1  13 56.9091 135.139  11
   0  -1  12 577.873 198.333  15
   0  -1  12 634.933 209.810  19
   0  -1  12 781.685 271.061   3
   0   1 -12 295.425 226.691   9
   0   1 -12 427.467 211.485   8
   0  -1  12 795.634 240.126  11
   0  -1  11 4353.19 534.741  19
   0  -1  11 4137.22 518.006  15
   0  -1  11 3968.12 476.932  11
   0  -1  11 4119.39 530.884   3
   0   1 -11 4211.54 589.085   9
   0   1 -11 4725.18 527.594   8
   0  -1  10 11151.2 830.650   3
   0  -1  10 12048.5 823.570  15
   0   1 -10 11064.8 902.561   9
   0  -1  10 11334.0 723.201  11
   0   1 -10 12450.9 800.587   8
   0  -1  10 13488.1 873.209  19
   0   1  -9 10702.4 809.402   9
   0  -1   9 10158.9 739.475   3
   0   1  -9 12243.0 769.518   8
   0  -1   9 11888.1 785.117  19
   0  -1   9 10071.0 643.810  11
   0  -1   9 10050.5 719.795  15
   0  -1   8 44679.2 1477.79  15
   0  -1   8 47240.5 1479.78  19
   0   1  -8 41702.1 1439.34   4
   0   1  -8 43179.4 1257.21  11
   0  -1   8 42199.2 1500.90   3
   0   1  -8 40996.0 1523.37   9
   0  -1   8 40799.8 1210.77  11
   0   1  -7 75515.9 1651.19  11
   0  -1   7 73739.5 1686.48  13
   0  -1   7 68403.3 1165.45  16
   0  -1   7 83040.2 1933.85  19
   0  -1   7 74244.5 1891.37   3
   0  -1   7 78924.5 1659.10  11
   0   1  -7 71760.7 1860.34   4
   0   1  -7 77258.0 2053.81   9
   0  -1   7 79144.9 1902.95  15
   0  -1   6 234.078 71.1017  16
   0  -1   6 126.921 89.9740   4
   0   1  -6 341.327 110.080  11
   0  -1   6 231.489 97.3724  13
   0  -1   6 88.5658 133.968   3
   0   1  -6 219.976 138.833  19
   0  -1   6 417.641 173.851  19
   0   1  -6 566.261 214.530   9
   0  -1   6 94.5292 31.0590  10
   0  -1   6 200.916 100.132  11
   0   1  -6 171.286 56.9446  12
   0   1  -6 476.136 183.413   4
   0  -1   6 245.238 132.138  15
   0  -1   5 16490.5 491.591  16
   0  -1   5 18774.5 598.059  11
   0   1  -5 17749.3 758.620  19
   0  -1   5 18199.3 806.560   3
   0   1  -5 16915.4 580.234  11
   0   1  -5 16556.9 702.339   4
   0  -1   5 18145.1 786.981  15
   0  -1   5 18707.5 740.556  19
   0   1  -5 17669.4 516.286  12
   0  -1   5 16851.0 695.776   4
   0   1  -5 18550.1 828.472   9
   0  -1   4 65324.1 1044.82  10
   0   1  -4 64068.9 1173.51  11
   0   1  -4 66199.6 1577.62   9
   0   1  -4 64379.4 1361.28   4
   0  -1   4 64380.5 1483.39  15
   0  -1   4 63062.3 1150.56  11
   0  -1   4 62189.6 1372.64   4
   0  -1   4 59466.4 1135.28  16
   0  -1   4 67439.7 1526.68   3
   0   1  -4 65536.2 1466.13  19
   0  -1   3 105694. 1509.60  11
   0  -1   3 105360. 1559.32  10
   0  -1   3 100605. 1749.36   4
   0   1  -3 108864. 1555.50  10
   0   1  -3 103023. 2009.74   9
   0  -1   3 107968. 1939.49   3
   0  -1   3 101680. 1655.16  16
   0   1  -3 103933. 1518.52  11
   0   1  -3 104584. 1865.07  19
   0  -1   3 101451. 1896.32  15
   0  -1   3 104608. 1891.68  20
   0   1  -3 101908. 1750.11   4
   0   1  -2 69145.7 1340.34  19
   0   1  -2 69269.6 1223.53   4
   0  -1   2 78075.6 1393.59  20
   0  -1   2 75759.9 1430.70   3
   0  -1   2 73434.9 1210.02  10
   0  -1   2 75940.4 1231.93   2
   0   1  -2 71984.2 1468.51   9
   0  -1   2 76982.3 1436.19  15
   0  -1   1 26650.6 579.976  21
   0   1   2 10545.8 335.717  17
   0   1   3 68475.4 1367.44  11
   0  -1  -3 70543.3 1195.62   8
   0  -1  -3 64825.9 1224.80  10
   0  -1  -3 67163.6 1403.73   6
   0  -1  -3 65930.4 1271.80  18
   0  -1  -3 65739.0 1411.46  19
   0  -1  -3 66363.8 1418.62   5
   0  -1  -3 66816.7 1391.55   1
   0   1   4 97508.1 1833.10  11
   0  -1  -4 87197.1 1611.88  18
   0   1   4 86893.3 1522.65  10
   0  -1  -4 88797.9 1528.51  10
   0  -1  -4 89858.4 1497.29   8
   0  -1  -4 88555.3 1796.26  19
   0  -1  -4 89424.5 1488.01  16
   0  -1  -4 91507.4 1790.70   6
   0  -1  -4 91672.7 1789.05   1
   0  -1  -4 93004.0 1811.92   5
   0   1   4 88574.5 1481.53   8
   0  -1  -4 90370.7 1382.57  15
   0  -1  -5 81862.0 1514.02   3
   0  -1  -5 92497.1 1587.54  10
   0  -1  -5 96788.0 1615.59   8
   0   1   5 100289. 1764.46  18
   0  -1  -5 96411.9 1933.24   1
   0   1   5 100473. 2005.88  11
   0  -1  -5 92408.2 1531.34  15
   0  -1  -5 86710.5 1908.78  19
   0  -1  -5 87647.6 1716.46  18
   0   1   5 90151.6 1569.59  10
   0  -1  -5 96056.5 1942.18   5
   0   1   5 90770.8 1587.12   8
   0  -1  -5 100017. 1547.81  16
   0  -1  -6 9165.24 421.042  15
   0  -1  -6 9091.38 570.978   1
   0  -1  -6 9078.45 393.157  10
   0  -1  -6 8989.91 425.886   3
   0   1   6 10020.0 515.264  18
   0  -1  -6 10041.1 590.504  19
   0   1   6 9276.85 597.226  11
   0   1   6 9419.25 439.052   8
   0   1   6 7880.67 370.362  10
   0  -1  -6 8733.67 468.060  18
   0  -1  -6 10081.7 452.186   8
   0   1   6 8294.78 368.652  12
   0  -1  -6 9956.88 385.132  16
   0  -1  -7 7233.66 413.935   8
   0  -1  -7 5922.07 383.439   3
   0  -1  -7 6374.02 511.487   1
   0  -1  -7 6014.39 415.693  18
   0  -1  -7 6060.27 325.142  10
   0  -1  -7 5752.76 286.178  16
   0  -1  -7 7122.82 402.713  15
   0   1   7 7536.03 562.841  11
   0   1   7 5954.54 390.219   8
   0   1   7 5128.35 274.072  12
   0  -1  -8 92168.2 1839.03   3
   0  -1  -8 92534.5 1813.01  15
   0   1   8 82410.2 1405.62  12
   0  -1  -8 91281.3 1804.02   8
   0  -1  -8 90153.7 2200.66   1
   0   1   8 97579.4 2281.09  11
   0  -1  -8 76304.9 1825.67  18
   0  -1  -8 93284.5 1562.04  10
   0   1   8 76718.3 1738.13   8
   0  -1  -9 22624.2 1103.16   1
   0  -1  -9 23382.5 656.388  10
   0  -1  -9 22904.0 862.902  15
   0  -1  -9 21680.0 855.488   3
   0   1   9 25411.7 1154.69  11
   0  -1  -9 23850.7 867.908   8
   0  -1 -10 12584.1 668.615   8
   0  -1 -10 14097.2 898.602   1
   0   1  10 13319.7 943.889  19
   0   1  10 12857.0 872.997  11
   0   1  11 5893.36 642.105  19
   0  -1 -11 4919.94 446.833   8
   0   1  11 4868.66 634.069  11
   0  -1 -11 4970.40 573.702   1
   0  -1 -12 1435.78 336.805  17
   0   1  12 1932.49 436.839  19
   0   1  12 865.962 304.917  11
   0  -1 -12 1799.04 365.011   1
   0  -1 -12 1582.78 279.526   8
   0   1  13 1207.34 354.542  11
   0  -1 -13 1164.48 262.023   8
   0   1  13 1374.61 361.932  19
   0  -1 -13 1327.97 348.724  17
   0  -1 -13 1708.16 397.290   1
   0   1  14 1130.44 353.587  19
   0  -1 -14 760.031 313.196   1
   0  -1 -14 998.721 243.815   8
   0  -1 -14 993.003 328.813  17
   0   1  14 502.772 285.341  11
   0  -1 -15-107.613 162.806   1
   0  -1 -15 311.418 167.389   8
   0  -1 -15 421.246 287.812  17
   0   1  15-42.5909 164.010  11
   0   1  16 117.832 177.787  11
   0  -1 -16 825.689 339.830   1
   0  -1 -16 528.548 195.618   8
   0  -1 -16 554.651 284.216  17
   0   1  16 653.956 305.473  19
   0   1  17 732.659 307.396  19
   0  -1 -17 108.822 196.427   1
   0  -1 -17 552.391 307.035  17
   0   1  17 357.180 254.527  11
   0  -1 -17 282.203 189.253   8
   0   1  18-30.3073 170.411  11
   0   1  18-52.4641 204.747  19
   0  -1 -18-56.8944 244.396  17
   0  -1 -18-45.9413 178.746   1
   0  -1 -18 162.994 173.516   8
   0   1  19 338.235 297.173  19
   0  -1 -19 326.278 292.130  17
   0  -1 -19 563.045 329.559   1
   0   1  19 736.470 379.637  11
   0   1  20 164.243 189.487  19
   0  -1 -20 124.907 211.234   1
   0   1  20 251.019 242.515  11
   0  -1 -20 131.117 227.576  17
   0   1  20 353.521 287.194  20
   0   1  21-135.291 276.702  11
   0   2 -20 390.075 284.609   8
   0  -2  20 307.017 287.454  19
   0  -2  19 3137.91 633.785  19
   0   2 -19 2936.53 620.712   8
   0  -2  19 2935.79 645.833   3
   0  -2  19 2937.81 622.034  15
   0   2 -19 3123.93 698.109   1
   0  -2  19 2976.05 638.704   2
   0  -2  18 2625.01 578.229  15
   0   2 -18 2203.77 551.956   8
   0   2 -18 3438.74 719.619  17
   0   2 -18 2940.90 676.862  21
   0  -2  18 2364.71 561.517   2
   0  -2  18 2657.22 630.448  20
   0  -2  18 2375.59 574.352   3
   0  -2  18 3470.72 671.857  19
   0   2 -18 1791.37 516.062   1
   0   2 -17 123.024 242.902  17
   0  -2  17 502.151 285.953   2
   0   2 -17 720.562 340.585  21
   0  -2  17 526.114 307.849   3
   0  -2  17 195.880 177.504  15
   0  -2  17 303.080 249.116  19
   0   2 -17 300.628 219.701   8
   0  -2  17-19.4809 257.856  20
   0  -2  16 1842.67 468.840  15
   0  -2  16 1696.67 416.078  19
   0  -2  16 1396.69 419.322  20
   0  -2  16 1153.56 364.890   3
   0   2 -16 1207.50 427.877  21
   0   2 -16 1483.69 434.463   8
   0  -2  16 1603.23 470.027   2
   0  -2  15 192.835 212.642  15
   0   2 -15-104.356 214.700   9
   0  -2  15 549.561 262.354  20
   0  -2  15 104.844 188.027   3
   0  -2  15 1052.04 322.990  19
   0  -2  15 466.276 267.208   2
   0   2 -15 483.444 262.943   8
   0   2 -15 850.607 359.014  21
   0  -2  14 2709.36 547.444  20
   0  -2  14 2116.28 454.371  19
   0  -2  14 2176.81 524.691   3
   0  -2  14 2083.79 363.375  11
   0   2 -14 2623.84 492.918   8
   0   2 -14 1383.07 427.173   9
   0   2 -14 2321.04 507.046  21
   0  -2  14 1751.63 436.672  15
   0  -2  14 2379.67 457.496   2
   0   2 -13 582.804 262.665   8
   0  -2  13 955.307 343.378  20
   0  -2  13 839.332 295.628  19
   0  -2  13 874.892 304.074  15
   0  -2  13 208.042 157.815   2
   0   2 -13 1079.21 366.542  21
   0  -2  13 445.888 168.191  11
   0   2 -13 963.359 311.440   9
   0  -2  13 220.524 186.539   3
   0  -2  12 2646.83 372.831  11
   0   2 -12 2336.68 485.625   9
   0  -2  12 2448.28 402.506   2
   0  -2  12 3536.34 514.501  19
   0  -2  12 2688.83 473.816   3
   0  -2  12 2443.03 461.163  20
   0  -2  12 2427.26 438.419  15
   0   2 -12 3083.20 508.118   8
   0  -2  11 21482.3 970.989  11
   0  -2  11 21797.7 1287.67  15
   0  -2  11 17125.9 613.841  16
   0   2 -11 18414.5 1281.13   9
   0  -2  11 22442.6 1173.75   2
   0  -2  11 22712.9 1369.17  20
   0  -2  11 20744.8 1291.87   3
   0  -2  11 24889.2 1307.68  19
   0  -2  10 14098.4 589.907  16
   0  -2  10 18307.4 1154.79   3
   0   2 -10 14611.7 1086.51   9
   0  -2  10 17061.6 1034.00  19
   0   2 -10 13740.9 576.149  12
   0  -2  10 15945.0 950.080   2
   0   2 -10 15850.3 1015.73   4
   0  -2  10 17049.1 1102.49  15
   0  -2  10 17100.2 1112.06  20
   0  -2  10 17106.6 801.732  11
   0  -2   9 26123.3 1219.13  19
   0  -2   9 24186.8 908.520  11
   0   2  -9 22952.7 898.269  11
   0   2  -9 22911.2 1294.29   9
   0   2  -9 19907.5 754.883  12
   0  -2   9 24599.2 1245.32  15
   0  -2   9 23842.7 1100.72   2
   0  -2   9 25457.0 1296.62  20
   0  -2   9 23917.1 807.980  16
   0   2  -9 23014.6 1151.60   4
   0  -2   9 24598.3 1278.33   3
   0   2  -8 17509.9 714.146  12
   0   2  -8 16969.8 705.703  11
   0  -2   8 19109.3 1059.19  20
   0  -2   8 16902.2 541.473  10
   0  -2   8 18555.6 718.789  16
   0  -2   8 18555.9 1053.54  15
   0  -2   8 19234.0 997.929  19
   0  -2   8 18798.9 919.781   2
   0  -2   8 16552.9 741.667  13
   0  -2   8 19927.2 1103.77   3
   0  -2   8 17608.6 712.416  11
   0   2  -8 18807.4 961.014   4
   0   2  -8 18490.1 1102.46   9
   0  -2   7 62242.2 1766.28  19
   0  -2   7 65008.4 1967.64   3
   0   2  -7 49136.1 1226.26  11
   0  -2   7 60965.3 1850.28  20
   0  -2   7 57018.1 1380.98  16
   0  -2   7 54717.2 1251.87  11
   0  -2   7 53345.1 1150.27  10
   0  -2   7 63170.1 1886.80  15
   0   2  -7 56545.9 1639.72   4
   0   2  -7 61132.6 1791.39  21
   0  -2   7 60708.7 1622.92   2
   0   2  -7 60155.8 1957.91   9
   0  -2   7 54178.8 1340.79  13
   0   2  -7 58715.9 1414.45  12
   0   2  -6 71903.7 1839.70  21
   0   2  -6 67524.9 1679.69   4
   0  -2   6 72667.3 1986.41  15
   0  -2   6 70241.2 1907.55  20
   0  -2   6 62774.7 1260.27  11
   0  -2   6 70582.8 1693.50   4
   0  -2   6 61294.3 1313.22  10
   0   2  -6 69493.4 2031.03   9
   0  -2   6 70400.9 2022.13   3
   0  -2   6 71338.8 1695.37   2
   0  -2   6 63103.9 1368.16  13
   0   2  -6 73522.4 1610.00  12
   0  -2   6 67341.0 1539.54  16
   0   2  -5 41543.9 1267.06  21
   0  -2   5 37816.8 1101.41  16
   0  -2   5 41993.4 1148.54   2
   0   2  -5 41422.9 1153.71  12
   0  -2   5 40930.3 1164.23   4
   0  -2   5 40386.4 1002.87  10
   0   2  -5 40203.1 1143.86   4
   0  -2   5 41248.2 1384.39  15
   0  -2   5 34178.3 760.535  11
   0  -2   5 36386.2 874.268  13
   0  -2   5 41634.8 1333.26  20
   0  -2   5 39783.1 1432.42   3
   0   2  -5 40371.2 1459.69   9
   0   2  -4 15854.2 638.662   4
   0  -2   4 15971.2 624.414   2
   0  -2   4 11663.2 388.037  13
   0  -2   4 15668.2 804.867   3
   0  -2   4 15304.1 596.572  10
   0  -2   4 15190.1 730.990  20
   0  -2   4 15805.5 790.370  15
   0   2  -4 15527.1 685.030  21
   0   2  -4 14359.0 702.999  19
   0  -2   4 16497.3 663.853   4
   0   2  -4 15136.8 813.553   9
   0  -2   4 15433.3 668.199  16
   0  -2   3 4327.81 293.532   2
   0   2  -3 4976.27 335.639  10
   0  -2   3 3850.29 389.171  15
   0  -2   3 5049.32 385.006  16
   0  -2   3 4822.33 324.464   4
   0   2  -3 4382.67 422.784   9
   0  -2   3 4474.39 361.343  20
   0   2  -3 4049.23 294.004   4
   0  -2   3 4739.76 417.894   3
   0   2  -3 4765.67 341.559  21
   0   2  -3 4272.93 367.678  19
   0  -2   3 4756.62 335.867  10
   0   2  -2 37909.0 1216.12   9
   0  -2   2 36964.7 1018.46  20
   0   2  -2 34754.2 843.414   2
   0  -2   2 38379.5 1146.92   3
   0  -2   2 35787.3 876.771   2
   0  -2   2 37026.7 1135.28  15
   0   2  -2 36647.9 863.327   4
   0  -2   2 37326.5 1006.39  10
   0   2  -2 36029.7 925.617  21
   0   2  -2 39628.7 1030.74  10
   0   2  -2 36015.9 1027.90  20
   0  -2   2 35203.4 841.903   4
   0   2  -1 76654.4 1804.49   9
   0   2  -1 71792.8 1331.65   2
   0  -2   1 76452.0 1633.96   3
   0  -2   1 76963.7 1619.38  15
   0  -2   1 71087.9 1312.58  21
   0  -2   1 70520.6 1289.85   4
   0   2  -1 76539.7 1496.76  20
   0  -2   1 75108.7 1556.52  10
   0   2  -1 70907.3 1299.60   4
   0  -2   1 73974.9 1363.62   2
   0  -2   1 75275.7 1466.64  20
   0   2  -1 69622.4 1299.97  21
   0  -2   0 39938.3 833.361  21
   0   2   0 42509.9 807.831  11
   0   2   0 37706.8 716.394  13
   0   2   0 37557.2 785.661  17
   0   2   0 44416.6 1319.14   9
   0   2   0 44067.4 990.329   2
   0  -2   0 41517.2 1053.55   3
   0  -2   0 39494.9 940.064  20
   0  -2   0 40742.9 806.230  11
   0   2   0 40435.2 939.151  20
   0   2   0 36803.1 817.987  21
   0  -2   0 41481.3 1097.55  10
   0   2   0 38650.5 876.547   4
   0  -2   0 41553.5 1046.94  15
   0   2   1 124016. 1907.87  21
   0   2   1 128500. 1825.35  17
   0  -2  -1 130695. 2062.38  11
   0  -2  -1 133625. 2316.43  10
   0   2   1 127706. 2028.74  20
   0   2   1 130085. 2050.70  11
   0  -2  -1 136170. 2168.89  15
   0   2   1 130829. 1968.14  13
   0   2   1 132563. 2174.97  15
   0  -2  -1 135743. 2558.78   1
   0   2   1 139658. 2191.86   2
   0  -2  -1 125605. 1950.34  21
   0  -2  -2 14058.3 572.307  11
   0   2   2 14293.7 568.859  11
   0  -2  -2 13390.3 676.613   1
   0   2   2 13749.1 528.277  13
   0  -2  -2 13475.9 399.957  17
   0  -2  -2 14588.2 641.610  10
   0  -2  -2 12240.6 444.453  21
   0  -2  -2 12772.9 493.071  15
   0   2   2 13582.3 474.002  21
   0   2   2 14423.9 415.233  17
   0  -2  -3 68734.8 1543.57  10
   0   2   3 65237.5 1399.34   8
   0  -2  -3 68313.6 1681.26   1
   0  -2  -3 66116.8 1207.90  17
   0  -2  -3 68142.1 1322.22  21
   0  -2  -3 61566.0 1207.04  15
   0   2   3 65124.0 1197.20  17
   0  -2  -3 64851.3 1519.05  11
   0   2   3 70027.5 1523.81  11
   0   2   4 129478. 2421.57  18
   0  -2  -4 133033. 2437.71  16
   0  -2  -4 129373. 2188.07  17
   0  -2  -4 136174. 2426.76  10
   0  -2  -4 137919. 2654.45   6
   0   2   4 135146. 2496.55  11
   0  -2  -4 133669. 2328.01  21
   0  -2  -4 137496. 2677.80   1
   0   2   4 132344. 2266.00   8
   0  -2  -5 30962.1 1164.69   1
   0  -2  -5 32339.6 1010.08  16
   0  -2  -5 29857.2 925.101  17
   0  -2  -5 30848.5 1126.34   6
   0  -2  -5 31135.9 936.290   8
   0   2   5 30318.2 1107.36  11
   0   2   5 29195.8 873.772   8
   0   2   5 32063.2 1040.63  18
   0  -2  -5 31717.6 1002.83  10
   0   2   5 28288.8 951.172  10
   0  -2  -6 50235.6 1286.93  16
   0  -2  -6 51084.9 1567.65   1
   0   2   6 45652.9 1261.09  10
   0   2   6 47849.5 1167.92   8
   0   2   6 47680.7 1505.86  11
   0   2   6 49951.1 1397.41  18
   0  -2  -6 49448.0 1247.70   8
   0  -2  -6 46968.8 1320.73  17
   0  -2  -6 47829.0 1291.03  10
   0  -2  -7 52633.2 1475.03  18
   0  -2  -7 62748.4 1439.08  16
   0  -2  -7 59478.0 1758.39   1
   0  -2  -7 57015.7 1554.05  17
   0  -2  -7 53293.7 1398.91  10
   0   2   7 54283.2 1307.06   8
   0   2   7 50458.3 1348.49  10
   0  -2  -7 59822.5 1429.67   8
   0  -2  -7 53464.3 1123.48  15
   0   2   7 54008.3 1398.28  12
   0   2   7 59228.3 1797.25  11
   0   2   7 60273.7 1555.80  18
   0  -2  -8 50721.4 1659.69   1
   0  -2  -8 45844.3 1276.57  10
   0  -2  -8 38794.5 1033.84   3
   0   2   8 51062.1 1443.45  18
   0  -2  -8 47330.2 1499.49  17
   0   2   8 44744.1 1193.73   8
   0  -2  -8 50541.9 1278.66  16
   0  -2  -8 50851.3 1333.18   8
   0  -2  -8 41543.2 1036.91  15
   0   2   8 47962.2 1663.17  11
   0   2   8 42344.6 1197.93  12
   0   2   8 45157.0 1245.64  10
   0  -2  -9 28179.0 977.980  10
   0  -2  -9 32803.4 1367.28   1
   0  -2  -9 32723.9 992.856  16
   0   2   9 25671.5 904.266  12
   0  -2  -9 30942.8 1261.60  17
   0   2   9 29579.7 978.833   8
   0   2   9 31708.9 1184.55  18
   0  -2  -9 27789.5 871.817  15
   0  -2  -9 31766.7 1055.96   8
   0  -2  -9 28578.7 897.826   3
   0   2   9 29514.7 1328.39  11
   0  -2 -10 41646.4 1184.39   3
   0   2  10 52901.9 1900.60  19
   0  -2 -10 48807.0 1310.00  10
   0  -2 -10 43542.5 1177.88  15
   0  -2 -10 45890.9 1648.19  17
   0  -2 -10 45740.9 1718.36   1
   0  -2 -10 41506.3 1146.48  16
   0   2  10 35325.9 1101.45  12
   0   2  10 42587.2 1702.50  11
   0  -2 -10 40562.3 1290.50   8
   0  -2 -11 19403.9 803.414  15
   0  -2 -11 19030.4 889.169   8
   0  -2 -11 22920.3 889.463   3
   0  -2 -11 23422.4 1255.74   1
   0   2  11 21539.1 792.098  12
   0   2  11 20694.1 1223.68  11
   0  -2 -11 23138.0 877.851  10
   0  -2 -11 20993.6 773.611  16
   0  -2 -11 22553.2 1190.36  17
   0   2  11 24875.4 1354.88  19
   0   2  12 42730.9 1840.62  19
   0  -2 -12 38414.2 1015.79  16
   0   2  12 29176.4 917.829  12
   0  -2 -12 32922.0 1233.90   8
   0  -2 -12 36285.6 1130.58  10
   0  -2 -12 34746.1 1629.66   1
   0  -2 -12 36485.4 1610.71  17
   0   2  12 34097.5 1670.22  11
   0  -2 -13 3067.65 248.952  16
   0   2  13 5063.97 668.387  19
   0  -2 -13 4482.38 611.853  17
   0  -2 -13 2941.63 368.754   8
   0  -2 -13 3755.44 349.775  10
   0  -2 -13 3984.67 582.358   1
   0   2  13 3779.90 617.838  11
   0  -2 -14 5822.88 706.412   1
   0  -2 -14 6232.15 740.017  17
   0   2  14 5091.84 726.367  19
   0  -2 -14 4964.85 496.031   8
   0   2  14 5019.56 706.732  11
   0   2  15 1313.40 440.318  11
   0  -2 -15 2163.52 453.909  17
   0  -2 -15 1284.15 271.635   8
   0   2  15 2411.05 515.412  19
   0  -2 -15 2060.37 456.776   1
   0   2  16 1081.94 375.276  11
   0  -2 -16 1047.82 373.634  17
   0   2  16 1035.89 409.113  19
   0  -2 -16 1094.55 375.059   1
   0  -2 -16 1172.27 282.302   8
   0   2  17 273.664 282.504  19
   0  -2 -17 801.663 302.304   1
   0   2  17 121.773 250.752  11
   0  -2 -17 234.620 142.631   8
   0  -2 -17 389.652 251.167  17
   0   2  18 764.054 410.650  19
   0  -2 -18 682.034 319.678  17
   0  -2 -18 771.985 325.495   1
   0   2  18 983.029 401.314  11
   0  -2 -19 44.5100 273.973  17
   0   2  19 208.741 248.461  11
   0  -2 -19 880.908 359.326   1
   0   2  19 146.833 289.100  19
   0   2  20 5808.12 928.957  11
   0  -2 -20 5870.06 905.254   1
   0  -2 -20 6205.71 943.905  17
   0   2  20 6930.99 1011.75  19
   0   3 -18 3414.06 672.712   8
   0   3 -18 4501.73 797.334  21
   0  -3  17 690.823 370.899  20
   0   3 -17 1079.64 414.706  21
   0  -3  17 947.321 387.549  15
   0  -3  17 383.644 298.706   3
   0   3 -17 814.344 355.630   8
   0   3 -17 423.707 285.006   9
   0   3 -17 1353.50 490.324  17
   0  -3  16 220.032 197.858   2
   0   3 -16-124.047 222.749   9
   0   3 -16-9.88160 203.338  21
   0  -3  16-255.463 237.619   3
   0  -3  16 33.7801 240.042  20
   0  -3  16 244.250 243.719  15
   0   3 -16-4.74897 171.179   8
   0  -3  15-276.929 284.513  20
   0  -3  15 343.912 221.017  15
   0   3 -15 3.49785 201.457   9
   0   3 -15-191.931 248.814  21
   0   3 -15-77.7918 175.938   8
   0  -3  15 244.940 190.348   2
   0  -3  15 432.757 341.818   3
   0  -3  14 270.165 228.459  20
   0  -3  14 597.789 266.003   2
   0   3 -14 303.674 219.530   8
   0   3 -14 283.969 217.423  21
   0  -3  14 144.743 212.804   3
   0   3 -14 543.285 303.357   9
   0  -3  14 484.786 293.942  15
   0  -3  13 1064.69 324.863   3
   0   3 -13 1062.16 378.349   9
   0  -3  13 1065.19 338.234  20
   0  -3  13 1087.57 288.506   2
   0  -3  13 1149.93 349.927  15
   0   3 -13 848.378 344.155  21
   0   3 -13 1391.64 392.001   8
   0  -3  12 5875.94 749.865  15
   0  -3  12 5321.53 608.471   2
   0  -3  12 5723.15 765.229   3
   0   3 -12 4655.02 693.696   9
   0  -3  12 5604.12 716.446  20
   0   3 -12 7044.17 794.197  21
   0   3 -11 8214.93 802.748  21
   0  -3  11 6699.37 511.219  16
   0   3 -11 5856.32 780.722   9
   0  -3  11 7863.56 872.119   3
   0  -3  11 7334.85 666.227   2
   0  -3  11 6652.41 765.267  20
   0  -3  11 7967.95 848.688  15
   0  -3  10 30654.6 1611.67  15
   0   3 -10 27035.1 1589.81   9
   0  -3  10 30092.8 923.390  11
   0   3 -10 29613.7 1411.65   4
   0  -3  10 30214.2 1539.61  20
   0   3 -10 33751.4 1571.82  21
   0  -3  10 29656.3 1639.92   3
   0  -3  10 31474.7 1166.14  16
   0  -3  10 30487.0 1330.30   2
   0  -3   9 3330.32 474.661  20
   0   3  -9 3095.63 545.818   9
   0  -3   9 3278.07 404.668   2
   0  -3   9 3131.95 251.607  11
   0  -3   9 3256.47 552.300  15
   0  -3   9 3196.77 554.768   3
   0   3  -9 3938.25 503.303  21
   0  -3   9 3491.44 313.326  10
   0  -3   9 3395.91 377.320  16
   0   3  -9 3585.81 454.567   4
   0  -3   8 1929.73 222.386  13
   0  -3   8 2803.10 434.904  20
   0  -3   8 2204.41 183.279  11
   0   3  -8 2285.56 350.100   4
   0  -3   8 2298.26 305.861   2
   0   3  -8 2742.27 405.309  21
   0  -3   8 2199.64 257.646  10
   0  -3   8 2569.81 340.828  16
   0  -3   8 2171.48 409.657  15
   0   3  -8 1705.53 422.091   9
   0  -3   8 2337.66 455.353   3
   0  -3   7 2306.21 206.528  14
   0  -3   7 2797.02 300.949  10
   0   3  -7 3265.45 426.010  21
   0  -3   7 3262.16 379.562  16
   0  -3   7 2387.76 212.285  13
   0  -3   7 2861.36 483.892  15
   0  -3   7 3177.41 507.230   3
   0  -3   7 2977.46 423.753  20
   0   3  -7 2993.91 489.199   9
   0   3  -7 2574.42 338.323   4
   0  -3   7 3163.50 358.571   2
   0  -3   6 1208.84 122.901  14
   0  -3   6 1823.27 299.287  16
   0  -3   6 1388.85 129.729  13
   0  -3   6 1509.26 231.400  10
   0   3  -6 1556.44 364.078   9
   0  -3   6 1892.21 364.889   3
   0  -3   6 2034.46 272.526   2
   0   3  -6 1860.68 306.219  21
   0  -3   6 1558.18 298.591  20
   0  -3   6 1499.69 331.398  15
   0   3  -6 1599.92 261.842   4
   0   3  -5 2735.96 435.630   9
   0  -3   5 2804.32 360.648  16
   0  -3   5 3098.07 331.126   4
   0  -3   5 2911.90 422.339  15
   0  -3   5 2721.47 313.508  10
   0  -3   5 2790.81 300.719   2
   0   3  -5 2994.75 348.128  21
   0  -3   5 2736.79 368.879  20
   0  -3   5 2614.33 412.683   3
   0   3  -5 2909.66 318.861   4
   0  -3   4 6258.20 613.588   3
   0  -3   4 6756.45 435.824   4
   0  -3   4 7679.35 482.891   2
   0  -3   4 6060.46 531.233  16
   0  -3   4 7094.17 544.438  20
   0   3  -4 7034.51 660.612   9
   0   3  -4 6474.70 444.878   4
   0  -3   4 7029.44 500.958  10
   0   3  -4 7152.00 503.217  21
   0  -3   4 6330.22 590.497  15
   0  -3   3 17105.1 677.379   4
   0   3  -3 16600.8 659.735   4
   0  -3   3 17097.4 796.717  10
   0  -3   3 16027.2 878.559  15
   0  -3   3 17418.7 693.679   2
   0  -3   3 16336.7 858.062  16
   0   3  -3 15377.8 640.401   2
   0  -3   3 16988.6 913.723   3
   0   3  -3 16616.2 959.211   9
   0  -3   3 16374.3 796.354  20
   0   3  -3 16547.1 728.061  21
   0   3  -2 15137.5 599.974   4
   0  -3   2 13791.1 572.373   4
   0  -3   2 14607.7 807.569  16
   0  -3   2 14156.8 612.330   2
   0  -3   2 14638.5 705.816  20
   0   3  -2 14290.4 889.952   9
   0   3  -2 14412.1 587.431   2
   0  -3   2 15244.8 822.704   3
   0  -3   2 14844.0 804.198  15
   0   3  -2 13606.3 601.929  21
   0   3  -2 14584.5 712.057  20
   0  -3   2 14915.7 748.120  10
   0   3  -1 31139.0 905.447   2
   0   3  -1 28662.9 838.611   4
   0   3  -1 31991.7 1326.69   9
   0  -3   1 28526.5 815.365  21
   0  -3   1 31042.6 1136.18   3
   0  -3   1 32292.8 960.936   2
   0   3  -1 30062.4 836.089  21
   0   3  -1 32385.3 1024.20  20
   0  -3   1 29638.6 996.720  20
   0  -3   1 28836.0 1096.53  15
   0  -3   1 30347.1 1095.50  10
   0   3   0 21547.0 1076.57   9
   0   3   0 21222.0 694.559   4
   0  -3   0 19923.7 841.590   3
   0  -3   0 19050.4 746.327  20
   0   3   0 18586.1 588.304  17
   0  -3   0 19952.9 598.382  11
   0   3   0 21483.5 770.008   2
   0   3   0 20376.1 749.793  20
   0   3   0 18377.1 510.436  13
   0   3   0 19856.8 602.318  11
   0  -3   0 19053.6 611.872  21
   0   3   0 19918.1 620.499  21
   0  -3   0 18342.8 872.246  10
   0  -3   0 19558.3 832.500  15
   0   3   1 25057.7 1155.08   9
   0   3   1 24921.1 775.565  11
   0   3   1 26762.7 895.244   2
   0   3   1 23841.7 773.826   4
   0  -3  -1 22190.6 673.818  21
   0   3   1 22878.9 769.304  20
   0   3   1 24548.9 914.407  15
   0   3   1 21212.6 594.127  17
   0  -3  -1 24080.0 984.929  10
   0   3   1 22083.1 661.415  21
   0  -3  -1 24256.8 760.408  11
   0  -3  -1 23853.0 876.587  15
   0  -3  -1 24150.5 883.066   3
   0   3   1 21486.2 667.193  13
   0  -3  -2 47322.0 1224.38  11
   0   3   2 48095.9 1058.23  21
   0  -3  -2 42966.6 1051.93  21
   0   3   2 45563.9 1137.29  13
   0  -3  -2 42288.0 877.147  17
   0   3   2 43994.5 1110.93  20
   0  -3  -2 47293.0 1233.33  15
   0  -3  -2 44610.3 1401.84  10
   0   3   2 43756.0 1213.24  11
   0   3   2 50543.6 1317.57   2
   0   3   2 46369.5 902.026  17
   0  -3  -2 46985.4 1594.49   1
   0  -3  -2 44434.8 1210.53   3
   0  -3  -3 84529.3 1637.30  21
   0   3   3 92724.9 1867.16  13
   0  -3  -3 93358.1 2341.60   1
   0  -3  -3 93397.8 1782.01  15
   0   3   3 84014.0 1446.60  17
   0   3   3 84700.5 1918.31  11
   0  -3  -3 84964.1 1480.56  17
   0  -3  -3 90678.8 2105.34  10
   0  -3  -4 53451.2 1578.07  10
   0   3   4 49791.2 1495.84  11
   0  -3  -4 55078.4 1177.82  17
   0  -3  -4 54733.2 1769.39   1
   0   3   4 52168.7 1442.58   8
   0   3   4 52345.4 1442.17  13
   0  -3  -4 51267.2 1276.84  21
   0  -3  -4 48946.6 1224.47  15
   0  -3  -5 13214.1 754.752  10
   0  -3  -5 13611.1 648.825  21
   0   3   5 12962.7 667.731   8
   0  -3  -5 13277.9 873.781   1
   0  -3  -5 13414.2 792.635  16
   0   3   5 13112.0 783.664  11
   0  -3  -5 13294.1 574.795  17
   0  -3  -5 11675.7 527.784  15
   0   3   5 13058.9 860.192   6
   0   3   6 62334.0 1792.12  18
   0   3   6 65447.7 1997.31   6
   0  -3  -6 65291.8 1666.81  21
   0   3   6 64159.2 1617.94   8
   0  -3  -6 61373.9 1741.83  10
   0   3   6 57822.6 1814.73  11
   0  -3  -6 65444.0 2027.32   1
   0  -3  -6 65461.1 1559.52  17
   0  -3  -6 62848.7 1787.51  16
   0   3   7 1927.51 259.299   8
   0   3   7 2181.64 337.060  18
   0  -3  -7 2318.60 404.060   1
   0   3   7 2197.44 401.178  11
   0  -3  -7 2091.18 319.734  16
   0   3   7 2408.24 374.105   6
   0  -3  -7 1949.09 310.340  10
   0  -3  -7 1903.43 280.822  17
   0  -3  -8 2844.08 364.949  10
   0  -3  -8 3163.17 380.698  16
   0  -3  -8 2832.70 362.692  17
   0   3   8 3288.80 425.241  18
   0  -3  -8 2836.43 463.576   1
   0   3   8 2810.92 433.830  11
   0  -3  -9 6748.79 555.735  10
   0  -3  -9 6852.11 531.135   8
   0   3   9 7731.69 627.941  18
   0  -3  -9 6991.31 695.729   1
   0   3   9 6819.22 686.637  11
   0   3   9 8030.87 735.783  19
   0  -3  -9 6968.36 593.552  17
   0  -3  -9 7046.19 565.650  16
   0  -3  -9 5665.03 338.879  15
   0   3  10 2465.43 466.168  11
   0  -3 -10 3168.66 363.353   8
   0   3  10 3194.26 501.856  19
   0  -3 -10 2892.07 405.375  17
   0  -3 -10 2685.25 360.590  16
   0   3  10 3295.11 431.905  18
   0  -3 -10 2770.58 365.973  10
   0  -3 -10 2316.82 226.174  15
   0  -3 -10 2196.00 231.572   3
   0  -3 -10 2695.42 453.880   1
   0  -3 -11 7833.84 788.243   1
   0   3  11 8334.88 689.343  18
   0  -3 -11 6544.76 418.200   3
   0   3  11 7313.63 798.126  11
   0  -3 -11 6894.24 567.004  16
   0  -3 -11 9599.79 670.781  10
   0  -3 -11 6348.31 404.285  15
   0  -3 -11 6783.91 551.700   8
   0   3  11 8693.79 841.316  19
   0  -3 -11 7646.46 693.809  17
   0  -3 -12 37522.4 1405.60   8
   0  -3 -12 41055.8 1865.87   1
   0  -3 -12 43927.4 1488.15  10
   0   3  12 40028.5 1612.80  18
   0   3  12 43030.4 1971.83  19
   0  -3 -12 36269.4 1303.45  16
   0  -3 -12 39898.7 1683.70  17
   0   3  12 39670.2 1892.04  11
   0   3  13 24638.2 1530.19  11
   0   3  13 27689.8 1605.52  19
   0  -3 -13 24480.3 1098.55  10
   0  -3 -13 24507.2 1031.07  16
   0  -3 -13 25745.2 1397.55  17
   0  -3 -13 22994.8 1114.62   8
   0  -3 -13 25311.0 1497.54   1
   0  -3 -14 5003.57 485.902  10
   0   3  14 6476.82 820.786  11
   0  -3 -14 5331.23 542.283   8
   0  -3 -14 5059.79 658.355  17
   0  -3 -14 5485.83 724.851   1
   0   3  14 7164.23 843.927  19
   0   3  15 828.655 325.214  19
   0  -3 -15 485.918 282.213  17
   0  -3 -15 413.106 156.312  10
   0  -3 -15 627.645 304.203   1
   0  -3 -15 788.251 238.861   8
   0   3  15 385.944 291.733  11
   0   3  16 595.368 346.380  11
   0  -3 -16 324.718 242.567   1
   0   3  16 671.316 360.252  19
   0  -3 -16 700.661 231.996  17
   0   3  17 171.657 199.660  19
   0  -3 -17 481.911 297.222   1
   0   3  17 416.230 298.906  11
   0  -3 -17 360.749 288.797  17
   0   3  18-18.4433 194.923  11
   0  -3 -18 262.469 191.834  17
   0  -3 -18 129.099 208.836   1
   0   3  18 638.100 345.268  19
   0   3  19 2089.13 603.788  11
   0   3  19 2768.41 624.566  19
   0  -3 -19 2341.12 577.547  17
   0  -3 -19 1809.39 536.673   1
   0  -3 -20 1976.95 564.489  17
   0   3  20 3021.93 714.256  19
   0  -3 -20 2422.12 626.982   1
   0   3  20 2296.48 623.433  11
   0   4 -17-36.5895 187.988  21
   0   4 -16 1033.25 413.078   8
   0   4 -16 1134.22 440.592  17
   0  -4  16 558.297 323.952  20
   0   4 -16 1397.51 463.746  21
   0  -4  15-130.109 205.043   3
   0   4 -15 296.631 257.860   8
   0  -4  15-188.022 264.541  20
   0   4 -15 296.659 279.596  21
   0  -4  15 84.9837 218.176  15
   0   4 -15 69.8286 173.039   9
   0   4 -14 400.358 276.303   8
   0   4 -14 366.232 223.504  21
   0   4 -14-85.0131 194.509   9
   0  -4  14 813.498 379.836  15
   0  -4  14 558.239 249.720   3
   0  -4  14 189.766 197.478  20
   0  -4  13 15.9269 198.825   3
   0  -4  13 631.840 318.784  15
   0   4 -13 403.880 192.446  21
   0  -4  13-202.090 208.809  20
   0   4 -13 300.134 283.633   9
   0  -4  12 1353.68 428.063  15
   0  -4  12 1297.31 388.047  20
   0   4 -12 1238.31 357.259  21
   0  -4  12 1017.15 354.440   3
   0   4 -12 716.881 264.576   9
   0  -4  11 636.902 225.638   2
   0   4 -11 340.537 211.949  21
   0   4 -11-165.288 225.694   9
   0  -4  11 197.578 214.211   3
   0  -4  11-12.1212 202.075  15
   0  -4  11 278.429 214.723  20
   0   4 -10 5430.70 786.100   9
   0   4 -10 8038.23 780.645  21
   0  -4  10 5852.94 573.456   2
   0  -4  10 7348.19 854.880   3
   0   4 -10 5613.41 611.268   4
   0  -4  10 5420.27 730.671  15
   0  -4  10 5657.56 708.111  20
   0  -4  10 6421.00 612.694  16
   0  -4   9 5483.38 740.157   3
   0   4  -9 7198.27 702.686  21
   0  -4   9 5468.59 656.424  20
   0   4  -9 4993.45 708.531   9
   0  -4   9 5120.89 471.496  10
   0  -4   9 5681.41 545.433   2
   0  -4   9 6373.42 631.088  16
   0   4  -9 5632.30 577.801   4
   0  -4   9 5916.57 756.142  15
   0   4  -8 2995.71 404.931   4
   0   4  -8 2528.10 493.222   9
   0   4  -8 4012.09 509.068  21
   0  -4   8 3120.05 562.802   3
   0  -4   8 3678.43 566.719  15
   0  -4   8 3078.96 440.920  16
   0  -4   8 3302.60 394.628  10
   0  -4   8 3667.71 419.922   2
   0  -4   8 3687.48 531.407  20
   0  -4   7 4590.21 454.576   2
   0   4  -7 5682.70 561.570  21
   0  -4   7 4732.64 566.980  20
   0  -4   7 5131.21 632.441  15
   0  -4   7 4261.79 605.784   3
   0   4  -7 4932.60 478.624   4
   0  -4   7 4467.41 509.998  16
   0   4  -7 3982.14 629.313   9
   0  -4   7 4538.78 457.568  10
   0  -4   6 8042.96 632.638  10
   0   4  -6 9660.46 923.891   9
   0  -4   6 9781.98 842.493  15
   0  -4   6 9651.86 873.820   3
   0   4  -6 11051.1 758.801  21
   0  -4   6 9636.23 753.090  16
   0  -4   6 9485.37 767.544  20
   0  -4   6 9448.93 637.085   2
   0   4  -6 8308.35 597.034   4
   0  -4   5 2271.85 369.442  20
   0  -4   5 2394.18 301.317   2
   0   4  -5 1850.54 286.924   4
   0  -4   5 1574.88 255.998   4
   0  -4   5 2023.74 422.219   3
   0  -4   5 2050.56 381.093  15
   0   4  -5 2073.86 458.450   9
   0  -4   5 1821.79 294.061  10
   0  -4   5 2223.40 376.579  16
   0   4  -5 2353.20 346.453  21
   0  -4   4 422.040 213.702   3
   0   4  -4 758.178 179.308   4
   0   4  -4 1016.08 361.524   9
   0   4  -4 746.750 195.087  21
   0  -4   4 829.345 248.082  15
   0  -4   4 714.599 171.980   2
   0  -4   4 854.963 180.059   4
   0  -4   4 658.953 257.407  16
   0  -4   4 724.958 231.240  10
   0  -4   4 608.631 198.099  20
   0   4  -3 1774.05 237.096   2
   0  -4   3 1579.93 270.379  10
   0   4  -3 2072.84 424.241   9
   0  -4   3 1891.23 356.111  15
   0  -4   3 1794.81 323.839  16
   0   4  -3 1837.86 240.334   4
   0  -4   3 1945.81 313.696  20
   0  -4   3 1868.70 353.446   3
   0  -4   3 1798.92 259.058   2
   0   4  -3 2066.83 272.598  21
   0  -4   3 1819.27 221.427   4
   0  -4   2 1522.20 294.039   3
   0  -4   2 2100.20 356.578  15
   0   4  -2 1726.70 227.293   4
   0   4  -2 1906.03 240.988   2
   0   4  -2 1864.37 385.940   9
   0  -4   2 1876.22 269.976   2
   0  -4   2 1648.30 321.638  16
   0   4  -2 1935.79 247.975  21
   0  -4   2 1960.60 305.641  10
   0  -4   2 2070.68 297.993  20
   0   4  -1 10940.1 597.073   2
   0   4  -1 11244.7 892.712   9
   0  -4   1 11462.7 826.185  16
   0   4  -1 9851.57 501.178  21
   0   4  -1 10042.0 542.816   4
   0  -4   1 10367.2 730.792   3
   0  -4   1 10473.8 735.534  15
   0  -4   1 10097.7 713.174  10
   0  -4   1 9511.22 612.151  20
   0   4  -1 8222.06 462.784  17
   0  -4   1 9577.71 494.013  21
   0  -4   1 8674.40 358.139  11
   0  -4   0 3169.79 258.819  21
   0   4   0 2956.23 257.380  17
   0   4   0 3670.21 355.065  20
   0   4   0 2543.94 189.516  13
   0  -4   0 3664.10 415.781   3
   0   4   0 3310.77 301.119   4
   0   4   0 4022.15 371.114   2
   0  -4   0 3259.13 413.222  10
   0   4   0 3282.46 469.346   9
   0  -4   0 3185.74 243.545  11
   0   4   0 3118.91 262.399  11
   0   4   0 3181.64 265.101  21
   0  -4   0 3442.92 405.000  15
   0   4   0 3020.92 200.057  14
   0   4   1 19145.5 793.795   4
   0   4   1 19654.7 610.945  17
   0  -4  -1 20735.7 946.994  15
   0  -4  -1 20577.9 1055.76  10
   0   4   1 22563.4 930.924   2
   0   4   1 21327.6 694.675  13
   0   4   1 21524.8 841.412  20
   0  -4  -1 20515.4 697.143  21
   0   4   1 23265.8 1301.51   9
   0   4   1 21682.6 791.179  11
   0  -4  -1 20534.0 752.231  11
   0   4   1 20071.8 678.905  21
   0  -4  -1 21170.5 971.246   3
   0   4   2 60127.3 1521.43   4
   0   4   2 64566.2 1608.23  11
   0  -4  -2 65022.3 1723.00   3
   0   4   2 60593.9 1458.90  13
   0  -4  -2 60678.7 1376.08  21
   0  -4  -2 64501.5 1574.17  11
   0   4   2 62010.6 1167.83  17
   0  -4  -2 63768.7 1693.94  15
   0   4   2 62606.3 1508.18  20
   0  -4  -2 58719.5 1908.37  10
   0   4   2 67976.1 1393.71  21
   0  -4  -3 6620.03 494.059  15
   0  -4  -3 5891.69 394.110  21
   0  -4  -3 7492.31 641.002  10
   0  -4  -3 7004.17 510.316   3
   0  -4  -3 6438.63 658.661   1
   0   4   3 6664.64 435.446  20
   0   4   3 6931.08 684.597   6
   0   4   3 6251.67 470.686  13
   0   4   3 7124.12 539.138  11
   0   4   3 6279.30 307.779  17
   0  -4  -4 8986.00 511.766  21
   0  -4  -4 9049.95 553.643  15
   0  -4  -4 8433.65 398.993  17
   0   4   4 10634.4 863.258   6
   0  -4  -4 9456.99 834.091   1
   0  -4  -4 10322.2 768.492  16
   0   4   4 8868.20 520.927  20
   0  -4  -4 9557.42 563.915   3
   0  -4  -4 9538.04 719.361  10
   0   4   4 9773.64 667.964  11
   0  -4  -5 772.175 182.856  21
   0  -4  -5 1103.42 167.511  17
   0  -4  -5 1223.76 325.234   1
   0  -4  -5 1216.09 269.980  10
   0   4   5 1134.75 271.664  11
   0   4   5 1249.10 319.796   6
   0  -4  -5 1061.03 193.032  15
   0  -4  -5 1108.79 280.950  16
   0  -4  -6 4010.75 562.087   1
   0  -4  -6 2729.13 304.044  15
   0  -4  -6 3201.62 306.738  17
   0   4   6 3140.88 452.394  11
   0   4   6 2762.96 462.075   5
   0  -4  -6 3494.44 475.400  16
   0   4   6 3112.02 466.800  19
   0  -4  -6 3232.59 439.191  10
   0   4   6 3316.97 529.134   6
   0   4   7 6449.38 700.973   5
   0  -4  -7 6054.41 680.539   1
   0  -4  -7 4522.43 364.000  15
   0   4   7 5093.42 579.430  11
   0  -4  -7 5629.31 583.970  10
   0   4   7 5718.28 646.340   6
   0  -4  -7 5581.81 605.512  16
   0  -4  -7 5625.36 450.040  17
   0   4   7 5562.70 585.913  18
   0   4   7 5470.77 631.092  19
   0   4   8 725.745 280.460  19
   0  -4  -8 429.389 174.325  17
   0  -4  -8 592.871 234.029  10
   0   4   8 482.599 238.094  11
   0  -4  -8 664.845 223.635  16
   0   4   8 544.928 272.103   5
   0   4   8 323.190 226.831  18
   0  -4  -8 281.705 103.859  15
   0   4   8 814.475 317.123   6
   0  -4  -8 352.888 244.582   1
   0  -4  -9 4230.35 520.683  10
   0   4   9 5266.03 586.417  18
   0  -4  -9 5345.98 511.574  17
   0   4   9 5418.07 658.884  19
   0   4   9 5145.02 641.587  11
   0   4   9 6481.37 731.859   5
   0  -4  -9 5810.87 597.265  16
   0  -4  -9 5233.47 677.789   1
   0  -4  -9 4605.82 339.471  15
   0   4  10 5026.20 643.793  19
   0  -4 -10 3784.13 508.147  16
   0   4  10 3752.34 571.820  11
   0  -4 -10 4088.98 508.992  10
   0  -4 -10 4208.09 614.612   1
   0  -4 -10 4305.06 482.111  17
   0   4  10 4111.83 524.054  18
   0  -4 -11 6457.98 755.853   1
   0   4  11 7305.88 709.643  18
   0  -4 -11 6645.97 643.070  17
   0  -4 -11 6529.68 652.220  16
   0  -4 -11 6912.19 674.557  10
   0   4  11 6356.46 768.885  19
   0   4  11 6953.13 814.026  11
   0  -4 -12 9277.54 764.906  16
   0  -4 -12 10576.5 1018.48   1
   0  -4 -12 10789.1 857.102  17
   0   4  12 10748.9 883.437  18
   0   4  12 11783.8 1068.16  19
   0  -4 -12 10834.8 819.847  10
   0   4  12 9645.68 974.225  11
   0  -4 -13 844.452 262.005  10
   0   4  13 775.108 269.607  18
   0  -4 -13 557.811 288.986   1
   0  -4 -13 957.751 330.318  17
   0   4  13 356.672 255.842  11
   0   4  13 1195.42 357.723  19
   0  -4 -13 611.241 224.290  16
   0   4  14 2183.10 559.857  11
   0  -4 -14 2762.88 476.013  17
   0   4  14 1983.64 390.930  18
   0  -4 -14 1921.46 352.591  10
   0  -4 -14 2212.65 514.040   1
   0   4  14 2519.29 562.335  19
   0  -4 -14 2647.38 405.093  16
   0   4  15 2432.79 599.586  11
   0  -4 -15 3851.55 604.495  17
   0  -4 -15 2808.52 585.690   1
   0  -4 -15 3326.45 466.155  10
   0   4  15 2921.22 594.711  19
   0   4  16-108.711 232.188  11
   0   4  16 344.148 286.683  19
   0  -4 -16 498.346 276.377  17
   0  -4 -16 232.610 190.422   1
   0  -4 -17 48.5215 173.383  17
   0   4  17 118.290 228.757  19
   0   4  17-175.721 242.184  11
   0  -4 -17 137.447 204.669   1
   0   4  18 930.709 429.146  11
   0  -4 -18 758.267 326.201  17
   0   4  18 990.284 407.764  19
   0  -4 -18 123.100 209.307   1
   0  -4 -19-30.6059 243.030  17
   0  -4 -19 322.627 264.120   1
   0   4  19 185.458 217.781  19
   0   4  19 148.170 232.237  11
   0  -4 -20 169.105 273.061  17
   0   5 -15 354.936 348.624  17
   0  -5  14 993.589 401.738  20
   0   5 -14 537.437 303.259  17
   0  -5  13 1324.40 474.391  15
   0  -5  13 1246.08 493.128   3
   0  -5  13 798.671 333.683  20
   0   5 -13 749.639 415.691   9
   0  -5  12 782.323 363.537  15
   0   5 -12 190.436 221.843   9
   0  -5  12 563.050 328.265   3
   0  -5  12 118.044 183.062  20
   0   5 -11 272.253 185.742  21
   0  -5  11 445.983 319.260  15
   0  -5  11 172.400 259.527   3
   0   5 -11-189.682 236.661   9
   0  -5  11-185.195 173.224  20
   0   5 -10 2122.53 439.931  21
   0  -5  10 1537.19 360.462  16
   0  -5  10 1592.54 449.309  15
   0  -5  10 890.892 291.714  20
   0  -5  10 300.231 240.016   3
   0   5 -10 480.729 271.301   9
   0   5  -9 2223.72 423.102  21
   0   5  -9 1775.22 517.475   9
   0  -5   9 1356.26 345.728  20
   0  -5   9 1466.56 406.735  15
   0  -5   9 2102.45 419.307  16
   0  -5   9 1606.29 439.046   3
   0  -5   8 363.658 179.704  10
   0   5  -8 0.38619 153.928  21
   0  -5   8 16.3458 166.360  20
   0   5  -8-9.74740 215.209   9
   0  -5   8 27.8187 200.894  15
   0  -5   8 350.192 257.540   3
   0  -5   8 51.5137 147.250  16
   0  -5   7 26479.8 1436.02  16
   0  -5   7 23882.3 1379.71  20
   0  -5   7 24111.4 1504.15  15
   0   5  -7 25065.0 1270.02  21
   0  -5   7 25613.4 1601.07   3
   0   5  -7 21848.8 1558.67   9
   0  -5   7 22982.1 1176.60  10
   0  -5   6 51017.9 2000.41  16
   0   5  -6 44574.6 1465.42   4
   0  -5   6 45993.4 1554.67   2
   0  -5   6 49313.9 2115.74  15
   0  -5   6 49751.6 2173.17   3
   0  -5   6 49812.4 1950.85  20
   0  -5   6 43898.8 1682.21  10
   0   5  -6 46997.1 2273.31   9
   0   5  -6 51098.6 1764.12  21
   0  -5   5 4993.60 592.637  20
   0   5  -5 4431.89 690.894   9
   0   5  -5 5201.06 527.210  21
   0  -5   5 4325.48 514.993  10
   0  -5   5 5760.47 674.541  16
   0   5  -5 3830.32 395.778   4
   0  -5   5 4374.05 633.138   3
   0  -5   5 5417.44 675.990  15
   0  -5   5 5286.41 483.774   2
   0   5  -4 3622.90 638.882   9
   0  -5   4 4114.54 449.461   2
   0  -5   4 3585.99 530.181   3
   0  -5   4 3340.32 525.217  15
   0   5  -4 3286.46 360.300   4
   0  -5   4 3367.60 507.396  16
   0  -5   4 3532.75 473.626  10
   0   5  -4 3365.01 394.598  21
   0  -5   4 3271.32 457.852  20
   0  -5   3 9570.94 842.629  15
   0  -5   3 8887.71 749.511  10
   0   5  -3 10456.1 1007.28   9
   0  -5   3 10510.9 887.429  16
   0  -5   3 9880.86 751.284  20
   0  -5   3 10122.5 876.076   3
   0   5  -3 8524.82 547.180   4
   0   5  -3 9910.75 631.063  21
   0   5  -2 10753.3 610.655  21
   0  -5   2 10481.2 741.432  20
   0  -5   2 12052.3 931.803  16
   0   5  -2 13105.5 1124.68   9
   0   5  -2 9922.46 574.472   4
   0  -5   2 11189.3 847.455  10
   0  -5   2 10856.1 864.514  15
   0  -5   2 10516.4 843.053   3
   0  -5   1 18643.1 963.344  20
   0  -5   1 22585.3 1289.15  16
   0  -5   1 19497.5 1114.05   3
   0  -5   1 19962.3 1132.19  15
   0   5  -1 19062.9 1339.37   9
   0   5  -1 19832.9 781.695  21
   0  -5   1 20526.9 1159.57  10
   0   5  -1 19363.9 842.161   4
   0   5   0 22591.5 1429.01   9
   0  -5   0 22686.8 1160.99  15
   0   5   0 16700.4 446.440  14
   0  -5   0 19885.5 690.919  11
   0   5   0 18071.9 650.796  17
   0   5   0 20054.8 842.673   4
   0   5   0 16484.2 455.019  13
   0  -5   0 21258.0 748.533  21
   0   5   0 16869.3 458.057  14
   0  -5   0 21451.8 1198.43  10
   0  -5   0 25181.6 1378.53  16
   0   5   0 20617.1 759.180  21
   0  -5   0 21961.0 1149.10   3
   0   5   1 349.507 124.325  21
   0  -5  -1 316.509 103.414  21
   0   5   1 795.793 142.185  13
   0   5   1 1074.45 373.505   9
   0   5   1 622.971 182.820   4
   0   5   1 715.447 180.220  11
   0  -5  -1 1583.92 370.051   3
   0   5   1 164.502 70.0931  17
   0  -5  -1 1641.37 476.469  16
   0  -5  -1 1665.54 375.621  15
   0  -5  -1 839.089 173.231  11
   0  -5  -1 1416.95 383.296  10
   0  -5  -2 75232.3 2114.62   3
   0   5   2 69393.0 1835.39   4
   0   5   2 72171.7 1858.60  11
   0   5   2 71621.4 1648.01  13
   0  -5  -2 73591.8 2076.36  15
   0   5   2 75415.4 1598.45  21
   0  -5  -2 80861.1 2539.71  16
   0   5   2 70245.7 1279.40  17
   0  -5  -2 75438.6 2343.99  10
   0   5   2 82504.0 2805.66   9
   0  -5  -2 78137.4 1603.29  21
   0  -5  -2 70526.0 1764.97  11
   0   5   3 3137.47 383.932  11
   0   5   3 2050.84 147.122  17
   0   5   3 3679.76 574.583   6
   0  -5  -3 2989.88 391.922  15
   0  -5  -3 3733.09 588.468  16
   0   5   3 2302.62 300.964   4
   0  -5  -3 3016.45 397.745   3
   0  -5  -3 1807.52 222.167  21
   0   5   3 3266.98 564.905   9
   0  -5  -3 3685.78 519.123  10
   0  -5  -4 10927.0 704.006  15
   0  -5  -4 12011.6 1034.08   1
   0  -5  -4 12088.3 944.363  16
   0  -5  -4 10250.3 690.278   3
   0   5   4 10648.7 745.945  11
   0  -5  -4 11094.5 870.105  10
   0   5   4 12046.4 1034.65   6
   0  -5  -4 10762.2 594.063  21
   0  -5  -5 1313.15 254.852   3
   0  -5  -5 556.967 147.439  21
   0  -5  -5 1131.43 338.351   1
   0  -5  -5 1265.07 344.562  16
   0   5   5 1326.54 327.518   5
   0  -5  -5 1195.34 235.245  15
   0  -5  -5 1233.59 333.933  10
   0  -5  -5 756.076 131.557  17
   0   5   5 797.995 273.867   6
   0   5   5 1288.29 296.120  11
   0  -5  -6 7759.91 448.536  17
   0  -5  -6 9809.35 871.219  16
   0  -5  -6 8407.98 576.825  15
   0   5   6 9672.10 936.245   6
   0  -5  -6 9090.73 805.930  10
   0   5   6 8899.65 756.183  11
   0  -5  -6 8320.15 576.173   3
   0  -5  -6 10178.5 987.011   1
   0   5   6 7881.97 863.969   5
   0   5   6 9754.43 871.268  19
   0   5   7 37595.8 1787.66  19
   0   5   7 41918.4 2003.69   6
   0  -5  -7 29869.5 1027.95  17
   0  -5  -7 36019.6 1678.98  16
   0   5   7 37008.4 1915.59   5
   0   5   7 34446.1 1611.21  11
   0  -5  -7 33269.7 1569.49  10
   0  -5  -7 37871.4 1933.26   1
   0   5   7 39437.7 1771.81  18
   0  -5  -7 32314.2 1121.62  15
   0  -5  -7 33170.1 1146.86   3
   0  -5  -8 1424.02 338.990  10
   0   5   8 1145.42 364.885   6
   0   5   8 1689.90 400.620  11
   0  -5  -8 1281.53 408.296   1
   0   5   8 1800.33 428.544  19
   0  -5  -8 1145.49 215.978  17
   0  -5  -8 1263.89 216.251  15
   0  -5  -8 1255.07 215.907   3
   0   5   8 1838.76 435.400   5
   0  -5  -8 1305.14 357.613  16
   0   5   8 1750.76 408.125  18
   0   5   9 12337.2 1103.79   5
   0   5   9 10614.1 1024.80  19
   0  -5  -9 9780.11 674.951  17
   0  -5  -9 10807.7 583.251  15
   0   5   9 11669.7 1001.56  18
   0   5   9 12968.6 1116.80   6
   0  -5  -9 11900.1 1103.54   1
   0  -5  -9 10142.3 872.385  10
   0   5   9 10361.2 951.440  11
   0  -5  -9 11716.2 963.204  16
   0   5  10 50170.6 2174.66  11
   0   5  10 56219.2 2328.91  19
   0   5  10 53116.7 2113.18  18
   0  -5 -10 52707.2 2069.26  16
   0   5  10 56089.1 2366.77   6
   0  -5 -10 46361.5 1666.88  17
   0   5  10 58179.2 2485.17   5
   0  -5 -10 52992.1 2396.06   1
   0  -5 -10 46175.0 1975.33  10
   0  -5 -11 13896.0 1238.19   1
   0  -5 -11 14654.8 1054.36  10
   0  -5 -11 13507.8 909.267  17
   0   5  11 15015.2 1232.55  19
   0   5  11 12778.6 1139.41  11
   0  -5 -11 14403.7 1065.73  16
   0   5  11 14906.1 1099.07  18
   0   5  12 5852.07 703.410  18
   0   5  12 5755.71 800.427  19
   0  -5 -12 5446.50 656.513  10
   0  -5 -12 5116.52 583.273  17
   0  -5 -12 5871.03 827.438   1
   0   5  12 3747.80 690.269  11
   0  -5 -12 4861.12 620.316  16
   0  -5 -13 1100.72 316.403  10
   0   5  13 1001.42 370.509  19
   0   5  13 1671.21 405.808  18
   0  -5 -13 1257.57 313.581  16
   0  -5 -13 1754.89 482.306   1
   0  -5 -13 1545.95 370.011  17
   0   5  13 1584.10 430.813  11
   0  -5 -14 542.072 258.614  10
   0  -5 -14 790.595 282.181  16
   0   5  14 405.565 345.861  11
   0   5  14 784.307 347.679  19
   0   5  14 935.297 325.422  18
   0  -5 -14 392.523 260.601   1
   0  -5 -14 709.175 291.064  17
   0   5  15 518.235 305.157  19
   0  -5 -15 820.862 277.608  10
   0   5  15 925.481 312.791  18
   0   5  15 229.028 258.849  11
   0  -5 -15 282.059 221.051   1
   0  -5 -15 213.163 150.173  17
   0  -5 -16 331.474 253.958   1
   0   5  16 200.645 190.107  19
   0  -5 -16 265.495 183.572  10
   0   5  16 557.664 351.357  11
   0   5  16-45.9101 230.459  18
   0   5  17-17.6487 266.980  19
   0   5  17 268.167 299.536  11
   0  -5 -17-308.228 257.666   1
   0  -6  13 468.397 287.231  20
   0  -6  12 290.218 189.980  20
   0   6 -11 1566.21 515.654   9
   0  -6  11 1300.36 430.628  20
   0   6 -10-15.2062 298.456   9
   0  -6  10 119.529 249.478  15
   0  -6  10 188.236 191.965  20
   0  -6  10-253.740 174.956   3
   0  -6   9 348.265 224.310  15
   0  -6   9 975.231 350.298  20
   0  -6   9 893.660 389.159   3
   0   6  -9 327.631 303.420   9
   0  -6   9 450.970 262.726  16
   0  -6   8 143.588 294.895   3
   0  -6   8 326.930 253.119  15
   0  -6   8 466.167 270.348  16
   0  -6   8 368.009 219.754  20
   0   6  -8-5.07025 219.027   9
   0  -6   7 278.152 153.950  10
   0  -6   7 150.422 218.599  15
   0  -6   7 376.464 285.230   3
   0  -6   7 235.420 158.278  20
   0  -6   7 459.775 271.173  16
   0  -6   6 2522.78 488.804  20
   0  -6   6 2965.03 583.184   3
   0   6  -6 2951.42 649.356   9
   0  -6   6 2362.02 416.713  10
   0  -6   6 2687.20 524.182  16
   0  -6   6 1820.18 454.817  15
   0  -6   5 116.050 225.046   3
   0  -6   5 248.966 206.051  20
   0  -6   5 53.4675 258.828  15
   0   6  -5 865.193 421.747   9
   0  -6   5 610.005 235.811  10
   0  -6   5 753.652 333.002  16
   0  -6   4 4761.14 587.136  20
   0   6  -4 4782.34 765.079   9
   0  -6   4 4992.53 693.836  16
   0  -6   4 4977.39 677.171  15
   0  -6   4 5020.71 695.870   3
   0  -6   4 3603.08 515.729  10
   0  -6   3 3956.35 563.239  10
   0  -6   3 5591.89 720.226  16
   0  -6   3 5445.48 607.901  20
   0  -6   3 4520.83 636.494   3
   0  -6   3 4769.42 657.696  15
   0   6  -3 5826.92 829.087   9
   0  -6   2 4191.67 609.194   3
   0  -6   2 4082.32 557.966  10
   0  -6   2 4785.64 672.717  16
   0   6  -2 4327.16 712.563   9
   0  -6   2 4434.65 604.568  15
   0  -6   1 10794.2 923.000   3
   0  -6   1 12512.6 1084.03  16
   0   6  -1 12999.5 1204.41   9
   0  -6   1 10660.8 916.352  10
   0  -6   1 11017.1 933.455  15
   0  -6   0 1013.37 336.542  10
   0  -6   0 1295.01 390.547  16
   0  -6   0 995.982 312.135  15
   0  -6   0 574.468 265.446   3
   0   6   0 940.174 357.762   9
   0  -6  -1 3007.02 535.668  16
   0  -6  -1 2836.78 507.814  10
   0  -6  -1 2800.67 475.898   3
   0   6   1 1428.62 417.089   9
   0  -6  -1 2556.12 449.513  15
   0  -6  -2 38243.4 1878.89  16
   0   6   2 33984.5 1230.48   4
   0  -6  -2 32782.4 1653.52  10
   0   6   2 38984.4 2070.62   9
   0  -6  -2 33943.5 1509.08  15
   0  -6  -2 34351.6 1524.95   3
   0  -6  -3 14986.8 955.547   3
   0   6   3 15632.6 871.528   4
   0  -6  -3 15275.8 956.091  15
   0   6   3 13358.5 839.922  11
   0   6   3 16781.9 1346.72   9
   0  -6  -3 15749.8 1132.51  10
   0   6   3 18235.3 1362.59   6
   0  -6  -3 15711.6 1200.61  16
   0  -6  -4 1219.09 270.847   3
   0  -6  -4 973.692 307.594  10
   0  -6  -4 808.311 229.747  15
   0   6   4 1176.16 391.964   9
   0   6   4 983.394 256.380  11
   0   6   4 879.987 231.908   4
   0   6   4 782.830 278.465   6
   0  -6  -4 1181.38 348.143  16
   0   6   5 7290.41 875.401   5
   0  -6  -5 6739.47 616.904   3
   0  -6  -5 7118.16 774.565  10
   0   6   5 7506.92 646.047   4
   0   6   5 7104.84 669.197  11
   0  -6  -5 6038.19 598.648  15
   0  -6  -5 7206.67 829.875  16
   0   6   5 8570.23 935.033   6
   0  -6  -6 4810.30 672.314  10
   0   6   6 6802.16 698.437  11
   0  -6  -6 6423.61 855.391   1
   0  -6  -6 7154.67 806.318  16
   0   6   6 6244.51 823.259   5
   0  -6  -6 5571.46 535.327  15
   0   6   6 5927.81 816.261   6
   0  -6  -6 5145.20 523.085   3
   0  -6  -7 8867.76 639.547   3
   0  -6  -7 7088.10 574.975  15
   0   6   7 10017.4 974.249  19
   0  -6  -7 9246.43 923.087  16
   0   6   7 11075.0 1119.10   6
   0  -6  -7 8728.75 858.430  10
   0   6   7 10222.4 1071.56   5
   0   6   7 8539.22 803.442  11
   0  -6  -7 10044.8 1093.34   1
   0  -6  -8 4299.25 655.303  10
   0   6   8 4811.62 714.098  19
   0  -6  -8 5276.06 708.663  16
   0   6   8 5069.27 676.884  11
   0   6   8 5573.49 737.318  18
   0  -6  -8 4545.85 762.723   1
   0   6   8 5975.59 826.680   6
   0   6   8 5631.70 822.933   5
   0   6   9 2431.57 505.457  18
   0  -6  -9 1920.16 449.396  16
   0  -6  -9 1601.89 415.847  10
   0   6   9 2147.48 496.347   6
   0   6   9 1970.26 481.155  19
   0   6   9 1972.50 511.545   5
   0  -6  -9 2020.29 555.697   1
   0   6   9 1538.00 394.787  11
   0   6  10 1780.76 432.634  11
   0  -6 -10 1851.88 501.062   1
   0  -6 -10 2347.98 488.289  10
   0   6  10 2312.28 511.557  18
   0   6  10 2441.41 525.802  19
   0   6  10 2422.37 552.721   5
   0   6  10 2652.66 561.743   6
   0  -6 -10 1714.94 409.946  16
   0   6  11 702.439 357.935   5
   0  -6 -11 741.422 307.785  10
   0   6  11 668.151 270.375  11
   0   6  11 300.796 208.768  19
   0   6  11 451.739 288.500  18
   0  -6 -11-73.8028 205.577   1
   0  -6 -11 245.027 214.507  16
   0   6  12 901.218 352.970  11
   0   6  12 702.705 332.027  18
   0  -6 -12 52.7253 159.567  16
   0  -6 -12 29.8381 280.372   1
   0  -6 -12 228.836 210.447  10
   0   6  12 692.580 390.198  19
   0   6  13 1401.11 410.762  18
   0  -6 -13 983.025 341.017  16
   0   6  13 927.135 415.447  19
   0  -6 -13 595.638 256.995  10
   0   6  13 566.202 301.481  11
   0  -6 -13 390.164 291.647   1
   0   6  14 437.664 286.551  11
   0  -6 -14 191.974 255.237   1
   0   6  14 272.628 228.052  18
   0   6  14 235.067 258.711  19
   0  -6 -14 206.473 211.300  10
   0  -6 -14 341.997 227.216  16
   0   6  15 939.700 398.913  19
   0  -6 -15 597.338 292.724  10
   0   6  15 218.276 220.290  11
   0  -6 -15 515.238 357.236   1
   0   6  15 970.959 376.018  18
   0   6  16 79.9112 203.031  11
   0  -6 -16 680.400 307.975  10
   0  -6 -16 545.525 335.205   1
   0   6  16 316.523 362.367  19
   0  -7   8 1350.85 400.202  16
   0  -7   7 348.256 284.602   3
   0  -7   7-50.2918 211.498  15
   0   7  -7 387.151 341.968   9
   0  -7   7 75.8849 164.547  16
   0  -7   6 531.338 317.153  16
   0  -7   6 1066.54 329.565  10
   0  -7   6 1132.62 407.960   3
   0   7  -6 2060.69 596.966   9
   0  -7   6 1498.12 442.445  15
   0  -7   5 662.079 303.778   3
   0  -7   5 1288.86 434.156  15
   0   7  -5 679.042 328.260   9
   0  -7   5 819.523 299.831  10
   0  -7   5 828.938 299.804  16
   0  -7   4 253.998 186.032  15
   0  -7   4 629.235 315.676   3
   0  -7   4 409.897 241.700  10
   0   7  -4 1312.22 469.173   9
   0  -7   4 853.211 387.659  16
   0  -7   3-4.84149 160.083  15
   0  -7   3 158.400 204.388  10
   0   7  -3-182.679 265.039   9
   0  -7   3 249.032 234.836   3
   0  -7   3-20.0835 204.845  16
   0  -7   2 374.269 257.772   3
   0   7  -2 231.219 230.333   9
   0  -7   2 535.675 320.861  16
   0  -7   2 621.041 280.616  15
   0  -7   2 120.410 141.636  10
   0  -7   1 175.328 164.656  10
   0  -7   1 78.6577 194.250  15
   0   7  -1-51.6457 246.774   9
   0  -7   1 399.275 263.603   3
   0  -7   0 547.923 272.255  10
   0  -7   0 400.427 216.310   3
   0  -7   0 523.149 290.392  16
   0  -7   0 490.409 255.815  15
   0   7   0 151.016 186.360   9
   0  -7  -1 7116.97 869.956  16
   0  -7  -1 5825.57 697.004   3
   0  -7  -1 5886.92 744.538  10
   0  -7  -1 5887.80 699.374  15
   0   7   1 7423.35 991.228   9
   0  -7  -2 4925.68 638.726   3
   0  -7  -2 5139.28 642.436  15
   0  -7  -2 5700.44 813.340  16
   0  -7  -2 4888.09 708.215  10
   0   7   2 4719.07 762.307   6
   0   7   2 5089.13 814.169   9
   0   7   3 3715.52 717.479   6
   0  -7  -3 3452.76 516.789  15
   0  -7  -3 2938.58 480.125   3
   0  -7  -3 3637.80 660.848  16
   0   7   3 2806.52 641.805   9
   0  -7  -3 3053.19 555.423  10
   0  -7  -4 7500.42 735.899   3
   0  -7  -4 9340.62 1029.42  16
   0   7   4 9790.68 1140.84   9
   0   7   4 9306.42 1076.36   6
   0  -7  -4 7689.67 883.396  10
   0  -7  -4 9229.69 818.203  15
   0   7   5 2279.18 550.439   9
   0   7   5 3454.75 673.611   6
   0   7   5 3031.34 628.755   5
   0  -7  -5 4045.73 697.670  16
   0  -7  -5 2943.83 549.557  10
   0  -7  -6 1602.32 459.714  10
   0  -7  -6 2291.78 528.703  16
   0   7   6 2431.11 610.300   9
   0   7   6 2812.93 617.567   6
   0   7   6 2722.12 595.111   5
   0   7   6 2547.61 548.425  19
   0   7   7 1265.11 340.783  11
   0   7   7 807.127 395.496   5
   0  -7  -7 1272.88 356.783  10
   0   7   7 1280.69 492.923   6
   0  -7  -7 1200.27 357.494  16
   0   7   7 849.735 351.102  19
   0   7   8 578.948 247.684  11
   0   7   8 877.180 367.892  19
   0   7   8 1058.12 412.940   6
   0   7   8 835.034 330.299  18
   0   7   8 613.394 285.418   5
   0  -7  -8 706.220 307.408  16
   0  -7  -8 1169.69 456.448   1
   0  -7  -8 122.554 200.195  10
   0   7   9 238.344 235.562   5
   0  -7  -9-62.9109 189.457  16
   0   7   9 215.574 241.167  18
   0  -7  -9-36.9817 211.766   1
   0  -7  -9-150.904 180.648  10
   0   7   9 196.743 228.368  11
   0   7   9 90.6909 308.645   6
   0   7   9 244.380 260.011  19
   0   7  10-143.988 260.621  19
   0   7  10 627.477 260.614  11
   0  -7 -10 866.753 341.809  16
   0  -7 -10 543.514 355.841   1
   0  -7 -10 622.795 297.445  10
   0   7  10-10.0080 165.011  18
   0   7  10 203.454 246.955   5
   0   7  10 450.695 286.209   6
   0   7  11 2498.45 555.198  18
   0   7  11 2183.41 510.899  11
   0   7  11 2776.04 624.527  19
   0  -7 -11 2044.47 481.971  10
   0  -7 -11 1942.09 542.276   1
   0   7  11 1995.03 580.950   5
   0   7  11 2517.20 627.628   6
   0  -7 -11 2796.23 565.914  16
   0  -7 -12 1527.48 431.161  10
   0   7  12 1125.82 407.667  11
   0   7  12 1848.04 594.589   5
   0  -7 -12 1178.18 476.896   1
   0   7  12 1523.54 460.084  19
   0  -7 -12 1017.70 361.063  16
   0   7  12 1882.28 500.421  18
   0   7  13 588.688 351.013  11
   0   7  13 1699.42 518.367  18
   0  -7 -13 716.831 332.233  10
   0  -7 -13 1663.75 574.338   1
   0  -7 -13 987.008 421.882  16
   0   7  13 644.150 367.204  19
   0  -7 -14 3419.48 651.542  16
   0   7  14 4035.89 708.222  18
   0   7  14 3843.09 748.185  11
   0  -7 -14 3279.59 624.127  10
   0  -7 -15 706.326 360.194  10
   0  -7 -16 420.350 311.548  10
   0  -8   4 1973.39 480.431  10
   0  -8   3 1279.90 435.516   3
   0  -8   3 1198.10 395.855  15
   0  -8   3 1037.04 366.560  10
   0  -8   2 513.021 251.360  15
   0  -8   2 187.603 239.672  10
   0  -8   2 82.9710 197.523  16
   0  -8   2 662.656 315.953   3
   0  -8   1 949.097 340.455   3
   0  -8   1 829.202 324.823  15
   0  -8   1 934.252 356.743  10
   0  -8   1 974.556 373.312  16
   0  -8   0 1371.06 400.441   3
   0   8   0 1435.22 540.922   9
   0  -8   0 1792.08 547.773  16
   0  -8   0 1566.75 408.121  15
   0  -8   0 1631.26 440.285  10
   0   8   1 2733.15 689.261   9
   0  -8  -1 1837.78 467.520   3
   0  -8  -1 2143.65 554.976  16
   0  -8  -1 2793.38 519.980  15
   0   8   1 2697.15 624.700   6
   0  -8  -1 2876.91 588.760  10
   0   8   2 1070.21 477.383   9
   0  -8  -2 1880.84 536.720  16
   0  -8  -2 1235.37 396.575  10
   0   8   2 2378.66 646.716   6
   0  -8  -3 852.012 351.286  10
   0  -8  -3 775.865 344.680  16
   0   8   3 1203.15 475.344   9
   0   8   3 862.116 384.791   6
   0   8   4 783.604 342.962   9
   0  -8  -4 1069.75 414.508  10
   0  -8  -4 870.416 279.511  16
   0   8   4 553.489 268.819   6
   0   8   5 2258.48 646.496   9
   0  -8  -5 2368.72 619.640  16
   0  -8  -5 2651.25 573.070  10
   0   8   5 2882.23 672.870   6
   0   8   5 2680.76 669.344   5
   0   8   6 8250.87 1120.37   6
   0   8   6 6758.88 912.487  19
   0  -8  -6 5366.79 814.146  10
   0  -8  -6 6421.85 914.015  16
   0   8   6 6189.09 996.201   9
   0   8   6 7507.63 1069.18   5
   0   8   7 2317.64 639.178   5
   0   8   7 1937.02 521.657  19
   0   8   7 2863.55 692.940   6
   0  -8  -7 1559.44 507.006  16
   0   8   7 1872.21 591.779   9
   0   8   8 763.898 392.301  19
   0  -8  -8 1266.70 423.796  16
   0   8   8 2018.08 581.161   6
   0   8   8 1951.79 544.231  18
   0   8   9 604.918 340.408   6
   0   8   9 313.626 225.455  19
   0   8   9 310.538 245.200  18
   0   8  10 1817.47 582.597   6
   0   8  10 1386.62 480.420  18
   0   8  11 3364.24 748.885  18
   0   8  11 4714.03 906.577   6
   0   8  12 2183.50 587.215  18
   0   8  13 1948.03 581.983  18
  -1   8  10 405.997 335.491   6
  -1   8  10 386.878 289.644  18
  -1   8   9 295.575 204.035  18
  -1   8   9 579.763 355.755   6
  -1   8   8 44.8651 230.514  18
  -1   8   8 375.884 255.547   6
  -1   8   7 666.347 343.307   6
  -1   8   6 904.092 401.350   6
  -1   8   5-177.997 235.285   6
  -1   8   4 515.768 348.521   6
  -1   8   3 71.0825 217.626   6
  -1   8   2-94.4495 220.679   6
   1  -8  -1 111.201 210.686  15
   1  -8  -1 72.2011 166.094   3
  -1   8   1 599.323 336.445   6
  -1   8   0 919.894 410.487   6
   1  -8   0 675.437 346.091  15
   1  -8   0 539.749 301.284   3
   1  -8   1 407.135 282.430   3
   1  -8   1 56.8793 223.560  15
   1  -7 -14 797.642 424.273  16
   1  -7 -13 199.678 238.368  16
  -1   7  13 139.525 196.462  11
   1  -7 -12 2152.89 512.052  10
   1  -7 -12 1681.94 511.914  16
  -1   7  12 946.032 389.223  11
  -1   7  11 665.963 311.664  11
   1  -7 -11 1376.25 444.784  10
  -1   7  11 1517.25 436.553  18
   1  -7 -11 1154.34 397.012  16
  -1   7  10 1692.86 534.359  19
  -1   7  10 640.504 293.480  11
   1  -7 -10 1844.51 589.406   1
  -1   7  10 1379.97 478.078   6
  -1   7  10 1767.22 558.487   5
  -1   7  10 1452.92 455.690  18
   1  -7 -10 1044.76 350.635  10
   1  -7 -10 2064.05 554.859  16
  -1   7   9 2790.04 632.828  19
   1  -7  -9 2455.23 564.841  16
   1  -7  -9 2512.09 567.018  10
  -1   7   9 3649.30 757.522   5
  -1   7   9 2993.94 609.886  18
  -1   7   9 3450.96 698.219   6
  -1   7   8 5649.74 1000.05   9
   1  -7  -8 5941.98 829.291  10
   1  -7  -8 5388.97 816.109  16
  -1   7   8 7881.98 1015.33   6
  -1   7   8 8240.67 1124.77   5
  -1   7   8 7035.08 899.435  18
  -1   7   8 6861.45 937.173  19
  -1   7   7 28.5354 191.653   6
  -1   7   7 890.730 411.699  19
   1  -7  -7 648.883 279.996  10
  -1   7   7 335.419 302.826   9
  -1   7   7 622.861 354.754   5
   1  -7  -7 513.928 293.790  16
  -1   7   6 345.373 262.756   5
   1  -7  -6 805.070 311.281  10
  -1   7   6 143.482 181.111   6
  -1   7   6 588.338 343.132   9
   1  -7  -6 365.628 273.013  16
  -1   7   5 7277.50 1029.54   9
   1  -7  -5 6652.09 907.033  16
  -1   7   5 7564.72 973.918   6
   1  -7  -5 6360.77 829.401  10
   1  -7  -4 594.555 251.683   3
   1  -7  -4 148.191 202.218  16
  -1   7   4 276.518 223.036   6
   1  -7  -4 677.371 296.337  10
   1  -7  -4 252.441 225.086  15
  -1   7   4 334.662 368.132   9
  -1   7   3-92.7965 289.820   6
  -1   7   3-157.077 277.456   9
   1  -7  -3 512.156 285.569  15
   1  -7  -3 333.165 214.786   3
   1  -7  -3 212.325 193.854  10
   1  -7  -3 355.807 312.454  16
   1  -7  -2 21.0066 168.826   3
  -1   7   2 568.481 387.420   9
   1  -7  -2 514.151 382.135  16
   1  -7  -2 536.057 295.710  15
   1  -7  -2 371.020 242.607  10
  -1   7   2-197.153 274.544   6
  -1   7   1 3563.89 726.924   9
   1  -7  -1 3489.02 584.688  15
   1  -7  -1 3413.68 577.733  10
  -1   7   1 3236.45 680.214   6
   1  -7  -1 3882.68 687.464  16
   1  -7  -1 3220.60 567.526   3
   1  -7   0 1886.85 511.871  16
   1  -7   0 2614.85 549.170  15
   1  -7   0 1756.56 430.320  10
   1  -7   0 1768.64 415.508   3
  -1   7   0 3016.31 692.433   9
  -1   7  -1 336.736 221.607   9
   1  -7   1 496.611 280.217   3
   1  -7   1 301.223 301.638  16
   1  -7   1 149.403 202.306  10
   1  -7   1 364.789 261.502  15
   1  -7   2 2691.73 539.925  10
   1  -7   2 3219.27 598.434   3
   1  -7   2 3643.93 664.386  16
  -1   7  -2 3530.39 723.410   9
   1  -7   2 1969.53 488.646  15
   1  -7   3 3818.83 665.878   3
   1  -7   3 4090.90 725.315  16
   1  -7   3 4217.31 684.633  15
   1  -7   3 4012.01 647.626  10
  -1   7  -3 3456.92 736.426   9
  -1   7  -4 818.446 417.385   9
   1  -7   4 226.229 227.712  15
   1  -7   4 953.366 357.233  16
   1  -7   4 939.087 324.494  10
   1  -7   4 713.852 358.654   3
   1  -7   5 1369.33 426.505  15
   1  -7   5 440.213 294.241   3
   1  -7   5 634.724 265.715  10
   1  -7   5 1636.62 477.095  16
   1  -7   6 1301.42 429.070  16
   1  -7   7 1489.51 478.656  16
   1  -7   8 316.661 305.469  16
   1  -6 -16 540.124 264.360  10
   1  -6 -15 1041.15 377.714  10
  -1   6  15 539.942 337.622  11
  -1   6  14 620.648 358.076  11
   1  -6 -14 288.175 233.373  10
  -1   6  14 1058.56 440.067  19
   1  -6 -14 53.3597 200.688  16
   1  -6 -14 386.151 316.882   1
  -1   6  13 57.6377 246.242  19
  -1   6  13 24.3454 199.018  11
   1  -6 -13 247.110 267.909   1
   1  -6 -13 251.103 225.244  16
   1  -6 -13-61.0311 162.125  10
  -1   6  12 2671.11 532.295  18
  -1   6  12 2358.07 534.808  11
   1  -6 -12 2792.33 713.058   1
   1  -6 -12 2466.76 528.333  16
  -1   6  12 3023.97 670.365  19
   1  -6 -12 1997.65 472.496  10
  -1   6  12 2796.62 664.123   5
  -1   6  11 131.967 155.447  11
  -1   6  11 237.851 193.070  18
  -1   6  11 470.172 342.077   5
   1  -6 -11 93.8549 150.626  10
   1  -6 -11 45.6700 157.518  16
   1  -6 -11 411.137 317.193   1
  -1   6  11 83.7451 175.471  19
  -1   6  10 588.810 274.867  11
   1  -6 -10 732.630 417.732   1
   1  -6 -10 598.508 286.654  16
   1  -6 -10 1200.51 371.638  10
  -1   6  10 823.874 360.633   5
  -1   6  10 695.432 279.820  18
  -1   6  10 602.082 311.195   6
  -1   6  10 602.130 298.067  19
   1  -6  -9 238.583 258.275  16
  -1   6   9 326.462 228.235  18
  -1   6   9 129.610 267.642   5
  -1   6   9 261.797 191.018   6
  -1   6   9 373.369 266.292  19
   1  -6  -9 647.918 307.207  10
   1  -6  -9 297.623 200.722   1
  -1   6   9 514.847 295.068  11
  -1   6   8 1140.65 347.988  11
  -1   6   8 1916.78 467.212  18
  -1   6   8 1758.79 464.224  19
   1  -6  -8 839.794 380.453   1
   1  -6  -8 1252.54 375.524  10
  -1   6   8 1085.97 450.315   5
   1  -6  -8 1633.00 447.925  16
  -1   6   8 1664.09 456.636   6
   1  -6  -7 2880.05 436.043   3
  -1   6   7 3761.37 602.295  11
  -1   6   7 4585.32 720.163   6
   1  -6  -7 3003.12 545.408  10
  -1   6   7 3496.79 670.080   5
   1  -6  -7 3980.97 514.708  15
   1  -6  -7 3824.53 625.401  16
   1  -6  -6 9618.74 819.882  15
  -1   6   6 11768.4 1159.64   6
  -1   6   6 10891.6 885.631   4
   1  -6  -6 10638.4 1019.44  16
  -1   6   6 8347.12 850.091  11
  -1   6   6 12403.3 1232.20   5
   1  -6  -6 10233.6 974.384  10
   1  -6  -6 9432.05 818.236   3
  -1   6   5 5081.93 820.810   9
  -1   6   5 5467.10 624.576   4
  -1   6   5 6342.93 804.637   6
   1  -6  -5 4976.28 694.210  10
   1  -6  -5 5916.48 642.211  15
   1  -6  -5 5467.08 761.596  16
   1  -6  -5 5450.67 619.469   3
   1  -6  -4 234.723 193.066  15
  -1   6   4 36.9744 192.900   6
   1  -6  -4 430.484 230.274   3
  -1   6   4 392.143 215.229   4
   1  -6  -4 541.679 288.708  10
  -1   6   4 229.750 200.919   9
   1  -6  -4 1033.86 352.533  16
   1  -6  -3 497.258 214.456  10
   1  -6  -3 1056.58 355.403  16
  -1   6   3 508.211 261.960   6
  -1   6   3 221.293 206.158   9
   1  -6  -3 551.206 242.772  15
   1  -6  -3 531.758 236.537   3
  -1   6   3 543.922 214.951   4
   1  -6  -2 1230.17 390.772  10
   1  -6  -2 421.553 172.182  15
   1  -6  -2 465.823 230.285  16
  -1   6   2 762.923 243.897   6
  -1   6   2 948.587 350.256   9
  -1   6   2 678.447 202.601   4
   1  -6  -2 725.339 260.225   3
   1  -6  -1 408.734 170.038   3
   1  -6  -1 469.054 265.411  15
   1  -6  -1 699.182 256.566  16
   1  -6  -1 124.102 148.179  10
  -1   6   1 389.094 300.433   9
   1  -6   0 4761.35 634.048  15
  -1   6   0 3907.56 712.937   9
   1  -6   0 4059.85 601.119   3
   1  -6   0 3816.69 602.915  10
   1  -6   0 5371.55 746.946  16
   1  -6   1 9571.85 994.953  16
   1  -6   1 8964.82 878.974  15
  -1   6  -1 9511.86 1091.19   9
   1  -6   1 8517.87 862.397   3
   1  -6   1 8961.52 897.074  10
   1  -6   2 3320.49 571.586   3
   1  -6   2 4206.80 671.000  16
  -1   6  -2 3918.20 736.124   9
   1  -6   2 3447.36 573.267  15
   1  -6   2 2778.77 489.308  10
   1  -6   3 2088.07 460.171   3
  -1   6  -3 2168.06 547.502   9
   1  -6   3 1456.65 393.368  16
   1  -6   3 1498.29 397.440  15
   1  -6   3 1383.22 379.981  10
   1  -6   4-488.425 261.869   3
   1  -6   4-66.3276 158.841  15
   1  -6   4-108.566 185.377  10
   1  -6   4-92.2066 168.104  16
  -1   6  -4-173.111 345.013   9
   1  -6   5 36.1336 193.073  15
  -1   6  -5 642.801 347.864   9
   1  -6   5 118.300 136.136  10
   1  -6   5-41.7740 178.016   3
   1  -6   5 281.455 240.902  16
   1  -6   6 48.5255 200.540  15
   1  -6   6 68.6845 203.139  10
   1  -6   6 347.497 282.789   3
  -1   6  -6 419.583 345.600   9
   1  -6   6 406.030 287.470  16
  -1   6  -7 2161.61 589.196   9
   1  -6   7 1617.26 398.937  16
   1  -6   7 1561.06 375.524  10
   1  -6   7 1839.58 483.775  15
   1  -6   7 2373.76 564.843   3
   1  -6   8 442.960 264.367  16
   1  -6   8 609.047 323.281   3
   1  -6   8 4.78169 208.116  15
  -1   6  -8 472.278 381.028   9
   1  -6   9 111.708 288.049  15
  -1   6  -9 133.774 214.700   9
   1  -6   9 302.063 248.978  16
   1  -6   9 173.787 296.689   3
   1  -5 -17-242.881 265.208   1
   1  -5 -16 513.501 347.628   1
  -1   5  16 169.549 302.204  19
  -1   5  16-104.362 224.280  11
  -1   5  15 565.240 336.852  19
   1  -5 -15 922.455 327.231  10
   1  -5 -15 696.095 390.273   1
  -1   5  15 654.397 408.128  11
   1  -5 -14 569.647 338.807   1
  -1   5  14 244.100 256.181  11
   1  -5 -14 448.176 244.413  16
  -1   5  14 1006.66 414.027  19
   1  -5 -14 586.449 266.969  10
  -1   5  13 989.973 379.744  19
   1  -5 -13 666.156 272.365  16
  -1   5  13 363.529 204.271  18
   1  -5 -13 442.754 210.988  10
  -1   5  13 552.072 297.905  11
   1  -5 -13 86.6626 194.704   1
   1  -5 -12 763.143 356.750   1
  -1   5  12 286.575 129.391  18
  -1   5  12 713.858 348.341  19
   1  -5 -12 161.968 159.977  10
   1  -5 -12 725.279 293.353  16
  -1   5  12 419.922 280.446  11
  -1   5  11 1419.43 467.262  19
   1  -5 -11 2135.98 531.156   1
   1  -5 -11 1828.53 403.124  16
  -1   5  11 2022.91 397.961  18
   1  -5 -11 1714.20 376.728  10
  -1   5  11 2213.62 597.290   5
  -1   5  11 1723.56 462.751  11
  -1   5  10 4060.28 687.328  19
  -1   5  10 4870.90 703.998  11
   1  -5 -10 4164.63 605.367  16
  -1   5  10 4787.25 623.771  18
  -1   5  10 5254.40 802.173   5
   1  -5 -10 5071.10 816.511   1
   1  -5 -10 4488.33 632.474  10
   1  -5  -9 17198.0 1207.67  16
   1  -5  -9 18480.0 1463.79   1
   1  -5  -9 14547.6 886.274  15
  -1   5   9 18356.2 1251.28  18
  -1   5   9 18974.3 1318.18   6
  -1   5   9 17376.4 1254.33  11
  -1   5   9 18502.8 1378.75  19
  -1   5   9 21318.6 1530.35   5
   1  -5  -9 14674.1 1100.86  10
   1  -5  -8 766.977 377.680   1
   1  -5  -8 700.347 276.082  10
  -1   5   8 700.264 328.603  19
  -1   5   8 632.628 288.748   5
  -1   5   8 295.468 205.301  18
  -1   5   8 664.543 272.975   6
  -1   5   8 502.579 201.310  11
   1  -5  -8 388.446 180.509  15
   1  -5  -8 498.683 276.007  16
  -1   5   7 1155.72 340.302  11
   1  -5  -7 1132.18 376.508  16
   1  -5  -7 1141.91 330.173  10
   1  -5  -7 697.532 231.717  15
   1  -5  -7 947.650 294.688   1
  -1   5   7 1171.32 361.351   6
  -1   5   7 649.155 321.833   5
  -1   5   6 6318.92 802.526   6
  -1   5   6 5689.23 757.655   5
   1  -5  -6 4341.11 515.017  15
   1  -5  -6 4866.09 617.745  10
   1  -5  -6 5225.80 666.213  16
   1  -5  -6 6288.49 820.918   1
  -1   5   6 5898.29 648.110  11
   1  -5  -5 19707.5 1278.01  16
  -1   5   5 20343.4 1356.80   6
   1  -5  -5 18840.9 1199.57  10
   1  -5  -5 19587.8 1068.47  15
  -1   5   4 28236.5 1691.69   9
  -1   5   4 24950.9 1240.74   4
  -1   5   4 31731.7 1683.23   6
   1  -5  -4 26587.9 1429.37  10
  -1   5   4 24535.0 1117.54  21
   1  -5  -4 29445.3 1330.57  15
  -1   5   4 23984.6 1250.37  11
  -1   5   3 42309.3 2070.66   9
   1  -5  -3 38204.5 1570.96   3
  -1   5   3 34823.2 1480.74   4
  -1   5   3 37624.7 1349.13  21
   1  -5  -3 39310.0 1572.04  15
  -1   5   3 40750.7 1893.59   6
  -1   5   3 31396.2 1210.59  14
   1  -5  -3 34544.2 1661.01  10
  -1   5   2 525.620 149.425  14
  -1   5   2 139.399 211.995   9
  -1   5   2 145.651 139.794  21
  -1   5   2 501.231 206.449   4
   1  -5  -2 1132.13 365.742  10
   1  -5  -2 1024.93 336.277  15
   1  -5  -2 829.396 317.500   3
   1  -5  -1 24561.0 1376.78  10
  -1   5   1 22507.2 822.379  14
  -1   5   1 28325.2 1697.44   9
  -1   5   1 25139.0 1178.30   4
   1  -5  -1 25755.7 1307.49  15
  -1   5   1 24424.2 1050.72  21
   1  -5  -1 25463.8 1319.00   3
   1  -5   0 27246.6 1386.37  15
  -1   5   0 26379.3 1120.35  21
  -1   5   0 27600.3 1690.48   9
   1  -5   0 27814.8 1447.45  10
   1  -5   0 29015.1 1554.18  16
   1  -5   0 27888.1 1425.63   3
  -1   5   0 27408.5 1213.46   4
   1  -5   1 18904.5 1186.15   3
   1  -5   1 19080.4 1266.38  16
  -1   5  -1 19603.0 1423.93   9
   1  -5   1 17545.7 1138.16  10
  -1   5  -1 17835.8 919.087  21
  -1   5  -1 17229.5 970.348   4
   1  -5   1 18504.7 1161.35  15
  -1   5  -2 8178.07 625.835  21
   1  -5   2 9234.97 850.729   3
   1  -5   2 7991.48 595.410  20
  -1   5  -2 8498.93 681.519   4
   1  -5   2 8551.12 824.995  15
   1  -5   2 8621.01 853.150  16
   1  -5   2 7917.64 764.019  10
  -1   5  -2 8111.43 948.948   9
  -1   5  -3 2961.87 620.366   9
   1  -5   3 3602.45 572.207  16
   1  -5   3 2961.05 474.523  10
   1  -5   3 2977.50 510.569  15
   1  -5   3 3023.11 502.001   3
  -1   5  -3 2951.06 400.704   4
   1  -5   3 2625.09 364.400  20
  -1   5  -3 2837.99 394.198  21
  -1   5  -4-6.85712 177.921  21
   1  -5   4 75.0105 152.529  10
   1  -5   4 319.391 270.037   3
   1  -5   4 345.953 174.490  20
   1  -5   4 391.951 259.191  15
  -1   5  -4 662.565 334.524   9
  -1   5  -4 407.032 164.995   4
   1  -5   4 436.015 245.053  16
  -1   5  -5 17836.9 1091.99  21
  -1   5  -5 16077.5 960.184   4
   1  -5   5 17239.7 1041.02  20
   1  -5   5 16091.1 1067.01  10
   1  -5   5 17178.9 1265.33  15
   1  -5   5 18066.4 1227.83  16
   1  -5   5 17267.3 1263.42   3
  -1   5  -5 16090.4 1369.31   9
   1  -5   6 2926.48 449.993  10
   1  -5   6 3022.90 607.895  15
   1  -5   6 3029.25 471.964  20
   1  -5   6 3486.40 558.979  16
  -1   5  -6 2844.13 417.495   4
   1  -5   6 3126.81 594.974   3
  -1   5  -6 3981.75 699.680   9
  -1   5  -6 3662.00 510.370  21
   1  -5   7 1064.19 361.225  15
  -1   5  -7 1786.35 385.391  21
   1  -5   7 1237.33 308.471  10
  -1   5  -7 947.881 405.550   9
   1  -5   7 811.472 244.627  16
  -1   5  -7 1195.49 301.522   4
   1  -5   7 1332.68 415.171   3
   1  -5   7 1065.16 290.402  20
   1  -5   8 357.324 240.694  15
  -1   5  -8 476.066 392.677   9
   1  -5   8 15.6429 177.019   3
  -1   5  -8 27.3429 167.268  21
   1  -5   8 249.386 145.922  20
   1  -5   8 608.962 288.036  16
   1  -5   8 144.385 142.696  10
   1  -5   9-48.7571 131.615  20
   1  -5   9 4.85571 139.936  16
  -1   5  -9 360.060 233.045  21
   1  -5   9-162.034 224.753   3
  -1   5  -9 43.3726 260.046   9
   1  -5   9-144.383 263.909  15
  -1   5 -10 360.884 269.506   9
   1  -5  10 585.693 360.467   3
   1  -5  10 802.293 286.267  20
  -1   5 -10 397.129 244.607  21
   1  -5  10 465.070 303.226  15
   1  -5  10 156.480 185.120  16
   1  -5  11 896.096 329.709  20
   1  -5  11 622.396 400.229   3
  -1   5 -11 688.453 335.561   9
   1  -5  11 120.977 219.373  15
   1  -5  12 296.514 296.268   3
  -1   5 -12 179.517 256.335   9
   1  -5  12 69.9666 183.513  15
   1  -5  12 156.423 153.805  20
   1  -5  13 78.9972 161.411  20
   1  -5  14 937.451 381.132  20
  -1   4  18 643.822 353.659  19
   1  -4 -18 1035.94 430.633   1
   1  -4 -18 1091.29 377.444  17
  -1   4  18 554.489 337.675  11
   1  -4 -17 305.832 287.685   1
  -1   4  17 302.670 293.967  11
  -1   4  17 314.273 248.776  19
   1  -4 -17 637.544 287.734  17
   1  -4 -16 383.007 287.428   1
  -1   4  16 361.993 321.785  11
  -1   4  16 377.735 273.924  19
   1  -4 -16 791.954 307.866  17
   1  -4 -15 1785.68 388.521   8
  -1   4  15 1806.79 501.671  19
   1  -4 -15 896.960 289.048  10
   1  -4 -15 1698.69 384.177  17
  -1   4  15 2292.02 581.720  11
   1  -4 -15 1901.12 520.511   1
  -1   4  14 1958.59 513.957  19
   1  -4 -14 1389.25 332.226  10
  -1   4  14 1815.33 368.974  18
  -1   4  14 2329.66 578.129  11
   1  -4 -14 1611.51 354.561  16
   1  -4 -14 1465.86 433.613   1
   1  -4 -14 1642.55 388.299  17
  -1   4  13 6687.41 865.380  11
   1  -4 -13 7144.55 886.864   1
   1  -4 -13 7463.49 719.786  16
  -1   4  13 7264.39 696.863  18
  -1   4  13 6736.14 851.358  19
   1  -4 -13 5828.47 647.252  17
   1  -4 -13 6156.82 672.016  10
  -1   4  12 4511.31 695.224  19
   1  -4 -12 4004.89 525.310  16
   1  -4 -12 4693.84 694.679   1
  -1   4  12 3955.95 629.972  11
   1  -4 -12 3187.05 478.561  10
   1  -4 -12 3249.06 442.411  17
  -1   4  12 4291.82 522.438  18
   1  -4 -11 1750.04 373.550  10
   1  -4 -11 2271.42 494.762   1
  -1   4  11 1693.31 440.469  19
   1  -4 -11 1775.79 336.907  17
   1  -4 -11 2143.57 391.594  16
  -1   4  11 2589.74 402.766  18
  -1   4  11 1776.75 455.690  11
   1  -4 -10-50.5672 114.738  17
  -1   4  10 86.7949 179.707  11
  -1   4  10 276.816 228.739  19
  -1   4  10 265.948 173.708  18
   1  -4 -10 309.419 230.153  10
   1  -4 -10 318.399 216.431  16
  -1   4  10 479.952 272.915   5
   1  -4 -10 466.408 294.478   1
   1  -4  -9 12871.1 747.623  17
  -1   4   9 13082.8 929.511  18
   1  -4  -9 12621.8 939.810  10
   1  -4  -9 13918.3 1151.83   1
  -1   4   9 14813.6 1099.12  11
  -1   4   9 15664.4 1169.49  19
  -1   4   9 15728.9 1198.81   5
   1  -4  -9 12768.4 950.358  16
   1  -4  -8 1095.68 304.683  10
   1  -4  -8 626.010 273.637   1
  -1   4   8 876.601 305.675   5
  -1   4   8 735.209 261.531  11
   1  -4  -8 914.488 178.354  17
  -1   4   8 1171.64 328.916   6
  -1   4   8 894.134 274.300  18
  -1   4   8 1523.19 388.685  19
  -1   4   7 10534.4 981.204   5
   1  -4  -7 10056.9 807.166  10
  -1   4   7 11200.9 950.221  19
   1  -4  -7 9005.01 482.543  17
   1  -4  -7 11462.0 1002.49   1
  -1   4   7 9607.76 859.046  11
  -1   4   7 12572.4 960.028   6
   1  -4  -6 1363.03 321.469  10
   1  -4  -6 1037.00 132.733  17
  -1   4   6 1553.85 337.805  11
   1  -4  -6 1833.91 427.278   1
  -1   4   6 1645.70 365.731   5
  -1   4   6 1748.99 375.752   6
   1  -4  -6 1553.40 279.574  15
  -1   4   5 3859.19 500.769  11
   1  -4  -5 4751.17 481.073  15
   1  -4  -5 4500.84 631.879   1
  -1   4   5 5083.50 605.138   6
   1  -4  -5 4561.04 541.740  10
  -1   4   5 3065.55 259.201  20
  -1   4   4 2370.04 369.419  11
  -1   4   4 2560.54 449.462   6
   1  -4  -4 2395.49 364.439  15
   1  -4  -4 2932.15 515.996   1
  -1   4   4 2100.94 289.901  21
  -1   4   4 1977.10 178.216  20
   1  -4  -4 2825.34 451.639  10
  -1   4   3 45078.6 1014.80  20
  -1   4   3 40423.5 1495.58  11
   1  -4  -3 48150.5 1753.43  10
  -1   4   3 51387.3 1928.67   6
   1  -4  -3 45822.1 1590.63  15
  -1   4   3 46463.1 1442.81  21
  -1   4   3 44400.8 1537.23   4
   1  -4  -2 36530.7 1398.47  15
  -1   4   2 37052.7 1764.39   9
  -1   4   2 37345.7 1248.74  21
  -1   4   2 31403.3 1092.74  14
  -1   4   2 31875.1 1296.82   4
  -1   4   2 29622.2 1072.73  13
  -1   4   2 39788.1 1234.89   2
  -1   4   2 31407.3 825.528  20
   1  -4  -2 34962.0 1473.81  10
  -1   4   1 60129.5 1489.96  13
  -1   4   1 62539.7 1475.14  14
   1  -4  -1 62276.2 1575.04  11
  -1   4   1 69237.5 1567.80   2
   1  -4  -1 71757.8 2051.07  15
  -1   4   1 62346.8 1845.38   4
  -1   4   1 75144.3 2534.19   9
  -1   4   1 63068.1 1721.72  21
   1  -4  -1 67421.5 2092.36  10
   1  -4   0 12973.1 889.075  10
  -1   4   0 10415.3 495.008  14
  -1   4   0 12893.8 1039.89   9
   1  -4   0 10733.9 553.023  11
  -1   4   0 9362.05 477.002  13
   1  -4   0 13139.8 858.148  15
  -1   4   0 11926.2 541.221   2
  -1   4   0 12273.4 751.452   4
  -1   4   0 11553.9 675.046  21
   1  -4   0 12233.8 850.249   3
   1  -4   1 2343.43 391.488  15
   1  -4   1 2905.12 434.919  10
   1  -4   1 2147.97 264.830  20
   1  -4   1 2688.38 427.693   3
  -1   4  -1 2012.10 157.611  17
  -1   4  -1 1945.44 178.462  14
  -1   4  -1 1691.27 171.194  13
  -1   4  -1 2222.35 202.573   2
  -1   4  -1 1751.31 232.166  21
  -1   4  -1 1704.40 377.417   9
  -1   4  -1 1463.90 139.407  17
  -1   4  -1 1946.37 307.987   4
   1  -4   1 2206.19 226.288  11
  -1   4  -2 4105.61 439.565   4
  -1   4  -2 4647.88 640.403   9
   1  -4   2 4439.91 540.089  15
   1  -4   2 3788.71 488.433  10
   1  -4   2 4146.29 525.759   3
  -1   4  -2 4118.83 436.368  21
   1  -4   2 4400.25 404.398  20
  -1   4  -2 3806.67 247.703   2
  -1   4  -2 4158.58 295.823  17
   1  -4   2 3289.10 243.283  11
  -1   4  -3 202.997 229.196   9
  -1   4  -3 56.6522 73.8906  17
   1  -4   3 292.142 163.717  20
   1  -4   3 99.5064 210.168   3
  -1   4  -3 110.350 124.845   4
  -1   4  -3 185.065 165.328  21
   1  -4   3-33.5140 170.885  10
   1  -4   3 166.269 188.784  15
   1  -4   3 71.6203 39.3553  11
  -1   4  -4 14564.3 837.883   4
   1  -4   4 13016.2 795.854  20
   1  -4   4 15565.8 1067.03  15
   1  -4   4 13823.5 900.708  10
  -1   4  -4 16786.7 943.405  21
  -1   4  -4 14042.1 714.237  17
  -1   4  -4 15550.3 1182.68   9
   1  -4   4 14274.7 1034.86   3
  -1   4  -5 5892.23 741.057   9
  -1   4  -5 5928.72 584.316  21
   1  -4   5 3582.90 315.340   2
   1  -4   5 4682.15 611.401   3
  -1   4  -5 5116.00 472.456  17
   1  -4   5 4966.00 501.221  20
  -1   4  -5 5231.64 527.212   4
   1  -4   5 5484.95 676.538  15
   1  -4   5 5800.85 564.753  10
   1  -4   6 10383.1 916.692   3
  -1   4  -6 9706.70 745.332   4
  -1   4  -6 11181.9 846.981  21
   1  -4   6 8800.70 473.329   2
   1  -4   6 10226.8 738.831  10
  -1   4  -6 11042.9 1038.70   9
  -1   4  -6 10087.8 708.039  17
   1  -4   6 9324.71 794.234  16
   1  -4   6 9965.85 771.217  20
   1  -4   6 9682.45 898.425  15
  -1   4  -7 1628.52 366.645  21
   1  -4   7 1400.52 318.191  20
   1  -4   7 1223.02 278.375  10
  -1   4  -7 1680.57 336.715  17
  -1   4  -7 1412.35 428.048   9
   1  -4   7 1516.12 391.984   3
   1  -4   7 1394.57 402.443  15
   1  -4   7 1667.08 361.235  16
  -1   4  -7 1295.68 323.755   4
   1  -4   8 1477.82 394.719  15
   1  -4   8 1233.42 310.358  20
  -1   4  -8 1233.64 303.054   4
   1  -4   8 1402.11 395.022   3
  -1   4  -8 1307.69 318.603  17
   1  -4   8 1311.55 319.513  16
   1  -4   8 1043.83 234.682  10
  -1   4  -8 1202.17 310.178  21
  -1   4  -8 1217.25 400.302   9
  -1   4  -9 1141.39 310.770  21
  -1   4  -9 1691.38 360.196   4
   1  -4   9 1573.88 424.703   3
  -1   4  -9 1493.39 417.734   9
  -1   4  -9 1489.34 359.357  17
   1  -4   9 1580.62 424.499  15
   1  -4   9 1027.53 262.349  16
   1  -4   9 926.856 300.047  20
   1  -4   9 1444.90 279.505  10
  -1   4 -10 3774.31 719.154   9
  -1   4 -10 3747.49 534.750   4
   1  -4  10 3777.87 582.572  20
  -1   4 -10 4164.59 630.914  21
  -1   4 -10 4263.12 594.755  17
   1  -4  10 4814.41 764.647   3
   1  -4  10 3797.81 707.386  15
   1  -4  10 3772.03 512.977  16
  -1   4 -11 2317.30 592.240   9
   1  -4  11 3090.76 564.770  20
  -1   4 -11 2305.50 462.987  17
  -1   4 -11 2949.89 492.398   4
   1  -4  11 3750.36 659.736  15
  -1   4 -11 3232.07 569.031  21
   1  -4  11 2358.06 564.939   3
   1  -4  12 1339.60 432.854   3
  -1   4 -12 2304.32 509.407  21
   1  -4  12 1854.28 523.206  15
  -1   4 -12 1698.47 512.628   9
   1  -4  12 1665.28 415.736  20
  -1   4 -12 2022.45 461.734  17
  -1   4 -12 1665.33 390.872   4
  -1   4 -13 59.9445 170.683  17
   1  -4  13 284.907 240.470   3
  -1   4 -13 186.895 207.978   4
   1  -4  13 177.054 198.926  20
   1  -4  13-8.11696 201.000  15
  -1   4 -13 528.560 231.505  21
  -1   4 -13 365.863 284.554   9
  -1   4 -14 501.550 257.203  17
   1  -4  14-160.764 183.467  20
   1  -4  14 360.280 305.966  15
  -1   4 -14 361.824 259.094  21
  -1   4 -14-115.887 205.095   9
   1  -4  14-1.89458 189.691   3
  -1   4 -15 216.987 213.636  21
  -1   4 -15-77.9669 242.997  17
   1  -4  15 82.8066 180.355  20
  -1   4 -16-63.4631 252.892  17
  -1   4 -16-180.727 239.460  21
   1  -3 -20 571.671 362.100  17
  -1   3  20 629.605 324.119  20
  -1   3  19 1917.54 565.830  11
  -1   3  19 1644.40 529.354  19
  -1   3  19 1375.07 417.446  20
   1  -3 -19 1287.59 446.671   1
   1  -3 -19 1500.78 476.260  17
  -1   3  18 1184.16 428.162  19
   1  -3 -18 835.862 386.293   1
  -1   3  18 526.669 344.000  11
   1  -3 -18 288.792 306.388  17
  -1   3  17-193.160 188.749  11
   1  -3 -17 268.743 211.299  17
   1  -3 -17-3.34591 193.191   1
  -1   3  17-9.44176 178.338  19
   1  -3 -16 405.371 225.582  17
   1  -3 -16 22.3348 207.825   1
   1  -3 -16 143.543 176.352   8
  -1   3  16 269.640 262.955  11
  -1   3  16 223.919 225.794  19
   1  -3 -15 308.141 234.795   1
  -1   3  15 42.2760 174.460  19
   1  -3 -15 775.973 295.984  17
   1  -3 -15 464.632 223.542   8
  -1   3  15 439.165 305.120  11
   1  -3 -14 851.663 282.086   8
   1  -3 -14 909.296 251.577  10
  -1   3  14 160.790 220.056  11
  -1   3  14 1181.54 366.136  19
   1  -3 -14 775.393 296.314  17
   1  -3 -14 1102.33 363.806   1
   1  -3 -13 2391.56 377.896  10
  -1   3  13 2915.55 568.060  11
   1  -3 -13 2829.12 466.047  17
   1  -3 -13 2376.25 515.772   1
   1  -3 -13 2882.33 384.820  16
   1  -3 -13 2589.27 431.936   8
  -1   3  13 2998.11 602.332  19
  -1   3  12 865.265 329.787  19
  -1   3  12 201.843 187.988  11
   1  -3 -12 562.575 225.931   8
  -1   3  12 614.459 206.991  18
   1  -3 -12 967.615 243.589  16
   1  -3 -12 1147.35 296.839  17
   1  -3 -12 907.470 309.116   1
   1  -3 -12 478.237 183.317  10
  -1   3  11 5961.19 561.934  18
  -1   3  11 6550.67 743.855  19
   1  -3 -11 4593.50 541.995   8
  -1   3  11 5147.24 704.762  11
   1  -3 -11 5712.83 570.373  17
   1  -3 -11 5779.89 560.626  10
   1  -3 -11 5469.67 534.542  16
   1  -3 -11 5857.58 730.199   1
  -1   3  10 6445.04 557.873  18
  -1   3  10 5595.85 695.617  11
   1  -3 -10 5843.76 584.712  10
   1  -3 -10 6289.77 729.946   1
   1  -3 -10 5520.26 523.647  17
  -1   3  10 6726.78 743.773  19
   1  -3 -10 4500.23 525.915   8
  -1   3   9 8163.68 798.255  11
   1  -3  -9 8082.30 684.195   8
   1  -3  -9 10055.9 873.254   1
   1  -3  -9 8013.71 666.177  10
  -1   3   9 9639.57 682.688  18
  -1   3   9 9029.35 826.067  19
   1  -3  -9 8677.83 616.048  17
  -1   3   9 10295.2 875.654   5
   1  -3  -8 9896.56 752.463   8
   1  -3  -8 11233.8 905.564   1
  -1   3   8 11977.8 919.072   5
  -1   3   8 9876.32 837.739  11
   1  -3  -8 9627.28 737.953  10
  -1   3   8 10733.3 887.941  19
  -1   3   8 9940.54 698.103  18
   1  -3  -8 9643.18 620.616  17
  -1   3   7 4091.04 520.299  11
  -1   3   7 4517.00 511.400   6
   1  -3  -7 3549.39 340.321  17
  -1   3   7 4553.41 600.079   5
  -1   3   7 3598.22 426.867  18
   1  -3  -7 4123.65 476.551  10
   1  -3  -7 3570.27 535.888   1
   1  -3  -6 12213.5 566.139  17
  -1   3   6 13704.7 851.848   6
   1  -3  -6 12831.4 928.578   1
  -1   3   6 13224.7 943.508   5
   1  -3  -6 14069.6 852.094  10
  -1   3   6 11047.3 832.018  11
   1  -3  -5 5610.98 318.825  17
  -1   3   5 5148.67 541.964  11
   1  -3  -5 4907.12 604.063   1
   1  -3  -5 5483.31 531.952  10
  -1   3   5 6041.50 583.915   6
   1  -3  -4 5072.67 229.173  17
  -1   3   4 6997.01 625.891   6
  -1   3   4 7535.24 547.861  21
   1  -3  -4 7536.94 622.128  10
   1  -3  -4 6315.08 667.528   1
  -1   3   4 6686.13 586.500  11
  -1   3   3 7553.63 514.622  13
   1  -3  -3 7860.92 624.844  10
  -1   3   3 6319.55 550.050  11
   1  -3  -3 6867.93 550.479  15
  -1   3   3 8181.32 650.881   6
   1  -3  -3 6393.83 492.176  21
  -1   3   3 4840.90 240.282  20
   1  -3  -3 6702.80 665.678   1
  -1   3   3 7149.62 505.178  21
  -1   3   2 853.286 209.064  11
  -1   3   2 1217.75 243.598   4
   1  -3  -2 1069.30 240.980  15
  -1   3   2 1108.00 207.119  13
  -1   3   2 1225.56 118.907  20
   1  -3  -2 1299.38 277.278  10
   1  -3  -2 1244.39 207.542  11
   1  -3  -2 1080.64 202.952  21
  -1   3   2 750.110 178.545  21
  -1   3   1 1034.29 303.668   9
  -1   3   1 1167.35 184.290  14
   1  -3  -1 1373.08 266.268  15
  -1   3   1 1118.68 258.917   4
  -1   3   1 1290.68 169.954   2
   1  -3  -1 967.651 191.954  21
  -1   3   1 1041.33 165.973  13
   1  -3  -1 1374.00 278.577  10
   1  -3  -1 1048.94 173.503  13
  -1   3   1 1125.00 200.106  21
   1  -3  -1 1254.72 200.550  11
   1  -3   0 3715.64 367.347  21
  -1   3   0 3702.29 286.164  13
  -1   3   0 3612.95 342.497  21
   1  -3   0 3866.90 419.994  15
   1  -3   0 3489.05 301.385  11
   1  -3   0 4020.94 436.189  10
  -1   3   0 3848.95 289.057  14
  -1   3   0 3843.06 264.631   2
   1  -3   0 3346.06 259.132  20
  -1   3   0 3995.60 514.962   9
  -1   3   0 4069.90 402.999   4
   1  -3   0 3599.75 265.722  13
  -1   3  -1 40.4264 42.6620  13
  -1   3  -1 67.6669 48.5565  17
  -1   3  -1 72.1122 61.1384  14
  -1   3  -1-5.53701 34.8678   2
  -1   3  -1 156.355 130.668  21
  -1   3  -1-90.1913 124.187   4
  -1   3  -1 96.7089 174.891   9
   1  -3   1 154.548 150.863  15
   1  -3   1 204.312 188.594  10
   1  -3   1 40.5166 96.9473  21
   1  -3   1 58.5145 65.0647  20
   1  -3   1 132.486 86.9539  11
   1  -3   1 30.0056 55.8256  13
   1  -3   2 5277.41 255.837  13
   1  -3   2 6299.86 543.419  10
  -1   3  -2 6552.43 366.696  17
   1  -3   2 5890.58 408.862  20
   1  -3   2 5940.82 324.007  11
  -1   3  -2 6580.67 504.992  21
  -1   3  -2 6513.78 516.000   4
  -1   3  -2 4907.54 258.373  14
   1  -3   2 6094.44 565.853   3
  -1   3  -2 6213.74 664.096   9
   1  -3   2 6348.22 565.021  15
   1  -3   3 13587.3 460.568  11
  -1   3  -3 14023.0 622.463  17
   1  -3   3 15518.1 911.260  15
   1  -3   3 15012.3 913.086   3
   1  -3   3 11980.0 365.451  13
  -1   3  -3 14168.0 780.087  21
   1  -3   3 14887.1 808.971  10
  -1   3  -3 15851.1 1036.29   9
   1  -3   3 13602.2 690.790  20
  -1   3  -3 14836.5 811.391   4
   1  -3   4 3794.21 425.163  10
  -1   3  -4 4842.69 503.471  21
  -1   3  -4 4595.27 573.372   9
   1  -3   4 4569.11 542.139   3
   1  -3   4 4366.81 525.600  15
   1  -3   4 3772.15 222.288  11
   1  -3   4 4578.59 427.148  20
  -1   3  -4 4460.46 443.164   4
  -1   3  -4 4021.02 371.040  17
   1  -3   4 3378.86 172.327  13
   1  -3   4 3460.24 237.613   2
  -1   3  -5 2159.06 433.747   9
   1  -3   5 1554.46 129.132  13
  -1   3  -5 1873.90 326.203  21
   1  -3   5 2059.79 311.052  20
  -1   3  -5 1537.85 282.622   4
   1  -3   5 1774.05 350.807   3
   1  -3   5 1647.00 349.733  15
   1  -3   5 1701.36 189.006   2
   1  -3   5 2040.09 308.063  10
   1  -3   5 1241.92 126.330  11
   1  -3   5 1516.38 124.110  14
   1  -3   6 4442.04 320.802   2
   1  -3   6 4412.34 563.187   3
   1  -3   6 3983.55 237.791  14
   1  -3   6 2464.61 185.481  11
  -1   3  -6 4402.26 517.657  21
  -1   3  -6 4483.78 604.334   9
   1  -3   6 3761.59 238.970  13
   1  -3   6 4696.28 488.852  20
  -1   3  -6 4192.40 478.196   4
   1  -3   6 4657.14 589.490  15
   1  -3   6 4081.50 425.954  10
  -1   3  -7 9119.05 879.970   9
   1  -3   7 7941.69 356.860  11
   1  -3   7 9026.79 398.979  14
  -1   3  -7 10090.8 751.054   4
   1  -3   7 10859.9 902.314   3
   1  -3   7 10909.0 884.856  15
   1  -3   7 10175.2 538.330   2
   1  -3   7 9655.26 445.408  13
   1  -3   7 10014.9 762.294  20
  -1   3  -7 11211.4 838.829  21
   1  -3   7 9603.39 624.636  10
   1  -3   8 7556.07 699.682  20
   1  -3   8 6961.30 353.483  11
  -1   3  -8 8026.98 696.564  17
  -1   3  -8 6059.05 767.431   9
   1  -3   8 8722.58 825.334  15
   1  -3   8 8790.69 665.424  16
   1  -3   8 7530.07 507.116   2
  -1   3  -8 8774.30 731.780   4
   1  -3   8 8246.75 819.889   3
   1  -3   8 7330.88 540.631  10
  -1   3  -8 9896.68 811.650  21
   1  -3   9 2319.17 478.688  15
   1  -3   9 2115.03 344.376  16
   1  -3   9 1894.22 434.112   3
  -1   3  -9 1929.13 462.808   9
   1  -3   9 2317.03 293.345  10
   1  -3   9 1917.14 204.242  11
   1  -3   9 2415.45 424.891  20
   1  -3   9 2296.98 291.957   2
  -1   3  -9 2217.40 392.232  17
  -1   3  -9 2932.77 470.559  21
  -1   3  -9 2811.35 433.022   4
   1  -3  10 233.658 219.929  15
   1  -3  10 501.055 182.487   2
  -1   3 -10 357.677 202.197   9
   1  -3  10 532.604 190.722  16
   1  -3  10 304.053 225.482   3
  -1   3 -10 270.153 181.968  17
  -1   3 -10 391.000 202.565  21
  -1   3 -10 682.043 255.819   4
   1  -3  10 585.152 165.446  10
   1  -3  10 110.359 173.811  20
   1  -3  11 848.927 298.820   3
   1  -3  11 1095.98 251.886  16
  -1   3 -11 1394.93 338.220  21
   1  -3  11 756.478 314.839  15
  -1   3 -11 961.594 332.980   9
   1  -3  11 1047.65 248.624   2
   1  -3  11 314.326 195.588  20
  -1   3 -11 1050.11 269.421   4
  -1   3 -11 1279.22 354.492  17
  -1   3 -12 181.518 208.230  21
  -1   3 -12 181.685 216.620  17
   1  -3  12-4.93177 201.677  15
   1  -3  12-59.3428 137.975   2
   1  -3  12-287.914 269.201  20
  -1   3 -12 230.631 204.120   4
  -1   3 -12-86.6303 278.463   9
   1  -3  12-458.937 270.134   3
   1  -3  13 252.068 194.906  20
   1  -3  13 459.183 242.426   3
  -1   3 -13 372.741 213.347  17
  -1   3 -13 506.132 252.032   4
  -1   3 -13 231.804 202.956   9
  -1   3 -13 321.676 210.979  21
   1  -3  13 284.751 234.651  15
  -1   3 -14-219.150 301.637   9
  -1   3 -14 266.854 264.094   4
   1  -3  14 457.197 256.576  20
   1  -3  14 107.483 239.677  15
  -1   3 -14 254.213 290.166  21
  -1   3 -14-33.0927 187.000  17
   1  -3  14 100.418 243.586   3
  -1   3 -15 746.865 357.240  17
   1  -3  15 744.064 328.147  20
   1  -3  15 784.484 330.645  15
  -1   3 -15 415.275 253.011  21
   1  -3  15 275.966 250.844   3
  -1   3 -15 467.695 330.958   9
  -1   3 -16 895.678 402.990   9
  -1   3 -16 731.034 302.369  21
   1  -3  16 1034.51 375.925   3
  -1   3 -16 1096.00 445.460  17
  -1   3 -16 2426.35 540.368   8
   1  -3  16 1677.46 507.862  15
   1  -3  16 1228.17 419.132  20
  -1   3 -17 1646.81 536.281  17
  -1   3 -17 1433.28 450.061   8
   1  -3  17 1052.02 426.605   3
  -1   3 -17 2584.38 589.109  21
   1  -3  17 1804.00 501.242  20
   1  -3  17 2393.66 590.163  15
   1  -2 -20 413.372 371.020   1
  -1   2  20-484.977 316.137  11
   1  -2 -20-413.307 274.335  17
  -1   2  20 718.982 367.622  19
  -1   2  20 405.853 307.727  20
   1  -2 -19 173.969 220.652   1
   1  -2 -19 170.409 184.066  17
  -1   2  19 308.453 277.744  19
  -1   2  19-340.507 274.131  11
  -1   2  19 154.263 202.214  20
  -1   2  18 583.608 339.902  19
   1  -2 -18 959.465 364.973  17
   1  -2 -18 399.814 286.403   1
  -1   2  18 227.050 253.291  20
  -1   2  18-68.5004 250.166  11
   1  -2 -17 284.586 221.468   1
  -1   2  17 159.952 237.415  19
   1  -2 -17 172.736 199.448   8
   1  -2 -17 223.360 228.566  17
   1  -2 -16 2800.01 466.642   8
   1  -2 -16 2168.06 460.844   1
  -1   2  16 2765.51 579.124  19
  -1   2  16 2684.81 571.199  11
   1  -2 -16 1747.17 426.438  17
   1  -2 -15 2335.95 496.112   1
  -1   2  15 3127.90 589.236  19
   1  -2 -15 2149.38 402.992   8
  -1   2  15 2589.39 572.549  11
   1  -2 -15 2499.23 488.676  17
   1  -2 -14 4022.85 618.538   1
   1  -2 -14 3481.72 374.968  10
  -1   2  14 3784.22 688.275  11
   1  -2 -14 3566.20 563.453  17
   1  -2 -14 3916.02 510.222   8
  -1   2  14 4471.80 692.289  19
   1  -2 -13 24246.7 1407.95   1
   1  -2 -13 20943.5 854.358  16
  -1   2  13 25708.6 1501.96  19
   1  -2 -13 20429.5 1148.47   8
  -1   2  13 23220.3 1485.34  11
   1  -2 -13 19381.2 907.813  10
  -1   2  12 3525.20 658.731  11
   1  -2 -12 3890.14 498.030   8
   1  -2 -12 4554.56 390.572  16
  -1   2  12 4605.43 660.859  19
   1  -2 -12 4250.91 599.969   1
   1  -2 -12 3727.56 400.368  10
   1  -2 -11 5181.57 469.702  10
  -1   2  11 6266.28 729.265  11
   1  -2 -11 5341.70 634.556   1
  -1   2  11 6192.26 714.584  19
   1  -2 -11 6336.99 588.238   8
   1  -2 -10 8641.50 673.850   8
  -1   2  10 8543.06 764.498  19
  -1   2  10 9293.16 825.242  11
   1  -2 -10 7909.68 570.161  10
  -1   2  10 8109.44 568.864  18
   1  -2 -10 8862.46 776.588   1
   1  -2  -9 1895.01 313.359   8
  -1   2   9 1576.08 353.716  19
   1  -2  -9 1320.13 309.952   1
  -1   2   9 1873.96 400.295  11
   1  -2  -9 1205.14 246.354  10
  -1   2   9 1457.69 239.545  18
  -1   2   8 30391.0 1044.57  18
  -1   2   8 29081.6 1379.53  11
   1  -2  -8 29543.8 1198.49   8
   1  -2  -8 30558.4 1148.64  10
   1  -2  -8 29875.6 1340.23   1
   1  -2  -7 22206.2 1129.75   1
  -1   2   7 23690.0 1163.93   5
   1  -2  -7 20609.7 975.271   8
   1  -2  -7 21834.0 935.550  10
  -1   2   7 21296.5 863.155  18
  -1   2   7 20264.0 1147.51  11
   1  -2  -6 77475.7 1970.53   8
   1  -2  -6 80225.3 2164.78   1
  -1   2   6 82641.2 2192.04  11
   1  -2  -6 77809.0 1906.19  10
  -1   2   6 75038.1 1761.40  18
   1  -2  -5 99016.4 2258.29   8
   1  -2  -5 91221.5 2162.32   6
   1  -2  -5 96044.4 2168.26  10
  -1   2   5 99677.7 2344.70  11
  -1   2   5 105489. 2236.64   6
   1  -2  -5 98301.1 2417.17   1
   1  -2  -4 93879.8 2082.89  13
   1  -2  -4 94122.2 2289.38   1
  -1   2   4 100225. 2140.61   6
   1  -2  -4 89171.2 2070.34  10
  -1   2   4 93450.7 2181.66  11
  -1   2   4 93861.9 2100.57  13
  -1   2   4 95880.8 2106.39  21
   1  -2  -4 87273.9 2015.23  21
   1  -2  -3 74978.4 1741.83  21
   1  -2  -3 76891.6 1823.56  11
  -1   2   3 78425.0 1777.27  13
  -1   2   3 76960.4 1832.03   6
   1  -2  -3 78891.4 1762.33  13
  -1   2   3 82422.0 1806.79  21
  -1   2   3 78923.6 1859.99  11
   1  -2  -3 76051.0 1839.92  10
   1  -2  -3 80000.9 2026.25   1
   1  -2  -2 13402.4 652.614  11
  -1   2   2 13236.7 642.419  21
  -1   2   2 12881.0 608.027  13
  -1   2   2 11568.5 643.181  11
   1  -2  -2 11625.2 603.993  21
   1  -2  -2 13593.8 777.898   1
   1  -2  -2 13847.5 608.519  13
   1  -2  -2 14192.3 702.043  10
  -1   2   2 13600.5 695.805   6
  -1   2   1 114.970 79.3343  14
   1  -2  -1 159.368 139.908  15
  -1   2   1-290.300 245.220   9
   1  -2  -1 98.5343 88.4047  11
   1  -2  -1 5.97957 90.5656  21
   1  -2  -1 140.842 85.8894  13
  -1   2   1 106.644 69.8306  13
  -1   2   1-419.612 192.248   4
  -1   2   1 22.6983 94.8246  21
   1  -2  -1 230.846 129.328  10
   1  -2   0 48751.5 1337.52  10
   1  -2   0 49783.3 1077.66  13
   1  -2   0 51117.7 1404.75  15
  -1   2   0 48935.9 1076.38  14
  -1   2   0 52059.2 929.260   2
   1  -2   0 45146.6 880.511  20
  -1   2   0 47163.6 1078.24  13
  -1   2   0 46567.1 1338.81   4
   1  -2   0 50784.1 1331.99  21
  -1   2   0 48078.8 1283.44  21
  -1   2   0 56830.5 1667.23   9
   1  -2   0 48541.2 1151.43  11
   1  -2   1 41546.4 1025.37  11
  -1   2  -1 44996.4 889.949  17
   1  -2   1 44232.0 973.740  20
   1  -2   1 49516.8 1421.60  15
  -1   2  -1 43229.4 981.446  13
  -1   2  -1 46965.2 1282.71  21
  -1   2  -1 49324.2 1564.05   9
   1  -2   1 44202.5 941.855  13
   1  -2   1 46262.3 1282.22  10
   1  -2   1 46059.8 1280.91  21
  -1   2  -1 48200.2 1295.27   4
  -1   2  -1 45350.5 958.099  14
   1  -2   1 43523.3 1219.52   4
   1  -2   2 28905.3 688.974  14
  -1   2  -2 30141.2 1201.09   9
   1  -2   2 28162.6 974.142  10
  -1   2  -2 27989.7 988.504  21
   1  -2   2 25069.2 937.827   4
   1  -2   2 28190.3 681.354  13
   1  -2   2 29521.8 1093.08  15
  -1   2  -2 27312.8 674.436  14
  -1   2  -2 27496.5 999.620   4
   1  -2   2 28844.7 998.514  21
   1  -2   2 28279.8 824.010  20
  -1   2  -2 27878.1 769.298  17
   1  -2   3 390253. 5444.27  20
  -1   2  -3 387122. 4958.19  14
   1  -2   3 387440. 4951.02  14
   1  -2   3 421817. 6011.78   3
   1  -2   3 398289. 4966.06  13
  -1   2  -3 405636. 5371.99  17
   1  -2   3 408388. 5682.44   4
  -1   2  -3 429320. 6218.16   9
   1  -2   3 416102. 5622.75  10
   1  -2   3 428304. 6018.75  15
  -1   2  -3 411677. 5796.02  21
  -1   2  -3 411765. 5762.57   4
   1  -2   3 404072. 5741.28  21
  -1   2  -4 70488.5 1814.16  21
   1  -2   4 65862.3 1570.79  10
   1  -2   4 66742.5 1266.48  13
   1  -2   4 62978.1 1912.85   3
   1  -2   4 68223.7 1229.79  14
   1  -2   4 61914.6 1591.35  20
  -1   2  -4 64326.0 1663.27   4
  -1   2  -4 64842.0 1944.74   9
   1  -2   4 62775.2 1165.75   2
   1  -2   4 67168.8 1921.49  15
  -1   2  -4 65179.2 1583.09  17
   1  -2   5 10077.6 453.783  14
   1  -2   5 11792.1 482.723   2
  -1   2  -5 13165.4 761.724  21
   1  -2   5 12123.8 701.405  20
   1  -2   5 11099.6 794.088   3
   1  -2   5 11710.4 602.555  10
  -1   2  -5 12007.5 830.678   9
   1  -2   5 12664.1 808.859  15
   1  -2   5 12081.9 492.941  11
  -1   2  -5 11135.5 687.454   4
   1  -2   6 14562.7 659.920  10
  -1   2  -6 15012.8 979.211   9
   1  -2   6 14666.7 834.379  20
   1  -2   6 14344.9 944.678   3
  -1   2  -6 18201.4 944.466  21
   1  -2   6 15620.1 632.435  14
   1  -2   6 15609.8 924.863  15
  -1   2  -6 15747.8 848.172   4
   1  -2   6 16500.9 646.675   2
   1  -2   6 15159.2 586.255  11
   1  -2   7 8175.82 480.370  10
  -1   2  -7 8846.54 682.596   4
   1  -2   7 9003.63 485.536  11
   1  -2   7 9706.47 502.008  14
   1  -2   7 8331.82 676.526  20
   1  -2   7 8992.92 800.149   3
  -1   2  -7 10343.0 763.566  21
   1  -2   7 8861.37 777.313  15
  -1   2  -7 8807.06 781.383   9
   1  -2   7 9355.72 530.644   2
   1  -2   8 10897.8 577.683  11
   1  -2   8 10620.0 570.338  14
  -1   2  -8 9493.15 418.074   7
   1  -2   8 12529.6 889.993  15
   1  -2   8 12201.7 891.062   3
  -1   2  -8 13454.2 893.618  21
  -1   2  -8 11832.1 938.602   9
   1  -2   8 9739.94 512.277  10
   1  -2   8 11714.7 835.925  20
  -1   2  -8 11919.1 807.374   4
   1  -2   9 20334.2 719.613  10
   1  -2   9 22851.9 878.814  11
  -1   2  -9 24515.3 1255.71  17
   1  -2   9 21811.6 889.679  14
  -1   2  -9 26588.1 1312.66  21
   1  -2   9 25168.3 1289.91  20
  -1   2  -9 23011.1 1358.18   9
  -1   2  -9 24440.4 1201.65   4
   1  -2   9 26266.9 1358.20   3
   1  -2   9 23647.2 1286.01  15
   1  -2  10 23216.8 922.567  16
   1  -2  10 28900.6 1474.70  15
  -1   2 -10 30048.0 1492.64  21
   1  -2  10 30337.6 1478.51  19
   1  -2  10 26446.0 1001.33  11
   1  -2  10 28879.1 1481.56  20
  -1   2 -10 25794.9 1526.49   9
   1  -2  10 29219.3 1490.93   3
  -1   2 -10 27529.1 1363.12   4
   1  -2  10 23960.1 767.430  10
  -1   2 -10 28165.5 1439.07  17
   1  -2  11 21886.6 1387.58  20
  -1   2 -11 22047.9 1280.21   4
  -1   2 -11 22090.5 1448.48   9
   1  -2  11 26627.6 1459.43  15
   1  -2  11 21711.8 948.257  11
  -1   2 -11 25974.7 1437.29  21
   1  -2  11 25062.4 1437.78   3
   1  -2  11 26379.1 1437.57  19
   1  -2  11 19832.9 827.833  16
  -1   2 -11 23573.9 1386.56  17
   1  -2  12 7767.68 837.460  15
  -1   2 -12 7825.17 833.071  17
  -1   2 -12 8161.17 896.825  21
   1  -2  12 7235.58 573.669  11
   1  -2  12 7589.34 829.766   3
  -1   2 -12 6932.24 773.808   4
   1  -2  12 6875.02 812.537  20
  -1   2 -12 7490.65 883.694   9
   1  -2  12 8958.27 854.903  19
  -1   2 -13 3217.34 619.347   9
  -1   2 -13 4347.41 672.244  21
   1  -2  13 3617.51 605.324  15
  -1   2 -13 4182.28 676.549  17
   1  -2  13 3005.48 388.907  11
   1  -2  13 4328.03 662.021  20
   1  -2  13 4116.21 649.713  19
  -1   2 -13 3767.83 590.585   4
   1  -2  13 4622.91 700.005   3
  -1   2 -14 1064.74 354.815   4
  -1   2 -14 956.453 300.724  21
  -1   2 -14 983.089 358.668  17
   1  -2  14 557.149 252.609  15
   1  -2  14 708.986 278.300  19
   1  -2  14 608.626 291.218  20
  -1   2 -14 1020.58 410.729   9
   1  -2  14 893.046 350.353   3
  -1   2 -15 296.843 279.847  17
  -1   2 -15-173.234 180.230   8
   1  -2  15 150.934 184.207   2
  -1   2 -15 201.040 192.339   9
  -1   2 -15 332.391 236.575  21
   1  -2  15 315.741 257.702  19
   1  -2  15-138.057 172.348  15
   1  -2  15-42.0089 180.929  20
   1  -2  15-508.108 318.391   3
  -1   2 -16 1037.69 445.587   9
  -1   2 -16 2338.42 584.989  17
   1  -2  16 975.840 407.453   3
   1  -2  16 2145.47 446.308   2
  -1   2 -16 1850.24 435.369   8
   1  -2  16 1760.95 469.705  15
  -1   2 -16 3477.61 687.733  21
   1  -2  16 1843.04 502.111  20
   1  -2  16 2076.08 500.824  19
   1  -2  17 280.500 275.022  15
   1  -2  17 480.503 298.939  20
   1  -2  17 472.453 310.314  19
  -1   2 -17 19.1926 288.568   9
  -1   2 -17 543.615 282.319   8
  -1   2 -17 695.951 361.335  21
   1  -2  17 505.715 272.349   3
  -1   2 -17 490.365 323.725  17
  -1   2 -18 1063.49 446.637  21
  -1   2 -18 1144.70 433.914   8
   1  -2  18 846.895 403.103   3
   1  -2  18 2177.56 572.677  20
  -1   2 -18 2083.14 604.468  17
   1  -2  18 1718.15 481.219  15
   1  -2  18 1949.33 537.991  19
   1  -2  19 2693.32 636.438   3
   1  -2  19 2837.37 613.351  15
  -1   2 -19 1385.82 457.063   8
   1  -2  19 3891.83 746.295  19
  -1   1  20-10.7490 198.062  11
  -1   1  20 85.1271 219.158  20
   1  -1 -20 354.830 243.979   1
  -1   1  20 242.833 321.137  19
   1  -1 -20 603.528 334.816  17
  -1   1  19 3195.90 653.498  19
   1  -1 -19 2658.97 602.404   1
  -1   1  19 2566.18 595.362  20
   1  -1 -19 2713.92 509.988   8
  -1   1  19 2763.80 600.557  11
   1  -1 -19 2355.75 583.943  17
  -1   1  18 944.035 363.208  11
   1  -1 -18 757.911 278.277   8
   1  -1 -18 952.992 342.529   1
  -1   1  18 663.097 354.992  19
  -1   1  18 268.493 200.516  20
   1  -1 -18 955.591 403.227  17
   1  -1 -17 384.134 308.876  17
  -1   1  17-105.361 242.058  19
  -1   1  17 385.731 285.475  11
   1  -1 -17 130.110 173.488   1
  -1   1  17 641.692 289.114  20
   1  -1 -17 94.6100 136.435   8
  -1   1  16 2360.79 558.165  11
   1  -1 -16 3022.71 551.788   1
  -1   1  16 3104.80 583.080  19
   1  -1 -16 3002.48 450.420   8
  -1   1  16 2014.18 462.614  20
   1  -1 -15 5949.73 629.710   8
   1  -1 -15 6618.70 778.893   1
  -1   1  15 5929.51 753.933  20
  -1   1  15 7731.43 885.338  19
  -1   1  15 5977.85 812.964  11
   1  -1 -14 6807.77 757.345   1
  -1   1  14 7698.65 812.813  19
   1  -1 -14 5911.33 604.978   8
  -1   1  14 6589.54 805.328  11
   1  -1 -13 38069.3 1009.53  10
  -1   1  13 32464.6 1690.76  11
   1  -1 -13 28834.5 1318.68   8
  -1   1  13 36386.9 1720.26  19
   1  -1 -13 28307.0 1484.97   1
   1  -1 -12 17445.0 675.924  10
   1  -1 -12 20808.5 1204.36   1
   1  -1 -12 20335.0 1040.54   8
  -1   1  12 19739.6 1337.20  11
   1  -1 -11 5896.44 394.298  10
  -1   1  11 7506.12 736.133  11
   1  -1 -11 5948.22 550.313   8
   1  -1 -11 5765.26 610.607   1
  -1   1  11 6455.98 696.972  19
  -1   1  10 3129.11 504.361  11
   1  -1 -10 3544.05 316.425  10
   1  -1 -10 3591.95 467.335   1
   1  -1 -10 3765.70 420.410   8
   1  -1 -10 2357.48 287.934  18
  -1   1  10 3975.01 494.464  19
  -1   1   9 951.963 307.956  11
   1  -1  -9 1149.98 189.511  10
   1  -1  -9 668.550 160.043  18
  -1   1   9 1334.89 316.509  19
   1  -1  -9 730.515 212.142   8
   1  -1  -9 546.055 178.378   1
   1  -1  -8 2338.17 346.678   1
   1  -1  -8 1933.70 282.396   8
  -1   1   8 1830.89 348.609  19
   1  -1  -8 1792.03 232.630  10
   1  -1  -8 1650.66 253.779  15
  -1   1   8 2036.39 372.535  11
   1  -1  -8 1484.20 212.171  18
   1  -1  -7 17176.4 674.792  18
   1  -1  -7 21733.3 959.471   1
   1  -1  -7 19795.9 860.830   8
   1  -1  -7 18818.8 710.879  10
  -1   1   7 20810.7 1043.24  11
   1  -1  -7 19568.6 772.308  15
  -1   1   7 20166.8 711.287  18
   1  -1  -6 13795.9 686.238   6
   1  -1  -6 15056.0 770.915   1
  -1   1   6 15664.0 553.390  18
   1  -1  -6 14499.4 710.716   8
   1  -1  -6 13793.1 598.674  10
  -1   1   6 13982.0 688.550   8
  -1   1   6 16113.6 781.087   1
  -1   1   6 15756.1 853.597  11
  -1   1   5 23761.6 941.505   5
   1  -1  -5 25385.6 966.268  21
   1  -1  -5 22146.7 850.237   8
  -1   1   5 23142.3 967.714  11
  -1   1   5 23221.0 670.553  18
   1  -1  -5 21215.8 802.491   6
  -1   1   5 21524.0 853.017   1
  -1   1   5 23307.9 841.278   8
   1  -1  -5 24569.9 938.735   1
   1  -1  -5 19569.1 856.862   5
   1  -1  -4 41460.3 1202.97   1
   1  -1  -4 43855.0 1207.82   8
  -1   1   4 44140.5 1286.23  11
   1  -1  -4 38541.7 1060.90   6
  -1   1   4 41912.1 939.486  18
  -1   1   4 39607.2 1233.94  13
   1  -1  -4 45375.3 1248.27  21
  -1   1   3 3575.83 269.969   6
   1  -1  -3 3594.74 313.853  21
  -1   1   3 3371.60 333.280  11
   1  -1  -3 3492.16 336.853   8
  -1   1   3 3695.56 318.631  13
   1  -1  -3 3147.65 333.031   1
   1  -1  -3 3129.65 265.627   6
  -1   1   2 119474. 2135.61  13
   1  -1  -2 128616. 2288.96   8
   1  -1  -2 121690. 2238.14   1
  -1   1   2 120449. 2205.66  11
  -1   1   2 122512. 1981.16   6
   1  -1  -2 119881. 2158.91  21
  -1   1   1 18552.4 626.465  14
  -1   1   1 18147.2 630.757  13
   1  -1  -1 18696.8 688.824  21
  -1   1   0 60171.9 1163.53  14
  -1   1   0 59306.0 1364.70   4
   1  -1   0 64831.7 1398.07  21
  -1   1   0 58014.8 1171.21  13
  -1   1   0 61192.8 979.352  17
   1  -1   0 55084.0 1136.33  13
   1  -1   0 55259.9 1135.80  14
  -1   1   0 66297.5 1484.90   9
  -1   1  -1 56288.2 1003.67  17
   1  -1   1 55991.8 1300.60  15
  -1   1  -1 50662.2 1057.59  13
  -1   1  -1 56196.4 1038.95  14
   1  -1   1 53327.9 1040.63  14
   1  -1   1 53794.5 1051.12  13
   1  -1   1 51303.4 1265.24  21
  -1   1  -1 54452.9 1257.59   4
  -1   1  -1 52004.3 1314.78   9
   1  -1   1 52613.5 973.725  17
  -1   1  -2 128945. 1922.51  14
   1  -1   2 124524. 1941.04  13
  -1   1  -2 128743. 2371.04   9
  -1   1  -2 124094. 2009.62  17
   1  -1   2 129894. 2289.63  21
   1  -1   2 127087. 2315.28  15
   1  -1   2 123179. 1903.66  14
  -1   1  -2 120054. 2229.81   4
  -1   1  -3 19352.2 600.467  14
  -1   1  -3 21541.0 787.677   4
   1  -1   3 17611.3 774.471  15
  -1   1  -3 19789.7 687.779  17
   1  -1   3 18824.0 763.720  21
  -1   1  -3 17888.9 774.869  19
   1  -1   3 16842.3 566.531  14
  -1   1  -3 20204.3 842.785   9
   1  -1   4 22460.4 695.823  14
   1  -1   4 22709.2 901.531  21
  -1   1  -4 23384.8 935.262  19
  -1   1  -4 22396.4 960.219   9
  -1   1  -4 23070.0 862.869   4
   1  -1   4 24482.6 948.369   3
  -1   1  -4 23377.9 837.747  17
   1  -1   4 25346.6 950.305  15
   1  -1   4 21889.1 889.651   4
   1  -1   5 25073.4 791.957  14
  -1   1  -5 26430.7 1120.03   9
   1  -1   5 24525.3 818.501  11
  -1   1  -5 23032.2 962.981   4
   1  -1   5 26728.6 1042.14  15
   1  -1   5 25370.6 1028.71   3
   1  -1   5 26214.8 1011.14   4
  -1   1  -5 26663.8 985.442  17
   1  -1   6 11131.6 729.108  15
   1  -1   6 10160.4 539.920  14
  -1   1  -6 9838.11 389.658   7
   1  -1   6 10853.0 716.683   3
   1  -1   6 12488.6 581.488  11
  -1   1  -6 11243.0 763.812   9
  -1   1  -6 11179.9 676.013   4
  -1   1  -6 11607.6 697.561  17
   1  -1   7 122.016 69.4018  14
   1  -1   7 163.711 113.509  11
   1  -1   7 98.2222 130.494  15
  -1   1  -7 13.1416 140.955  21
  -1   1  -7 72.9745 179.288   9
   1  -1   7 76.1200 118.735   3
  -1   1  -7 226.359 152.901   4
  -1   1  -7 200.410 54.3333   7
  -1   1  -7 340.854 183.336  17
   1  -1   8 7114.24 516.903  11
   1  -1   8 9340.15 719.613  19
   1  -1   8 7633.75 656.251   3
  -1   1  -8 8144.19 721.658   9
   1  -1   8 7134.02 619.742  15
  -1   1  -8 8687.97 700.349  21
  -1   1  -8 8885.36 675.457   4
  -1   1  -8 8830.00 713.179  17
   1  -1   8 7994.07 352.539  10
   1  -1   9 2842.26 196.625  10
   1  -1   9 4665.75 447.871  11
   1  -1   9 4536.57 544.418  19
  -1   1  -9 4472.36 559.964  17
   1  -1   9 4662.27 508.365   3
  -1   1  -9 4547.79 517.147   4
  -1   1  -9 4378.13 532.110  21
  -1   1  -9 3688.11 531.359   9
   1  -1   9 4653.96 505.501  15
   1  -1  10 3081.73 511.658  15
  -1   1 -10 3258.55 464.903   4
   1  -1  10 4421.55 531.549  19
   1  -1  10 3615.08 533.217   3
  -1   1 -10 3964.73 524.132  21
   1  -1  10 4005.45 435.461  11
  -1   1 -10 3320.05 492.106   9
  -1   1 -10 3790.32 522.767  17
   1  -1  11 21239.3 1171.13  15
  -1   1 -11 22048.8 1233.83   4
   1  -1  11 22683.1 1229.37   3
  -1   1 -11 17698.8 1208.99   9
   1  -1  11 20509.5 1006.78  11
   1  -1  11 23721.9 1312.49  19
  -1   1 -11 21855.5 1300.75  21
  -1   1 -11 23679.6 1344.25  17
   1  -1  12 30145.1 1449.83  15
   1  -1  12 30765.0 1582.87  19
   1  -1  12 27690.4 1237.28  11
  -1   1 -12 32391.2 1674.72  21
  -1   1 -12 26655.7 1484.31   4
  -1   1 -12 25555.7 1543.55   9
   1  -1  12 28853.5 1454.73   3
  -1   1 -12 29782.4 1595.67  17
   1  -1  13 6452.00 715.536   3
  -1   1 -13 7668.51 848.399  21
  -1   1 -13 4942.31 734.878   9
  -1   1 -13 7381.44 836.827  17
  -1   1 -13 6765.92 694.336   8
   1  -1  13 7151.74 794.786  19
   1  -1  13 6357.56 703.726  15
  -1   1 -13 6889.71 783.318   4
   1  -1  13 6896.20 629.713  11
  -1   1 -14 3767.85 656.023  17
  -1   1 -14 3176.16 597.886   9
  -1   1 -14 3146.09 473.798   8
   1  -1  14 3484.05 551.455   3
  -1   1 -14 4524.32 685.775  21
   1  -1  14 3019.35 503.625  15
   1  -1  14 3614.31 485.313  11
   1  -1  14 3982.81 609.905  19
   1  -1  15 2338.23 527.519  19
   1  -1  15 2409.21 465.008  15
  -1   1 -15 1492.63 417.806   9
  -1   1 -15 1493.98 367.675   8
   1  -1  15 1969.17 397.150  11
   1  -1  15 2521.84 480.829   3
  -1   1 -15 2485.49 591.104  17
  -1   1 -15 2368.98 551.397  21
  -1   1 -16 581.879 312.317  17
  -1   1 -16 1405.62 439.767  21
   1  -1  16 743.581 283.870  15
  -1   1 -16 562.009 245.497   8
   1  -1  16 640.542 243.836  11
   1  -1  16 1022.26 357.576   3
   1  -1  16 951.945 356.800  19
   1  -1  17 1777.80 417.254  15
  -1   1 -17 982.603 359.364   8
  -1   1 -17 1593.44 507.599  17
   1  -1  17 1237.50 464.997  20
   1  -1  17 1648.35 477.047  19
   1  -1  17 1422.61 403.817   3
  -1   1 -17 1498.25 499.906  21
  -1   1 -17 931.190 371.945   1
   1  -1  18 2704.41 626.153  19
  -1   1 -18 967.516 387.131   1
  -1   1 -18 2588.84 625.534  17
   1  -1  18 2321.75 610.442  20
   1  -1  18 2607.40 529.806  15
  -1   1 -18 1461.61 403.116   8
  -1   1 -18 1921.09 569.916  21
   1  -1  18 1730.67 462.941   3
   1  -1  19 359.417 272.224   3
  -1   1 -19 89.0877 225.715   1
   1  -1  19 294.700 243.166  15
  -1   1 -19-95.7968 294.998  21
   1  -1  19-133.610 205.838  19
  -1   0  21 656.839 356.711  19
  -1   0  21 818.304 375.588  11
   1   0 -20-98.2118 202.930   1
   1   0 -20 6.23346 196.202   8
  -1   0  20 117.144 187.351  19
  -1   0  20-32.3644 174.242  11
  -1   0  19 30.7789 171.834  19
   1   0 -19 265.311 272.251   1
   1   0 -19 143.621 301.789  17
  -1   0  19 759.521 368.647  20
   1   0 -19 370.558 247.305   8
  -1   0  19 215.864 205.367  11
   1   0 -18 364.664 283.685   1
  -1   0  18-45.8684 237.088  19
  -1   0  18 460.896 251.774  11
   1   0 -18 485.812 247.406   8
  -1   0  18 303.370 214.515  20
   1   0 -17 1409.57 412.172   1
   1   0 -17 1218.93 367.226   8
  -1   0  17 1328.71 413.717  20
  -1   0  17 1205.51 389.475  11
  -1   0  17 1948.58 474.346  19
   1   0 -16 736.676 292.655   8
   1   0 -16 836.506 322.171   1
  -1   0  16 751.641 306.687  19
  -1   0  16 1383.48 401.204  20
  -1   0  16 404.899 243.737  11
   1   0 -15 2339.31 470.037   1
   1   0 -15 1711.14 367.904   8
  -1   0  15 1793.75 420.508  11
  -1   0  15 2035.73 456.915  19
  -1   0  15 2321.02 489.076  20
  -1   0  14 2687.30 508.207  20
   1   0 -14 3860.70 523.642   8
  -1   0  14 3498.47 567.176  11
   1   0 -14 3596.83 547.757   1
  -1   0  14 3783.93 565.460  19
  -1   0  13 5976.03 709.291  11
  -1   0  13 5743.64 690.721  20
   1   0 -13 5763.14 669.658   1
  -1   0  13 7202.98 739.805  19
   1   0 -13 6151.10 616.879   8
  -1   0  12 5266.92 623.473  19
   1   0 -12 4485.66 563.353   1
   1   0 -12 5442.03 557.441   8
  -1   0  12 4288.13 588.788  11
  -1   0  12 3306.52 528.437  20
   1   0 -11 38490.5 1562.47   1
  -1   0  11 39180.9 1622.58  20
  -1   0  11 39777.8 1627.61  11
   1   0 -11 36628.3 1393.22   8
   1   0 -10 6449.93 550.633   8
  -1   0  10 7468.08 654.009  11
  -1   0  10 6362.57 626.197  20
   1   0 -10 4048.02 224.664  10
  -1   0  10 6904.29 614.193  19
   1   0 -10 5647.39 584.919   1
   1   0  -9 12174.3 418.791  10
   1   0  -9 11486.2 696.741   8
  -1   0   9 12598.6 818.311  11
   1   0  -9 11487.7 739.663   1
  -1   0   9 11868.3 760.582  19
   1   0  -8 46118.2 1477.01   1
  -1   0   8 47273.3 1591.31  11
   1   0  -8 44578.8 1378.46   8
  -1   0   7 119716. 2426.65  19
   1   0  -7 119337. 2383.42   1
  -1   0   7 119004. 2454.18  20
   1   0  -7 115215. 2279.98   8
   1   0  -6 59378.3 1470.34   8
  -1   0   6 61494.3 1551.41  19
   1   0  -6 62066.4 1497.78   1
   1   0  -6 60287.1 1534.77  19
  -1   0   6 64992.6 1658.50  11
  -1   0   6 60616.5 1541.93   9
  -1   0   6 59786.1 1551.01  20
   1   0  -6 59173.1 1503.05   3
   1   0  -6 63846.1 1520.13  15
   1   0  -5 31232.5 944.285   1
   1   0  -5 30632.1 952.551   8
  -1   0   5 34028.0 1022.77  19
  -1   0   5 31253.6 1075.69  13
   1   0  -5 29514.5 967.948  19
  -1   0   5 35274.6 1098.91  11
  -1   0   5 32448.6 1005.93  20
   1   0  -5 28128.2 684.887  18
   1   0  -5 34197.0 982.902  15
   1   0  -4 125367. 2139.34   8
   1   0  -4 122638. 2034.75   1
  -1   0   4 125401. 2141.45  20
  -1   0   4 119872. 2256.18  13
   1   0  -4 117265. 2148.59  19
  -1   0   4 122727. 2044.91   1
   1   0  -4 125687. 2310.61  21
  -1   0   4 124429. 2261.00  11
  -1   0   4 125406. 2159.77  19
  -1   0   3 6802.61 424.380  13
  -1   0   3 7122.57 363.673  20
   1   0  -3 7629.82 357.597   5
  -1   0   3 7479.04 350.831   1
  -1   0   3 7214.81 426.840  11
   1   0  -3 8447.82 363.819   1
   1   0  -3 7561.89 405.946   8
   1   0  -3 7973.29 441.516  21
   1   0  -2 1675.42 148.584   5
   1   0  -2 2126.39 212.120   8
   1   0  -2 1903.37 161.313   1
  -1   0   2 1619.19 192.620  13
  -1   0   2 1736.52 170.988  20
   1   0  -2 2293.54 231.142  21
  -1   0  -2 9035.06 436.915  19
  -1   0  -2 9080.87 358.005   7
   1   0   2 8852.41 408.267  17
  -1   0  -2 9881.50 398.038  14
   1   0   2 9872.61 462.001  21
  -1   0  -2 9483.59 423.715   9
   1   0   3 149845. 2332.14  15
  -1   0  -3 145184. 2115.25   7
  -1   0  -3 148476. 2477.27  19
   1   0   3 138226. 2433.57  21
  -1   0  -3 152133. 2453.01   9
  -1   0  -3 157069. 2457.26   4
   1   0   3 144055. 2388.97  17
  -1   0  -4 145515. 2522.72   9
  -1   0  -4 136604. 2462.21   4
  -1   0  -4 145890. 2564.53  19
  -1   0  -4 134100. 2023.02   7
   1   0   4 147281. 2340.08   3
   1   0   4 137728. 2058.99   7
   1   0   4 145123. 2397.73  11
   1   0   4 138896. 2306.64  15
   1   0   5 32393.6 752.487   7
  -1   0  -5 32320.6 1100.74   9
   1   0   5 33782.1 984.137  15
  -1   0  -5 33555.7 1129.55  19
   1   0   5 34216.0 989.327   3
  -1   0  -5 34579.1 1103.18   4
  -1   0  -5 31752.1 950.893  15
   1   0   5 32444.6 998.453  11
   1   0   6 70531.7 1654.78  15
  -1   0  -6 85987.2 1933.87   4
  -1   0  -6 74453.2 1674.77  15
   1   0   6 81579.7 1785.22  11
   1   0   6 74720.4 1314.05   7
   1   0   6 75673.3 1699.97   3
  -1   0  -6 77180.8 1908.35   9
   1   0   7 173040. 3081.50  15
   1   0   7 171801. 2511.70   7
   1   0   7 169412. 3157.35  11
   1   0   7 187841. 3164.46   3
  -1   0  -7 179800. 3087.68  15
  -1   0  -7 185306. 3227.69  11
  -1   0  -7 189699. 3370.90   4
  -1   0  -7 172237. 3401.26   9
   1   0   8 9571.86 623.388   3
  -1   0  -8 11998.2 754.745   4
   1   0   8 10506.5 400.526   7
   1   0   8 9857.84 668.012  11
   1   0   8 9723.39 620.551  15
  -1   0  -8 10634.1 756.604   9
  -1   0  -9 2862.47 397.280   9
   1   0   9 2652.69 195.713   7
  -1   0  -9 2842.49 404.609   4
   1   0   9 2480.94 395.528  11
  -1   0  -9 1659.01 132.698  12
   1   0   9 1653.88 122.752  10
   1   0   9 2800.44 376.580  15
   1   0   9 2938.57 370.503   3
   1   0  10 20523.6 1053.69  11
   1   0  10 19401.5 991.787   3
  -1   0 -10 20047.9 1152.11   9
   1   0  10 19890.6 966.356  15
  -1   0 -10 21101.4 1187.68  17
  -1   0 -10 19767.5 1113.44   4
   1   0  10 22720.4 1199.47  19
  -1   0 -11 15909.6 1074.24   4
   1   0  11 16532.7 936.097   3
   1   0  11 16901.5 927.109  15
  -1   0 -11 16635.8 881.065   8
  -1   0 -11 16934.4 1129.99  17
   1   0  11 16051.1 959.723  11
   1   0  11 17876.5 1100.62  19
  -1   0 -12 13195.0 1034.67   4
   1   0  12 14434.7 1055.13  19
  -1   0 -12 13960.8 846.713   8
   1   0  12 13894.3 885.665  15
   1   0  12 13923.0 898.092   3
  -1   0 -12 13635.0 1072.38  17
   1   0  12 12274.1 877.826  11
   1   0  13 13779.2 962.870  11
  -1   0 -13 14348.4 1124.73  17
   1   0  13 15280.4 1100.44  19
  -1   0 -13 12599.6 1043.62   1
  -1   0 -13 13093.3 849.928   8
   1   0  13 12387.6 893.025   3
   1   0  13 13923.7 917.120  15
  -1   0 -14 5178.46 711.662   1
   1   0  14 4931.46 589.460   3
  -1   0 -14 6604.20 796.943  21
  -1   0 -14 5893.99 764.088  17
   1   0  14 4745.77 601.835  11
  -1   0 -14 4523.78 563.431   8
   1   0  14 5675.72 715.939  19
   1   0  14 4806.82 567.884  15
  -1   0 -15 1927.32 480.472  17
  -1   0 -15 3018.82 443.625   8
   1   0  15 3042.78 550.048  19
   1   0  15 1808.61 367.805  15
   1   0  15 2620.28 473.957  11
   1   0  15 1956.63 403.566   3
  -1   0 -15 2171.10 476.364   1
  -1   0 -15 2770.17 554.776  21
  -1   0 -16 1683.44 478.756  17
  -1   0 -16 1720.94 361.521   8
   1   0  16 1386.07 378.991  11
  -1   0 -16 1287.75 416.075   1
   1   0  16 1727.03 370.878  15
  -1   0 -16 1569.75 477.136  21
   1   0  16 1321.14 355.331   3
   1   0  16 2689.10 530.204  19
   1   0  17 841.723 299.397  15
  -1   0 -17 182.494 227.765  17
   1   0  17 489.722 254.857   3
  -1   0 -17-16.1155 263.334  21
  -1   0 -17 157.440 141.279   8
  -1   0 -17 547.318 296.156   1
   1   0  17 400.286 239.517  11
   1   0  17 209.708 266.756  19
   1   0  18-203.396 167.139  15
  -1   0 -18 131.092 224.135  21
   1   0  18-109.081 184.908   3
  -1   0 -18 325.158 337.014  17
   1   0  18 437.239 292.195  11
  -1   0 -18-11.0902 178.377   1
   1   0  18-130.502 178.503  19
  -1   0 -18-327.859 194.712   8
   1   0  19 428.086 257.432  11
  -1   0 -19 320.222 296.518  17
  -1   0 -19 39.7223 178.390   1
   1   0  19 12.2579 208.065  19
   1   0  20 250.472 266.752  19
  -1  -1  21 587.021 341.954  19
   1   1 -20 1050.30 407.710   8
   1   1 -20 1310.84 473.033   1
  -1  -1  20 593.169 294.263  19
  -1  -1  19 416.969 323.068  20
   1   1 -19 464.704 311.427   1
  -1  -1  19 408.314 337.345   2
   1   1 -19-62.2203 170.142   8
  -1  -1  19 201.657 255.165  19
   1   1 -18 905.270 374.331   1
  -1  -1  18 1144.04 349.214  11
   1   1 -18 1481.60 402.293   8
  -1  -1  18 2174.01 537.794  20
  -1  -1  18 2087.38 501.906  19
  -1  -1  17 254.521 194.741  11
  -1  -1  17 779.038 314.065  19
   1   1 -17 403.630 260.886   8
  -1  -1  17 185.360 180.804  20
   1   1 -17 420.396 264.492   1
  -1  -1  16 247.856 236.153  20
   1   1 -16 234.550 221.431   1
  -1  -1  16 479.310 233.928  11
  -1  -1  16 493.010 221.358  19
   1   1 -16 351.837 244.923   8
  -1  -1  15 1103.71 334.945  15
  -1  -1  15 840.447 249.173  11
  -1  -1  15 1258.92 329.081  19
   1   1 -15 845.132 328.937   1
   1   1 -15 1220.94 300.552   8
  -1  -1  15 1318.75 398.126  20
  -1  -1  14 6683.99 714.059  19
   1   1 -14 5562.86 659.878   8
  -1  -1  14 5686.03 640.487  11
  -1  -1  14 5117.48 697.127  20
  -1  -1  14 5343.51 620.388  15
   1   1 -14 4570.62 644.880   1
  -1  -1  13 4432.56 559.454  19
  -1  -1  13 4060.92 532.917  11
   1   1 -13 3948.66 581.320   1
  -1  -1  13 4665.28 640.992  20
  -1  -1  13 3883.65 539.702  15
   1   1 -13 4392.91 566.252   8
  -1  -1  12 5746.86 690.977  20
  -1  -1  12 5393.33 623.890  15
   1   1 -12 5426.03 629.029   1
  -1  -1  12 5850.89 614.998  19
  -1  -1  12 5621.26 594.716  11
   1   1 -12 5643.52 609.390   8
   1   1 -11 20498.6 1103.51   8
  -1  -1  11 18731.9 1053.75  11
  -1  -1  11 19880.8 1123.08   3
   1   1 -11 18015.3 1087.42   1
  -1  -1  11 20778.9 1107.90  19
  -1  -1  11 21251.6 1118.93  15
  -1  -1  11 18960.9 1176.36  20
  -1  -1  10 12124.0 807.056  15
  -1  -1  10 11866.4 780.183  11
  -1  -1  10 12111.1 847.163   3
   1   1 -10 12639.9 834.903   8
  -1  -1  10 12040.4 816.199  19
  -1  -1  10 11532.6 885.604  20
  -1  -1   9 48397.9 1652.97   3
  -1  -1   9 50803.8 1637.37  15
  -1  -1   9 49510.6 1568.13  11
  -1  -1   9 48036.8 1752.84  20
  -1  -1   9 47861.9 1583.88  19
   1   1  -9 50822.2 1633.26   8
  -1  -1   8 11822.4 691.783  19
  -1  -1   8 11725.7 771.343   3
  -1  -1   8 7803.55 341.058  12
  -1  -1   8 10842.8 669.077  11
   1   1  -8 12374.7 743.986   8
  -1  -1   8 12769.0 814.390  20
   1   1  -8 10859.1 729.276   9
  -1  -1   8 11889.5 752.122  15
   1   1  -8 7989.69 327.933  16
   1   1  -7 133791. 2588.37  11
   1   1  -7 147406. 2783.89   8
   1   1  -7 134830. 2601.83  19
  -1  -1   7 137089. 2813.96   3
  -1  -1   7 153238. 3004.06  20
  -1  -1   7 138135. 2620.65  19
   1   1  -7 132351. 2760.56   9
  -1  -1   7 133496. 2053.17  12
  -1  -1   7 143544. 2797.65  15
  -1  -1   7 144451. 2657.92  11
   1   1  -7 114860. 1983.71  16
   1   1  -6 85372.6 1822.14  19
  -1  -1   6 91160.3 1847.73  19
   1   1  -6 87826.5 1964.07  13
  -1  -1   6 89240.7 2010.67  15
  -1  -1   6 89601.2 1873.18  11
  -1  -1   6 85543.0 2066.90  20
  -1  -1   6 84145.6 2016.18   3
  -1  -1   6 85748.4 1889.61  13
   1   1  -6 93649.7 2004.48   8
  -1  -1   6 88348.3 2019.85   4
  -1  -1   6 75600.8 1431.74  12
   1   1  -6 78320.1 1438.49  16
  -1  -1   6 91655.4 2027.40   9
   1   1  -6 83219.3 1825.46  11
   1   1  -6 87250.5 1989.26   9
  -1  -1   5 85275.5 1932.32  20
  -1  -1   5 88830.4 1856.62   9
   1   1  -5 84185.9 1675.65  19
  -1  -1   5 86186.1 1917.13   3
  -1  -1   5 92481.9 1930.94  15
   1   1  -5 78041.2 1437.12  16
  -1  -1   5 83634.8 1763.85  13
  -1  -1   5 89861.4 1768.84  11
   1   1  -5 75636.7 1691.43  11
   1   1  -5 87761.8 1873.99   8
  -1  -1   5 83689.3 1476.08  12
   1   1  -5 81824.9 1807.79   9
  -1  -1   5 85304.6 1672.31  19
   1   1  -5 88705.0 1826.92  13
  -1  -1   4 74141.2 1547.41   9
   1   1  -4 69310.7 1535.32  13
  -1  -1   4 73627.1 1642.15   2
   1   1  -4 71747.5 1535.67   9
   1   1  -4 70651.8 1375.44  19
   1   1  -4 75040.7 1609.89   8
  -1  -1   4 74856.1 1323.44  12
  -1  -1   4 76482.3 1645.80  15
  -1  -1   4 77381.8 1691.48   3
  -1  -1   4 69214.7 1457.89  11
   1   1  -4 69619.8 1476.10  11
  -1  -1   4 71745.8 1646.49  20
   1   1  -4 70888.7 1303.81  16
  -1  -1   4 78964.9 1553.32  13
  -1  -1   4 72405.2 1387.48  19
   1   1  -3 65105.5 1318.72  13
   1   1  -3 63275.7 1074.85   7
  -1  -1   3 63880.6 1396.60  15
   1   1  -3 60046.3 1099.04  19
  -1  -1   3 62560.9 1419.94  20
  -1  -1   3 61728.8 1104.94  19
  -1  -1   3 63960.5 1434.78   3
  -1  -1   3 56029.8 1237.66  13
  -1  -1   3 64535.2 1290.11   9
   1   1  -3 63153.5 1170.11  12
  -1  -1   3 64198.2 1181.08  12
   1   1  -3 61110.4 1258.64   9
   1   1  -3 60300.6 1250.52  11
   1   1  -3 60505.9 1349.71   8
  -1  -1   3 64005.9 1428.19   2
   1   1  -3 60384.0 1161.94  16
  -1  -1   3 63185.3 1289.72  14
  -1  -1   2 174062. 2503.77   9
   1   1  -2 174257. 2268.18  19
  -1  -1   2 177602. 2555.66  14
   1   1  -2 172370. 2470.45   9
  -1  -1   2 187665. 2727.75  15
   1   1  -2 174051. 2648.11   8
  -1  -1   2 170098. 2565.07  13
   1   1  -2 177216. 2614.75  21
   1   1  -2 177108. 2531.07  12
   1   1  -2 180558. 2547.71  16
  -1  -1   2 175049. 2264.06  19
  -1  -1   2 179642. 2725.75   2
  -1  -1   2 182135. 2786.01  20
   1   1  -1 528983. 6360.91  16
   1   1  -1 521732. 6351.92  12
   1   1  -1 514078. 6317.32   8
   1   1  -1 540212. 6280.58  21
   1   1  -1 500536. 6099.93   9
   1   1  -1 501257. 6542.58  17
  -1  -1  -2 15050.6 464.136   1
   1   1   2 16088.0 504.452  12
  -1  -1  -2 14415.3 527.680  18
   1   1   2 13451.1 456.145  21
  -1  -1  -2 15012.4 558.797   6
   1   1   2 14067.9 478.237  16
  -1  -1  -2 14394.3 472.600  19
   1   1   2 14037.3 539.737  17
  -1  -1  -2 12909.5 456.465   4
   1   1   3 73241.6 1321.74  16
  -1  -1  -3 74015.7 1451.35  19
  -1  -1  -3 79206.9 1461.64   1
  -1  -1  -3 77970.5 1536.12   6
  -1  -1  -3 73256.3 1466.67  18
   1   1   3 71968.2 1508.29  17
   1   1   3 71309.1 1296.78  12
   1   1   3 69799.8 1528.99  11
  -1  -1  -3 80391.6 1465.46   4
   1   1   4 134154. 2310.99  11
   1   1   4 124803. 1757.65  15
  -1  -1  -4 126774. 1950.99  12
   1   1   4 115942. 1881.72  12
   1   1   4 121637. 1756.04   3
  -1  -1  -4 131247. 2202.56   4
   1   1   4 123883. 2253.50  17
   1   1   4 128279. 1956.44  16
  -1  -1  -4 125824. 2215.69   1
  -1  -1  -4 120920. 2181.04  18
  -1  -1  -4 115401. 2182.81  19
  -1  -1  -5 152075. 2240.67   8
   1   1   5 178178. 2506.71  16
  -1  -1  -5 166753. 2917.53  19
   1   1   5 159089. 2356.86  15
   1   1   5 193932. 3054.25  11
   1   1   5 174396. 2398.15   3
  -1  -1  -5 188408. 2988.81   4
  -1  -1  -5 165338. 2401.35  15
  -1  -1  -5 173498. 2496.55  12
  -1  -1  -5 174393. 2893.02  18
  -1  -1  -5 177639. 2975.97   1
   1   1   5 174558. 2957.20  17
  -1  -1  -6 41968.1 1268.51   4
  -1  -1  -6 34379.8 862.476  15
  -1  -1  -6 40692.4 1211.93  18
   1   1   6 39287.5 909.074   3
  -1  -1  -6 41685.0 918.702  12
   1   1   6 41429.7 889.674  16
   1   1   6 44470.3 1318.50  11
   1   1   6 35638.9 864.916  10
   1   1   6 36589.7 879.323  15
  -1  -1  -6 43567.0 1314.35   1
  -1  -1  -6 35491.2 799.614   8
   1   1   7 212082. 3580.71  11
   1   1   7 168468. 2660.97  10
  -1  -1  -7 205518. 3558.33   4
   1   1   7 190950. 2844.94  15
  -1  -1  -7 187001. 2726.38   8
  -1  -1  -7 197381. 3524.07   1
  -1  -1  -7 202208. 2709.73  12
   1   1   7 201451. 2905.98   3
  -1  -1  -7 184283. 2821.64  15
   1   1   8 68013.0 1479.50   3
  -1  -1  -8 73753.0 1399.15   8
  -1  -1  -8 67930.3 1443.00  15
  -1  -1  -8 71683.2 2019.86   4
  -1  -1  -8 57487.1 1137.19  12
   1   1   8 59090.1 1808.59  11
  -1  -1  -8 72204.5 1975.26   1
  -1  -1  -8 61802.0 1409.12   3
   1   1   8 61445.1 1222.03  10
   1   1   8 73174.6 1488.63  15
  -1  -1  -9 1357.64 314.632   1
   1   1   9 783.261 173.211  15
   1   1   9 482.262 226.714  11
  -1  -1  -9 892.167 161.870  15
   1   1   9 991.606 195.086   3
   1   1   9 491.303 86.1413  16
  -1  -1  -9 527.225 132.648   3
  -1  -1  -9 467.214 91.2701  12
  -1  -1  -9 1139.66 314.136   4
  -1  -1  -9 1135.01 182.266   8
   1   1   9 662.203 109.513  10
  -1  -1 -10 8889.82 768.888   4
   1   1  10 7805.64 531.566   3
   1   1  10 8358.31 539.830  15
  -1  -1 -10 9485.04 747.999   1
  -1  -1 -10 9077.94 549.099  15
  -1  -1 -10 8018.54 528.566   3
  -1  -1 -10 10128.5 539.416   8
   1   1  10 6617.87 342.365  10
   1   1  10 8970.07 733.162  11
   1   1  11 21145.7 934.860   3
   1   1  11 19544.0 599.771  10
  -1  -1 -11 22958.2 1270.45  17
  -1  -1 -11 21880.8 1220.32   1
  -1  -1 -11 23213.9 903.383   8
   1   1  11 23149.9 1242.09  11
   1   1  11 21321.2 913.816  15
   1   1  11 25101.1 1320.89  19
  -1  -1 -12 5915.78 471.487   8
   1   1  12 6734.18 737.763  19
   1   1  12 5813.52 637.033  11
   1   1  12 3550.84 217.484  10
   1   1  12 5638.13 496.430   3
  -1  -1 -12 5790.57 648.977   1
   1   1  12 5283.00 477.731  15
  -1  -1 -12 6073.48 703.824  17
   1   1  13 6015.07 717.906  19
  -1  -1 -13 5874.44 499.178   8
   1   1  13 6044.81 676.587  11
  -1  -1 -13 5948.33 738.142  17
  -1  -1 -13 5729.73 697.159   1
   1   1  13 5782.86 528.147  15
   1   1  13 5952.60 539.552   3
   1   1  14 4735.45 508.123   3
  -1  -1 -14 4852.42 472.762   8
   1   1  14 6129.43 762.968  19
  -1  -1 -14 6162.66 770.321  17
  -1  -1 -14 4996.99 669.016   1
   1   1  14 4818.73 502.563  15
   1   1  14 4675.87 627.539  11
   1   1  15 1207.89 289.007  15
   1   1  15 1225.74 387.543  19
  -1  -1 -15 1526.21 427.673   1
  -1  -1 -15 1272.78 268.507   8
   1   1  15 843.903 280.940   3
  -1  -1 -15 1249.42 446.581  17
   1   1  15 1216.53 367.152  11
   1   1  16 1661.52 355.948   3
   1   1  16 1689.64 327.191  15
  -1  -1 -16 1964.13 479.764   1
   1   1  16 2888.02 524.704  19
  -1  -1 -16 1799.47 503.173  17
   1   1  16 1460.04 414.246  11
  -1  -1 -16 1894.16 330.208   8
   1   1  17 1518.97 447.676  19
  -1  -1 -17 1068.41 413.728  17
  -1  -1 -17 1367.56 440.539   1
   1   1  17 1103.66 379.064  11
  -1  -1 -17 653.139 218.101   8
   1   1  17 1219.18 297.955  15
  -1  -1 -18 419.082 316.747  17
   1   1  18 326.065 252.858  11
  -1  -1 -18 195.677 290.058   1
   1   1  18 257.230 260.475  19
   1   1  19-546.866 307.357  19
  -1  -1 -19 28.1668 193.086  21
  -1  -1 -19-193.292 284.881   1
  -1  -1 -19 372.471 286.760  17
   1   1  19 114.386 207.714  11
   1   1  20 297.903 271.995  11
   1   1  20-226.952 372.446  19
  -1  -1 -20 183.881 193.217   1
  -1  -1 -20 65.8112 219.745  21
  -1  -1 -20 190.032 281.832  17
   1   1  21 773.433 416.885  11
   1   2 -19 401.048 309.074   8
  -1  -2  19 98.7978 212.750   2
  -1  -2  19 699.897 331.986  19
   1   2 -19 670.649 377.358   1
   1   2 -18 323.703 304.913   1
  -1  -2  18 661.612 351.977   2
  -1  -2  18 898.998 424.855  20
  -1  -2  18 988.269 381.232  19
   1   2 -18 730.676 339.188   8
  -1  -2  18 464.608 255.443  15
  -1  -2  17 1263.16 476.260  20
  -1  -2  17 1264.97 429.068   2
   1   2 -17 1207.42 389.158   8
   1   2 -17 1249.16 387.587   1
  -1  -2  17 416.924 252.710  15
  -1  -2  17 1382.50 412.305  19
   1   2 -16 463.876 256.232   1
  -1  -2  16 620.640 264.851   2
   1   2 -16 1115.54 366.279   8
  -1  -2  16 1024.15 340.731  19
  -1  -2  16 593.651 312.421  15
  -1  -2  16 844.459 347.230  20
  -1  -2  15 768.226 242.780  11
  -1  -2  15 610.720 295.483   2
   1   2 -15 1237.71 373.551   8
  -1  -2  15 812.077 374.897   3
  -1  -2  15 1380.87 376.757  19
  -1  -2  15 1416.22 410.979  15
   1   2 -15 520.684 206.454   1
  -1  -2  15 1017.45 366.880  20
  -1  -2  14 4312.10 620.031   2
  -1  -2  14 3866.17 611.854   3
  -1  -2  14 4421.40 632.734  15
  -1  -2  14 5745.43 676.709  19
  -1  -2  14 4961.25 559.848  11
   1   2 -14 4935.32 670.101   8
  -1  -2  14 3981.34 648.725  20
   1   2 -13 4773.43 655.030   8
  -1  -2  13 5438.93 668.126   2
  -1  -2  13 4079.26 635.423   3
  -1  -2  13 5912.78 656.517  19
  -1  -2  13 4507.56 645.871  20
  -1  -2  13 5133.14 661.776  15
  -1  -2  13 4413.51 511.717  11
   1   2 -13 4229.72 643.099   9
  -1  -2  12 7294.89 738.550   2
  -1  -2  12 7452.09 746.537  15
   1   2 -12 7887.99 775.026   8
  -1  -2  12 6017.08 705.673   3
  -1  -2  12 7726.55 642.699  11
   1   2 -12 6136.18 744.442   9
  -1  -2  12 7775.36 719.533  19
  -1  -2  12 7595.07 807.382  20
  -1  -2  11 10180.2 704.743  11
   1   2 -11 11778.2 900.175   8
   1   2 -11 10084.6 906.303   9
  -1  -2  11 10350.7 897.468   3
  -1  -2  11 12138.5 966.649  20
  -1  -2  11 11079.7 914.560  15
  -1  -2  11 13908.6 898.271  19
  -1  -2  11 11589.9 897.818   2
  -1  -2  10 301.327 193.715  20
  -1  -2  10 316.649 171.524   2
   1   2 -10 514.251 247.793   9
   1   2 -10 479.784 235.616   8
  -1  -2  10 314.980 208.456   3
  -1  -2  10 324.029 147.120  11
  -1  -2  10 524.952 184.803  19
  -1  -2  10 421.376 205.059  15
  -1  -2   9 2821.58 439.334   3
  -1  -2   9 2508.38 398.873   2
  -1  -2   9 3153.92 455.952  20
  -1  -2   9 2583.73 332.819  11
   1   2  -9 2496.64 162.896  10
   1   2  -9 2770.74 409.475   8
   1   2  -9 2609.96 421.646   9
  -1  -2   9 2299.94 391.602  15
  -1  -2   9 3771.67 426.067  19
   1   2  -8 4297.27 497.459   9
  -1  -2   8 3961.38 481.743  20
  -1  -2   8 4192.63 381.497  11
  -1  -2   8 3650.21 491.217   3
   1   2  -8 3475.42 285.045  12
   1   2  -8 3652.50 364.043  11
  -1  -2   8 4373.79 424.085  19
   1   2  -8 4061.71 461.924   8
  -1  -2   8 4274.51 485.637   2
   1   2  -8 2997.91 211.124  10
  -1  -2   8 3422.85 456.232  15
  -1  -2   7 153.541 168.422   2
  -1  -2   7 141.227 150.968  20
  -1  -2   7-64.0729 174.285  15
  -1  -2   7 25.7957 174.235   3
   1   2  -7 323.762 114.232  11
   1   2  -7 176.275 66.2009  10
   1   2  -7 226.829 183.703   8
   1   2  -7 74.8056 63.5067  12
  -1  -2   7 152.588 86.2141  13
   1   2  -7 468.905 210.021   9
  -1  -2   7 278.428 98.3035  16
  -1  -2   7 103.515 81.4903  11
  -1  -2   7 205.007 115.737  19
  -1  -2   6 3536.33 295.349  16
   1   2  -6 3318.03 293.747  16
  -1  -2   6 3564.32 392.274   2
  -1  -2   6 3370.63 409.424  20
   1   2  -6 3826.58 437.857   8
  -1  -2   6 3908.05 340.516  19
  -1  -2   6 3671.95 436.819  15
  -1  -2   6 3385.53 302.495  13
  -1  -2   6 3669.69 339.796   4
   1   2  -6 3131.39 196.888   7
   1   2  -6 3271.53 291.711  12
  -1  -2   6 3144.07 396.466   3
   1   2  -6 3937.13 269.921  10
   1   2  -6 3669.15 339.044  19
   1   2  -6 4083.81 446.793   9
   1   2  -6 3354.17 285.819  11
   1   2  -5 4696.44 356.315  16
   1   2  -5 5112.50 456.951   9
   1   2  -5 4984.29 364.544  13
  -1  -2   5 5510.15 375.987  19
  -1  -2   5 4812.84 350.807  14
  -1  -2   5 5060.19 368.290   4
   1   2  -5 5166.60 320.633  10
  -1  -2   5 5583.59 465.579   2
   1   2  -5 5046.89 353.737  12
  -1  -2   5 5177.88 387.744  12
   1   2  -5 5291.14 389.163  19
  -1  -2   5 5364.32 492.507   3
  -1  -2   5 5223.45 363.559  16
  -1  -2   5 4433.36 322.812  13
  -1  -2   5 4500.44 468.407  20
   1   2  -5 4731.65 307.126  11
  -1  -2   5 4849.73 466.784  15
   1   2  -4 7303.69 441.544  16
  -1  -2   4 7286.27 547.403  15
   1   2  -4 6586.20 340.302  11
  -1  -2   4 7758.19 509.046   9
  -1  -2   4 7054.02 532.902  20
  -1  -2   4 8066.80 567.887   3
   1   2  -4 7089.10 505.052   9
  -1  -2   4 6265.68 351.304  13
  -1  -2   4 7555.92 505.908   2
   1   2  -4 7280.62 391.101  13
   1   2  -4 6919.29 403.221  19
  -1  -2   4 6965.82 382.494   4
  -1  -2   4 6332.79 358.655  14
   1   2  -4 7185.74 426.212  12
   1   2  -4 6717.20 379.102  10
  -1  -2   4 8235.76 482.901  12
  -1  -2   4 7019.35 431.806  16
   1   2  -3 11481.2 471.466  19
   1   2  -3 11590.9 419.368  11
  -1  -2   3 11485.4 419.564   4
  -1  -2   3 12050.0 605.001   2
  -1  -2   3 11863.5 447.905  13
   1   2  -3 12198.9 470.334  13
   1   2  -3 11658.9 507.106  10
   1   2  -3 11685.8 560.267  12
  -1  -2   3 13821.6 629.146  12
   1   2  -3 11722.9 567.249  16
  -1  -2   3 12175.7 454.445  14
  -1  -2   3 12670.9 658.894  20
  -1  -2   3 13504.5 650.851   9
  -1  -2   3 12566.0 574.746  16
  -1  -2   3 12121.4 661.377   3
   1   2  -3 11013.2 575.898   2
  -1  -2   3 12423.5 648.832  15
   1   2  -3 11874.2 601.554   9
  -1  -2   2 23106.8 814.322   2
  -1  -2   2 22362.3 807.194   9
   1   2  -2 22908.4 807.097  16
  -1  -2   2 23009.3 508.268   4
  -1  -2   2 25760.4 871.829  12
   1   2  -2 24104.6 821.521  12
  -1  -2   2 22600.8 573.276  14
  -1  -2   2 22003.5 590.417  13
  -1  -2   2 24429.8 882.131   3
   1   2  -2 21918.7 779.718   9
  -1  -2   2 24659.0 858.026  15
   1   2  -2 19254.6 577.999  19
  -1  -2   2 23890.5 874.309  20
   1   2  -2 23318.4 742.623  10
   1   2  -2 21111.4 582.675  13
   1   2  -2 20377.1 583.609  14
  -1  -2   1 16166.5 661.641   2
   1   2  -1 15266.6 477.125  14
  -1  -2   1 15533.7 453.572  14
  -1  -2   1 15008.9 680.459  20
   1   2  -1 15996.4 490.120  13
  -1  -2   1 17294.0 669.024   3
   1   2  -1 15034.9 625.020   9
   1   2  -1 17153.6 680.500  12
   1   2  -1 14916.8 629.474  17
  -1  -2   1 16153.7 636.955  15
  -1  -2   1 16285.9 655.607   9
   1   2  -1 16709.1 670.767  16
  -1  -2   0 12846.3 519.929  15
  -1  -2   0 13471.0 554.711  10
   1   2   0 13063.8 587.556   9
   1   2   0 13028.9 567.277  17
   1   2   0 11503.3 428.076  14
  -1  -2   0 13226.6 535.170   3
  -1  -2   0 13980.3 446.948  14
   1   2   0 14665.0 626.662  12
  -1  -2   0 13896.6 619.496  20
   1   2   0 13867.6 597.341  16
   1   2   0 12771.7 556.556   1
  -1  -2   0 11989.7 571.303   2
   1   2   1 24136.3 828.221  12
   1   2   1 23316.8 790.424  16
   1   2   1 22994.8 628.892  15
  -1  -2  -1 23089.0 762.179   1
   1   2   1 22481.3 646.417  14
  -1  -2  -1 23606.5 840.271   2
   1   2   1 22252.1 754.011  17
   1   2   1 23086.2 628.840   3
  -1  -2  -1 23989.5 638.781  15
   1   2   1 19683.4 641.414  11
  -1  -2  -1 24569.9 655.350   3
  -1  -2  -1 21868.5 746.215  10
   1   2   1 21004.7 444.006   4
  -1  -2  -2 24825.2 812.631   1
  -1  -2  -2 24002.5 529.608  21
   1   2   2 23276.8 589.008   4
  -1  -2  -2 22580.1 770.733  17
  -1  -2  -2 27637.9 600.945  15
  -1  -2  -2 27694.6 617.261   3
   1   2   2 23957.7 562.343   3
   1   2   2 28211.0 906.541  12
   1   2   2 24192.2 801.808  17
   1   2   2 26357.9 593.174  15
   1   2   2 23404.3 763.277  11
  -1  -2  -2 24825.5 803.636  10
   1   2   2 24101.4 738.585  19
   1   2   2 25032.8 832.800  16
  -1  -2  -3 32465.3 956.505  10
   1   2   3 32759.0 957.679  17
  -1  -2  -3 32039.4 978.729  17
   1   2   3 34046.6 982.436  16
   1   2   3 37438.2 1068.73  12
  -1  -2  -3 33485.2 1095.05   6
  -1  -2  -3 32124.1 1000.58   5
   1   2   3 31676.9 969.951  11
  -1  -2  -3 34284.0 1025.46   1
   1   2   3 31648.6 817.213   4
  -1  -2  -3 32693.6 938.496  19
   1   2   4 7772.24 472.699  17
  -1  -2  -4 9650.57 529.192  16
  -1  -2  -4 8206.40 493.166  17
   1   2   4 7616.57 260.852   8
  -1  -2  -4 8077.74 502.841  18
  -1  -2  -4 8946.22 568.208   6
  -1  -2  -4 8748.25 505.882  12
   1   2   4 9589.68 512.472  12
  -1  -2  -4 8831.73 531.796   5
   1   2   4 7736.37 521.280  11
  -1  -2  -4 9149.25 493.397  10
  -1  -2  -4 9178.81 537.325   1
   1   2   4 8669.29 476.529  16
  -1  -2  -4 8307.18 494.648  19
   1   2   4 8056.81 436.768   4
   1   2   5 7118.43 241.917   8
   1   2   5 8651.10 472.956  16
   1   2   5 7335.25 442.619  10
  -1  -2  -5 9403.02 571.530   1
  -1  -2  -5 8577.55 539.490  17
  -1  -2  -5 8989.93 492.828  10
   1   2   5 8531.24 500.926   4
  -1  -2  -5 8979.49 560.740   5
  -1  -2  -5 8508.11 534.436  18
   1   2   5 8783.70 492.564  12
  -1  -2  -5 9139.46 508.455  12
   1   2   5 8228.70 578.914  11
  -1  -2  -5 8941.57 600.633   6
  -1  -2  -5 9295.69 516.564  16
  -1  -2  -5 8756.99 533.573  19
   1   2   5 8049.84 518.001  17
   1   2   6 6082.63 390.720  16
  -1  -2  -6 5929.22 419.882  12
   1   2   6 6088.60 538.142  11
  -1  -2  -6 6886.22 517.208   1
  -1  -2  -6 7290.42 450.210  16
   1   2   6 6519.76 423.644  12
   1   2   6 4594.04 239.882   8
  -1  -2  -6 5682.85 263.361   8
   1   2   6 6513.00 487.019  17
  -1  -2  -6 6059.88 512.454  17
   1   2   6 5671.21 387.889  10
  -1  -2  -7 4141.59 336.205  16
  -1  -2  -7 2989.37 369.028  17
   1   2   7 2961.78 201.177   8
   1   2   7 3564.27 294.304  16
  -1  -2  -7 3694.61 234.997   8
  -1  -2  -7 3576.80 411.107   1
  -1  -2  -7 2382.50 144.540  15
   1   2   7 3592.10 422.300  11
   1   2   7 2929.05 283.413  10
   1   2   7 3409.13 303.734  12
   1   2   7 3926.93 406.581  18
   1   2   8 6173.09 413.748  10
   1   2   8 4413.09 566.071  11
  -1  -2  -8 5023.58 255.884  15
  -1  -2  -8 6991.98 423.904  16
  -1  -2  -8 6062.64 323.171   8
  -1  -2  -8 6275.96 571.240   1
   1   2   8 5214.04 359.976  16
  -1  -2  -8 6663.63 594.696  17
   1   2   8 5750.40 527.218  18
   1   2   8 5950.78 387.907  12
  -1  -2  -9 5816.55 586.922  17
  -1  -2  -9 5585.18 572.736   1
  -1  -2  -9 4744.51 295.570   3
   1   2   9 5445.35 387.621  10
  -1  -2  -9 5071.08 294.621  15
  -1  -2  -9 5780.55 342.246   8
   1   2   9 4702.16 340.456  12
   1   2   9 6225.47 615.730  11
  -1  -2  -9 5576.37 371.801  16
  -1  -2 -10 14200.0 954.488  17
  -1  -2 -10 14083.4 587.529   8
  -1  -2 -10 11341.0 519.231   3
   1   2  10 12424.1 602.466  10
   1   2  10 14098.8 571.846  12
  -1  -2 -10 11646.0 509.418  15
   1   2  10 13663.0 970.154  11
  -1  -2 -10 14574.3 935.447   1
   1   2  11 68.3871 61.9969  12
   1   2  11-105.388 152.350  11
  -1  -2 -11 111.128 82.4514   3
  -1  -2 -11 100.314 208.513   1
  -1  -2 -11 187.901 172.371  17
   1   2  11 46.9121 83.2141  10
  -1  -2 -11 113.450 101.556   8
   1   2  11-116.068 168.922  19
  -1  -2 -11 61.7513 71.5564  15
   1   2  12 7463.68 790.103  19
  -1  -2 -12 5972.50 423.145  15
  -1  -2 -12 7543.52 749.358   1
   1   2  12 6473.60 716.385  11
  -1  -2 -12 5131.50 404.879   3
   1   2  12 6020.36 420.106  10
  -1  -2 -12 7114.77 757.920  17
  -1  -2 -12 7727.18 498.038   8
  -1  -2 -13 7336.50 806.332  17
   1   2  13 7272.02 759.715  11
  -1  -2 -13 6994.08 761.054   1
  -1  -2 -13 6842.89 490.205   8
   1   2  13 8212.87 864.706  19
  -1  -2 -14 8808.77 582.960   8
  -1  -2 -14 8167.34 843.912   1
   1   2  14 9493.86 906.373  11
  -1  -2 -14 9851.07 968.016  17
   1   2  14 10499.6 1013.55  19
   1   2  15 3586.59 592.354  11
  -1  -2 -15 3976.75 618.453   1
   1   2  15 3664.93 643.828  19
  -1  -2 -15 4122.34 648.939  17
  -1  -2 -15 3143.04 363.536   8
  -1  -2 -16 3289.22 613.935  17
  -1  -2 -16 1780.29 452.897   1
   1   2  16 2421.16 522.172  11
   1   2  16 2810.26 579.299  19
  -1  -2 -17 863.832 376.919  17
   1   2  17 660.167 340.315  11
  -1  -2 -17 1449.08 428.298   1
   1   2  17 573.921 314.097  19
  -1  -2 -18 2193.92 515.944   1
   1   2  18 2045.34 544.872  19
  -1  -2 -18 2451.85 562.706  17
   1   2  18 2140.11 565.530  11
  -1  -2 -19 304.584 251.702   1
  -1  -2 -19 559.498 368.181  17
   1   2  19 893.041 421.796  11
   1   2  19 1142.80 387.331  19
  -1  -2 -20 219.967 241.977   1
   1   2  20 736.391 351.211  19
   1   2  20 263.930 188.276  11
  -1  -2 -20 169.684 207.532  17
   1   2  21-29.7498 205.070  11
  -1  -3  19 998.755 398.817   2
   1   3 -18-3.09280 291.985  21
   1   3 -18 854.242 381.664   1
  -1  -3  18 444.005 284.725   2
   1   3 -18 410.500 313.718   8
  -1  -3  18 167.741 253.550  15
  -1  -3  17 497.478 256.342  20
   1   3 -17 73.9164 247.478  21
  -1  -3  17 454.357 307.253   3
   1   3 -17 580.864 359.067   8
  -1  -3  17 322.076 227.093  15
  -1  -3  17 341.117 223.331   2
  -1  -3  16 290.871 221.466  19
  -1  -3  16-152.473 207.916   2
   1   3 -16-223.340 204.387   8
  -1  -3  16-238.523 278.372  20
  -1  -3  16-70.6863 196.691   3
  -1  -3  16 6.95006 182.453  15
   1   3 -16-146.840 243.757  21
   1   3 -16-297.404 244.643   9
   1   3 -15 118.555 163.644   9
  -1  -3  15-378.698 222.209   2
   1   3 -15 105.690 182.237   8
  -1  -3  15 118.635 176.145   3
  -1  -3  15-105.889 214.143  20
  -1  -3  15-294.700 159.228  19
  -1  -3  15-118.244 213.628  15
   1   3 -14 415.572 280.547   9
  -1  -3  14 1003.41 360.042  15
  -1  -3  14 704.508 374.742  20
  -1  -3  14 1099.20 354.704   2
   1   3 -14 896.076 359.445   8
  -1  -3  14 1340.74 406.310   3
  -1  -3  14 571.202 228.844  19
  -1  -3  13-34.7683 233.479  15
  -1  -3  13 114.087 148.971  19
  -1  -3  13 157.798 231.960  20
   1   3 -13 220.209 220.319   9
  -1  -3  13 279.474 262.004   3
   1   3 -13 315.181 250.237   8
  -1  -3  13 269.423 235.935   2
  -1  -3  12 10740.2 1021.61  20
  -1  -3  12 11223.7 927.953   2
  -1  -3  12 11676.8 1018.78  15
  -1  -3  12 11399.4 1038.83   3
   1   3 -12 10935.8 959.555   8
   1   3 -12 9526.64 969.360   9
  -1  -3  12 12639.7 928.673  19
  -1  -3  11 25984.3 1368.35   2
  -1  -3  11 25510.2 1476.20  15
   1   3 -11 23276.1 1449.28   9
  -1  -3  11 29484.6 1368.48  19
  -1  -3  11 27024.4 1555.30   3
  -1  -3  11 26069.6 1510.34  20
   1   3 -11 27115.0 1476.42   8
  -1  -3  10-135.499 199.993  20
  -1  -3  10-141.313 222.187  15
   1   3 -10-166.217 221.296   9
  -1  -3  10 224.473 136.968  16
  -1  -3  10-9.41580 130.529  19
   1   3 -10-42.8459 181.518   8
  -1  -3  10 44.5567 137.461   2
  -1  -3  10 46.6237 183.709   3
   1   3  -9 340.997 154.055   9
  -1  -3   9 497.051 144.276  14
   1   3  -9 428.346 109.231  11
   1   3  -9 688.410 254.316   8
  -1  -3   9 221.074 149.254  20
  -1  -3   9 246.180 171.536   2
  -1  -3   9 401.279 240.733   3
  -1  -3   9 578.484 179.075  16
  -1  -3   9 136.908 177.794  15
   1   3  -8 135.656 164.215   9
  -1  -3   8 72.8615 139.223   2
  -1  -3   8 169.855 176.542   3
   1   3  -8 269.884 89.4360  11
  -1  -3   8 232.927 115.242  13
   1   3  -8 150.505 51.0824   7
  -1  -3   8 221.971 157.619  20
   1   3  -8 78.4738 74.3501  10
  -1  -3   8 227.709 111.752  14
  -1  -3   8 358.469 137.902  16
  -1  -3   8 87.1151 188.356  15
  -1  -3   7 2015.31 402.653  15
   1   3  -7 2461.93 223.229  11
  -1  -3   7 2176.50 240.706  13
  -1  -3   7 1941.85 239.849  14
   1   3  -7 2534.27 415.749   9
  -1  -3   7 2522.66 411.144  20
   1   3  -7 2244.87 259.231  10
  -1  -3   7 2384.50 347.517   2
  -1  -3   7 2215.96 299.995  16
  -1  -3   7 1981.10 407.214   3
  -1  -3   6 8224.52 429.983  13
  -1  -3   6 9263.09 668.332   2
  -1  -3   6 9735.09 773.509   3
   1   3  -6 8080.71 700.627   9
  -1  -3   6 8170.05 434.810  14
   1   3  -6 7557.42 355.593  11
  -1  -3   6 8442.06 509.855   4
  -1  -3   6 9078.62 729.772  20
  -1  -3   6 9204.37 749.240  15
  -1  -3   6 9010.54 589.386  16
   1   3  -6 8315.86 506.358  10
  -1  -3   5 10295.3 660.003   2
  -1  -3   5 10237.0 436.766  13
  -1  -3   5 9726.43 728.382  15
  -1  -3   5 10020.3 440.115  14
  -1  -3   5 10187.7 641.255  16
  -1  -3   5 9842.14 767.321   3
  -1  -3   5 9626.13 709.715  20
   1   3  -5 10119.0 563.630  10
   1   3  -5 8887.29 554.571  19
  -1  -3   5 9373.38 480.721   4
   1   3  -5 6530.41 293.125  11
   1   3  -5 9473.05 700.310   9
  -1  -3   4 37497.0 804.028  14
  -1  -3   4 42979.2 1342.64   2
  -1  -3   4 41518.7 973.724   4
   1   3  -4 43446.9 1231.64  10
   1   3  -4 37220.5 835.808  13
   1   3  -4 37991.8 1138.46  19
  -1  -3   4 40479.2 1513.21   3
  -1  -3   4 42593.6 1190.45  10
   1   3  -4 38855.9 1398.00   9
  -1  -3   4 40903.8 1417.83  20
  -1  -3   4 38567.0 1445.48  15
  -1  -3   4 36463.7 820.282  13
  -1  -3   4 42146.8 1334.91  16
   1   3  -3 4563.30 406.424   2
  -1  -3   3 5679.35 483.594  16
   1   3  -3 3795.24 217.212  13
   1   3  -3 4283.91 354.732  19
  -1  -3   3 4661.63 236.463  14
  -1  -3   3 4930.03 498.986   3
   1   3  -3 5907.33 438.401  10
  -1  -3   3 5067.13 473.923  20
   1   3  -3 5090.50 476.627   9
  -1  -3   3 5402.69 280.452   4
  -1  -3   3 4741.57 471.700  15
  -1  -3   3 4954.76 400.106  10
  -1  -3   3 5502.87 461.604   2
  -1  -3   2 20326.5 462.480   4
  -1  -3   2 19640.3 889.674  15
   1   3  -2 19409.9 833.434   2
   1   3  -2 19992.8 589.035  21
   1   3  -2 17781.2 487.351  13
  -1  -3   2 21429.6 939.629  16
   1   3  -2 15752.0 447.320  11
  -1  -3   2 21330.1 947.241   3
  -1  -3   2 19569.5 898.179  20
  -1  -3   2 19957.2 816.496  10
   1   3  -2 16790.4 484.908  14
  -1  -3   2 20189.4 505.266  14
  -1  -3   2 20627.9 871.082   2
   1   3  -2 20541.5 946.301   9
   1   3  -1 27802.5 971.322  17
   1   3  -1 27127.1 589.346  21
  -1  -3   1 29255.3 1031.46  15
   1   3  -1 28464.3 672.871  11
   1   3  -1 29106.6 694.747  13
   1   3  -1 31112.3 1171.50   9
   1   3  -1 30139.1 1085.27  20
  -1  -3   1 28825.6 1016.95  10
   1   3  -1 30454.3 1148.00   1
  -1  -3   1 30261.8 1061.49   2
  -1  -3   1 31053.2 1094.52   3
  -1  -3   1 28976.1 1077.29  20
   1   3  -1 31286.7 1063.13   2
   1   3  -1 27829.4 671.837  14
   1   3   0 19044.2 929.496   9
   1   3   0 19698.0 762.035  15
  -1  -3   0 17845.2 827.723  20
   1   3   0 19962.8 847.964  20
   1   3   0 18577.5 763.200  17
  -1  -3   0 19880.7 809.425   3
   1   3   0 19574.8 769.161   3
   1   3   0 18641.0 577.844  11
   1   3   0 20174.4 864.416   2
   1   3   0 17620.2 558.534  14
   1   3   0 20014.6 905.992   1
  -1  -3   0 19419.5 771.866  15
  -1  -3   0 20925.2 884.637   2
  -1  -3   0 18247.5 818.385  10
  -1  -3  -1 1259.99 175.260  17
   1   3   1 1498.40 200.053  17
  -1  -3  -1 1951.34 314.476  10
   1   3   1 2201.62 205.948  14
   1   3   1 1618.23 247.290   2
  -1  -3  -1 2144.79 269.478   3
   1   3   1 1930.51 207.933  11
  -1  -3  -1 1990.92 303.398   2
   1   3   1 2088.64 238.175   3
   1   3   1 2043.53 131.897   4
  -1  -3  -1 1705.07 245.423   1
   1   3   1 2043.00 263.305  20
   1   3   1 2329.82 251.097  15
  -1  -3  -1 2399.66 273.656  15
   1   3   1 1818.55 266.794   1
  -1  -3  -2 103940. 2311.52   1
   1   3   2 100814. 1902.93  14
  -1  -3  -2 95774.3 1795.31  15
   1   3   2 97890.1 1792.15   3
   1   3   2 103487. 1972.11  11
   1   3   2 92648.8 1591.49   4
  -1  -3  -2 102245. 1995.36  17
  -1  -3  -2 99060.3 2157.41  10
   1   3   2 102260. 2119.97  20
   1   3   2 103095. 2249.99   1
  -1  -3  -2 93378.4 1808.16   3
   1   3   2 113739. 2318.89   2
   1   3   2 104060. 2027.50  17
   1   3   2 102473. 1799.79  15
  -1  -3  -3 243458. 3323.70  21
  -1  -3  -3 271666. 4359.83   1
   1   3   3 259846. 3914.33  17
  -1  -3  -3 254618. 3501.15  15
   1   3   3 253612. 3603.98   4
  -1  -3  -3 233983. 3487.50   3
   1   3   3 271948. 4103.30  19
  -1  -3  -3 261307. 4017.14  11
   1   3   3 264126. 4023.34  11
  -1  -3  -3 255882. 3912.66  17
  -1  -3  -3 263301. 4177.64  10
   1   3   3 253500. 3533.07  15
  -1  -3  -4 37851.1 1250.72  10
   1   3   4 32611.7 1164.41  11
  -1  -3  -4 34324.6 757.359  15
  -1  -3  -4 33832.2 764.487   3
   1   3   4 37064.6 1239.56  19
  -1  -3  -4 38265.7 1230.79  11
  -1  -3  -4 40382.0 1373.62   1
   1   3   4 37935.7 1047.09   4
   1   3   4 38425.8 1146.78  17
  -1  -3  -4 37023.3 1124.57  17
   1   3   5 264879. 3840.36   8
  -1  -3  -5 286495. 4539.95  16
  -1  -3  -5 290908. 4788.28   1
   1   3   5 291332. 4625.39  19
   1   3   5 261402. 4516.04  11
   1   3   5 278642. 4232.48   4
  -1  -3  -5 274045. 4449.77  10
   1   3   5 268091. 4306.89  17
  -1  -3  -5 276076. 4371.95  17
   1   3   6 8715.89 589.341  17
   1   3   6 9465.47 678.665  19
   1   3   6 9239.78 414.110   8
   1   3   6 8756.49 658.332  11
  -1  -3  -6 9029.04 632.744  16
  -1  -3  -6 9374.84 605.393  10
  -1  -3  -6 9409.46 702.519   1
  -1  -3  -6 9340.43 605.040  17
   1   3   7 14765.2 510.915   8
   1   3   7 16093.3 902.165  18
  -1  -3  -7 15165.2 906.197   1
   1   3   7 14553.0 882.818  11
  -1  -3  -7 14538.8 774.428  10
  -1  -3  -7 15294.7 808.282  16
  -1  -3  -7 14524.7 813.147  17
  -1  -3  -8 4264.20 424.773  16
  -1  -3  -8 4504.01 432.062  10
   1   3   8 4620.98 525.947  11
  -1  -3  -8 4960.62 508.655  17
   1   3   8 4622.28 501.464  18
  -1  -3  -8 4939.52 556.029   1
   1   3   8 3458.80 246.704   8
   1   3   9 2870.47 431.388  19
  -1  -3  -9 2933.62 359.676  10
   1   3   9 2113.50 409.089  11
   1   3   9 2718.02 384.944  18
  -1  -3  -9 3401.16 447.845  17
  -1  -3  -9 3178.91 368.320  16
   1   3   9 2713.73 230.473   8
  -1  -3  -9 3162.51 477.141   1
  -1  -3 -10 44021.3 1718.83   1
  -1  -3 -10 39853.0 1314.00  10
   1   3  10 42636.8 1713.82  11
  -1  -3 -10 33895.3 979.322   8
   1   3  10 46425.5 1646.93  18
   1   3  10 47805.6 1820.44  19
  -1  -3 -10 46613.9 1391.74  16
  -1  -3 -10 45549.3 1672.45  17
  -1  -3 -11 33681.3 1536.49  17
  -1  -3 -11 32787.3 1538.40   1
   1   3  11 36142.4 1683.07  19
   1   3  11 27318.9 856.559   8
  -1  -3 -11 38574.9 1240.79  16
  -1  -3 -11 30684.7 975.312   8
   1   3  11 34524.7 1615.96  11
   1   3  11 34666.6 1507.33  18
  -1  -3 -12 5212.54 443.741  16
  -1  -3 -12 5249.38 416.606   8
  -1  -3 -12 6017.28 704.093   1
   1   3  12 6379.84 758.854  19
   1   3  12 5566.98 690.917  11
  -1  -3 -12 5729.28 670.612  17
  -1  -3 -13 40274.4 1878.96   1
  -1  -3 -13 36308.3 1206.05   8
   1   3  13 43823.5 1999.07  19
  -1  -3 -13 39636.1 1224.42  16
   1   3  13 40633.8 1892.55  11
  -1  -3 -13 40066.8 1817.87  17
  -1  -3 -14 16087.7 1206.38  17
   1   3  14 19929.5 1403.92  19
  -1  -3 -14 16491.6 1230.56   1
   1   3  14 18960.0 1329.65  11
  -1  -3 -14 15331.5 789.049   8
  -1  -3 -15 4444.54 667.813  17
   1   3  15 4173.61 686.950  19
   1   3  15 3387.32 626.387  11
  -1  -3 -15 3923.69 619.882   1
   1   3  16 923.751 384.498  11
  -1  -3 -16 1239.61 352.825  17
   1   3  16 1308.30 439.608  19
  -1  -3 -16 1178.60 362.266   1
  -1  -3 -17 140.758 208.314  17
   1   3  17 237.115 282.383  11
   1   3  17 328.588 300.391  19
  -1  -3 -17 275.358 328.221   1
   1   3  18 3201.63 678.435  19
  -1  -3 -18 1495.65 441.012  17
  -1  -3 -18 1692.79 491.037   1
   1   3  18 1937.08 524.180  11
   1   3  19 707.298 374.872  11
   1   3  19 326.776 288.415  19
  -1  -3 -19 516.394 285.626   1
  -1  -3 -19 157.996 206.813  17
  -1  -3 -20 2054.15 579.102  17
   1   3  20 1436.04 502.651  11
   1   3  20 3153.64 725.080  19
  -1  -3 -20 2135.23 563.133   1
   1   4 -17 1007.62 450.106  21
   1   4 -16 574.226 370.102   9
   1   4 -16 557.596 308.293  21
   1   4 -16 1198.74 424.103   8
  -1  -4  16 456.425 336.427  15
  -1  -4  16 1394.23 465.184   3
  -1  -4  16 884.890 401.806  20
  -1  -4  15 656.761 321.995  15
   1   4 -15 601.166 366.062   9
  -1  -4  15 412.251 273.654  20
   1   4 -15 664.920 315.914   8
  -1  -4  15 486.806 250.674   2
  -1  -4  15 814.751 391.848   3
   1   4 -15 302.140 263.300  21
  -1  -4  14-242.554 246.425  15
  -1  -4  14-68.5834 197.113  20
   1   4 -14 327.755 215.459   8
  -1  -4  14 17.6508 164.233   2
  -1  -4  14 238.947 246.283   3
   1   4 -14 431.642 270.402  21
   1   4 -14 412.048 268.327   9
   1   4 -13-94.0813 199.853   9
  -1  -4  13-40.7028 201.247  15
  -1  -4  13 60.7188 159.687   2
   1   4 -13-15.4193 172.034  21
  -1  -4  13-114.315 254.652   3
   1   4 -13 93.2854 207.651   8
  -1  -4  13 38.1038 227.455  20
  -1  -4  12 2579.42 552.264  15
   1   4 -12 1699.05 459.449   9
   1   4 -12 2878.27 513.723  21
  -1  -4  12 2877.95 471.228   2
  -1  -4  12 2532.79 566.933   3
  -1  -4  12 2610.38 541.859  20
   1   4 -12 2831.08 560.230   8
  -1  -4  11 973.329 375.444  15
  -1  -4  11 1810.67 430.739  20
   1   4 -11 1210.80 360.705   8
  -1  -4  11 1438.57 326.234   2
   1   4 -11 891.968 320.228   9
   1   4 -11 1507.87 329.694  21
  -1  -4  11 1643.10 449.738   3
  -1  -4  10 1394.22 289.422  16
   1   4 -10 1113.10 351.097   9
  -1  -4  10 1304.75 309.178   2
  -1  -4  10 1169.07 300.530  20
  -1  -4  10 1367.40 337.125   3
   1   4 -10 858.859 247.733  21
  -1  -4  10 1708.14 435.310  15
  -1  -4   9 8498.68 752.990   2
  -1  -4   9 8746.29 895.346  15
  -1  -4   9 9004.49 689.485  16
  -1  -4   9 8807.62 918.534   3
  -1  -4   9 9136.70 859.336  20
   1   4  -9 7148.15 806.750   9
   1   4  -9 8816.23 755.285  21
  -1  -4   8 15732.1 1140.24  15
  -1  -4   8 14881.5 574.074  14
  -1  -4   8 16667.1 1194.38   3
   1   4  -8 13642.5 1067.60   9
  -1  -4   8 16165.7 977.644   2
   1   4  -8 15509.6 942.892  21
  -1  -4   8 14099.0 879.536  16
  -1  -4   8 15239.4 1069.64  20
  -1  -4   7 6349.24 594.713  16
   1   4  -7 8280.04 641.595  21
   1   4  -7 6814.86 753.266   9
  -1  -4   7 8033.44 800.648   3
  -1  -4   7 7484.24 642.154   2
  -1  -4   7 6284.05 308.058  14
  -1  -4   7 6875.64 705.001  20
  -1  -4   7 8261.70 784.603  15
   1   4  -6 2807.78 350.640  21
  -1  -4   6 3049.34 472.878  15
  -1  -4   6 3229.57 512.527   3
  -1  -4   6 2187.84 161.964  14
  -1  -4   6 2874.84 381.959   2
  -1  -4   6 3183.81 448.787  20
  -1  -4   6 2901.11 302.230   4
  -1  -4   6 2802.31 401.417  16
   1   4  -6 3219.99 495.986   9
  -1  -4   5 4524.51 524.478  20
  -1  -4   5 4059.51 477.406  16
  -1  -4   5 4162.20 528.101  15
  -1  -4   5 4473.81 479.459   2
   1   4  -5 4377.77 404.210  21
  -1  -4   5 4934.12 595.901   3
  -1  -4   5 4093.19 318.542   4
  -1  -4   5 4539.06 449.112  10
   1   4  -5 4822.74 580.493   9
  -1  -4   4 18037.9 946.264   2
  -1  -4   4 17766.6 1044.90  15
   1   4  -4 16910.9 1067.29   9
  -1  -4   4 18266.5 617.247   4
  -1  -4   4 19052.4 1107.83   3
   1   4  -4 17903.7 764.683  21
  -1  -4   4 17947.8 1021.97  20
  -1  -4   4 20008.3 1049.71  16
  -1  -4   4 17695.6 885.649  10
  -1  -4   3 29891.3 1202.08   2
  -1  -4   3 26273.2 1246.17  15
  -1  -4   3 28576.3 1144.38  10
   1   4  -3 24481.8 670.421   4
   1   4  -3 31298.5 902.122  21
  -1  -4   3 25078.7 669.945   4
  -1  -4   3 30942.7 1348.21   3
   1   4  -3 29900.4 1382.21   9
  -1  -4   3 27986.1 1255.05  20
  -1  -4   3 31235.4 1335.45  16
  -1  -4   2 28665.8 1159.89  10
  -1  -4   2 30761.7 1184.28   2
  -1  -4   2 31795.7 1332.62  16
  -1  -4   2 30541.1 1296.03   3
   1   4  -2 33753.4 1452.76   9
   1   4  -2 27829.4 750.684  21
  -1  -4   2 28749.1 1218.24  20
  -1  -4   2 29545.8 1246.17  15
   1   4  -1 57239.8 1912.75   9
   1   4  -1 44166.4 883.652  21
   1   4  -1 46543.9 936.410  11
   1   4  -1 42342.9 747.166   4
  -1  -4   1 55133.8 1694.12   3
   1   4  -1 46837.4 912.523  14
  -1  -4   1 57639.9 1651.53   2
  -1  -4   1 50650.7 1591.28  20
  -1  -4   1 56572.3 1793.30  16
   1   4  -1 49945.9 928.957  13
   1   4  -1 47180.3 1392.80  17
  -1  -4   1 50716.6 1578.64  10
  -1  -4   1 51081.3 1590.06  15
  -1  -4   0 9954.45 635.267  15
   1   4   0 9864.10 415.979  14
  -1  -4   0 10290.6 689.168  10
  -1  -4   0 10807.5 683.473   3
  -1  -4   0 10078.3 667.834   2
   1   4   0 10312.0 790.792   9
   1   4   0 10352.1 309.642   4
   1   4   0 9970.84 445.455  11
   1   4   0 9471.72 581.211  17
  -1  -4  -1 7005.23 520.827   3
   1   4   1 6633.75 368.163  14
  -1  -4  -1 6669.30 566.758  10
  -1  -4  -1 6557.34 488.204  15
   1   4   1 6538.68 409.535  11
   1   4   1 7769.12 690.046   9
   1   4   1 5500.42 420.163  17
   1   4   1 5636.69 284.018   4
   1   4   2 21318.6 825.652  11
   1   4   2 21363.7 776.762  14
  -1  -4  -2 20070.3 845.178   3
  -1  -4  -2 18334.1 765.447  17
   1   4   2 19866.9 821.511  17
  -1  -4  -2 19831.3 830.082  15
  -1  -4  -2 20571.7 1000.97  10
  -1  -4  -2 21861.6 1125.12   1
   1   4   2 20730.5 838.703  15
  -1  -4  -3 1190.80 181.101  17
  -1  -4  -3 1745.49 318.354  10
  -1  -4  -3 1093.65 115.916  21
   1   4   3 1962.21 280.405  11
  -1  -4  -3 1524.14 220.405   3
   1   4   3 1619.87 220.224  15
  -1  -4  -3 1674.23 223.127  15
  -1  -4  -3 1411.91 264.031   1
   1   4   3 1398.67 221.781  17
  -1  -4  -3 1968.02 275.147  11
  -1  -4  -4 6869.88 345.557  21
   1   4   4 7762.92 674.954   5
   1   4   4 8583.03 603.325  11
  -1  -4  -4 8178.40 533.505  17
  -1  -4  -4 7586.31 436.882   3
  -1  -4  -4 8552.38 665.824  10
   1   4   4 8176.45 522.068  17
   1   4   4 7940.63 612.096  19
   1   4   4 6340.23 429.616   4
  -1  -4  -4 7607.21 678.142   1
  -1  -4  -4 8377.60 457.728  15
   1   4   5 104799. 2252.55   4
  -1  -4  -5 107553. 1905.17   3
  -1  -4  -5 107442. 2682.07  16
   1   4   5 117315. 2858.03  18
  -1  -4  -5 113590. 2912.44   1
   1   4   5 108493. 2535.13  11
  -1  -4  -5 104605. 2290.01  17
  -1  -4  -5 107667. 1966.72  21
   1   4   5 111437. 2875.82   5
  -1  -4  -5 119116. 1941.95  15
   1   4   5 115049. 2712.74  19
   1   4   5 109859. 2326.08  17
  -1  -4  -5 110705. 2645.56  10
   1   4   6 32446.3 1371.40  19
   1   4   6 35545.6 1471.62  18
  -1  -4  -6 33533.6 1500.63   1
  -1  -4  -6 28770.6 734.223  15
   1   4   6 30328.4 1022.82   8
  -1  -4  -6 31040.3 1305.21  10
  -1  -4  -6 28617.0 740.905   3
  -1  -4  -6 29854.0 992.169  21
  -1  -4  -6 31170.1 1334.67  16
   1   4   6 31227.9 1304.31  11
   1   4   6 32842.5 1464.75   5
  -1  -4  -6 32351.1 1176.43  17
  -1  -4  -7 20102.3 1158.42   1
  -1  -4  -7 17908.9 981.026  10
   1   4   7 19621.5 769.737   8
  -1  -4  -7 19406.4 955.518  17
   1   4   7 21086.7 1237.89   6
   1   4   7 20088.5 1092.89  19
   1   4   7 19256.5 1045.54  11
   1   4   7 19887.4 1094.65  18
   1   4   7 19203.0 1137.10   5
  -1  -4  -7 19382.0 1034.09  16
  -1  -4  -8 7944.63 750.418   1
  -1  -4  -8 5992.50 592.531  16
   1   4   8 6916.24 713.367   6
   1   4   8 6861.04 667.820  19
   1   4   8 6031.12 410.772   8
   1   4   8 6991.65 673.586  18
   1   4   8 7293.31 717.869   5
  -1  -4  -8 6398.48 586.055  10
  -1  -4  -8 7254.75 619.846  17
   1   4   8 6594.85 640.867  11
  -1  -4  -9 744.826 283.171   1
   1   4   9 356.543 216.519  11
  -1  -4  -9 314.627 205.396  17
  -1  -4  -9 250.552 169.530  10
   1   4   9 314.904 99.8848   8
  -1  -4  -9 537.012 245.703  16
   1   4   9 120.522 152.688  18
   1   4   9 156.016 164.554  19
  -1  -4 -10 32951.4 1632.09   1
   1   4  10 32434.5 1495.24  18
   1   4  10 31126.6 1540.91  11
   1   4  10 34511.5 1651.73  19
  -1  -4 -10 34382.5 1477.23  17
  -1  -4 -10 36005.3 1443.99  16
  -1  -4 -10 31774.4 1350.24  10
  -1  -4 -11 25093.6 1465.57   1
   1   4  11 26365.9 1370.95  18
  -1  -4 -11 26060.9 1336.44  17
   1   4  11 27270.7 1513.39  19
   1   4  11 24141.4 1404.84  11
  -1  -4 -11 25266.4 1207.28  10
  -1  -4 -11 27131.5 1244.24  16
  -1  -4 -12 11812.2 804.638  16
  -1  -4 -12 11078.0 996.458   1
   1   4  12 10009.8 990.924  19
  -1  -4 -12 10832.7 809.143  10
   1   4  12 11519.5 993.811  11
  -1  -4 -12 12520.0 952.041  17
   1   4  12 12278.4 972.371  18
  -1  -4 -13 2048.17 343.718  16
   1   4  13 2430.87 451.776  18
  -1  -4 -13 1630.77 399.827  17
  -1  -4 -13 2297.81 509.241   1
   1   4  13 1702.79 423.846  19
   1   4  13 2447.92 519.168  11
  -1  -4 -14 1115.62 261.620  16
   1   4  14 1093.19 372.253  18
   1   4  14 1088.73 384.235  11
  -1  -4 -14 492.250 210.269  17
  -1  -4 -14 662.132 317.395   1
   1   4  14 930.676 366.126  19
  -1  -4 -15 419.973 287.059  17
   1   4  15 776.493 346.458  11
  -1  -4 -15 369.774 257.767   1
   1   4  15 300.301 225.225  19
  -1  -4 -16-36.3181 197.554  17
   1   4  16 51.3349 196.064  19
  -1  -4 -16 319.532 251.276   1
   1   4  16 405.728 285.893  11
  -1  -4 -17 231.059 221.795  17
   1   4  17 436.287 275.485  19
  -1  -4 -17-120.075 241.392   1
   1   4  17-268.931 264.853  11
  -1  -4 -18 1329.34 382.259  17
   1   4  18 1439.27 487.094  11
  -1  -4 -18 1245.32 447.521   1
   1   4  18 1727.09 535.276  19
   1   4  19 845.674 419.093  11
  -1  -4 -19 1416.40 449.738  17
  -1  -4 -19 1039.45 446.225   1
   1   4  19 1238.14 479.207  19
  -1  -4 -20 456.337 256.500  17
  -1  -5  14-321.938 283.394  20
   1   5 -14 376.573 260.506   9
   1   5 -14 213.772 280.031   8
   1   5 -13-112.504 276.543   8
  -1  -5  13-145.127 239.985  20
  -1  -5  13-43.9882 210.615   3
  -1  -5  13-179.898 259.849  15
   1   5 -13 391.558 206.751   9
  -1  -5  12 290.855 296.676  15
   1   5 -12-107.384 247.616   8
  -1  -5  12 393.783 286.274   3
   1   5 -12-301.482 282.049   9
  -1  -5  12-156.604 222.732  20
   1   5 -11 370.689 179.886   9
  -1  -5  11 888.977 367.073  15
  -1  -5  11 1063.07 291.704   2
   1   5 -11 741.923 271.055  21
  -1  -5  11 589.325 341.720   3
  -1  -5  11 522.101 247.697  20
  -1  -5  10 601.225 288.205  15
   1   5 -10 478.592 307.702   9
  -1  -5  10 472.742 208.731  16
   1   5 -10 483.361 232.292  21
  -1  -5  10 307.316 175.433   2
  -1  -5  10 484.968 329.767   3
  -1  -5  10 249.245 247.115  20
   1   5  -9 1740.20 464.685   9
  -1  -5   9 3298.10 597.731  15
  -1  -5   9 2684.49 511.388  20
  -1  -5   9 2717.48 563.119   3
   1   5  -9 3061.00 467.864  21
  -1  -5   9 2491.82 423.093  16
  -1  -5   9 3112.95 460.788   2
  -1  -5   8 5809.73 656.365  16
   1   5  -8 4675.72 726.335   9
  -1  -5   8 4731.28 702.308  15
  -1  -5   8 5384.93 697.836  20
  -1  -5   8 5017.12 719.986   3
   1   5  -8 5486.56 569.097  21
  -1  -5   8 6265.57 661.285   2
  -1  -5   7 1356.60 339.759  16
   1   5  -7 1195.33 364.000   9
  -1  -5   7 1090.81 333.057   3
  -1  -5   7 1202.13 347.785  15
   1   5  -7 1172.51 241.718  21
  -1  -5   7 1382.35 366.327  20
  -1  -5   7 1437.82 330.088   2
   1   5  -6 5373.96 729.709   9
  -1  -5   6 5650.41 712.178  15
   1   5  -6 6368.23 545.068  21
  -1  -5   6 5041.03 668.907   3
  -1  -5   6 6248.00 709.743  20
  -1  -5   6 6301.63 673.496  16
  -1  -5   6 5123.05 538.777  10
  -1  -5   6 5791.61 605.143   2
  -1  -5   5 3107.90 506.995  15
   1   5  -5 2900.23 521.385   9
  -1  -5   5 3189.22 537.637   3
   1   5  -5 3572.17 382.386  21
  -1  -5   5 3099.70 485.497  20
  -1  -5   5 2960.58 474.570  16
  -1  -5   5 3037.61 422.559  10
  -1  -5   5 3288.18 453.838   2
   1   5  -4 5937.68 700.288   9
  -1  -5   4 5400.35 558.764   2
  -1  -5   4 6186.91 597.107  10
  -1  -5   4 5617.28 650.299   3
  -1  -5   4 6272.08 675.207  16
  -1  -5   4 5085.41 607.120  15
  -1  -5   4 5809.48 634.343  20
   1   5  -4 4824.87 404.360  21
   1   5  -3 4284.46 331.053  21
  -1  -5   3 4488.98 575.932   3
  -1  -5   3 4272.55 541.474  15
  -1  -5   3 4415.71 513.538  10
  -1  -5   3 3744.78 493.536  20
   1   5  -3 3033.95 214.667   4
  -1  -5   3 5201.16 620.766  16
   1   5  -3 4335.75 619.571   9
  -1  -5   3 4482.19 496.779   2
   1   5  -2 7037.84 779.302   9
   1   5  -2 6216.49 345.636  21
  -1  -5   2 6990.61 664.054  15
  -1  -5   2 7238.59 666.036  20
  -1  -5   2 7283.47 701.874  16
  -1  -5   2 7812.51 718.797   3
  -1  -5   2 8239.91 672.961   2
  -1  -5   2 7323.96 652.695  10
   1   5  -2 5495.97 243.421   4
  -1  -5   1 4764.33 526.584  15
   1   5  -1 4672.70 639.495   9
  -1  -5   1 4629.12 493.870   2
  -1  -5   1 5090.18 567.924   3
   1   5  -1 3448.24 181.809  21
  -1  -5   1 4292.95 479.174  20
  -1  -5   1 4547.97 581.275  16
   1   5  -1 3647.81 183.907   4
   1   5  -1 3638.09 219.388  11
  -1  -5   1 4104.28 491.681  10
   1   5   0 681.346 234.808   9
   1   5   0 1000.59 128.827  13
  -1  -5   0 1652.64 402.269  16
  -1  -5   0 1236.43 269.686  15
   1   5   0 812.166 172.235  17
   1   5   0 1308.75 147.610  13
   1   5   0 1221.20 140.351  14
   1   5   0 1257.61 178.066  11
  -1  -5   0 1507.79 320.355  10
   1   5   0 959.061 107.474   4
  -1  -5   0 1389.01 297.351   3
   1   5   1 13857.7 714.847  17
   1   5   1 14392.9 563.157  14
  -1  -5  -1 15500.8 860.520  15
  -1  -5  -1 15309.1 876.502   3
   1   5   1 13227.4 473.020   4
   1   5   1 17013.3 1151.29   9
   1   5   1 14844.1 671.123  11
  -1  -5  -1 14186.7 921.651  10
  -1  -5  -1 17595.4 1095.87  16
  -1  -5  -2 4325.60 429.738  15
   1   5   2 3407.07 296.700  14
   1   5   2 3303.60 342.013  11
  -1  -5  -2 4280.97 443.261   3
  -1  -5  -2 3566.86 453.187  10
   1   5   2 3404.82 542.614   9
  -1  -5  -2 4269.49 535.575  16
   1   5   2 3009.57 253.075   4
   1   5   2 3096.51 326.805  17
  -1  -5  -3 9897.80 824.548  16
  -1  -5  -3 8689.71 596.585   3
  -1  -5  -3 8972.24 744.256  10
  -1  -5  -3 9124.15 604.521  15
  -1  -5  -3 9742.10 874.537   1
   1   5   3 7971.08 526.212  17
   1   5   3 9970.49 909.145   6
   1   5   3 8777.00 599.333  11
  -1  -5  -4 12750.0 670.777  17
  -1  -5  -4 13261.2 954.247  16
  -1  -5  -4 12699.3 683.291  15
  -1  -5  -4 12877.2 1012.09   1
  -1  -5  -4 12598.1 884.286  10
  -1  -5  -4 10568.2 411.697  21
   1   5   4 14780.3 1128.00   6
  -1  -5  -4 12466.1 684.085   3
   1   5   4 13052.9 775.488  11
   1   5   4 12673.0 669.674  17
  -1  -5  -5 5630.03 419.095  15
  -1  -5  -5 5667.25 601.378  10
   1   5   5 4674.79 491.562  11
  -1  -5  -5 5027.07 646.127   1
   1   5   5 5245.76 563.026  19
  -1  -5  -5 5054.80 403.560   3
  -1  -5  -5 4219.41 299.297  21
   1   5   5 4769.54 421.905  17
   1   5   5 5699.01 703.393   6
   1   5   5 4876.70 618.904   5
  -1  -5  -5 5164.06 599.289  16
  -1  -5  -5 4837.42 437.985  17
  -1  -5  -6 2658.40 353.279  17
  -1  -5  -6 2715.42 266.506  15
   1   5   6 2412.10 437.103  18
  -1  -5  -6 2156.71 258.541  21
   1   5   6 2781.51 406.324  11
  -1  -5  -6 2614.20 269.881   3
  -1  -5  -6 1960.30 406.638   1
   1   5   6 2624.40 457.075   5
  -1  -5  -6 2671.51 478.528  16
   1   5   6 2600.83 525.311   6
  -1  -5  -6 2870.28 457.307  10
   1   5   6 2572.91 413.726  19
  -1  -5  -7 9950.43 825.092  10
   1   5   7 9791.46 980.801   6
   1   5   7 11253.1 932.928  18
   1   5   7 10206.1 809.469  11
   1   5   7 10986.5 952.124   5
  -1  -5  -7 9705.07 466.839   3
  -1  -5  -7 10510.4 946.817   1
  -1  -5  -7 8767.16 554.870  21
  -1  -5  -7 9667.72 455.100  15
  -1  -5  -7 9689.70 668.911  17
  -1  -5  -7 9524.78 827.416  16
   1   5   7 9882.87 854.312  19
   1   5   8 6394.58 782.694   6
  -1  -5  -8 4613.75 264.505  15
   1   5   8 5976.61 672.178  19
  -1  -5  -8 6175.08 564.199  17
   1   5   8 6833.80 742.889  18
   1   5   8 5710.84 620.122  11
  -1  -5  -8 5435.65 620.546  16
  -1  -5  -8 5825.69 645.456  10
  -1  -5  -8 6094.30 732.556   1
  -1  -5  -8 4057.89 256.388   3
   1   5   8 5975.08 725.842   5
   1   5   9 10135.8 899.823  18
  -1  -5  -9 9791.87 832.367  16
   1   5   9 9721.22 944.001   5
  -1  -5  -9 9016.90 910.596   1
  -1  -5  -9 8479.71 760.668  10
  -1  -5  -9 9060.27 729.690  17
   1   5   9 10643.8 1001.81   6
   1   5   9 8762.97 823.562  11
   1   5   9 10698.4 928.857  19
  -1  -5 -10 65.3406 191.436  17
   1   5  10 93.2082 181.995  18
   1   5  10-36.3061 168.633  11
   1   5  10 106.835 177.179  19
  -1  -5 -10 110.949 179.050  10
   1   5  10 679.581 351.610   6
  -1  -5 -10 275.455 260.086  16
  -1  -5 -10 162.995 207.977   1
  -1  -5 -11 2818.97 480.805  16
  -1  -5 -11 3110.10 474.678  17
  -1  -5 -11 3873.93 637.974   1
  -1  -5 -11 3429.44 514.311  10
   1   5  11 3385.98 535.610  18
   1   5  11 2930.58 543.831  11
   1   5  11 2811.18 525.642  19
   1   5  12 230.100 234.895  11
  -1  -5 -12-195.596 239.094   1
   1   5  12 744.387 283.338  18
  -1  -5 -12 19.6406 151.583  17
  -1  -5 -12 513.727 237.781  16
   1   5  12 558.657 320.850  19
  -1  -5 -12 315.811 229.701  10
  -1  -5 -13 1703.35 358.483  16
  -1  -5 -13 1411.72 363.639  10
   1   5  13 2444.46 479.331  18
   1   5  13 1606.97 478.327  19
   1   5  13 1776.07 450.219  11
  -1  -5 -13 1978.53 421.572  17
  -1  -5 -13 995.794 376.061   1
  -1  -5 -14 4029.99 704.274   1
  -1  -5 -14 5329.55 613.804  16
   1   5  14 4820.74 744.325  19
  -1  -5 -14 4306.27 640.201  17
  -1  -5 -14 4605.63 615.245  10
   1   5  14 3725.77 643.887  11
   1   5  14 5639.04 740.114  18
  -1  -5 -15 1570.11 481.733   1
   1   5  15 1375.70 389.162  18
   1   5  15 626.658 325.826  19
   1   5  15 934.188 361.832  11
  -1  -5 -15 1449.73 395.690  17
  -1  -5 -16 719.197 295.741  17
   1   5  16 886.832 349.270  18
   1   5  16 916.524 371.313  11
  -1  -5 -16 1144.32 384.006   1
   1   5  16 1246.76 460.784  19
  -1  -5 -17 245.211 245.260  17
   1   5  17 771.012 384.419  19
  -1  -5 -17 100.052 298.591   1
   1   5  17 218.792 251.386  11
   1   5  18 266.337 244.388  11
  -1  -5 -18-26.7134 191.737   1
  -1  -5 -18 70.3280 188.530  17
   1   5  18 334.312 256.347  19
  -1  -5 -19 1875.83 476.022  17
  -1  -5 -20-591.818 330.274  17
   1   6 -12-230.814 251.401   9
  -1  -6  12-26.9274 223.491  20
  -1  -6  11 844.395 359.807  20
   1   6 -11 698.801 355.453   9
  -1  -6  11 717.914 365.747   3
  -1  -6  11 835.892 401.768  15
  -1  -6  10 1155.16 425.981  15
   1   6 -10 1111.14 418.552   9
  -1  -6  10 1367.68 404.864  20
  -1  -6  10 1178.60 470.445   3
  -1  -6   9 6879.91 764.973  16
  -1  -6   9 5723.38 836.992  15
  -1  -6   9 7290.74 963.860   3
  -1  -6   9 6230.43 821.661  20
   1   6  -9 5511.44 877.451   9
  -1  -6   8 1933.54 439.393  16
  -1  -6   8 1970.82 498.098  15
  -1  -6   8 1880.29 459.567  20
   1   6  -8 1873.85 519.474   9
  -1  -6   8 1549.32 458.981   3
   1   6  -7 9348.12 1065.11   9
  -1  -6   7 9375.78 1009.42   3
  -1  -6   7 9508.35 1020.21  15
  -1  -6   7 8956.77 944.487  20
  -1  -6   7 11632.8 1023.90  16
  -1  -6   6 5028.94 708.637  15
   1   6  -6 5234.60 807.996   9
  -1  -6   6 4406.28 694.899   3
  -1  -6   6 4973.28 672.517  20
  -1  -6   6 5648.10 732.587  16
  -1  -6   6 4688.99 587.240  10
  -1  -6   5 9336.33 922.434  16
   1   6  -5 9433.98 1035.30   9
  -1  -6   5 9364.55 941.321  15
  -1  -6   5 8815.05 936.802   3
  -1  -6   5 8419.58 845.577  20
  -1  -6   5 8939.34 795.603  10
  -1  -6   5 9738.45 818.876   2
   1   6  -4 393.053 249.930   9
  -1  -6   4 589.858 268.499  15
  -1  -6   4 1021.11 327.219   3
  -1  -6   4 293.736 198.425  16
  -1  -6   4 549.695 245.857   2
  -1  -6   4 395.217 166.999  20
  -1  -6   4 366.783 173.649  10
   1   6  -3 5327.15 756.132   9
  -1  -6   3 6580.82 765.209  16
  -1  -6   3 5240.67 626.738  10
  -1  -6   3 5493.33 684.518   3
  -1  -6   3 4707.67 615.395  15
  -1  -6   3 5322.34 628.336  20
  -1  -6   3 5975.29 629.910   2
  -1  -6   2 10672.3 901.256  15
  -1  -6   2 10297.2 873.996  10
  -1  -6   2 10458.1 912.881   3
  -1  -6   2 9701.26 845.101  20
  -1  -6   2 10122.8 942.650  16
   1   6  -2 10832.0 1082.01   9
   1   6  -1 21467.7 1489.84   9
  -1  -6   1 20993.7 1361.52  16
  -1  -6   1 19848.9 1204.84  15
  -1  -6   1 19685.0 1226.28   3
  -1  -6   1 20692.4 1234.97  10
   1   6   0 30607.2 1770.59   9
  -1  -6   0 31651.9 1692.01  16
  -1  -6   0 27948.5 1432.69   3
  -1  -6   0 27241.5 1441.23  10
  -1  -6   0 28436.7 1401.30  15
  -1  -6  -1 52693.1 2159.46  16
  -1  -6  -1 46184.4 1749.34  15
   1   6   1 46325.2 1293.21  11
  -1  -6  -1 48326.1 1836.87   3
  -1  -6  -1 45336.0 1904.15  10
   1   6   1 49449.1 2251.41   9
  -1  -6  -2 8900.06 874.529  16
   1   6   2 8122.72 587.200  11
  -1  -6  -2 7794.37 676.772   3
  -1  -6  -2 8502.41 794.624  10
  -1  -6  -2 8310.62 682.476  15
   1   6   2 7596.78 843.408   9
   1   6   3 14553.2 1191.04   9
   1   6   3 14183.9 829.981  11
  -1  -6  -3 15444.2 912.650   3
  -1  -6  -3 14287.4 864.593  15
   1   6   3 15746.3 1269.04   6
  -1  -6  -3 14908.3 1064.85  10
  -1  -6  -3 15904.5 1179.52  16
   1   6   3 12493.1 620.512   4
   1   6   4 22123.4 900.377   4
  -1  -6  -4 24872.7 1472.45  16
  -1  -6  -4 23770.3 1071.55  15
  -1  -6  -4 24413.3 1114.68   3
   1   6   4 24563.2 1167.02  11
   1   6   4 26483.0 1661.90   6
  -1  -6  -4 22145.7 1314.27  10
   1   6   5 19003.7 1350.20   5
  -1  -6  -5 16855.9 1213.97  16
  -1  -6  -5 17174.4 1150.33  10
   1   6   5 19110.1 1424.82   6
  -1  -6  -5 18961.6 1396.13   1
  -1  -6  -5 17587.4 894.837   3
   1   6   5 16940.9 1028.04  11
  -1  -6  -5 16845.4 856.839  15
   1   6   5 18176.9 1200.91  19
  -1  -6  -6 17801.7 1247.49  16
  -1  -6  -6 15936.0 789.371  15
  -1  -6  -6 19576.5 1432.45   1
   1   6   6 18500.4 1370.13   5
  -1  -6  -6 17188.5 834.175   3
  -1  -6  -6 16341.3 824.799  17
   1   6   6 17133.9 1095.92  11
   1   6   6 18253.2 1234.58  19
   1   6   6 19781.1 1454.35   6
  -1  -6  -6 16822.6 1178.97  10
   1   6   7 9758.48 1006.92   5
  -1  -6  -7 8022.56 855.659  16
  -1  -6  -7 7468.51 577.166  17
   1   6   7 8059.88 771.705  11
   1   6   7 9227.23 941.440  18
  -1  -6  -7 9806.91 1023.00   1
   1   6   7 9651.92 1050.88   6
   1   6   7 9208.17 917.947  19
  -1  -6  -7 8419.51 816.078  10
  -1  -6  -8 4528.41 633.968  16
   1   6   8 3478.84 553.726  11
   1   6   8 4675.32 670.451  19
   1   6   8 4774.63 727.880   5
  -1  -6  -8 3583.50 446.711  17
   1   6   8 4676.13 755.642   6
  -1  -6  -8 4179.10 684.887   1
  -1  -6  -8 4143.78 614.644  10
   1   6   8 4117.04 649.840  18
   1   6   9 5332.80 810.393   6
  -1  -6  -9 3796.21 624.038  16
   1   6   9 3217.85 547.370  11
  -1  -6  -9 4544.40 739.168   1
   1   6   9 4184.09 645.933  19
   1   6   9 4686.32 733.345   5
  -1  -6  -9 3480.31 550.946  10
   1   6   9 4305.23 646.199  18
  -1  -6  -9 4071.39 473.197  17
  -1  -6 -10 1858.94 335.901  17
  -1  -6 -10 1446.58 383.297  16
   1   6  10 2130.28 495.639  19
   1   6  10 2219.13 495.030   6
   1   6  10 2628.90 551.813   5
   1   6  10 1565.88 422.307  11
  -1  -6 -10 1706.88 382.823  10
   1   6  10 1710.27 406.805  18
  -1  -6 -10 2071.11 516.372   1
  -1  -6 -11 1009.09 265.882  17
  -1  -6 -11 193.514 212.874  16
  -1  -6 -11 1142.86 334.811  10
   1   6  11 1337.62 459.086   6
   1   6  11 915.476 354.926  19
   1   6  11 818.070 311.629  11
  -1  -6 -11 743.494 345.233   1
   1   6  11 948.130 364.095  18
   1   6  12 774.914 312.186  11
   1   6  12 776.633 337.985  19
  -1  -6 -12 1019.62 340.651  16
  -1  -6 -12 845.875 297.763  10
  -1  -6 -12 1038.78 390.453   1
   1   6  12 506.068 252.650  18
  -1  -6 -13 13.0431 209.879   1
  -1  -6 -13 42.0980 159.958  10
   1   6  13-89.7595 187.433  18
   1   6  13 106.366 201.940  11
   1   6  13 713.495 335.046  19
  -1  -6 -13 113.279 160.285  16
  -1  -6 -14 2394.73 581.392   1
  -1  -6 -14 2699.33 501.563  16
  -1  -6 -14 1687.78 425.674  10
   1   6  14 3134.85 629.474  11
   1   6  14 1915.15 462.475  18
   1   6  14 2377.16 584.595  19
   1   6  15 3331.02 610.996  18
  -1  -6 -15 4154.98 760.898   1
  -1  -6 -15 3733.70 588.805  10
   1   6  15 3129.79 668.115  11
   1   6  15 4398.30 737.493  19
  -1  -6 -16 2072.62 568.751   1
   1   6  16 1855.47 514.964  11
   1   6  16 1234.55 456.797  19
   1   6  16 2211.57 516.245  18
   1   6  17 142.169 168.666  18
   1   6  17 1319.18 476.101  19
   1   6  17 831.894 429.585  11
  -1  -7  11 366.979 256.990  20
  -1  -7  10 972.138 365.947  20
   1   7  -9 1750.83 551.403   9
  -1  -7   9 1901.23 484.524  20
  -1  -7   8 1510.62 456.012  15
   1   7  -8 784.674 382.514   9
  -1  -7   8 1522.76 463.464   3
  -1  -7   8 1260.29 427.144  20
  -1  -7   8 679.329 279.966  16
  -1  -7   7-46.7492 168.651  15
   1   7  -7 204.684 247.584   9
  -1  -7   7-384.275 269.284   3
  -1  -7   7-231.605 252.118  20
  -1  -7   7 603.221 267.511  16
  -1  -7   6 1298.11 369.819  20
  -1  -7   6 1004.79 364.624  16
   1   7  -6 856.108 412.574   9
  -1  -7   6 1118.88 324.078  10
  -1  -7   6 1018.17 367.770  15
  -1  -7   6 1068.80 401.907   3
  -1  -7   5 1380.92 386.526  20
  -1  -7   5 1149.73 400.056  15
  -1  -7   5 1239.69 375.358   3
  -1  -7   5 1449.24 375.920  10
   1   7  -5 1035.76 392.646   9
  -1  -7   5 1494.62 433.287  16
  -1  -7   4 228.341 266.102  16
   1   7  -4 220.587 236.273   9
  -1  -7   4 850.433 335.635  15
  -1  -7   4 352.534 209.706  20
  -1  -7   4 248.358 242.771   3
  -1  -7   4 513.467 278.353  10
   1   7  -3 803.033 391.156   9
  -1  -7   3 528.021 271.372  15
  -1  -7   3 831.305 339.592   3
  -1  -7   3 389.954 296.846  16
  -1  -7   3 1010.40 331.381  10
   1   7  -2 3793.28 680.379   9
  -1  -7   2 2592.11 498.964  15
  -1  -7   2 2909.47 521.887  10
  -1  -7   2 3468.40 603.873  16
  -1  -7   2 2943.39 538.518   3
  -1  -7   1 1557.91 389.102  10
   1   7  -1 1519.06 469.292   9
  -1  -7   1 1812.93 407.608  15
  -1  -7   1 1353.98 355.921   3
  -1  -7   1 2124.47 450.353  16
  -1  -7   0 523.183 189.736  15
  -1  -7   0 597.346 228.752   3
  -1  -7   0 766.011 282.823  10
   1   7   0 870.078 342.021   9
  -1  -7   0 240.675 179.578  16
  -1  -7  -1 1520.47 348.212   3
  -1  -7  -1 1602.77 439.597  16
  -1  -7  -1 1170.32 339.573  15
   1   7   1 1196.62 365.066   9
  -1  -7  -1 1438.05 391.125  10
  -1  -7  -2 2188.14 489.273  16
  -1  -7  -2 1546.81 331.828  15
   1   7   2 1900.35 471.514   9
  -1  -7  -2 2039.10 430.967  10
  -1  -7  -2 1532.68 353.394   3
   1   7   2 1770.08 487.709   6
  -1  -7  -3 1234.25 400.740  16
  -1  -7  -3 625.521 192.967  15
   1   7   3 1300.89 364.057   9
   1   7   3 1247.51 403.346   6
  -1  -7  -3 856.104 261.175   3
  -1  -7  -3 1269.61 369.043  10
  -1  -7  -4 4093.67 655.986  16
  -1  -7  -4 3807.12 466.277  15
   1   7   4 3723.46 657.367   9
   1   7   4 4883.94 750.825   6
  -1  -7  -4 3861.15 619.536  10
  -1  -7  -4 3333.29 447.133   3
  -1  -7  -5 1590.94 455.136  16
   1   7   5 1328.42 448.362   9
   1   7   5 1681.59 480.929   6
   1   7   5 1149.50 389.646   5
   1   7   5 1698.41 419.808  19
  -1  -7  -5 1475.33 368.207  10
   1   7   6 1082.80 398.422   6
  -1  -7  -6 1286.74 396.536  16
   1   7   6 471.881 227.165  11
   1   7   6 1269.23 364.243  19
   1   7   6 1508.02 450.755   5
  -1  -7  -6 730.836 314.293  10
  -1  -7  -7 2712.66 545.106  16
   1   7   7 3650.89 635.211  18
   1   7   7 2740.11 635.694   6
  -1  -7  -7 2320.76 566.577   1
   1   7   7 2582.53 481.078  11
   1   7   7 2802.19 523.862  19
  -1  -7  -7 2613.91 524.917  10
   1   7   7 2407.55 568.231   5
   1   7   8 1422.26 372.732  11
  -1  -7  -8 1474.50 446.635  10
  -1  -7  -8 1858.46 485.852  16
   1   7   8 2563.51 631.482   6
   1   7   8 1317.45 425.192   5
   1   7   8 1232.10 404.624  19
  -1  -7  -8 2098.43 521.809   1
   1   7   8 1821.23 492.882  18
   1   7   9 704.678 273.981  11
  -1  -7  -9 567.358 308.991  16
   1   7   9 898.611 369.159   5
  -1  -7  -9 541.240 290.709  10
  -1  -7  -9 506.019 353.351   1
   1   7   9 780.213 373.468   6
   1   7   9 303.526 222.854  19
   1   7   9 1079.79 353.358  18
   1   7  10 149.541 215.024   5
  -1  -7 -10 390.942 295.456  16
   1   7  10 319.275 199.598  19
   1   7  10-18.2654 217.735  11
  -1  -7 -10 413.274 330.843   1
   1   7  10 689.351 348.397   6
  -1  -7 -10-10.8468 154.969  10
   1   7  10 589.864 304.328  18
   1   7  11 444.291 324.377   5
   1   7  11 285.138 280.415   6
  -1  -7 -11 230.233 238.006   1
   1   7  11 401.864 242.327  11
  -1  -7 -11 2.72640 191.567  16
  -1  -7 -11-31.7710 159.129  10
   1   7  11 769.261 389.287  18
   1   7  11 618.159 322.670  19
   1   7  12 1016.70 379.842  11
   1   7  12 1615.52 460.197  19
  -1  -7 -12 1578.70 417.271  10
  -1  -7 -12 505.720 300.811   1
  -1  -7 -12 1149.48 378.189  16
   1   7  12 1157.61 402.947  18
  -1  -7 -13 917.954 347.158  16
   1   7  13 717.426 306.786  18
  -1  -7 -13 599.146 271.627  10
   1   7  13 499.665 292.168  11
   1   7  13 258.621 259.156  19
  -1  -7 -13 301.119 316.617   1
   1   7  14 413.467 278.322  18
   1   7  14 337.690 256.383  11
   1   7  14-36.5952 258.502  19
  -1  -7 -14-94.5991 173.862  16
  -1  -7 -14-428.709 328.278   1
  -1  -7 -14 498.239 265.874  10
   1   7  15 33.4466 251.951  19
   1   7  15-83.7057 215.895  11
   1   7  15 134.478 228.543  18
   1   7  16 794.916 341.543  18
   1   7  17 340.701 256.695  18
  -1  -8   7 353.839 226.361  16
  -1  -8   6 1327.17 459.000  16
  -1  -8   5 3152.46 689.530  16
  -1  -8   5 1646.33 489.353  15
  -1  -8   5 1803.36 436.056  10
  -1  -8   5 1660.88 476.668   3
   1   8  -5 1770.52 571.871   9
  -1  -8   4 323.354 309.140  15
  -1  -8   4-17.1784 180.057  16
  -1  -8   4 141.794 194.641   3
  -1  -8   4 99.9875 161.685  10
  -1  -8   3 756.844 336.235  16
  -1  -8   3 638.322 296.312   3
   1   8  -3 453.579 313.505   9
  -1  -8   3 787.842 355.766  15
  -1  -8   3 775.760 316.797  10
  -1  -8   2 2433.23 525.045  10
   1   8  -2 3470.74 709.598   9
  -1  -8   2 2702.77 553.222   3
  -1  -8   2 2581.96 531.605  15
  -1  -8   2 1984.57 508.858  16
  -1  -8   1 1289.24 402.629  16
  -1  -8   1 1111.84 358.817   3
   1   8  -1 1973.09 551.528   9
  -1  -8   1 1679.63 417.466  15
  -1  -8   1 1221.13 369.651  10
  -1  -8   0-129.848 256.837  16
   1   8   0 146.149 294.147   9
  -1  -8   0 225.369 180.749  15
  -1  -8   0 77.0319 179.035   3
  -1  -8   0 82.9888 151.612  10
  -1  -8  -1 94.3040 203.749  16
  -1  -8  -1 352.581 191.446  15
   1   8   1 201.473 217.691   6
  -1  -8  -1 370.934 176.216   3
  -1  -8  -1 308.447 258.635  10
   1   8   1 95.4351 214.497   9
   1   8   2 489.640 301.338   9
   1   8   2-101.862 299.489   6
  -1  -8  -2 183.177 307.600  16
  -1  -8  -2 618.484 275.845  10
   1   8   3 1090.71 394.720   9
   1   8   3 2072.42 536.216   6
  -1  -8  -3 1648.21 445.823  10
  -1  -8  -3 1339.88 438.262  16
   1   8   4 145.141 250.468   9
   1   8   4 340.348 278.919   5
  -1  -8  -4 837.913 378.244  16
   1   8   4-4.96322 158.292  19
   1   8   4 458.894 315.210   6
  -1  -8  -4 358.925 275.929  10
   1   8   5 7825.55 905.547  19
  -1  -8  -5 8011.95 976.197  16
   1   8   5 8318.40 1108.86   9
   1   8   5 8835.96 1107.63   6
  -1  -8  -5 6175.98 822.687  10
   1   8   5 7893.73 1031.93   5
  -1  -8  -6 649.070 363.051  10
  -1  -8  -6 591.581 334.629  16
   1   8   6 700.560 396.627   9
   1   8   6-233.979 216.149  19
   1   8   6 92.1083 223.411   5
   1   8   6 66.3405 252.816   6
   1   8   7 4443.27 872.856   6
  -1  -8  -7 4059.98 725.792  16
   1   8   7 4823.13 904.107   9
   1   8   7 5363.39 844.548  18
  -1  -8  -7 4904.01 762.089  10
   1   8   7 4707.64 828.134   5
   1   8   7 4741.49 732.847  19
  -1  -8  -8 3153.19 642.007  16
   1   8   8 2997.96 618.732  19
   1   8   8 3727.57 794.220   6
   1   8   8 3806.67 753.315   5
   1   8   8 3123.59 656.422  18
  -1  -8  -8 3233.08 613.065  10
  -1  -8  -9 1737.23 534.700   1
  -1  -8  -9 741.703 374.666  16
   1   8   9 686.715 347.497  19
   1   8   9 993.401 407.590   5
   1   8   9 1545.08 561.415   6
  -1  -8  -9 1638.74 433.712  10
   1   8   9 1575.41 540.793  18
  -1  -8 -10 1477.56 503.385  16
   1   8  10 2097.60 608.152   5
  -1  -8 -10 1491.62 522.868   1
   1   8  10 2447.08 650.114   6
   1   8  10 1345.39 405.031  19
  -1  -8 -10 1926.56 504.254  10
   1   8  10 2125.79 567.199  18
   1   8  11 253.938 280.987  18
  -1  -8 -11 388.782 290.452  16
   1   8  11 100.978 295.243   6
  -1  -8 -11 315.032 246.751  10
   1   8  11 557.194 329.949  19
   1   8  12 3390.25 689.163  19
   1   8  12 2376.34 574.359  11
  -1  -8 -12 2265.49 577.199  16
   1   8  12 3559.84 759.053  18
   1   8  13 4670.64 868.236  18
   1   8  13 3802.90 728.809  11
  -1  -8 -13 4213.28 769.523  16
  -1  -8 -14 1397.41 477.491  16
   1   8  14 1426.12 519.459  11
   1   9   5 1312.30 430.201  19
   1   9   6 1183.15 422.410  19
   1   9   7 1351.97 452.392  19
  -2   7   6 1507.27 475.468   6
  -2   7   5 2629.59 579.679   6
   2  -7  -4 907.832 302.228  15
  -2   7   4 942.572 384.768   6
  -2   7   4 555.164 368.050   9
   2  -7  -4 1163.98 368.980   3
   2  -7  -4 967.654 369.312  10
  -2   7   3 237.114 279.388   9
   2  -7  -3 344.699 227.802  15
   2  -7  -3 322.174 240.732   3
  -2   7   3 152.706 217.254   6
   2  -7  -3 381.693 256.656  10
   2  -7  -2 1274.21 407.523   3
   2  -7  -2 640.111 292.100  15
   2  -7  -2 596.764 301.889  10
  -2   7   2 518.542 283.565   6
  -2   7   2 1452.64 499.606   9
  -2   7   1 3224.96 652.092   6
   2  -7  -1 2505.18 548.104  10
   2  -7  -1 2002.73 508.720   3
   2  -7  -1 2583.06 549.392  15
   2  -7   0 2185.19 538.301  15
  -2   7   0 2551.34 607.694   6
   2  -7   0 1452.98 469.353  10
   2  -7   0 2079.18 515.266   3
   2  -7   1 1448.99 472.172  15
   2  -7   1 987.219 346.718  10
   2  -7   1 810.995 351.646   3
   2  -7   2 532.197 302.807  15
   2  -7   2 570.683 329.342   3
   2  -7   2 419.261 288.344  10
   2  -7   3 548.497 277.128  10
   2  -7   4 1952.18 502.461  10
   2  -7   5 2806.48 611.277  10
   2  -6 -15 534.002 304.072  10
   2  -6 -14 2222.41 526.818  16
   2  -6 -14 1862.56 487.967  10
   2  -6 -13 1030.26 402.236  16
  -2   6  13 1041.89 430.516  11
   2  -6 -13 517.260 284.664  10
   2  -6 -12 800.344 364.034  16
  -2   6  12 670.062 347.197  11
   2  -6 -12 976.873 412.144   1
   2  -6 -12 829.595 339.655  10
  -2   6  12 612.803 374.687   5
   2  -6 -11 1576.46 450.346  16
  -2   6  11 2235.00 605.004  19
  -2   6  11 1621.06 489.899   5
  -2   6  11 1789.90 498.111  14
   2  -6 -11 2512.75 641.298   1
   2  -6 -11 1350.68 403.314  10
  -2   6  10 853.591 357.896  14
  -2   6  10 1357.93 472.308   5
  -2   6  10 1447.55 501.551  19
   2  -6 -10 1108.52 407.612   1
   2  -6 -10 1836.74 500.348  16
   2  -6 -10 701.968 282.979  10
  -2   6   9 137.320 196.538  14
  -2   6   9-41.4851 204.123  19
  -2   6   9 726.376 389.196   5
   2  -6  -9 66.2170 207.150  10
  -2   6   9 362.208 259.612   6
   2  -6  -9-231.258 228.527  16
  -2   6   9-437.090 260.821  18
  -2   6   8 974.846 374.226   6
  -2   6   8 553.538 294.732   4
   2  -6  -8 293.876 273.789  16
  -2   6   8 559.527 289.330   5
   2  -6  -8 414.059 228.156  10
  -2   6   7 798.623 363.090   9
   2  -6  -7 1171.60 319.436  15
   2  -6  -7 1214.09 381.758  10
  -2   6   7 1367.11 388.791   4
  -2   6   7 1238.17 479.162   5
  -2   6   7 1175.11 389.906   6
   2  -6  -7 862.603 377.317  16
  -2   6   6 203.147 216.758   9
   2  -6  -6 897.389 320.987  16
  -2   6   6 978.649 338.661   4
  -2   6   6 775.184 318.661   6
   2  -6  -6 797.320 294.182  15
  -2   6   6 928.433 334.646   5
   2  -6  -6 1104.80 347.469  10
  -2   6   5 2416.74 641.264   9
  -2   6   5 1790.65 414.035   4
   2  -6  -5 1668.14 442.052  10
  -2   6   5 2384.71 524.028   6
   2  -6  -5 1789.36 414.317  15
   2  -6  -4 7262.32 814.921  15
   2  -6  -4 6495.46 775.808   3
  -2   6   4 6589.78 840.425   6
  -2   6   4 6695.80 965.139   9
  -2   6   4 5239.93 680.247   4
   2  -6  -4 6373.89 825.423  10
   2  -6  -3 3395.26 582.732  15
  -2   6   3 2630.39 470.271   4
   2  -6  -3 2576.78 533.306  10
  -2   6   3 3209.93 608.888   6
  -2   6   3 2257.12 565.305   9
   2  -6  -3 3152.17 550.808   3
  -2   6   2 3175.17 664.191   9
   2  -6  -2 4266.14 663.773   3
  -2   6   2 4249.87 702.165   6
   2  -6  -2 3565.89 588.291  15
  -2   6   2 3049.37 501.847   4
   2  -6  -2 3598.08 639.052  10
   2  -6  -1 5693.68 752.962  15
   2  -6  -1 6303.14 793.457   3
  -2   6   1 5097.09 747.173   6
  -2   6   1 5173.96 843.564   9
   2  -6  -1 4326.76 682.627  10
   2  -6   0 3283.45 629.754  16
   2  -6   0 3675.33 622.850  10
   2  -6   0 3840.38 650.699  15
   2  -6   0 4228.37 672.498   3
  -2   6   0 3363.57 719.901   9
   2  -6   1 569.081 291.842   3
   2  -6   1 929.210 327.961  15
   2  -6   1 597.773 273.413  10
  -2   6  -1 931.880 427.170   9
   2  -6   1 582.455 327.799  16
   2  -6   2 3251.03 627.678   3
   2  -6   2 2731.71 575.380  16
  -2   6  -2 3370.44 730.710   9
   2  -6   2 3053.04 594.470  15
   2  -6   2 3023.28 601.103  10
   2  -6   3 496.085 276.993  16
  -2   6  -3 958.798 441.913   9
   2  -6   3 393.437 280.600  15
   2  -6   3 157.111 175.651   3
   2  -6   3 75.4826 152.246  10
  -2   6  -4-116.968 253.855   9
   2  -6   4 628.383 348.146  16
   2  -6   4 388.412 255.161   3
   2  -6   4-48.4870 151.000  10
   2  -6   4 123.554 205.636  15
  -2   6  -5 635.215 307.248   9
   2  -6   5 422.615 276.643  15
   2  -6   5 745.741 357.902   3
   2  -6   5 879.824 410.494  16
   2  -6   5 151.637 159.673  10
   2  -6   6 1373.28 477.227  15
  -2   6  -6 747.256 445.250   9
   2  -6   6 752.138 330.410  16
   2  -6   6 657.392 309.261   3
   2  -6   6 944.794 331.459  10
   2  -6   7 2468.90 556.644  16
   2  -6   7 1611.97 459.284  15
   2  -6   7 1123.32 437.008   3
   2  -6   8 1642.23 474.655  16
  -2   5  15-131.636 230.457  11
   2  -5 -15 363.612 223.998  10
  -2   5  15 423.549 350.238  19
   2  -5 -15 97.7116 205.136   1
   2  -5 -14-139.745 147.788  10
  -2   5  14 206.009 214.050  11
   2  -5 -14 16.4236 220.081   1
  -2   5  14 161.663 227.125  19
   2  -5 -14 467.071 263.034  16
   2  -5 -13 310.793 211.106  16
  -2   5  13 708.576 332.049  19
  -2   5  13 125.018 202.987  11
   2  -5 -13 587.736 338.806   1
   2  -5 -13 441.517 255.062  10
   2  -5 -12 224.308 185.158  16
   2  -5 -12 105.818 291.005   1
  -2   5  12 376.307 349.229  19
  -2   5  12-25.7975 201.684  11
  -2   5  12 447.657 316.402   5
   2  -5 -12 473.814 270.196  10
  -2   5  11 1850.21 504.954  19
  -2   5  11 1193.16 400.452  11
   2  -5 -11 973.602 413.521   1
   2  -5 -11 978.877 348.573  10
  -2   5  11 1443.98 477.463   5
   2  -5 -11 1318.23 384.033  16
   2  -5 -10 2252.41 581.027   1
   2  -5 -10 2363.62 515.283  10
  -2   5  10 2569.43 573.067   5
  -2   5  10 1800.37 468.141  11
  -2   5  10 2505.71 590.435  19
  -2   5  10 2834.02 503.132  18
  -2   5   9 74.5859 183.680  19
  -2   5   9 25.4644 147.820  11
   2  -5  -9 82.0519 249.068   1
   2  -5  -9 264.752 232.430  10
  -2   5   9 71.7636 213.599   5
   2  -5  -9-58.0283 152.594  15
  -2   5   9-45.2722 194.351  18
  -2   5   8 2232.61 471.133   6
   2  -5  -8 1981.61 400.211  15
  -2   5   8 2334.03 471.129  14
  -2   5   8 2517.38 622.619   5
   2  -5  -8 2645.03 599.627   1
   2  -5  -8 2087.56 464.286  10
   2  -5  -7 4262.35 621.296  10
   2  -5  -7 4177.86 576.365  15
  -2   5   7 5331.75 838.756   5
  -2   5   7 5212.46 698.124   6
  -2   5   7 4024.42 568.457  14
  -2   5   6 6978.25 756.273   4
  -2   5   6 7192.33 943.870   5
  -2   5   6 6469.71 686.297  14
  -2   5   6 7222.23 814.585   6
   2  -5  -6 6221.92 701.364  15
   2  -5  -6 5603.82 699.954  10
  -2   5   5 4556.18 606.807   4
   2  -5  -5 4821.04 617.976  15
  -2   5   5 4725.61 561.740  14
  -2   5   5 5342.28 687.915   6
  -2   5   5 5342.05 621.182  21
  -2   5   5 5045.23 832.453   9
   2  -5  -5 3959.48 629.288  10
  -2   5   4 161.836 133.043  14
  -2   5   4 104.733 253.297   9
   2  -5  -4 267.920 201.790  15
  -2   5   4-121.583 221.672   6
  -2   5   4-44.0280 147.102  21
   2  -5  -4-89.7932 215.352  10
  -2   5   4 219.583 150.246   4
  -2   5   3 2220.75 408.155   4
  -2   5   3 2145.63 359.374  21
  -2   5   3 2422.57 354.342  14
  -2   5   3 2690.77 506.410   6
   2  -5  -3 2391.47 452.587  15
  -2   5   3 2345.88 555.502   9
   2  -5  -3 2453.71 481.388  10
   2  -5  -2 7168.89 800.662  10
   2  -5  -2 7680.36 798.803  15
  -2   5   2 7771.71 818.926   6
  -2   5   2 7297.91 669.651  21
  -2   5   2 6555.87 844.845   9
  -2   5   2 7147.22 742.391   4
   2  -5  -1 516.564 258.501  15
  -2   5   1 582.718 230.259   4
   2  -5  -1 154.178 169.299   3
  -2   5   1 132.636 194.437   9
  -2   5   1 348.621 193.745  21
   2  -5  -1 204.612 159.343  10
  -2   5   0 1103.54 289.702   4
   2  -5   0 1938.50 425.479  15
   2  -5   0 1112.15 374.983   3
  -2   5   0 1454.83 323.458  21
   2  -5   0 1119.62 351.844  10
  -2   5   0 976.281 324.485   9
   2  -5   1 3568.17 566.584  15
  -2   5  -1 3301.45 481.609  21
   2  -5   1 4186.49 636.933   3
  -2   5  -1 3430.88 513.380   4
  -2   5  -1 3897.70 693.054   9
   2  -5   1 3765.22 586.886  10
  -2   5  -2 5855.72 857.899   9
   2  -5   2 5954.05 746.984  15
   2  -5   2 5191.95 672.795  10
  -2   5  -2 5864.66 628.182  21
   2  -5   2 6499.07 787.855   3
  -2   5  -2 5316.32 643.870   4
  -2   5  -3 4493.51 730.851   9
   2  -5   3 5596.01 730.593  15
  -2   5  -3 5846.32 646.494  21
   2  -5   3 4676.76 682.653   3
  -2   5  -3 5273.99 632.957   4
   2  -5   3 4828.12 657.710  10
  -2   5  -4 1906.96 374.031   4
   2  -5   4 2232.30 483.462  15
   2  -5   4 2453.29 477.528  10
  -2   5  -4 2575.22 458.236  21
  -2   5  -4 2289.55 556.983   9
   2  -5   4 2306.85 506.459   3
  -2   5  -5 1170.34 452.091   9
   2  -5   5 1497.15 461.278  15
  -2   5  -5 2084.17 418.751  21
   2  -5   5 1751.07 461.602   3
  -2   5  -5 1464.09 330.765   4
   2  -5   5 1231.94 334.153  10
  -2   5  -6 749.349 269.185   4
  -2   5  -6 807.974 324.927  21
   2  -5   6 266.805 204.213  15
   2  -5   6 968.614 306.804  10
   2  -5   6 0.88524 168.258   3
  -2   5  -6 678.483 350.728   9
  -2   5  -7 329.337 218.926  21
   2  -5   7-133.475 216.850  15
   2  -5   7 511.527 299.745  16
  -2   5  -7 293.219 290.381   9
   2  -5   7 247.705 226.218   3
   2  -5   7-214.544 149.209  10
  -2   5  -8 873.153 392.348   9
   2  -5   8 1711.09 519.485   3
   2  -5   8 965.530 341.831  16
  -2   5  -8 973.532 325.513  21
   2  -5   8 1351.37 321.619  10
   2  -5   8 1583.10 480.733  15
  -2   5  -9 189.478 287.034   9
   2  -5   9-217.623 304.404   3
  -2   5  -9-216.053 232.326  21
   2  -5   9 408.927 217.100  16
   2  -5   9 381.493 277.517  15
   2  -5  10 408.000 301.681   3
   2  -5  10 192.989 209.732  15
  -2   5 -10 72.6380 204.013   9
   2  -4 -17-349.047 277.280   1
  -2   4  17 318.293 299.187  19
  -2   4  16 108.728 171.169  11
   2  -4 -16 52.7785 200.507   1
  -2   4  15 774.796 391.065  11
   2  -4 -15 221.178 151.511  10
  -2   4  15-63.9723 181.885  19
   2  -4 -15 350.742 275.478   1
  -2   4  14 2073.50 525.202  19
  -2   4  14 1803.12 536.858  11
   2  -4 -14 1862.91 393.954  10
   2  -4 -14 2385.46 543.001   1
  -2   4  13 5515.73 820.501  11
   2  -4 -13 4389.06 609.275  10
  -2   4  13 4924.86 765.351  19
   2  -4 -13 4471.10 751.848   1
   2  -4 -13 4751.70 623.424  16
  -2   4  12 1806.14 515.304  11
   2  -4 -12 2091.32 521.047   1
   2  -4 -12 1643.04 386.004  10
  -2   4  12 2088.02 504.965  19
  -2   4  11 3853.10 673.904  19
  -2   4  11 3134.20 618.023  11
  -2   4  11 4723.51 546.150  18
   2  -4 -11 3955.90 714.735   1
  -2   4  11 5345.01 771.953   5
   2  -4 -11 3673.91 555.636  10
  -2   4  10 30262.7 1792.36   5
   2  -4 -10 27476.4 1753.42   1
  -2   4  10 24903.5 1595.93  11
  -2   4  10 27975.1 1758.43  19
   2  -4 -10 24765.4 1437.64  10
  -2   4  10 26408.7 1314.46  18
  -2   4   9 6152.46 818.441   5
  -2   4   9 5696.31 804.015  19
  -2   4   9 5485.17 607.892  18
  -2   4   9 4290.62 647.052  11
   2  -4  -9 4270.80 608.085  10
   2  -4  -9 5922.63 832.906   1
  -2   4   8-164.134 251.832   5
  -2   4   8-222.358 179.609  18
  -2   4   8-245.172 245.709  11
   2  -4  -8 201.823 166.417  10
   2  -4  -8-34.2209 235.452   1
  -2   4   7 2676.34 431.734   6
  -2   4   7 1776.01 411.129  11
   2  -4  -7 2271.53 535.460   1
  -2   4   7 1593.57 435.626   5
   2  -4  -7 1788.21 386.513  10
   2  -4  -6 7977.76 775.948  10
  -2   4   6 7405.40 705.785  14
  -2   4   6 8454.02 773.080   6
  -2   4   6 7223.51 710.455  21
  -2   4   6 9065.61 956.713   5
   2  -4  -6 8535.48 939.145   1
  -2   4   5 38870.7 1694.53   6
   2  -4  -5 40661.9 1756.62  10
  -2   4   5 37211.9 1570.92  21
   2  -4  -5 37151.5 1625.92  15
  -2   4   4 13536.3 884.227  14
  -2   4   4 14452.4 1017.17   6
  -2   4   4 13610.5 915.943  21
  -2   4   4 12889.4 936.999   4
   2  -4  -4 13835.2 971.775  15
  -2   4   4 12151.4 1151.18   9
   2  -4  -4 14122.8 1041.18  10
  -2   4   3 159.905 188.143   9
  -2   4   3 575.539 236.614   4
   2  -4  -3 682.667 277.571  15
  -2   4   3 927.658 235.682  14
  -2   4   3 157.665 173.525   6
   2  -4  -3 1009.04 334.562  10
  -2   4   3 732.856 245.793  21
   2  -4  -2 80850.5 2523.53  15
  -2   4   2 72671.7 1977.93  14
   2  -4  -2 77646.0 1996.97  13
  -2   4   2 79905.0 2285.09  21
  -2   4   2 84351.3 2869.58   9
   2  -4  -2 78938.4 2507.58  10
  -2   4   2 69493.9 2294.29   4
   2  -4  -1 14999.1 1046.20  15
  -2   4   1 12745.3 733.040  14
  -2   4   1 14285.3 1197.70   9
  -2   4   1 13637.8 975.093   4
   2  -4  -1 14274.7 742.079  13
  -2   4   1 13009.2 880.202  21
   2  -4  -1 14605.1 1044.01  10
  -2   4   0 3905.40 465.068  21
  -2   4   0 4605.95 667.349   9
  -2   4   0 3510.91 360.961  14
   2  -4   0 3941.77 541.613  15
   2  -4   0 4530.74 393.957  13
  -2   4   0 4382.45 522.059   4
   2  -4   0 4263.01 563.222  10
  -2   4  -1 7090.08 810.156   9
   2  -4   1 8084.85 761.873  15
  -2   4  -1 6677.99 454.435  14
  -2   4  -1 7223.20 628.272  21
   2  -4   1 7494.28 465.068  13
   2  -4   1 5902.34 356.232  20
   2  -4   1 7577.50 725.655  10
  -2   4  -1 7771.18 710.452   4
   2  -4   2 3492.00 321.329  20
   2  -4   2 3879.12 569.073  15
   2  -4   2 3318.11 491.352  10
  -2   4  -2 2493.36 408.994   4
   2  -4   2 2940.27 269.987  13
  -2   4  -2 2566.38 276.479  14
   2  -4   2 3807.44 548.958   3
  -2   4  -2 3245.43 447.634  21
  -2   4  -2 3248.67 577.014   9
   2  -4   3 20728.0 1298.72  15
  -2   4  -3 20580.9 1181.67  21
   2  -4   3 21370.9 1331.67   3
   2  -4   3 18653.9 843.968  20
  -2   4  -3 20968.6 1438.40   9
  -2   4  -3 19756.6 1188.66   4
   2  -4   3 20261.3 1208.85  10
   2  -4   4 2760.74 496.589  15
  -2   4  -4 3352.96 503.665  21
   2  -4   4 2748.51 352.481  20
  -2   4  -4 3682.33 627.512   9
   2  -4   4 2402.70 463.364   3
  -2   4  -4 3295.09 481.844   4
   2  -4   4 3100.84 488.301  10
  -2   4  -4 3167.27 321.326  17
   2  -4   5 1446.80 364.255  15
  -2   4  -5 1667.51 388.399  21
   2  -4   5 1604.72 361.847  10
  -2   4  -5 1370.67 251.040  17
  -2   4  -5 1433.41 310.081   4
   2  -4   5 1512.53 287.213  20
  -2   4  -5 1462.22 477.848   9
   2  -4   5 1225.16 340.554   3
   2  -4   6 20395.0 1189.77  10
   2  -4   6 21927.2 1415.23  15
  -2   4  -6 19800.0 1008.75  17
  -2   4  -6 21297.6 1226.37   4
   2  -4   6 21379.6 1403.22   3
  -2   4  -6 21937.5 1559.93   9
   2  -4   6 20812.9 1102.30  20
  -2   4  -6 24168.1 1388.91  21
   2  -4   7 5660.17 747.125  15
   2  -4   7 4569.46 539.534  20
   2  -4   7 5249.71 731.101   3
  -2   4  -7 5362.52 567.160  17
  -2   4  -7 4627.69 595.675   4
   2  -4   7 5539.47 598.822  10
  -2   4  -7 5154.01 773.160   9
  -2   4  -7 6592.68 754.168  21
  -2   4  -8 2050.03 424.717   4
  -2   4  -8 1616.34 475.974   9
   2  -4   8 2071.46 383.332  10
   2  -4   8 1965.84 471.102  15
   2  -4   8 1889.06 361.816  20
  -2   4  -8 1976.79 449.043  21
  -2   4  -8 2247.28 410.910  17
   2  -4   8 1807.85 461.797   3
  -2   4  -9 1121.11 323.445  17
   2  -4   9 1031.70 327.750  20
  -2   4  -9 1117.13 311.150   4
  -2   4  -9 1028.19 406.352   9
   2  -4   9 954.642 364.096  15
  -2   4  -9 1146.56 346.748  21
   2  -4   9 908.164 260.049  10
   2  -4   9 1337.66 417.825   3
   2  -4  10 376.867 256.178  20
  -2   4 -10 148.736 148.693   4
   2  -4  10 566.941 244.237  16
  -2   4 -10 377.302 310.943   9
   2  -4  10 131.030 226.572  15
   2  -4  10 427.778 277.220   3
  -2   4 -10 349.287 235.095  21
  -2   4 -10 161.982 167.879  17
  -2   4 -11 337.415 267.085   9
  -2   4 -11 447.963 261.568  21
   2  -4  11 37.4976 192.524  20
   2  -4  11 353.319 289.606   3
   2  -4  11 185.176 262.986  15
  -2   4 -11 272.300 218.778   4
  -2   4 -12 450.944 240.004   4
  -2   4 -12 77.6000 257.462   9
   2  -4  12 237.948 227.417  15
  -2   4 -12 433.758 286.312  21
   2  -4  12 261.809 246.313   3
   2  -4  12 301.360 205.287  20
  -2   4 -13 667.456 299.445   4
  -2   4 -13 643.749 392.995   9
   2  -4  13 219.560 275.724  15
  -2   4 -13 525.443 323.126  21
   2  -4  13 154.476 214.794   3
   2  -4  13 677.069 328.422  20
   2  -4  14 414.230 286.038  20
  -2   4 -14 876.039 403.704  21
   2  -4  15 379.721 334.020  20
  -2   4 -15 90.1093 230.912  21
   2  -3 -19 1068.85 404.144  17
   2  -3 -19 631.153 336.603   1
   2  -3 -18 523.034 315.617  17
   2  -3 -18 580.654 379.344   1
  -2   3  18 999.187 478.809  11
  -2   3  18 868.355 421.996  19
  -2   3  17 868.174 412.249  11
   2  -3 -17 1054.80 416.967   1
   2  -3 -17 669.759 278.497   8
  -2   3  17 972.477 397.219  19
   2  -3 -17 1035.92 393.322  17
   2  -3 -16 469.760 309.414   1
   2  -3 -16 192.072 203.109   8
  -2   3  16 308.847 223.995  11
  -2   3  16-57.4450 193.365  19
   2  -3 -16 333.025 235.198  17
   2  -3 -15 777.592 334.822   1
   2  -3 -15 862.891 330.567   8
  -2   3  15 1022.28 419.902  19
  -2   3  15 720.021 375.775  11
   2  -3 -15 901.797 343.365  17
   2  -3 -14 73.7199 194.229   1
   2  -3 -14 186.818 159.987  17
   2  -3 -14 22.5933 190.062   8
  -2   3  14-57.2410 188.987  11
  -2   3  14 143.729 112.304  20
  -2   3  14-230.795 242.605  19
   2  -3 -14 93.2102 138.912  10
   2  -3 -13 7123.27 856.670   1
   2  -3 -13 5677.30 704.691   8
  -2   3  13 7446.53 912.911  11
  -2   3  13 6213.21 628.535  20
   2  -3 -13 6779.08 661.066  10
   2  -3 -13 6965.03 694.931  17
  -2   3  13 7906.87 954.019  19
  -2   3  12 10218.7 983.475  19
  -2   3  12 9738.20 1034.07  11
   2  -3 -12 8432.65 746.847  17
   2  -3 -12 9432.87 998.349   1
  -2   3  12 8420.73 681.648  20
   2  -3 -12 7478.51 806.392   8
   2  -3 -12 8541.89 767.810  10
  -2   3  12 9235.80 649.069  18
  -2   3  11 5797.74 511.878  18
  -2   3  11 4495.03 687.410  11
   2  -3 -11 4858.27 574.238  10
  -2   3  11 5263.05 718.355  19
  -2   3  11 4138.51 453.462  20
   2  -3 -11 4586.88 602.254   8
   2  -3 -11 4702.83 716.372   1
   2  -3 -10 14280.3 1047.53   8
  -2   3  10 15346.0 1191.18  11
   2  -3 -10 16867.1 1234.39   1
  -2   3  10 14742.8 788.795  20
   2  -3 -10 16606.5 1050.68  10
  -2   3  10 16990.5 1248.43  19
  -2   3  10 17459.5 887.452  18
   2  -3  -9 19997.3 1134.21  10
   2  -3  -9 21437.8 1397.42   1
  -2   3   9 19864.7 969.327  18
  -2   3   9 19956.9 1317.96  11
   2  -3  -9 18238.3 1158.03   8
  -2   3   9 22824.3 1400.65   5
  -2   3   9 20792.0 1358.41  19
  -2   3   9 17932.3 796.945  20
  -2   3   8 15010.4 645.058  20
   2  -3  -8 17508.0 1055.51  10
  -2   3   8 18640.4 1240.90  19
  -2   3   8 20973.0 1305.91   5
  -2   3   8 15636.0 1125.33  11
   2  -3  -8 17768.4 1224.49   1
  -2   3   8 17392.3 922.547  18
  -2   3   7 5353.31 675.576   5
   2  -3  -7 5129.31 593.263  10
  -2   3   7 3525.56 258.182  20
  -2   3   7 4563.87 616.742  11
   2  -3  -7 4670.51 669.241   1
  -2   3   6 2045.67 339.530   6
   2  -3  -6 1808.43 347.559  10
   2  -3  -6 2227.83 392.464  13
   2  -3  -6 2431.20 464.822   1
  -2   3   6 1850.96 417.444  11
  -2   3   6 2612.66 428.375  21
  -2   3   6 1032.86 107.946  20
  -2   3   6 2654.33 481.711   5
   2  -3  -5 4030.93 469.837  13
   2  -3  -5 2427.05 196.007  17
  -2   3   5 3227.98 440.108  14
   2  -3  -5 3226.76 553.176   1
   2  -3  -5 2879.06 454.372  10
  -2   3   5 3521.02 429.352   6
  -2   3   5 3362.75 472.183  21
   2  -3  -5 3097.12 216.164  17
  -2   3   4 3138.54 407.700  14
   2  -3  -4 3260.49 403.779  13
  -2   3   4 3233.82 424.363  21
  -2   3   4 3058.05 411.555   6
   2  -3  -4 2822.35 446.802  10
  -2   3   3 5356.17 567.259   4
   2  -3  -3 4965.90 558.568  10
  -2   3   3 5564.63 515.260  14
   2  -3  -3 5860.62 522.715  13
  -2   3   3 5509.87 552.179   6
  -2   3   3 4610.10 513.445  21
  -2   3   2 28405.7 1475.21   9
  -2   3   2 23890.1 1169.59  21
   2  -3  -2 28050.9 1101.81  13
   2  -3  -2 27390.2 1288.01  15
  -2   3   2 29989.1 1271.68   6
  -2   3   2 25767.7 1061.94  14
   2  -3  -2 26101.7 1223.06  10
  -2   3   2 25118.3 1243.82   4
  -2   3   1 42888.4 1822.22   9
  -2   3   1 38067.4 1526.95   4
   2  -3  -1 41435.3 1562.95  10
  -2   3   1 41724.5 1516.41  21
  -2   3   1 39086.3 1293.20  14
   2  -3  -1 39464.6 1281.57  13
   2  -3  -1 44834.1 1663.71  15
  -2   3   0 1832.45 301.432  21
  -2   3   0 1559.31 318.492   4
   2  -3   0 2095.86 357.812  10
  -2   3   0 1802.97 255.433  14
  -2   3   0 1782.96 268.740  13
   2  -3   0 2021.28 269.681  13
   2  -3   0 2667.40 427.890  15
  -2   3   0 1671.86 330.788   9
  -2   3  -1 4688.54 376.321  14
   2  -3   1 5701.24 460.445  11
  -2   3  -1 4707.29 486.320  21
   2  -3   1 5026.74 576.407  15
  -2   3  -1 5049.25 625.168   9
   2  -3   1 5380.18 548.259  10
   2  -3   1 5399.12 404.238  13
  -2   3  -1 5774.70 569.571   4
  -2   3  -1 4468.68 391.397  13
   2  -3   1 4392.80 276.577  20
  -2   3  -1 3524.97 227.097  17
  -2   3  -2 2387.52 464.702   9
   2  -3   2 3325.73 305.356  13
  -2   3  -2 3097.90 437.110   4
  -2   3  -2 2766.31 297.479  14
  -2   3  -2 2973.84 259.558  17
   2  -3   2 3212.39 342.654  11
   2  -3   2 2750.75 432.031  15
  -2   3  -2 2970.82 425.534  21
   2  -3   2 3130.09 276.712  20
   2  -3   2 2688.58 417.468  10
  -2   3  -3 2628.02 418.975   4
  -2   3  -3 2002.40 362.581  21
  -2   3  -3 3222.03 527.623   9
   2  -3   3 3145.40 478.965  15
   2  -3   3 2505.36 255.443  13
   2  -3   3 2357.53 288.143  11
   2  -3   3 2888.48 312.356  20
  -2   3  -3 2412.72 263.466  14
  -2   3  -3 2771.00 281.796  17
   2  -3   3 3012.35 425.843  10
   2  -3   4 19862.5 1193.42  15
   2  -3   4 20920.0 904.376  20
  -2   3  -4 17046.6 698.898  14
   2  -3   4 18692.0 716.409  14
  -2   3  -4 21477.4 1168.99  21
  -2   3  -4 22397.9 1327.25   9
   2  -3   4 19774.0 738.549  13
   2  -3   4 19919.7 1056.09  10
   2  -3   4 19831.9 1226.97   3
  -2   3  -4 20394.1 861.775  17
  -2   3  -4 21242.9 1197.73   4
  -2   3  -5 2941.02 518.563   9
   2  -3   5 3598.92 536.065  15
   2  -3   5 3223.17 279.396  14
  -2   3  -5 3443.64 387.512  17
   2  -3   5 3810.79 312.160  13
  -2   3  -5 3757.77 522.017  21
   2  -3   5 3616.28 545.557   3
   2  -3   5 3602.70 467.176  10
   2  -3   5 3525.55 409.900  20
  -2   3  -5 3847.03 495.277   4
   2  -3   6 11181.1 926.988  15
  -2   3  -6 10948.8 836.091   4
   2  -3   6 11326.5 554.417  13
   2  -3   6 11282.6 940.779   3
  -2   3  -6 12785.7 956.999  21
   2  -3   6 10094.9 714.643  20
   2  -3   6 10897.1 769.846  10
  -2   3  -6 10758.4 970.156   9
  -2   3  -6 11513.0 764.122  17
  -2   3  -7 10475.1 856.037   4
   2  -3   7 11253.1 572.777  13
   2  -3   7 11426.9 963.208   3
   2  -3   7 11666.7 835.937  20
  -2   3  -7 10264.9 971.759   9
   2  -3   7 11375.0 962.891  15
   2  -3   7 10959.4 575.864  11
  -2   3  -7 11743.4 958.511  21
   2  -3   7 11616.7 796.835  10
  -2   3  -7 11582.4 814.997  17
  -2   3  -8 12481.1 902.450  17
  -2   3  -8 10464.4 1023.17   9
  -2   3  -8 13156.5 1036.19  21
   2  -3   8 10776.2 845.086  20
   2  -3   8 11209.5 599.945  13
   2  -3   8 11359.6 584.702  11
   2  -3   8 12283.1 1042.68   3
   2  -3   8 12135.6 1022.37  15
  -2   3  -8 11528.5 928.905   4
   2  -3   8 10762.1 753.042  10
  -2   3  -9 14154.0 1218.60   9
  -2   3  -9 17277.9 1129.20  17
  -2   3  -9 17016.5 1231.78  21
   2  -3   9 16887.8 1239.10   3
   2  -3   9 17333.7 1262.16  15
   2  -3   9 13660.3 1010.22  20
  -2   3  -9 16411.7 1162.65   4
   2  -3   9 13698.1 831.158  10
  -2   3 -10 833.457 320.091   4
  -2   3 -10 828.801 356.877   9
   2  -3  10 1436.59 395.001  15
  -2   3 -10 1555.78 396.080  21
   2  -3  10 790.315 275.288  20
   2  -3  10 1035.73 228.129  10
  -2   3 -10 1393.93 361.512  17
   2  -3  10 1399.35 414.160   3
  -2   3 -11 904.354 298.215   4
   2  -3  11 987.740 325.893  20
   2  -3  11 660.082 325.667   3
   2  -3  11 445.093 251.471  15
  -2   3 -11 934.917 337.827  21
  -2   3 -11 847.230 336.666   9
  -2   3 -11 228.378 169.170  17
  -2   3 -12 2210.91 471.194  17
  -2   3 -12 1870.26 440.664   4
  -2   3 -12 1648.54 453.720   9
   2  -3  12 1182.13 380.012  15
  -2   3 -12 1981.35 488.311  21
   2  -3  12 1912.08 518.530   3
   2  -3  12 1507.07 396.231  20
  -2   3 -13 187.962 238.237  17
  -2   3 -13 534.335 233.219   4
   2  -3  13 554.455 303.803  15
  -2   3 -13 558.503 268.197  21
   2  -3  13 570.696 287.949  20
  -2   3 -13 688.107 350.207   9
   2  -3  13 596.120 374.171   3
  -2   3 -14 577.068 289.654   9
   2  -3  14 135.888 221.704  15
   2  -3  14 669.340 387.974   3
  -2   3 -14 3.69787 231.403  21
   2  -3  14 823.497 356.006  20
  -2   3 -14 510.173 296.235   4
  -2   3 -14 434.014 280.758  17
  -2   3 -15 2535.59 585.572   4
  -2   3 -15 1796.90 527.620  17
   2  -3  15 2142.35 547.230  20
  -2   3 -15 2423.72 590.672  21
  -2   3 -15 1313.64 464.126   9
   2  -3  15 1454.15 517.240   3
   2  -3  15 2416.49 590.958  15
  -2   3 -16 724.553 403.921  17
   2  -3  16 843.351 413.513   3
   2  -3  16-95.8536 305.788  15
   2  -3  16-129.328 310.025  20
  -2   3 -16 212.281 216.347   4
  -2   3 -16 324.311 307.176  21
  -2   3 -17 363.630 309.412   4
   2  -2 -20 2671.65 627.190  17
   2  -2 -20 2287.95 622.050   1
  -2   2  20 2360.29 566.397  20
  -2   2  19-198.135 211.008  20
   2  -2 -19 294.242 297.710  17
   2  -2 -19 56.2476 189.122   1
  -2   2  19 233.445 266.663  11
  -2   2  19 354.471 261.428  19
   2  -2 -18 299.011 261.380   8
   2  -2 -18 637.872 387.380   1
  -2   2  18-82.2367 166.561  20
  -2   2  18 678.545 334.749  19
  -2   2  18 86.2313 242.543  11
   2  -2 -18-36.0113 252.128  17
   2  -2 -17 482.371 258.096   8
  -2   2  17 707.122 350.969  11
   2  -2 -17 303.293 216.769   1
  -2   2  17 767.804 326.478  20
  -2   2  17 404.680 299.964  19
   2  -2 -17 584.376 292.373  17
   2  -2 -16 528.586 265.667   8
   2  -2 -16 1073.11 380.016   1
  -2   2  16 945.847 378.759  11
  -2   2  16 1285.46 372.368  20
  -2   2  16 1342.49 433.554  19
   2  -2 -15 847.693 305.789   8
   2  -2 -15 974.304 361.643   1
  -2   2  15 1768.64 493.056  11
  -2   2  15 1263.80 347.981  20
  -2   2  15 754.649 326.691  19
   2  -2 -14 667.110 282.557   8
   2  -2 -14 621.557 312.925   1
  -2   2  14 566.697 232.353  20
  -2   2  14 1060.58 357.113  19
  -2   2  14 602.215 311.025  11
   2  -2 -14 469.062 192.706  10
   2  -2 -13 5610.83 716.306   1
   2  -2 -13 5761.28 550.678  10
  -2   2  13 6245.23 797.690  19
  -2   2  13 6539.28 813.049  11
  -2   2  13 6243.99 655.282  20
   2  -2 -13 6204.17 710.975   8
   2  -2 -12 16121.3 1173.86   1
  -2   2  12 14118.0 941.285  20
   2  -2 -12 14737.4 1069.95   8
  -2   2  12 17829.5 1236.35  19
  -2   2  12 15350.8 1209.02  11
   2  -2 -12 16012.5 930.999  10
   2  -2 -11 9608.86 880.375   1
   2  -2 -11 9419.43 816.303   8
  -2   2  11 10100.9 955.341  11
   2  -2 -11 10486.4 734.694  10
  -2   2  11 9023.33 703.039  20
  -2   2  11 10730.8 928.785  19
   2  -2 -10 6.26104 149.089   1
  -2   2  10 188.563 176.003  19
   2  -2 -10 54.0371 173.945   8
  -2   2  10 200.065 139.972  20
  -2   2  10 320.997 245.155  11
  -2   2  10 148.627 103.423  18
   2  -2 -10 108.443 134.141  10
   2  -2  -9 3171.47 475.327   1
   2  -2  -9 2854.88 436.148   8
  -2   2   9 2994.07 358.796  20
   2  -2  -9 2479.98 359.157  10
  -2   2   9 3110.60 512.352  11
  -2   2   9 2689.86 482.317  19
  -2   2   9 2958.05 304.137  18
   2  -2  -8 2208.34 410.562   1
  -2   2   8 2318.53 436.019  19
  -2   2   8 2215.33 275.802  20
  -2   2   8 1408.87 350.506  11
   2  -2  -8 1967.91 370.260   8
   2  -2  -8 1672.09 291.739  10
  -2   2   8 2473.15 412.342   5
  -2   2   8 2263.90 264.872  18
   2  -2  -8 1987.04 393.998  13
   2  -2  -7 8218.48 689.740   8
  -2   2   7 7147.23 707.081  19
  -2   2   7 8730.92 752.111   5
   2  -2  -7 7459.58 691.121  13
   2  -2  -7 6261.17 674.759   1
  -2   2   7 6632.84 461.042  18
  -2   2   7 5758.74 666.376  11
  -2   2   7 5446.48 385.648  20
   2  -2  -7 6999.88 584.224  10
   2  -2  -6 2088.48 375.292  13
  -2   2   6 3006.06 440.642   5
   2  -2  -6 2266.88 378.697   8
  -2   2   6 1954.61 389.102  11
  -2   2   6 2077.99 204.518  20
  -2   2   6 2837.30 433.568  21
   2  -2  -6 2520.92 416.919   1
   2  -2  -5 1758.42 356.780   8
  -2   2   5 1986.66 274.168   6
   2  -2  -5 1712.67 306.853  13
  -2   2   5 1549.51 340.136  21
  -2   2   5 1917.82 344.121   5
  -2   2   5 1570.35 150.848  20
   2  -2  -5 1783.70 344.700   1
  -2   2   4 13913.0 824.658  14
   2  -2  -4 14341.8 937.138   1
  -2   2   4 14200.6 696.693   6
   2  -2  -4 14212.2 566.352  17
   2  -2  -4 14900.0 839.184  13
  -2   2   4 14695.6 872.483  21
  -2   2   3 42747.4 1434.75  14
   2  -2  -3 46848.9 1463.70  13
  -2   2   3 43315.7 1258.30   6
   2  -2  -3 47251.6 1663.45   1
  -2   2   3 46548.8 1555.65  21
  -2   2   2 529.089 146.016   6
  -2   2   2 150.806 138.206  21
  -2   2   2 249.250 145.824   4
  -2   2   2 360.292 140.638  14
   2  -2  -2 508.071 166.380  13
   2  -2  -2 94.1500 45.3701  17
  -2   2   1 15857.7 756.352  14
   2  -2  -1 15173.1 730.009  13
  -2   2   1 15054.5 869.432  21
  -2   2   1 16936.1 970.540   9
  -2   2   1 14727.0 744.278  13
   2  -2  -1 13584.7 417.551  17
  -2   2   1 12992.4 838.969   4
  -2   2   0 17302.4 1024.94   9
  -2   2   0 15341.0 886.064   4
  -2   2   0 18336.4 928.854  21
  -2   2   0 16055.0 756.821  13
   2  -2   0 18366.1 772.127  13
   2  -2   0 16853.2 802.955  11
   2  -2   0 18418.5 515.673  17
  -2   2   0 13095.6 378.428   2
  -2   2   0 16848.7 511.210  17
  -2   2   0 16400.0 742.218  14
  -2   2  -1 31977.2 1361.64   9
   2  -2   1 31132.9 1012.96  14
   2  -2   1 31169.9 1313.15  15
   2  -2   1 29137.4 729.950  20
  -2   2  -1 34285.8 1300.64   4
  -2   2  -1 31710.0 1000.25  14
  -2   2  -1 27617.7 1050.03  13
   2  -2   1 30681.7 1008.77  13
  -2   2  -1 30370.5 1236.74  21
  -2   2  -1 32022.7 850.358  17
  -2   2  -2 76887.3 1680.36  17
  -2   2  -2 83855.2 2346.53   9
  -2   2  -2 78488.7 1784.30  14
   2  -2   2 89211.2 2351.33  15
  -2   2  -2 88952.7 2261.61  21
   2  -2   2 91387.7 1862.06  13
   2  -2   2 91487.3 1834.46  14
  -2   2  -2 89516.9 2271.08   4
  -2   2  -3 7993.24 686.819   9
   2  -2   3 8654.99 498.770  13
   2  -2   3 8904.68 697.158  15
  -2   2  -3 8189.49 482.210  14
   2  -2   3 8192.13 473.609  14
  -2   2  -3 8619.67 510.056  17
  -2   2  -3 7840.93 642.320  21
  -2   2  -3 8121.56 659.465   4
   2  -2   4 17135.0 1001.41  15
  -2   2  -4 17097.6 723.454  14
   2  -2   4 18088.4 737.870  14
   2  -2   4 18283.4 754.943  13
  -2   2  -4 19038.9 1086.62   9
  -2   2  -4 17315.3 799.140  17
  -2   2  -4 18218.7 1019.19   4
  -2   2  -4 19277.8 1045.93  21
  -2   2  -5 6578.39 661.815   9
  -2   2  -5 6951.45 626.837   4
   2  -2   5 6249.43 611.073  15
  -2   2  -5 6476.47 523.603  17
   2  -2   5 6115.43 446.578  13
   2  -2   5 6470.76 433.289  14
   2  -2   5 6517.86 657.007   3
  -2   2  -5 6237.63 608.909  21
   2  -2   6 2744.83 434.505  15
  -2   2  -6 2560.53 352.935  17
   2  -2   6 2409.64 268.009  14
   2  -2   6 2810.06 448.757   3
   2  -2   6 2603.09 308.028  13
  -2   2  -6 2124.05 371.564   4
  -2   2  -6 2295.11 423.928   9
   2  -2   6 2077.93 174.001   2
  -2   2  -6 2747.05 412.808  21
   2  -2   7 10435.9 632.364  13
   2  -2   7 11704.9 885.138  15
  -2   2  -7 11174.0 871.571  21
   2  -2   7 9771.77 574.049  14
  -2   2  -7 10629.5 764.315  17
   2  -2   7 9992.46 456.135   2
   2  -2   7 9670.05 603.096  11
  -2   2  -7 9208.26 780.053   4
   2  -2   7 10722.6 864.213   3
  -2   2  -7 8092.27 800.760   9
  -2   2  -8 12359.8 1055.58   9
   2  -2   8 13316.9 979.894  15
   2  -2   8 13878.7 749.612  10
   2  -2   8 14155.1 1025.78   3
  -2   2  -8 15220.2 1056.97  21
   2  -2   8 13829.4 737.664  11
  -2   2  -8 13670.0 964.948   4
  -2   2  -8 15499.7 990.837  17
   2  -2   9 17409.9 854.552  11
  -2   2  -9 18914.7 1187.93   4
  -2   2  -9 19173.6 1163.49  17
   2  -2   9 17709.8 1210.44   3
  -2   2  -9 19876.8 1271.71  21
  -2   2  -9 16163.7 1211.30   9
   2  -2   9 17995.4 1204.29  15
   2  -2   9 16265.6 809.977  10
   2  -2  10 30202.2 1576.46  15
  -2   2 -10 36319.6 1745.56  21
  -2   2 -10 27940.4 1651.51   9
  -2   2 -10 33607.9 1645.62   4
   2  -2  10 32459.2 1643.66   3
   2  -2  10 29012.2 1180.96  11
   2  -2  10 26109.7 1036.47  10
  -2   2 -10 31984.6 1599.49  17
  -2   2 -11 2429.77 471.812  17
  -2   2 -11 2071.29 455.235   9
   2  -2  11 2716.33 509.221  15
   2  -2  11 2261.87 465.034   3
   2  -2  11 1852.66 310.913  11
  -2   2 -11 3023.23 571.659  21
  -2   2 -11 2691.91 470.753   4
  -2   2 -12 411.973 233.729   4
   2  -2  12 551.991 251.569  15
   2  -2  12 718.566 215.939  11
  -2   2 -12 639.191 309.778  17
  -2   2 -12 805.502 318.696  21
  -2   2 -12 630.120 292.190   9
   2  -2  12 315.944 247.924   3
  -2   2 -13 837.018 308.189   4
   2  -2  13 338.181 248.378   3
  -2   2 -13 758.497 392.315   9
   2  -2  13 123.903 206.879  15
  -2   2 -13 241.868 227.324  21
  -2   2 -13 536.545 305.319  17
  -2   2 -14 923.262 377.751  17
  -2   2 -14 716.853 327.105   9
   2  -2  14 394.263 284.992  15
   2  -2  14 610.634 303.769  20
  -2   2 -14 333.611 279.953  21
   2  -2  14 531.544 316.149   3
  -2   2 -14 26.8309 216.865   4
  -2   2 -15 2569.14 597.107  17
  -2   2 -15 1996.21 546.549   9
   2  -2  15 2269.78 541.023   3
   2  -2  15 2807.25 574.672  15
  -2   2 -15 3194.13 648.018  21
  -2   2 -15 2581.30 578.182   4
   2  -2  15 3546.69 672.505  20
  -2   2 -16 1601.24 483.897   4
  -2   2 -16 1476.63 494.027   9
   2  -2  16 1574.68 467.444   3
   2  -2  16 1761.03 500.238  15
  -2   2 -16 2304.60 585.060  17
  -2   2 -16 1716.83 515.832  21
   2  -2  16 1194.73 475.758  20
  -2   2 -17 264.782 298.675   9
  -2   2 -17 252.433 258.142   4
  -2   2 -17 1096.19 468.840  21
  -2   2 -17 1330.66 513.813  17
   2  -2  17 1020.68 427.602  20
  -2   2 -17 361.713 267.124   8
   2  -2  17 418.556 286.164   3
   2  -2  17 1418.28 463.834  15
   2  -2  18 1447.61 469.058  15
   2  -2  18 1331.71 467.693   3
  -2   2 -18 638.194 325.466   8
   2  -1 -20 1408.09 506.378   1
  -2   1  20 1866.17 570.659  20
  -2   1  20 1593.52 511.711  19
   2  -1 -19 800.074 370.331   1
   2  -1 -19 799.367 333.493   8
  -2   1  19 155.692 168.943  20
  -2   1  19 38.0984 195.158  11
  -2   1  19 364.805 290.495  19
   2  -1 -18 219.779 185.782   8
   2  -1 -18 759.589 321.366   1
  -2   1  18 360.970 293.881  11
  -2   1  18 763.361 369.005  19
  -2   1  18 584.028 292.562  20
   2  -1 -17 1405.60 433.804   1
  -2   1  17 1491.33 427.470  20
   2  -1 -17 1258.63 340.428   8
  -2   1  17 1705.70 480.747  11
  -2   1  17 2087.10 504.795  19
   2  -1 -16 383.136 229.770   8
  -2   1  16 1131.69 444.819  11
   2  -1 -16 833.456 365.008   1
  -2   1  16 989.516 340.737  20
  -2   1  16 613.073 312.678  19
  -2   1  15-38.2959 198.203  20
   2  -1 -15 252.603 224.321   1
   2  -1 -15 63.5094 139.065   8
  -2   1  15 26.5064 181.774  11
  -2   1  15 237.456 253.898  19
   2  -1 -14 2286.36 457.669   1
   2  -1 -14 2572.80 461.934   8
  -2   1  14 2486.05 541.071  11
  -2   1  14 2496.35 499.794  19
  -2   1  14 1425.32 353.942  20
  -2   1  13 1797.17 362.689  20
   2  -1 -13 1535.44 359.197   8
  -2   1  13 1806.64 464.495  11
   2  -1 -13 2188.55 433.132   1
  -2   1  13 2462.68 467.337  19
   2  -1 -13 1451.66 249.394  10
   2  -1 -12 16451.7 830.046  10
   2  -1 -12 16334.7 1115.25   1
  -2   1  12 16640.7 1218.05  11
   2  -1 -12 16018.2 1042.37   8
  -2   1  12 18359.7 1224.71  19
  -2   1  12 17756.5 1099.45  20
   2  -1 -11 8614.54 763.094   1
   2  -1 -11 7317.59 686.752   8
  -2   1  11 7702.38 822.278  11
  -2   1  11 8331.35 712.033  20
  -2   1  11 9358.58 825.681  19
   2  -1 -10 16739.3 1006.50   8
  -2   1  10 20999.5 1187.62  19
  -2   1  10 20226.8 1248.75  11
  -2   1  10 18110.1 990.812  20
   2  -1 -10 19493.0 1116.73   1
   2  -1 -10 15068.6 784.957  10
   2  -1  -9 21707.2 1126.05   1
   2  -1  -9 22256.6 1128.60   8
   2  -1  -9 23520.2 1278.88  13
  -2   1   9 22657.0 1269.07  11
  -2   1   9 20444.0 999.633  20
  -2   1   9 24586.5 1217.47  19
  -2   1   8 62288.8 2088.90  11
   2  -1  -8 62430.7 1902.01   1
  -2   1   8 66443.4 1986.87  19
   2  -1  -8 59186.7 1858.33   8
   2  -1  -7 57099.1 1761.66   8
   2  -1  -7 53484.6 1688.77   1
  -2   1   7 57132.7 1783.64  19
   2  -1  -7 42693.9 1354.81   6
  -2   1   7 47618.0 1383.27  20
  -2   1   7 53350.6 1069.32  18
  -2   1   7 50076.2 1839.93  11
   2  -1  -6 31108.9 1209.96   1
  -2   1   6 34600.6 1329.79  19
  -2   1   6 30210.1 1361.66  11
   2  -1  -6 27763.9 992.701   6
   2  -1  -6 34135.4 1313.80   8
  -2   1   6 29847.3 969.898  20
  -2   1   6 31229.2 761.190  18
   2  -1  -5 6358.24 584.353   8
   2  -1  -5 6003.77 408.360   6
  -2   1   5 6954.68 402.468  20
  -2   1   5 5872.71 323.681  18
   2  -1  -5 6417.62 528.823   1
  -2   1   4 12457.5 696.477   1
  -2   1   4 12227.7 734.122  14
   2  -1  -4 10498.5 686.445   1
   2  -1  -4 9519.06 498.010   6
  -2   1   4 11096.5 669.746   5
  -2   1   4 12233.2 475.668  20
   2  -1  -4 12706.7 768.862   8
  -2   1   3 13750.8 709.103   1
   2  -1  -3 14131.1 809.283   8
  -2   1   3 11762.6 718.679  14
   2  -1  -3 13418.4 594.752  17
  -2   1   3 11596.9 407.963  20
   2  -1  -3 11701.1 707.856   1
  -2   1   2 47089.5 1355.29  14
  -2   1   2 47115.7 1395.22   1
   2  -1  -2 44489.5 1458.07   8
   2  -1  -2 41529.6 1049.36  17
  -2   1   2 45910.4 1348.47  13
   2  -1  -2 52093.8 1424.97  13
  -2   1   2 42095.9 958.036   6
   2  -1  -2 42031.1 763.075  20
  -2   1   1 83887.8 2055.21   4
  -2   1   1 84260.1 2037.28   9
  -2   1   1 81450.9 1447.50   2
  -2   1   1 79448.6 1792.92  13
  -2   1   1 85048.4 1829.63  14
  -2   1   1 79382.2 1492.99  17
   2  -1  -1 82583.0 1824.21  13
  -2   1   1 76533.7 1874.06   1
   2  -1  -1 85080.1 1517.61  17
   2  -1  -1 87739.1 1848.34  14
  -2   1   0 23630.3 988.567   9
   2  -1   0 25091.7 909.402  13
  -2   1   0 22399.1 847.589  14
   2  -1   0 26048.0 905.233  14
  -2   1   0 23779.2 753.369  17
  -2   1   0 22847.5 997.820   4
  -2   1   0 22948.2 880.827  13
  -2   1   0 22446.0 588.574   2
   2  -1   0 23411.7 718.438  17
  -2   1  -1 278672. 4521.55   9
   2  -1   1 311734. 4712.89   9
  -2   1  -1 307449. 4324.83  14
   2  -1   1 303766. 4309.12  14
  -2   1  -1 312456. 4750.81   4
   2  -1   1 305434. 4355.74  13
  -2   1  -1 262330. 3634.84   2
  -2   1  -1 277025. 4365.82  13
   2  -1   1 288288. 4050.50  17
  -2   1  -1 304497. 4170.13  17
  -2   1  -2 141510. 2722.30   9
  -2   1  -2 122950. 2381.07  14
   2  -1   2 127203. 2378.05  14
   2  -1   2 131264. 2426.11  13
   2  -1   2 133102. 2316.26  17
  -2   1  -2 127737. 2353.25  17
  -2   1  -2 144693. 2802.10   4
   2  -1   3 67829.3 1783.96  15
  -2   1  -3 71062.3 1814.25   9
  -2   1  -3 66608.7 1485.90  14
   2  -1   3 64020.0 1480.31  14
   2  -1   3 62658.2 1513.66  13
  -2   1  -3 65746.4 1804.04   4
   2  -1   3 66546.7 1493.41  17
  -2   1  -3 67060.5 1536.47  17
   2  -1   4 50245.4 1569.75  15
  -2   1  -4 46391.6 1245.49  14
  -2   1  -4 46680.3 1541.53   9
   2  -1   4 52650.5 1341.59  13
   2  -1   4 44261.8 1198.13  14
  -2   1  -4 49926.6 1376.75  17
  -2   1  -4 49018.0 1550.42   4
   2  -1   5 19436.8 812.700  14
   2  -1   5 21629.0 1013.29  15
  -2   1  -5 21275.0 870.245  14
  -2   1  -5 21793.8 959.347  17
  -2   1  -5 21823.3 1028.91   4
  -2   1  -5 22545.0 1101.91   9
  -2   1  -6 65876.5 1877.33  17
   2  -1   6 67810.9 1962.51  15
   2  -1   6 66954.2 1682.18  14
  -2   1  -6 70884.0 2123.42   9
   2  -1   6 68781.4 1984.20   3
  -2   1  -6 74220.3 2031.15   4
  -2   1  -6 75090.1 2142.28  21
   2  -1   7 44987.4 1601.31  15
  -2   1  -7 42427.6 1589.77   4
   2  -1   7 47079.2 1649.20   3
  -2   1  -7 48838.6 1723.24  21
  -2   1  -7 43026.6 1682.43   9
   2  -1   7 42423.2 1378.72  11
  -2   1  -7 45057.5 1593.24  17
  -2   1  -8 34692.9 1578.22   9
   2  -1   8 34828.2 1452.94  15
   2  -1   8 33676.9 1454.11   3
  -2   1  -8 38620.6 1590.06  21
   2  -1   8 34279.8 1268.20  11
   2  -1   8 36824.4 1607.81  19
  -2   1  -8 33419.7 1458.05   4
  -2   1  -8 32514.4 1428.76  17
  -2   1  -9 66716.5 2387.79   9
   2  -1   9 75406.3 2281.94  15
   2  -1   9 68980.0 1943.32  11
  -2   1  -9 79919.7 2439.36  21
   2  -1   9 75202.4 2289.52   3
   2  -1   9 77183.6 2447.97  19
  -2   1  -9 74366.0 2334.51   4
  -2   1  -9 71422.1 2304.68  17
   2  -1  10 25576.0 1327.20  15
   2  -1  10 24786.2 1308.77   3
   2  -1  10 23207.9 1115.28  11
  -2   1 -10 25343.8 1401.59  21
  -2   1 -10 26638.0 1392.54   4
   2  -1  10 25987.2 1442.41  19
  -2   1 -10 25654.5 1412.20  17
  -2   1 -10 22486.3 1370.58   9
  -2   1 -11 21606.9 1406.64   9
   2  -1  11 23775.3 1319.55  15
   2  -1  11 22460.4 1144.47  11
   2  -1  11 22940.0 1309.36   3
  -2   1 -11 28457.2 1532.12  21
   2  -1  11 26896.2 1507.00  19
  -2   1 -11 24476.4 1382.63   4
  -2   1 -11 24553.7 1441.88  17
  -2   1 -12 765.832 333.193  17
  -2   1 -12 283.085 217.835   4
  -2   1 -12-25.7543 216.015   9
   2  -1  12 352.086 242.249  15
  -2   1 -12 350.346 209.660  21
   2  -1  12 704.905 309.454   3
   2  -1  12 135.645 121.282  11
   2  -1  12 317.704 176.318  19
  -2   1 -13 200.576 254.586  17
  -2   1 -13 141.607 186.053   4
  -2   1 -13 118.683 229.701   9
   2  -1  13-376.557 227.110   3
   2  -1  13 90.2093 164.090  15
   2  -1  13 28.2419 125.865  11
  -2   1 -13 102.396 194.917  21
   2  -1  13 329.880 270.829  19
  -2   1 -14 1984.59 529.405  17
  -2   1 -14 1568.87 449.139   9
   2  -1  14 1587.18 359.768  11
   2  -1  14 1862.98 413.656  15
   2  -1  14 2162.06 469.181   3
   2  -1  14 1458.40 443.687  19
  -2   1 -14 1908.78 469.792  21
  -2   1 -14 1978.43 479.197   4
  -2   1 -15 1441.24 466.736  17
  -2   1 -15 1164.46 398.774   4
  -2   1 -15 885.068 397.078   9
   2  -1  15 1077.94 301.755  15
  -2   1 -15 719.620 353.116  21
   2  -1  15 900.279 332.472   3
   2  -1  15 816.319 257.123  11
   2  -1  15 1123.68 380.898  19
  -2   1 -16 1538.84 470.185   4
   2  -1  16 1835.29 452.616  15
  -2   1 -16 1354.63 356.528   8
  -2   1 -16 1696.04 499.553  21
   2  -1  16 1262.95 398.319   3
  -2   1 -16 1293.26 484.535  17
   2  -1  16 1600.94 467.504  19
  -2   1 -16 1131.02 442.521   9
  -2   1 -17 1868.77 571.358  17
  -2   1 -17 822.514 378.790  21
   2  -1  17 1041.42 364.039  15
  -2   1 -17 787.334 356.514   4
  -2   1 -17 1481.65 395.476   8
   2  -1  17 660.226 307.200   3
   2  -1  17 1180.34 429.017  19
  -2   1 -18 1080.44 414.923  17
   2  -1  18 2204.47 596.717  19
   2  -1  18 670.142 324.036   3
   2  -1  18 1439.42 420.715  15
  -2   1 -18 2058.96 562.502  21
   2  -1  19 2869.64 619.110   3
   2  -1  19 2513.75 564.462  15
  -2   0  21 903.984 413.419  19
  -2   0  20 499.889 364.176  11
   2   0 -20 473.710 271.614   8
  -2   0  20 345.641 295.036  19
   2   0 -20 469.943 284.763   1
  -2   0  19 1675.29 471.743  20
  -2   0  19 2535.32 575.448  19
  -2   0  19 1061.57 426.551  11
   2   0 -19 1150.17 381.411   8
   2   0 -19 844.484 383.686   1
   2   0 -18 264.211 190.985   8
   2   0 -18 237.313 183.155   1
  -2   0  18 160.507 254.112  11
  -2   0  18 454.832 321.160  20
  -2   0  18-277.826 202.241  19
   2   0 -17 248.562 217.478   1
  -2   0  17 15.9195 198.522  11
   2   0 -17 426.260 210.551   8
  -2   0  17 214.495 219.306  20
  -2   0  17 34.7866 153.133  19
   2   0 -16 225.412 233.887   8
  -2   0  16 61.0175 195.432  11
  -2   0  16 51.6849 170.744  20
   2   0 -16 448.477 258.189   1
  -2   0  16 274.137 241.356  19
   2   0 -15 969.736 302.437   1
   2   0 -15 607.804 278.786   8
  -2   0  15 579.141 307.142  20
  -2   0  15 759.807 316.042  11
  -2   0  15 898.863 328.688  19
  -2   0  14 4600.88 662.091  11
   2   0 -14 4584.20 587.351   8
   2   0 -14 4650.68 630.878   1
  -2   0  14 4041.60 609.108  20
  -2   0  14 4351.98 619.237  19
  -2   0  13 1485.57 370.528  20
   2   0 -13 1941.40 402.943   8
  -2   0  13 1635.85 399.165  11
   2   0 -13 1571.33 349.891   1
  -2   0  13 1586.88 367.646  19
   2   0 -12 874.015 299.787   1
   2   0 -12 1290.08 338.874   8
  -2   0  12 494.804 249.205  11
  -2   0  12 621.434 121.901  12
  -2   0  12 553.262 250.871  20
  -2   0  12 940.583 276.482  19
   2   0 -12 666.606 153.391  10
   2   0 -11 9312.82 754.148   8
  -2   0  11 9528.80 779.436  19
  -2   0  11 8036.13 777.349  11
   2   0 -11 8298.39 702.375   1
  -2   0  11 8310.68 745.937  20
   2   0 -11 6387.88 417.360  18
   2   0 -10 1438.36 295.217   1
   2   0 -10 2138.29 350.503   8
  -2   0  10 1342.42 308.841  20
  -2   0  10 1075.67 323.010  11
  -2   0  10 1549.67 339.082  19
   2   0 -10 999.844 155.481  18
   2   0  -9 4711.17 477.482   1
   2   0  -9 4543.44 511.953   8
   2   0  -9 4870.36 587.210  13
  -2   0   9 3201.26 513.216  11
  -2   0   9 5062.60 521.268  20
  -2   0   9 5645.79 552.726  19
   2   0  -9 3986.98 274.868  18
   2   0  -8 4382.73 432.359   1
   2   0  -8 3793.18 440.656   8
  -2   0   8 4148.72 511.624  11
  -2   0   8 3827.18 442.335  19
  -2   0   8 3991.46 456.221  20
   2   0  -8 2822.41 212.924  18
   2   0  -7 3405.39 410.230   8
  -2   0   7 3796.41 418.447  19
  -2   0   7 3767.58 366.136   1
   2   0  -7 3277.05 362.787   1
  -2   0   7 3828.48 464.215  11
  -2   0   7 3894.76 417.751  20
   2   0  -6 8875.81 546.732   1
   2   0  -6 8116.29 599.740   8
  -2   0   6 9293.00 597.371  19
  -2   0   6 7369.54 653.364  11
   2   0  -6 7757.81 515.582   5
  -2   0   6 8211.08 561.196  20
  -2   0   6 8678.45 530.831   1
   2   0  -5 8520.06 501.613   1
   2   0  -5 7565.54 555.597   8
  -2   0   5 7695.89 455.380   1
   2   0  -5 6404.29 439.882   5
  -2   0   5 7372.64 520.053  19
  -2   0   5 7558.20 593.439  14
  -2   0   5 8052.44 504.100  20
   2   0  -4 10378.6 519.137   1
  -2   0   4 9569.93 618.143   2
   2   0  -4 10484.1 652.923   8
  -2   0   4 10900.3 682.271  14
  -2   0   4 11351.1 515.243   1
  -2   0   4 11404.0 555.526  20
   2   0  -4 12325.3 568.183  20
  -2   0   3 18093.4 744.432   2
  -2   0   3 17975.9 625.306   1
   2   0  -3 18260.6 856.740  21
  -2   0   3 18832.1 850.389  14
   2   0  -3 20102.5 844.430   8
  -2   0   3 18959.2 846.054  13
   2   0  -3 16900.0 636.292   1
  -2   0   3 16779.8 655.413  20
  -2   0   3 19565.1 663.397   5
   2   0  -3 17001.8 624.228  20
  -2   0   2 106331. 1972.39   2
   2   0  -2 106552. 2177.30   8
   2   0  -2 94827.9 1797.39   1
  -2   0   2 111484. 2156.50  14
  -2   0   2 94781.2 1735.85   1
  -2   0   2 107162. 2144.21  13
  -2   0   2 98266.0 1794.31  20
   2   0  -2 103865. 2018.31  17
   2   0  -2 100096. 1752.61  20
   2   0  -2 108138. 2189.74  21
  -2   0   1 69513.5 1658.36   4
  -2   0   1 62600.9 1527.88  14
   2   0  -1 67394.9 1383.87   2
  -2   0   1 60936.4 1527.31  13
   2   0  -1 71395.8 1646.27   8
   2   0  -1 59703.7 1429.61  17
   2   0  -1 64069.2 1282.86  20
   2   0  -1 64760.7 1646.86  21
  -2   0   1 64127.3 1357.97   2
  -2   0   1 60472.0 1316.55   1
  -2   0   1 65259.6 1502.95  17
   2   0   0 91969.0 1582.53   2
  -2   0   0 87257.3 1788.59  14
   2   0   0 85581.6 1903.43   8
  -2   0   0 84665.9 1807.56  13
  -2   0   0 81608.9 1881.60   4
   2   0   0 87974.6 1978.05  21
   2   0   0 84286.1 1718.24  17
  -2   0   0 83241.9 1552.10   2
  -2   0   0 86918.1 1782.70  17
   2   0   1 85588.4 1496.24   2
   2   0   1 80472.4 1610.30   9
  -2   0  -1 90687.5 1820.31  17
  -2   0  -1 83907.9 1743.56  14
  -2   0  -1 86620.4 1789.92  13
  -2   0  -1 86761.1 1889.18   4
   2   0   1 84095.3 1930.29  21
  -2   0  -1 87546.7 1646.38   9
  -2   0  -1 86272.0 1567.44   2
   2   0   2 79638.8 1662.02   9
  -2   0  -2 80195.1 1721.08  14
  -2   0  -2 85699.9 1724.60   9
   2   0   2 86581.3 1955.19  21
  -2   0  -2 81646.0 1878.12   4
  -2   0  -2 85840.8 1735.59   7
  -2   0  -2 79267.1 1734.27   8
   2   0   2 82373.2 1714.92  17
  -2   0  -2 73196.7 1728.20  19
  -2   0  -2 73052.3 1469.86   2
   2   0   2 77914.4 1445.67   2
  -2   0  -2 82729.8 1760.68  17
   2   0   3 44084.5 1260.02  17
   2   0   3 43150.4 1220.99  14
   2   0   3 50012.0 1446.60  21
   2   0   3 51220.0 1314.87   9
  -2   0  -3 49794.8 1277.72  14
  -2   0  -3 48331.7 1388.70  19
  -2   0  -3 44779.9 1193.20   7
  -2   0  -3 49836.5 1350.38  17
   2   0   3 57113.4 1172.52   2
  -2   0  -3 45872.4 1292.70   9
  -2   0  -3 49094.0 1431.67   4
   2   0   4 545.165 139.382  17
  -2   0  -4 462.996 175.631   9
   2   0   4 514.562 150.703   9
  -2   0  -4 196.955 157.791   4
   2   0   4 473.416 178.718  15
  -2   0  -4 247.668 117.666  14
   2   0   4 346.939 117.253   2
  -2   0  -4 398.872 105.786   7
   2   0   4 299.567 130.756  14
  -2   0  -4 268.618 139.108  17
  -2   0  -5 4319.05 432.723   9
   2   0   5 4280.17 380.823  14
  -2   0  -5 4322.92 328.488   7
   2   0   5 3512.65 379.644  15
  -2   0  -5 3993.31 424.848   4
  -2   0  -5 4507.32 430.085  17
  -2   0  -6 4564.39 474.208   9
   2   0   6 4368.14 435.686  15
  -2   0  -6 4621.48 339.626   7
  -2   0  -6 4623.20 478.635   4
  -2   0  -6 4742.27 466.458  17
   2   0   7 2709.20 404.811  11
   2   0   7 2834.31 381.568  15
  -2   0  -7 3238.70 412.635   9
   2   0   7 2941.91 380.812   3
  -2   0  -7 3177.47 422.124   4
  -2   0  -7 3124.04 424.767  17
  -2   0  -8 3858.97 506.074  17
   2   0   8 4095.24 435.746  15
  -2   0  -8 3627.78 460.176   9
   2   0   8 3667.51 479.079  11
   2   0   8 3730.82 434.911   3
  -2   0  -8 4088.60 507.063   4
  -2   0  -9 773.059 250.470  17
  -2   0  -9 1099.02 299.500   4
  -2   0  -9 1139.74 287.456   9
   2   0   9 874.943 232.228  15
   2   0   9 1242.23 284.906  11
   2   0   9 862.891 242.104   3
   2   0  10 18162.1 1008.11  15
  -2   0 -10 19091.0 1152.02   4
  -2   0 -10 20164.5 1194.12  21
   2   0  10 19080.9 1077.09  11
   2   0  10 20330.5 1235.08  19
   2   0  10 20519.4 1054.59   3
  -2   0 -10 19822.7 1209.08  17
  -2   0 -10 16322.0 1091.07   9
  -2   0 -11 2180.04 439.955  17
  -2   0 -11 2087.75 430.962   9
   2   0  11 1667.63 349.380  11
   2   0  11 1910.09 360.684  15
  -2   0 -11 2380.45 443.995  21
   2   0  11 2263.86 450.927  19
   2   0  11 1734.78 341.129   3
  -2   0 -11 1910.34 394.385   4
  -2   0 -12 27.3245 200.396   9
   2   0  12-62.0507 177.182   3
   2   0  12-6.67641 122.728  15
  -2   0 -12 241.337 170.059  21
  -2   0 -12 41.7956 52.8196  12
  -2   0 -12-290.137 331.103  17
   2   0  12-36.1918 183.838  11
   2   0  12-8.73187 159.598  19
  -2   0 -12 92.0458 183.209   4
  -2   0 -13 762.762 294.109  17
  -2   0 -13 490.838 289.248   4
   2   0  13 528.935 236.282  15
   2   0  13 685.195 303.768  11
  -2   0 -13 1272.76 363.663  21
   2   0  13 642.658 261.891   3
  -2   0 -13 367.108 253.179   9
   2   0  13 1440.95 407.807  19
  -2   0 -14 466.070 301.884   4
   2   0  14 637.952 242.831   3
  -2   0 -14 870.192 341.576  17
  -2   0 -14 755.963 240.445   8
  -2   0 -14 992.681 339.137  21
   2   0  14 812.273 283.969  15
   2   0  14 845.608 379.452  19
   2   0  14 506.557 228.846  11
   2   0  15 2407.78 447.902  15
   2   0  15 1870.32 404.085   3
  -2   0 -15 2527.68 560.215  17
  -2   0 -15 2573.34 411.068   8
  -2   0 -15 1925.46 473.963   4
   2   0  15 1588.13 456.678  19
  -2   0 -15 1927.20 459.953  21
   2   0  15 1886.33 406.400  11
   2   0  16 297.630 217.561  15
  -2   0 -16-64.9694 132.022   8
  -2   0 -16 83.4033 272.588  17
   2   0  16 3.49509 185.125   3
  -2   0 -16 114.199 201.529   1
  -2   0 -16 259.722 274.154   4
   2   0  16 141.394 132.249  11
   2   0  16-79.5152 210.955  19
  -2   0 -16-67.0171 257.711  21
  -2   0 -17-39.2668 215.862  17
  -2   0 -17 180.309 277.300   1
   2   0  17 34.1961 169.530   3
   2   0  17 38.0389 142.212  15
   2   0  17-2.78190 147.259  11
   2   0  17 51.4854 174.623  19
  -2   0 -17-338.847 257.666  21
   2   0  18 697.548 290.178  15
  -2   0 -18 672.213 361.995   1
   2   0  18 457.416 243.837   3
   2   0  18 474.551 328.240  19
  -2   0 -18-159.458 269.595  17
   2   0  18 423.636 245.855  11
  -2   0 -19-347.918 308.180  17
  -2   0 -19 572.451 343.617   1
  -2   0 -19 70.3184 279.195  21
   2   0  19-260.485 317.816  19
   2   1 -20 277.630 249.869   1
   2   1 -20-418.527 267.178   8
  -2  -1  19 190.780 217.212  11
   2   1 -19 21.6047 167.871   1
   2   1 -19 99.3649 184.174   8
  -2  -1  19 145.837 239.241   2
  -2  -1  19-59.8754 199.658  19
  -2  -1  19 295.475 253.366  20
   2   1 -18-237.504 266.441   1
  -2  -1  18 325.911 267.330   2
  -2  -1  18 268.753 234.556  11
  -2  -1  18 271.486 244.827  20
   2   1 -18-112.938 188.004   8
  -2  -1  18 16.1151 156.670  19
  -2  -1  17 55.9081 218.622  20
   2   1 -17 58.0118 191.050   8
  -2  -1  17 279.874 256.582   2
   2   1 -17 505.298 265.234   1
  -2  -1  17-484.180 256.796  11
  -2  -1  17-5.63141 144.920  19
   2   1 -16 3988.42 661.504   1
  -2  -1  16 4618.36 643.901  19
   2   1 -16 3870.12 620.489   8
  -2  -1  16 3613.57 673.517   2
  -2  -1  16 3045.80 609.110  20
  -2  -1  16 3097.04 574.831  11
  -2  -1  15 363.558 230.011  20
   2   1 -15 600.069 277.408   1
   2   1 -15 674.792 311.115   8
  -2  -1  15 163.430 192.332  11
  -2  -1  15 550.556 250.776   2
  -2  -1  15 270.410 182.062  19
  -2  -1  14 5320.78 718.708   2
  -2  -1  14 3924.16 591.180  11
   2   1 -14 3866.12 595.748   8
   2   1 -14 4483.24 620.347   1
  -2  -1  14 6236.63 678.712  19
  -2  -1  14 4499.83 666.315  20
  -2  -1  13 1171.44 338.206  11
   2   1 -13 1013.11 306.783   1
   2   1 -13 972.857 309.769   8
  -2  -1  13 1197.48 338.190  20
  -2  -1  13 1942.91 375.171  19
  -2  -1  13 1218.95 360.157   2
   2   1 -12 81.7485 140.252   1
   2   1 -12 332.347 222.531   8
  -2  -1  12 286.571 189.495  20
  -2  -1  12 88.4047 179.811  11
  -2  -1  12 432.182 193.275  19
  -2  -1  11 3607.46 279.156  12
  -2  -1  11 5625.49 585.432  19
   2   1 -11 5148.09 592.139   8
   2   1 -11 4839.94 562.657   1
  -2  -1  11 4260.65 310.269   7
  -2  -1  11 4481.69 562.775  11
  -2  -1  11 3830.55 558.778  20
   2   1 -10 33028.2 1416.61   8
  -2  -1  10 29997.3 1381.46  11
   2   1 -10 31014.0 1300.11   1
  -2  -1  10 27399.5 860.129   7
  -2  -1  10 28306.4 846.627  12
   2   1 -10 22973.4 776.482  16
  -2  -1  10 31028.6 1445.85  20
  -2  -1  10 34802.8 1319.99  19
  -2  -1  10 30217.3 1447.43   2
  -2  -1   9 7247.89 658.321  11
  -2  -1   9 8458.02 730.318   2
  -2  -1   9 9695.21 650.952  19
   2   1  -9 7620.47 604.054   1
   2   1  -9 8980.18 760.217  13
  -2  -1   9 7858.45 442.078   7
   2   1  -9 8070.25 684.253   8
  -2  -1   9 7086.37 405.417  12
  -2  -1   9 7743.88 696.455  20
   2   1  -9 6227.48 380.835  16
   2   1  -8 36377.3 1015.98  16
  -2  -1   8 43756.4 1610.05   2
   2   1  -8 41961.3 1502.72   8
  -2  -1   8 46057.1 1369.66  19
   2   1  -8 41122.9 1340.58   1
  -2  -1   8 42937.1 1530.75  11
  -2  -1   8 43208.5 1109.28   7
  -2  -1   8 36183.3 1018.40  12
  -2  -1   8 45026.7 1601.55  20
   2   1  -8 44815.3 1618.04  13
  -2  -1   7 5835.39 438.045  19
  -2  -1   7 5245.65 533.032   2
   2   1  -7 5572.96 512.448   8
   2   1  -7 5131.19 424.514   1
   2   1  -7 5380.52 534.943  13
  -2  -1   7 4913.20 346.955   7
  -2  -1   7 4995.05 348.237  12
  -2  -1   7 5067.13 500.439  20
   2   1  -7 4740.34 418.661  19
  -2  -1   6 20787.3 866.159   9
  -2  -1   6 21192.0 1012.42   2
   2   1  -6 18819.8 771.104  19
   2   1  -6 19525.7 953.030   8
  -2  -1   6 19773.7 961.587  14
   2   1  -6 20299.5 769.730   1
  -2  -1   6 19815.6 770.793  19
  -2  -1   6 20001.3 735.680   7
  -2  -1   6 20543.5 735.549  12
   2   1  -6 20718.6 1000.62  13
  -2  -1   6 21541.5 998.923  20
   2   1  -5 22869.3 970.120   8
   2   1  -5 22210.9 735.775   1
  -2  -1   5 22114.9 994.678   2
  -2  -1   5 23559.8 987.670  20
  -2  -1   5 22530.4 768.437  19
   2   1  -5 23641.7 1023.99  13
  -2  -1   5 23467.4 777.726   7
  -2  -1   5 21149.2 938.582  14
  -2  -1   5 23293.6 838.036   9
  -2  -1   4 7479.68 394.545  19
  -2  -1   4 7806.39 555.765   2
   2   1  -4 8009.17 540.445   8
  -2  -1   4 7178.09 530.551  14
   2   1  -4 8632.59 572.456  21
   2   1  -4 8616.93 375.496   1
  -2  -1   4 8312.12 425.433   9
  -2  -1   4 8351.69 554.280  13
  -2  -1   4 8405.22 448.363   7
   2   1  -4 7272.13 516.456  11
  -2  -1   4 8645.94 563.462  20
  -2  -1   3 77934.0 1360.80   9
  -2  -1   3 79891.7 1825.38   2
  -2  -1   3 78241.4 1762.79  13
   2   1  -3 82478.5 1763.43   8
  -2  -1   3 81980.9 1781.27  14
  -2  -1   3 66567.1 1327.17  19
   2   1  -3 73305.8 1209.73   1
   2   1  -3 69759.8 1222.82   5
  -2  -1   3 80289.4 1795.34  20
   2   1  -3 75401.6 1751.48  21
  -2  -1   3 81555.9 1587.70   7
  -2  -1   2 32900.4 1040.61   2
   2   1  -2 30854.8 1009.64  21
   2   1  -2 32265.2 985.707   8
  -2  -1   2 33874.3 1065.86  14
  -2  -1   2 31605.5 631.581   9
  -2  -1   2 31463.0 1020.97  13
  -2  -1   2 32834.9 921.754   7
  -2  -1   2 33515.4 1055.01  20
   2   1  -2 31897.8 685.983  18
   2   1  -2 35208.0 1142.61  17
  -2  -1   1 476504. 6029.38   4
   2   1  -1 458250. 6247.67  17
  -2  -1   1 452959. 6079.47  14
   2   1  -1 454093. 5950.96   8
   2   1  -1 468029. 6096.47  21
  -2  -1   1 452177. 6059.19   2
  -2  -1   1 427149. 6078.10  13
  -2  -1   1 459420. 5919.56   7
  -2  -1   1 458868. 6110.62  20
   2   1  -1 443983. 5519.32  18
   2   1   0 970243. 11713.9   8
  -2  -1   0 999999. 11866.5  14
   2   1   0 989429. 11981.6  21
  -2  -1   0 990101. 11439.4  19
  -2  -1   0 969432. 11881.9   2
  -2  -1   0 995300. 11749.9   7
   2   1   0 873262. 11293.7   6
   2   1   0 987242. 11476.8  18
  -2  -1   0 988860. 11928.4  13
  -2  -1   0 969134. 11535.6  18
  -2  -1   0 858979. 11686.2   4
   2   1   0 980894. 12103.0  17
   2   1   1 500496. 6273.69  18
   2   1   1 479203. 6257.55   8
  -2  -1  -1 501954. 6180.11   8
   2   1   1 503896. 6044.87   6
   2   1   1 462882. 5805.56   9
   2   1   1 485407. 6509.59  21
  -2  -1  -1 501195. 6355.30   7
  -2  -1  -1 511802. 6197.37  19
  -2  -1  -1 520159. 6584.93   2
  -2  -1  -1 495683. 6242.77  18
  -2  -1  -1 474871. 6486.30  14
  -2  -1  -1 499658. 6396.16   4
  -2  -1  -1 513417. 5811.86   9
   2   1   1 492181. 6655.73  17
  -2  -1  -2 299140. 4323.23   6
   2   1   2 306988. 4751.70  17
  -2  -1  -2 302583. 4559.81   4
   2   1   2 332370. 4355.94   8
  -2  -1  -2 330198. 4616.98  14
  -2  -1  -2 329994. 4181.76   9
  -2  -1  -2 326794. 4283.82   8
  -2  -1  -2 333550. 4461.19  19
   2   1   2 323407. 4204.87   9
  -2  -1  -2 327360. 4514.82   7
   2   1   2 312196. 4629.32  21
   2   1   2 306420. 4487.07  19
  -2  -1  -2 326051. 4513.55  18
  -2  -1  -2 294835. 4651.50   2
   2   1   3 102672. 1837.75   9
  -2  -1  -3 107322. 1783.91   8
   2   1   3 100706. 2130.36  17
  -2  -1  -3 106416. 2088.86  14
  -2  -1  -3 104557. 1944.68   6
   2   1   3 104805. 2075.09  21
   2   1   3 103815. 2075.97  19
  -2  -1  -3 103315. 1843.10   9
  -2  -1  -3 101936. 1995.85  19
   2   1   3 101045. 2068.42   2
  -2  -1  -3 101992. 2035.40  18
  -2  -1  -3 105829. 2085.53   4
   2   1   4 10076.4 516.261   9
  -2  -1  -4 9811.00 596.953  14
  -2  -1  -4 9296.43 413.083   8
  -2  -1  -4 10872.1 542.478   9
   2   1   4 8974.10 570.435  17
   2   1   4 9401.38 575.599  21
   2   1   4 9342.36 527.139   7
  -2  -1  -4 10708.5 601.567   4
  -2  -1  -4 8694.36 537.198  19
   2   1   4 9264.40 570.061   2
  -2  -1  -4 10054.0 582.968  18
   2   1   5 2330.03 274.872   9
  -2  -1  -5 2741.86 333.079   4
   2   1   5 2467.78 261.951  15
   2   1   5 2463.21 273.007   7
  -2  -1  -5 2893.38 316.478   9
   2   1   6 10830.4 578.063   7
   2   1   6 9938.56 530.108  15
  -2  -1  -6 11394.1 670.306   9
   2   1   6 10441.5 703.208  11
  -2  -1  -6 11206.9 721.428   4
   2   1   7 2136.10 269.936  15
   2   1   7 1505.77 233.715   3
   2   1   7 2169.25 351.638  11
   2   1   7 1785.07 237.731   7
  -2  -1  -7 2058.16 243.456  12
  -2  -1  -7 1860.50 322.410   4
   2   1   8 21282.5 838.563  15
   2   1   8 18742.1 772.159   7
   2   1   8 19748.4 844.977   3
  -2  -1  -8 20688.2 740.063  12
   2   1   8 22504.1 1102.67  11
  -2  -1  -8 22346.9 1098.22   4
  -2  -1  -9 1699.70 342.376   4
   2   1   9 1352.79 180.347  16
   2   1   9 1782.42 257.035  15
   2   1   9 1524.43 320.292  11
   2   1   9 1978.03 240.891   7
  -2  -1  -9 1766.90 218.381  12
   2   1   9 1251.81 235.721   3
  -2  -1 -10 371.962 175.665  17
   2   1  10 418.332 170.294  15
   2   1  10 403.673 113.203  16
   2   1  10 390.137 152.245   3
  -2  -1 -10 349.879 169.076   1
  -2  -1 -10 281.944 198.568  21
   2   1  10 265.324 119.732   7
  -2  -1 -10 380.153 116.978  12
   2   1  10 591.068 219.762  19
  -2  -1 -10 108.956 185.984   4
   2   1  10 262.922 141.958  11
   2   1  11 4312.11 316.356  16
   2   1  11 4273.54 327.451  10
   2   1  11 5648.84 509.491  15
  -2  -1 -11 6348.93 470.744   8
   2   1  11 5440.81 613.771  11
   2   1  11 5794.96 521.246   3
   2   1  11 5198.36 418.324   7
  -2  -1 -11 5292.51 605.955   1
  -2  -1 -11 4855.76 334.490  12
   2   1  11 6398.58 694.103  19
  -2  -1 -11 5412.42 641.751   4
  -2  -1 -11 6630.47 735.339  21
  -2  -1 -11 6299.13 709.004  17
  -2  -1 -12 895.827 278.235   4
   2   1  12 1048.70 151.253  16
  -2  -1 -12 1394.72 329.662   1
   2   1  12 1135.80 250.001  15
  -2  -1 -12 1053.03 316.929  21
  -2  -1 -12 1184.20 231.307   8
   2   1  12 857.170 167.754   7
   2   1  12 684.096 131.953  10
  -2  -1 -12 1203.42 157.552  12
   2   1  12 1535.05 283.285   3
  -2  -1 -12 962.196 303.956  17
   2   1  12 740.023 305.937  11
   2   1  12 1144.70 329.816  19
  -2  -1 -13 901.221 339.072  17
   2   1  13 1011.19 241.999  15
   2   1  13 837.291 314.681  11
   2   1  13 1101.72 310.124  19
  -2  -1 -13 419.325 174.212   8
   2   1  13 760.959 220.840   3
  -2  -1 -13 648.035 239.602   1
   2   1  13 576.704 145.324   7
  -2  -1 -13 980.567 344.733  21
  -2  -1 -13 864.395 350.881   4
  -2  -1 -14 3864.65 626.035  17
   2   1  14 3085.63 432.872  15
   2   1  14 2581.21 382.334   3
  -2  -1 -14 2905.28 523.063   1
  -2  -1 -14 2340.86 357.128   8
  -2  -1 -14 2597.26 540.005   4
   2   1  14 4015.67 603.689  11
   2   1  14 2973.07 295.220   7
  -2  -1 -14 4171.55 679.510  21
   2   1  14 3883.81 599.320  19
   2   1  15 12311.7 870.477  15
  -2  -1 -15 12153.1 793.122   8
  -2  -1 -15 13286.7 1197.91   4
   2   1  15 12870.3 1090.17  11
   2   1  15 11789.8 868.323   3
  -2  -1 -15 10831.5 1033.50   1
  -2  -1 -15 15724.0 1288.96  21
   2   1  15 14994.9 1219.04  19
  -2  -1 -15 14443.1 1238.56  17
  -2  -1 -16 561.595 345.319  17
   2   1  16 433.634 188.165  15
   2   1  16 377.581 184.132   3
  -2  -1 -16 948.666 411.363  21
   2   1  16-28.3941 195.760  11
  -2  -1 -16-9.97832 191.321   1
   2   1  16 718.705 311.423  19
  -2  -1 -17 26.0047 208.682  17
   2   1  17 389.287 266.557  11
  -2  -1 -17 269.507 204.956   1
  -2  -1 -17 431.426 261.241  21
   2   1  17 1056.22 408.808  19
  -2  -1 -18 687.429 381.062  17
  -2  -1 -18 1110.62 432.175   1
  -2  -1 -18 1219.56 462.849  21
   2   1  18 1143.49 378.866  11
   2   1  18 731.290 343.734  19
   2   1  19 693.470 326.366  11
   2   1  19 524.125 318.225  19
  -2  -1 -19 507.944 303.469  21
  -2  -1 -19 967.603 432.807  17
  -2  -1 -19 522.378 343.714   1
   2   1  20 189.393 222.591  11
   2   1  21 573.344 339.925  11
   2   2 -19 992.277 382.668   8
   2   2 -19 939.257 377.921   1
  -2  -2  18 836.661 358.000  14
   2   2 -18 130.938 271.045   1
   2   2 -18 418.795 288.904   8
  -2  -2  18 578.690 330.384  20
  -2  -2  18 664.075 325.717   2
  -2  -2  17 463.311 267.985   2
   2   2 -17 284.374 223.924   1
  -2  -2  17 24.1934 181.435  20
  -2  -2  17 624.984 294.399  19
   2   2 -17 386.795 240.903   8
   2   2 -16 1149.68 378.107   8
   2   2 -16 1007.42 393.434   1
  -2  -2  16 817.284 329.659   2
  -2  -2  16 632.900 408.192  20
  -2  -2  16 1741.28 393.684  19
   2   2 -15 955.300 345.455   8
  -2  -2  15 461.679 266.613  20
   2   2 -15 439.003 219.287   1
  -2  -2  15 1107.67 372.705   2
  -2  -2  15 1065.78 301.481  19
   2   2 -14 89.3206 173.141   1
  -2  -2  14 106.390 135.831  19
  -2  -2  14 145.100 168.493  20
   2   2 -14-66.7677 195.880   8
  -2  -2  14-137.600 197.377   2
  -2  -2  13 3397.98 482.041  19
  -2  -2  13 2879.18 500.768   2
   2   2 -13 2639.12 475.468   8
   2   2 -13 2569.86 464.122   1
  -2  -2  13 2391.49 484.965  20
   2   2 -12 970.972 274.640   1
  -2  -2  12 560.757 204.995   2
  -2  -2  12 702.950 287.805  20
   2   2 -12 752.370 240.882   8
  -2  -2  12 677.025 187.702  19
  -2  -2  11 8004.28 798.640   2
  -2  -2  11 9297.10 812.231  15
   2   2 -11 7332.79 687.586   1
  -2  -2  11 8438.83 845.712  20
  -2  -2  11 9239.96 698.261  19
   2   2 -11 8662.88 776.118   8
   2   2 -10 37.8490 85.7207  16
   2   2 -10 444.939 236.450   8
  -2  -2  10 63.7648 148.874  20
  -2  -2  10-51.6409 173.153  15
  -2  -2  10 187.895 107.006  12
  -2  -2  10 24.6309 137.464  14
  -2  -2  10 181.888 206.723   2
  -2  -2  10-37.1824 122.972  19
   2   2 -10 68.6043 58.5340  10
   2   2  -9 16756.9 725.545  16
  -2  -2   9 20335.8 1171.88   2
   2   2  -9 23133.3 1188.38   8
   2   2  -9 20240.4 1108.70   9
  -2  -2   9 22438.8 1187.36  15
   2   2  -9 20651.1 1120.04  13
  -2  -2   9 20722.1 835.839  12
  -2  -2   9 19830.4 1221.56  20
  -2  -2   9 20768.8 1062.82  14
   2   2  -9 16574.0 621.202  10
  -2  -2   9 21515.0 952.139  19
  -2  -2   8 49092.9 1779.44   2
   2   2  -8 46910.9 1294.23  16
  -2  -2   8 49351.9 1766.78  15
   2   2  -8 46891.1 1622.47   9
  -2  -2   8 47541.8 1583.84  14
   2   2  -8 51941.3 1685.73  13
   2   2  -8 44448.2 1347.69  19
  -2  -2   8 43758.4 1292.21  12
  -2  -2   8 51457.5 1841.99  20
  -2  -2   8 51242.1 1420.41  19
   2   2  -8 51232.3 1736.89   8
   2   2  -7 2246.23 268.528  16
  -2  -2   7 2417.75 272.394  19
  -2  -2   7 2572.12 418.078  15
  -2  -2   7 2309.78 337.651  14
  -2  -2   7 1886.80 341.794  20
   2   2  -7 2335.38 346.991   9
   2   2  -7 2908.89 409.988   8
   2   2  -7 2420.47 360.487  13
  -2  -2   7 2374.44 288.883  12
  -2  -2   7 2958.14 422.690   2
   2   2  -7 2107.84 247.096  19
   2   2  -6 8024.70 496.951  16
  -2  -2   6 8766.01 691.603  15
  -2  -2   6 9058.25 584.919   9
   2   2  -6 9026.15 679.197   8
  -2  -2   6 8942.04 598.615  14
   2   2  -6 8536.68 604.648  13
  -2  -2   6 8460.00 528.650  12
   2   2  -6 8760.75 580.177   9
  -2  -2   6 8734.50 679.146   2
  -2  -2   6 9255.96 712.839  20
   2   2  -6 8088.64 444.849  19
  -2  -2   6 8700.16 458.729  19
  -2  -2   5 32065.9 1057.67   9
  -2  -2   5 32142.1 1253.43   2
   2   2  -5 29145.4 981.696  16
  -2  -2   5 32252.4 1251.60  15
  -2  -2   5 31074.3 807.722  19
   2   2  -5 32383.2 1199.70   8
  -2  -2   5 30622.6 1087.08  14
   2   2  -5 29874.3 809.630  19
  -2  -2   5 30656.1 1078.12  13
   2   2  -5 29081.4 1022.93   9
   2   2  -5 32575.8 1162.89  13
   2   2  -5 32097.1 927.756   7
  -2  -2   5 30911.2 1030.87  12
   2   2  -5 31002.3 1073.38  11
  -2  -2   5 32704.1 1290.99  20
  -2  -2   4 24946.2 835.259   9
   2   2  -4 23674.1 918.598  21
  -2  -2   4 22366.0 572.989  19
   2   2  -4 24166.8 977.714   8
  -2  -2   4 24387.5 902.721  14
  -2  -2   4 23805.6 892.745  13
   2   2  -4 26435.1 958.505  13
   2   2  -4 20235.9 838.991  11
   2   2  -4 23835.8 783.357   7
  -2  -2   4 25108.0 1069.38  20
   2   2  -4 21540.7 580.797  19
  -2  -2   4 24328.6 883.062  12
   2   2  -4 22534.8 840.676  16
  -2  -2   4 23272.6 1021.91   2
   2   2  -4 21091.3 789.424   9
   2   2  -3 56667.2 1192.13   9
  -2  -2   3 59465.6 1580.26   2
  -2  -2   3 62860.7 1260.04   9
  -2  -2   3 56186.7 1380.87  14
  -2  -2   3 52774.6 1345.56  13
   2   2  -3 57263.1 1443.26   8
   2   2  -3 54947.3 1381.93  13
   2   2  -3 60381.5 1384.75  21
   2   2  -3 57882.8 1276.43   7
  -2  -2   3 59481.5 1398.12  12
  -2  -2   3 52340.0 1554.59  20
   2   2  -3 54563.1 1337.29  16
   2   2  -3 51056.8 1335.56  14
   2   2  -2 3640.36 327.282  16
   2   2  -2 3543.24 305.646  21
   2   2  -2 3137.65 355.562  17
   2   2  -2 3758.22 342.483   8
  -2  -2   2 3269.37 299.394  14
  -2  -2   2 3660.71 325.873  13
   2   2  -2 3601.96 331.836  13
   2   2  -2 3353.14 315.328  14
   2   2  -2 3989.41 326.669   7
  -2  -2   2 3230.77 289.117  21
   2   2  -2 3673.46 332.526  12
  -2  -2   2 2893.39 234.086   9
  -2  -2   2 3706.19 343.705  12
  -2  -2   2 2937.92 373.881  20
  -2  -2   2 3518.06 403.729   2
   2   2  -2 3552.55 242.243   9
   2   2  -1 34239.7 1040.57  16
   2   2  -1 35315.9 1185.11  17
   2   2  -1 33926.9 984.748   8
   2   2  -1 31868.6 1019.99  14
  -2  -2   1 34429.6 982.229  14
  -2  -2   1 33363.8 952.848   8
  -2  -2   1 33327.2 885.824  21
  -2  -2   1 36541.5 1031.85  13
   2   2  -1 34077.1 1044.72  13
  -2  -2   1 34097.1 1171.72  20
   2   2  -1 32424.2 901.975  21
   2   2  -1 35989.9 1059.97  12
  -2  -2   1 33312.6 821.772   4
   2   2  -1 31439.1 721.575   9
  -2  -2   1 35643.8 1174.41   2
   2   2   0 228691. 3284.68   9
   2   2   0 250967. 3796.28  16
   2   2   0 239455. 3212.99   1
   2   2   0 233740. 3505.73  21
   2   2   0 233475. 3587.88  15
  -2  -2   0 249761. 3704.85  14
   2   2   0 239374. 3709.16  14
   2   2   0 252008. 3554.66   8
  -2  -2   0 242907. 3506.14   8
   2   2   0 255354. 3802.54  13
   2   2   0 261452. 3823.66  12
   2   2   0 247188. 3235.59   5
  -2  -2   0 228031. 3455.57  21
  -2  -2   0 248008. 3296.06   1
   2   2   0 255317. 3772.37  18
  -2  -2   0 259064. 4043.02   2
  -2  -2   0 249744. 3345.22   4
   2   2   0 236524. 4068.63  17
  -2  -2  -1 233460. 3182.90   1
   2   2   1 233415. 3605.21  16
  -2  -2  -1 235236. 3543.14  14
   2   2   1 235797. 3239.71   8
   2   2   1 243189. 3153.67   1
  -2  -2  -1 232141. 3211.51   8
   2   2   1 224019. 3071.74  19
  -2  -2  -1 237306. 3379.26  21
   2   2   1 240695. 3633.71  12
   2   2   1 230812. 3602.11   6
   2   2   1 238539. 3336.03  21
  -2  -2  -1 234933. 3056.83  19
  -2  -2  -1 252521. 3887.86   2
  -2  -2  -1 215051. 3215.88   4
   2   2   1 238549. 3885.85  17
   2   2   2 223408. 3580.57  16
  -2  -2  -2 235527. 3313.52   1
  -2  -2  -2 234267. 3423.29  21
   2   2   2 219701. 3254.79  19
  -2  -2  -2 238275. 3629.62  14
   2   2   2 222350. 3075.67   8
  -2  -2  -2 233099. 3079.75   8
   2   2   2 239094. 3292.88   1
   2   2   2 227252. 3583.02  12
   2   2   2 224961. 3325.61  21
   2   2   2 242695. 3700.04   6
  -2  -2  -2 218168. 3297.55   5
  -2  -2  -2 222008. 3220.59  19
  -2  -2  -2 200371. 3773.17   2
  -2  -2  -2 226880. 3647.46  18
  -2  -2  -2 245109. 3355.65   4
   2   2   2 231704. 3371.54   4
   2   2   2 235770. 3905.68  17
   2   2   3 62332.1 1482.54  16
  -2  -2  -3 58741.4 1381.58  21
  -2  -2  -3 59948.3 1340.91   1
   2   2   3 61812.4 1022.91   8
  -2  -2  -3 58972.7 1537.68  14
  -2  -2  -3 61751.4 1005.60   8
  -2  -2  -3 57935.3 1317.55  19
   2   2   3 58994.7 1374.20  19
   2   2   3 60402.8 1332.01   1
   2   2   3 61514.6 1368.26  21
   2   2   3 64402.5 1604.65   6
   2   2   3 60987.7 1466.92  12
  -2  -2  -3 61423.9 1568.39   6
  -2  -2  -3 58665.6 1351.57   5
  -2  -2  -3 65919.4 1422.23   4
  -2  -2  -3 61325.8 1553.35  18
   2   2   3 62015.2 1662.16  17
   2   2   3 56824.9 1372.89   4
   2   2   4 28406.4 944.222  16
  -2  -2  -4 28059.1 918.113   1
  -2  -2  -4 28189.8 943.143  21
   2   2   4 27725.6 907.281  21
   2   2   4 28293.1 1080.84  17
   2   2   4 26134.2 906.294   1
  -2  -2  -4 25888.4 894.036  19
   2   2   4 27275.9 917.941  12
  -2  -2  -4 27249.4 960.006  12
  -2  -2  -4 27666.1 1050.82   6
   2   2   4 28779.7 969.283  19
  -2  -2  -4 29380.9 958.316   4
   2   2   4 24097.5 921.365   4
  -2  -2  -5 98.0043 139.945   4
   2   2   5 331.164 122.978  16
   2   2   5 468.780 143.492   4
   2   2   5 386.321 129.493  12
  -2  -2  -5 355.942 161.366   1
  -2  -2  -5 365.101 143.522  12
  -2  -2  -5 200.886 118.636  21
   2   2   5 477.169 207.987  11
  -2  -2  -5 376.590 130.865  19
   2   2   5 486.851 169.709  19
  -2  -2  -6 5250.58 455.275   1
  -2  -2  -6 4899.16 445.102   4
  -2  -2  -6 5371.53 422.028  12
  -2  -2  -6 5620.39 462.447  21
   2   2   6 4137.94 455.975  19
   2   2   6 4372.30 258.232  15
   2   2   6 5288.26 399.144  16
   2   2   6 4175.83 505.918  11
   2   2   7 15158.8 693.757  16
  -2  -2  -7 16780.9 859.008   4
  -2  -2  -7 15521.0 859.552   1
   2   2   7 14575.9 494.580  15
   2   2   7 13864.5 491.172   3
  -2  -2  -7 16045.7 730.154  12
  -2  -2  -7 15186.3 812.967  21
   2   2   7 15895.2 915.841  11
   2   2   7 13617.9 664.486  10
   2   2   8 25571.9 742.629  15
   2   2   8 28462.9 980.154  16
  -2  -2  -8 27631.7 576.341   8
  -2  -2  -8 30921.4 1298.36   1
   2   2   8 28174.3 775.506   3
   2   2   8 34234.8 1398.62  11
  -2  -2  -8 34765.4 1101.41  12
  -2  -2  -8 30138.5 1244.40  21
  -2  -2  -8 32513.1 1287.83   4
   2   2   9 10307.7 577.379  16
   2   2   9 12440.3 529.500  15
   2   2   9 12688.8 881.002  11
  -2  -2  -9 12172.4 408.208   8
  -2  -2  -9 13208.4 877.394   4
  -2  -2  -9 13685.3 908.180   1
   2   2   9 12836.6 539.247   3
  -2  -2  -9 15151.4 707.768  12
  -2  -2  -9 14740.5 900.540  21
  -2  -2 -10 3321.60 498.666   4
   2   2  10 2558.28 276.483  16
   2   2  10 3411.83 299.350  15
  -2  -2 -10 3328.68 234.713   8
   2   2  10 4609.74 585.401  19
  -2  -2 -10 4279.29 545.491  17
   2   2  10 3235.71 292.793   3
  -2  -2 -10 3829.77 513.997   1
   2   2  10 3768.23 526.811  11
  -2  -2 -10 3427.47 342.272  12
  -2  -2 -10 3948.98 485.850  21
   2   2  11 10387.0 567.468  16
   2   2  11 14595.8 647.676  15
  -2  -2 -11 14894.5 1025.69  21
  -2  -2 -11 15358.0 1094.62  17
   2   2  11 13065.8 632.161   3
  -2  -2 -11 14543.3 1019.33   1
  -2  -2 -11 13034.0 646.085  12
  -2  -2 -11 12304.1 510.025   8
   2   2  11 14331.8 1048.82  11
   2   2  11 15116.4 1074.81  19
  -2  -2 -11 15217.4 1067.75   4
   2   2  12 4075.76 339.122  16
   2   2  12 5534.41 426.164  15
  -2  -2 -12 7749.96 792.686  21
   2   2  12 5959.38 446.339   3
  -2  -2 -12 6498.77 734.592   1
  -2  -2 -12 4948.42 348.618   8
   2   2  12 7003.32 769.605  19
  -2  -2 -12 5315.99 392.718  12
   2   2  12 5934.04 728.284  11
  -2  -2 -12 6486.34 736.723   4
  -2  -2 -12 7647.53 796.791  17
  -2  -2 -13 391.014 215.555   1
  -2  -2 -13 372.717 184.872  21
  -2  -2 -13 634.530 330.198  17
   2   2  13 685.667 295.839  11
  -2  -2 -13 574.609 141.995   8
   2   2  13 473.427 155.377   3
   2   2  13 635.311 253.726  19
   2   2  13 296.611 121.292  15
  -2  -2 -14 1426.82 358.341   1
  -2  -2 -14 912.415 348.133  17
   2   2  14 1044.95 213.235  15
  -2  -2 -14 1201.24 204.841   8
   2   2  14 808.709 209.823   3
  -2  -2 -14 1427.56 400.556  21
   2   2  14 544.915 298.778  11
   2   2  14 1358.84 391.010  19
  -2  -2 -15 3431.88 635.183  17
   2   2  15 1716.57 445.994  11
  -2  -2 -15 2683.22 519.483   1
  -2  -2 -15 2505.36 541.106  21
   2   2  15 2899.42 583.529  19
  -2  -2 -16 912.000 431.843  17
  -2  -2 -16 47.3574 186.347   1
  -2  -2 -16 341.060 219.736  21
   2   2  16 521.325 311.147  11
   2   2  16 625.002 354.313  19
  -2  -2 -17 182.787 263.968  17
  -2  -2 -17 457.267 292.180  21
  -2  -2 -17 140.227 195.746   1
   2   2  17 108.900 176.949  11
   2   2  17 327.459 330.239  19
  -2  -2 -18 315.428 266.938  17
  -2  -2 -18 698.060 331.252   1
  -2  -2 -18 559.713 349.515  21
   2   2  18 231.149 247.140  11
   2   2  18 235.700 249.244  19
  -2  -2 -19 840.737 393.803  17
  -2  -2 -19 339.852 250.263   1
   2   2  19 169.196 225.319  19
  -2  -2 -19 334.567 223.783  21
   2   2  19 623.146 317.743  11
   2   2  20 175.459 184.352  11
  -2  -2 -20 571.650 375.798  21
   2   2  20 540.341 318.931  19
   2   2  21 449.459 344.237  11
   2   3 -18 882.249 397.742   1
  -2  -3  18 1890.04 537.334   2
   2   3 -17-293.469 286.341   1
   2   3 -17 226.541 212.926   8
  -2  -3  17 23.4499 230.747  20
  -2  -3  17-173.023 182.965   2
   2   3 -16 281.318 217.537   8
  -2  -3  16 65.2858 161.426   2
  -2  -3  16 511.978 374.649  20
   2   3 -16 605.018 285.490   1
   2   3 -15-65.9405 203.889   1
  -2  -3  15 141.234 214.514  15
  -2  -3  15 117.731 229.275  20
   2   3 -15 393.991 218.207   8
  -2  -3  15 193.486 174.625   2
  -2  -3  14-83.0129 223.024  15
  -2  -3  14-81.3564 198.411  20
  -2  -3  14 69.4159 154.843  14
  -2  -3  14 72.3988 152.859   2
   2   3 -14-106.365 162.083   8
  -2  -3  14 374.760 214.510  19
   2   3 -13 923.999 318.981   8
  -2  -3  13 1118.55 360.402   2
   2   3 -13 855.244 325.212   9
  -2  -3  13 1690.27 346.977  19
  -2  -3  13 1316.66 369.038  15
  -2  -3  13 1001.60 366.115  20
  -2  -3  13 562.814 227.575  14
  -2  -3  12 1289.40 283.524  19
   2   3 -12 1106.60 338.679   9
  -2  -3  12 983.885 318.823  15
  -2  -3  12 518.377 204.473  14
   2   3 -12 1160.41 342.030   8
  -2  -3  12 785.448 322.553   2
  -2  -3  12 1191.40 367.902  20
   2   3 -11 2340.20 464.040   9
  -2  -3  11 2470.83 479.290  15
  -2  -3  11 2472.44 492.610   3
  -2  -3  11 3616.46 452.487  19
  -2  -3  11 2535.84 379.589  14
   2   3 -11 3257.08 526.718   8
  -2  -3  11 3334.01 528.494   2
  -2  -3  11 3263.08 597.034  20
  -2  -3  10 18231.6 1006.37  14
  -2  -3  10 21604.7 1284.58  15
  -2  -3  10 22788.8 1066.78  19
   2   3 -10 22138.8 1281.50   8
  -2  -3  10 23734.4 1380.61   3
  -2  -3  10 23573.3 1410.62  20
  -2  -3  10 19898.9 1228.77   2
   2   3 -10 17894.0 1181.87   9
  -2  -3   9 5109.55 605.822   2
  -2  -3   9 6287.46 674.578  15
  -2  -3   9 4566.93 483.371  14
   2   3  -9 6267.23 666.182   8
  -2  -3   9 4867.40 450.453  19
  -2  -3   9 5888.40 706.037   3
  -2  -3   9 6046.04 716.728  20
   2   3  -9 4535.55 557.620   9
   2   3  -9 4994.16 375.727  10
  -2  -3   8 1974.59 424.798  15
  -2  -3   8 1790.61 294.081  14
   2   3  -8 1932.50 351.306   9
   2   3  -8 2009.09 366.746   8
  -2  -3   8 1707.74 250.422  19
   2   3  -8 1753.68 313.758  13
  -2  -3   8 1371.91 414.513   3
  -2  -3   8 1890.02 390.053   2
  -2  -3   8 1821.38 312.486  12
  -2  -3   8 1983.01 411.296  20
   2   3  -8 2006.71 250.963  10
   2   3  -7 4420.50 506.215   9
   2   3  -7 3834.60 352.894  10
  -2  -3   7 3339.03 486.799  15
  -2  -3   7 3886.85 399.151  14
   2   3  -7 4162.52 512.214   8
  -2  -3   7 4296.99 547.011   3
   2   3  -7 4220.12 430.967  13
   2   3  -7 4142.44 355.586  19
   2   3  -7 4149.49 311.078   7
  -2  -3   7 4202.44 444.761  12
  -2  -3   7 3853.95 507.635   2
  -2  -3   7 3744.41 512.416  20
   2   3  -7 3456.28 350.165  11
   2   3  -6 3453.59 414.693   9
  -2  -3   6 4120.50 495.803   2
  -2  -3   6 3419.46 483.167  15
  -2  -3   6 4162.15 386.791  14
   2   3  -6 3223.17 330.836  11
  -2  -3   6 2914.76 462.027   3
  -2  -3   6 3474.66 348.937  13
   2   3  -6 3387.33 376.902  13
   2   3  -6 3536.05 300.822   7
  -2  -3   6 4536.15 421.130  16
  -2  -3   6 3478.80 402.355  12
  -2  -3   6 3190.67 318.096   4
  -2  -3   6 3265.97 468.439  20
   2   3  -6 3331.58 288.671  19
   2   3  -6 4024.77 469.418   8
   2   3  -6 3544.97 342.265  10
  -2  -3   5 3904.92 468.481   2
   2   3  -5 4385.27 444.402   9
  -2  -3   5 4670.30 393.617  14
   2   3  -5 3799.51 444.387   8
  -2  -3   5 4127.78 488.589   3
  -2  -3   5 4340.07 375.578  13
   2   3  -5 3662.56 368.502  13
   2   3  -5 4124.67 336.094   7
  -2  -3   5 4376.01 464.222  12
  -2  -3   5 4342.04 412.051  16
   2   3  -5 3648.73 336.954  11
  -2  -3   5 4110.83 491.369  20
  -2  -3   5 3501.16 439.317  15
   2   3  -5 3787.75 279.702  19
  -2  -3   5 4161.32 338.283   4
  -2  -3   4 12795.7 729.782   9
  -2  -3   4 12700.7 822.977  15
   2   3  -4 12791.3 483.706  19
  -2  -3   4 12906.5 617.430  14
   2   3  -4 11760.2 739.728   8
  -2  -3   4 13519.0 825.861   2
  -2  -3   4 11282.6 835.581   3
  -2  -3   4 12992.3 636.970  13
   2   3  -4 13013.9 722.901   9
   2   3  -4 14090.2 669.581  13
   2   3  -4 11060.1 581.836  11
  -2  -3   4 14247.0 809.585  12
  -2  -3   4 14326.2 747.896  16
   2   3  -4 13198.9 656.191  21
  -2  -3   4 13398.3 865.435  20
  -2  -3   4 12556.6 532.442   4
  -2  -3   3 1433.78 249.808  16
   2   3  -3 1023.60 215.653   9
   2   3  -3 1240.02 187.316  21
  -2  -3   3 1441.29 284.169  12
  -2  -3   3 1498.51 190.359  14
   2   3  -3 941.730 186.153  14
  -2  -3   3 1036.08 241.793   2
  -2  -3   3 1393.72 201.245  13
   2   3  -3 934.619 216.675   8
   2   3  -3 1033.85 178.409  13
  -2  -3   3 1200.04 250.345  15
  -2  -3   3 1040.97 203.025   9
  -2  -3   3 1111.10 241.627   3
  -2  -3   3 1279.37 280.714  20
   2   3  -3 1098.95 128.715  19
  -2  -3   3 1187.90 147.783   4
   2   3  -2 1831.92 258.073   9
  -2  -3   2 2706.00 315.744   9
  -2  -3   2 2282.73 260.297  14
   2   3  -2 2531.91 233.295  21
  -2  -3   2 2299.47 334.243   2
   2   3  -2 1824.05 232.471  14
  -2  -3   2 2283.09 359.781  20
   2   3  -2 2459.75 265.898  13
  -2  -3   2 2582.56 347.827  12
   2   3  -2 2305.44 311.010   8
   2   3  -2 2259.25 168.564  19
  -2  -3   2 2297.50 309.266   3
  -2  -3   2 2450.15 331.044  15
   2   3  -2 1845.74 254.336   1
  -2  -3   2 2575.62 336.259  16
  -2  -3   1 10970.2 640.756  15
   2   3  -1 10918.7 598.546   8
  -2  -3   1 10387.7 514.539  14
   2   3  -1 9700.53 535.261  14
  -2  -3   1 11046.3 662.596   3
   2   3  -1 10527.6 558.523  13
   2   3  -1 10807.6 427.617  21
  -2  -3   1 11269.6 707.837   2
   2   3  -1 10881.5 596.772   9
  -2  -3   1 10862.7 734.998  20
   2   3  -1 9385.82 568.389   1
   2   3   0 4770.30 377.271   1
   2   3   0 4841.74 269.953  19
  -2  -3   0 4988.13 402.249  15
   2   3   0 5319.38 399.819  15
  -2  -3   0 5137.99 361.703  14
   2   3   0 4894.95 363.484  14
   2   3   0 5017.78 380.077   8
   2   3   0 5326.03 388.672  13
   2   3   0 5414.81 415.229   3
   2   3   0 4526.62 244.725  21
  -2  -3   0 4964.53 481.891   2
   2   3   0 4828.22 409.807   9
  -2  -3   0 4548.45 447.596  17
   2   3   1 6025.32 266.017  21
  -2  -3  -1 6753.00 434.635  15
  -2  -3  -1 7453.71 605.660   2
   2   3   1 7398.10 444.242  15
  -2  -3  -1 8225.11 490.175  14
  -2  -3  -1 7102.43 291.657  21
   2   3   1 7189.07 419.265   8
   2   3   1 7547.04 455.468   3
   2   3   1 7294.33 467.015  14
   2   3   1 4894.83 248.211   4
   2   3   1 7445.23 371.695  19
  -2  -3  -1 8142.56 289.815   4
   2   3   1 7330.02 455.392   1
  -2  -3  -1 6814.54 544.263  17
   2   3   1 6897.98 535.269  17
  -2  -3  -1 7110.28 492.183   1
  -2  -3  -2 13607.2 829.719   2
   2   3   2 12968.1 543.730  15
   2   3   2 12741.4 523.707   8
  -2  -3  -2 12220.1 441.025  21
  -2  -3  -2 13665.0 686.282  14
   2   3   2 13877.6 660.056  14
   2   3   2 14605.3 586.429  19
   2   3   2 14207.3 586.750   3
   2   3   2 12109.0 419.621  21
   2   3   2 13692.1 641.680   1
  -2  -3  -2 14414.5 470.546   4
   2   3   2 14432.4 673.254   5
  -2  -3  -2 14001.2 692.216   1
   2   3   2 12581.1 474.098   4
   2   3   2 13945.2 769.377  17
  -2  -3  -2 13629.4 793.351  17
   2   3   3 20205.4 635.056  15
   2   3   3 20936.2 620.886   8
   2   3   3 21757.8 859.171   1
   2   3   3 22944.6 911.719  14
   2   3   3 22675.8 831.672  19
   2   3   3 21528.8 671.325   3
  -2  -3  -3 22157.2 990.964  17
  -2  -3  -3 24408.3 724.407   4
  -2  -3  -3 23591.1 683.023  21
  -2  -3  -3 20764.7 782.910  19
   2   3   3 20040.6 910.951  11
  -2  -3  -3 22736.9 920.324   1
   2   3   3 22885.9 911.726   5
   2   3   3 19372.2 695.756   4
  -2  -3  -4 51189.6 1473.84   1
   2   3   4 41548.7 898.384  15
  -2  -3  -4 47401.8 1418.61   5
   2   3   4 54378.9 939.420   8
   2   3   4 48595.4 1394.75   1
   2   3   4 49473.6 1374.55  19
   2   3   4 40729.3 924.798   3
  -2  -3  -4 47632.7 1144.49  21
   2   3   4 47097.3 1494.75  11
  -2  -3  -4 45883.3 1295.33  19
  -2  -3  -4 48984.9 1231.52   4
   2   3   4 49681.1 1210.62   4
  -2  -3  -4 44843.5 1464.34  17
  -2  -3  -5 4888.05 481.824  17
  -2  -3  -5 5620.84 488.216   1
   2   3   5 3338.99 187.359  15
  -2  -3  -5 6267.81 412.170  21
   2   3   5 3844.24 185.345   3
  -2  -3  -5 6378.68 545.501  12
  -2  -3  -5 5495.07 476.653  16
   2   3   5 5390.09 514.653  11
   2   3   5 5246.10 464.134  19
  -2  -3  -5 5808.50 441.978   4
   2   3   5 5576.48 415.209   4
  -2  -3  -6 1835.31 328.949   1
   2   3   6 1877.11 330.394  11
  -2  -3  -6 1610.07 274.066  16
  -2  -3  -6 2252.26 351.010  17
   2   3   6 2133.06 328.654  19
  -2  -3  -6 1961.50 280.204   4
  -2  -3  -6 1557.92 293.063  12
  -2  -3  -6 1805.14 264.788  21
  -2  -3  -7 4288.16 416.476  21
  -2  -3  -7 4000.58 483.735  17
  -2  -3  -7 4034.88 460.648   1
   2   3   7 4323.14 483.432  19
   2   3   7 4159.29 506.855  11
  -2  -3  -7 4409.05 439.582  16
  -2  -3  -7 4718.15 472.633  12
  -2  -3  -7 4805.56 472.627   4
  -2  -3  -8 19843.2 1087.09  17
  -2  -3  -8 18917.2 1019.54   1
  -2  -3  -8 17813.0 916.140  21
  -2  -3  -8 18523.3 924.711  12
   2   3   8 18580.5 1070.92  11
   2   3   8 20823.8 1101.33  19
  -2  -3  -8 17183.6 961.186   4
  -2  -3  -8 18500.0 881.016  16
  -2  -3  -9 8132.32 578.775  16
  -2  -3  -9 7917.43 700.134   1
   2   3   9 7746.26 730.261  11
  -2  -3  -9 7569.11 574.033  12
  -2  -3  -9 8479.65 671.286  21
   2   3   9 9165.76 753.331  18
   2   3   9 8910.39 773.161  19
  -2  -3  -9 8454.54 731.475  17
   2   3  10 8587.92 808.035  19
  -2  -3 -10 9126.64 776.133   1
   2   3  10 7992.83 769.583  11
  -2  -3 -10 9946.55 831.512  17
  -2  -3 -10 8604.45 616.650  12
  -2  -3 -10 9341.24 738.439  21
   2   3  10 8371.18 772.376  18
  -2  -3 -11 12880.4 960.754   1
  -2  -3 -11 13708.6 1001.72  17
   2   3  11 13926.1 1034.23  19
  -2  -3 -11 13165.0 938.492  21
   2   3  11 11663.7 984.853  11
  -2  -3 -12 17189.8 1162.80   1
  -2  -3 -12 19988.1 1270.83  17
   2   3  12 22160.7 1358.95  19
  -2  -3 -12 20326.9 1217.29  21
   2   3  12 17000.3 1245.78  11
  -2  -3 -13 575.456 282.578  17
   2   3  13 329.254 250.516  11
  -2  -3 -13 806.501 288.819  21
   2   3  13 845.402 346.228  19
  -2  -3 -13 506.257 203.416   1
  -2  -3 -14 4081.15 632.899  17
  -2  -3 -14 3157.83 555.123   1
  -2  -3 -14 4114.21 634.784  21
   2   3  14 2521.21 561.349  11
   2   3  14 2887.03 625.334  19
  -2  -3 -15 563.955 285.650  17
  -2  -3 -15 333.122 250.528   1
  -2  -3 -15 264.763 187.264  21
   2   3  15 160.999 180.826  11
   2   3  15 178.486 237.015  19
  -2  -3 -16 897.437 355.362  21
   2   3  16 1656.13 484.483  19
  -2  -3 -16 1327.27 380.936  17
   2   3  16 1108.26 382.336  11
  -2  -3 -16 884.737 347.333   1
  -2  -3 -17 230.173 202.401  17
  -2  -3 -17 155.330 200.041   1
   2   3  17 22.4852 184.694  11
  -2  -3 -17 589.684 363.572  21
   2   3  17 344.093 266.575  19
  -2  -3 -18 461.392 326.877  17
  -2  -3 -18 887.827 364.220   1
   2   3  18 290.596 239.209  11
  -2  -3 -18 837.484 353.192  21
   2   3  18 193.767 274.113  19
  -2  -3 -19 616.108 246.696   1
  -2  -3 -19 318.959 286.725  17
  -2  -3 -19 434.968 361.315  21
   2   3  19 1000.33 402.974  11
   2   3  19 265.209 230.322  19
  -2  -3 -20 415.396 291.359  17
  -2  -3 -20 986.522 398.006  21
   2   3  20 420.987 279.760  11
  -2  -4  17 1030.00 398.083   2
  -2  -4  16 375.778 288.338  15
   2   4 -16 1040.79 413.451   8
  -2  -4  16 328.413 272.872   2
   2   4 -15 358.526 268.530   9
  -2  -4  15 354.598 302.687  20
  -2  -4  15 196.747 220.347  15
   2   4 -15 453.534 310.816   8
  -2  -4  15 80.8105 165.880   2
  -2  -4  14 471.585 299.671  15
   2   4 -14 293.307 262.300   9
  -2  -4  14 394.767 309.959   3
   2   4 -14 231.903 257.847   8
  -2  -4  14 111.356 179.830   2
  -2  -4  14 271.090 282.918  20
   2   4 -13 309.877 236.138   9
  -2  -4  13 217.096 243.544  15
   2   4 -13 317.269 246.160   8
  -2  -4  13 137.236 149.631   2
  -2  -4  13 564.189 297.414   3
  -2  -4  13 162.462 195.319  20
   2   4 -12 1382.35 404.510   9
  -2  -4  12 1094.63 377.396  15
   2   4 -12 1448.67 381.512   8
  -2  -4  12 794.761 279.260   2
  -2  -4  12 595.232 276.334  20
  -2  -4  12 233.235 234.799   3
   2   4 -11 365.331 204.718   9
  -2  -4  11 264.277 215.442  15
   2   4 -11 199.743 184.823   8
  -2  -4  11 146.648 202.840   2
  -2  -4  11 283.652 200.802   3
  -2  -4  11 189.275 167.740  20
  -2  -4  10 10661.6 928.743   2
  -2  -4  10 10728.2 1001.58  15
  -2  -4  10 11369.8 719.088  14
   2   4 -10 10463.8 954.684   8
  -2  -4  10 10315.8 1042.21   3
  -2  -4  10 12150.3 1063.13  20
   2   4 -10 9207.56 891.137   9
   2   4  -9 5283.13 654.715   9
  -2  -4   9 7002.47 726.010   2
  -2  -4   9 6896.26 775.350  15
  -2  -4   9 6606.03 519.031  14
   2   4  -9 7143.26 755.153   8
  -2  -4   9 4994.05 713.550   3
  -2  -4   9 6387.88 742.065  20
  -2  -4   9 7189.49 603.167  16
  -2  -4   8 2078.71 433.274  20
   2   4  -8 1693.91 354.259   9
  -2  -4   8 1868.47 271.156  14
  -2  -4   8 2236.95 401.015   2
   2   4  -8 2516.94 477.527   8
  -2  -4   8 1826.15 322.615  16
   2   4  -8 1781.07 215.123   7
  -2  -4   8 1875.13 425.274   3
  -2  -4   8 2018.88 437.170  15
   2   4  -7 7969.59 731.092   9
  -2  -4   7 8362.25 651.053  16
  -2  -4   7 7389.89 769.423  15
  -2  -4   7 8091.57 519.102  14
   2   4  -7 6763.72 406.901  11
   2   4  -7 8925.58 791.592   8
  -2  -4   7 8245.95 752.241   2
  -2  -4   7 8429.04 817.681   3
  -2  -4   7 8338.93 533.516  13
   2   4  -7 8917.79 512.572   7
  -2  -4   7 8127.02 799.655  20
  -2  -4   7 7140.79 488.223   4
   2   4  -6 23705.1 1213.99   9
  -2  -4   6 25377.7 1321.04  15
  -2  -4   6 23706.1 852.900  14
   2   4  -6 24513.5 1254.32   8
  -2  -4   6 25206.4 1360.10   3
  -2  -4   6 23373.8 865.291  13
   2   4  -6 23775.3 891.056  13
   2   4  -6 19731.1 714.844  11
   2   4  -6 22735.6 902.064  19
  -2  -4   6 25934.1 1298.37   2
  -2  -4   6 27754.8 1426.77  20
  -2  -4   6 25994.3 1162.54  16
  -2  -4   6 21961.3 791.917   4
  -2  -4   5 14047.4 850.202  16
  -2  -4   5 14601.3 970.360  15
  -2  -4   5 14256.6 617.006  14
   2   4  -5 12451.5 621.781  19
  -2  -4   5 14387.7 1002.74   3
  -2  -4   5 14267.2 625.135  13
   2   4  -5 11748.1 595.666  13
   2   4  -5 11376.3 514.942  11
  -2  -4   5 14723.3 1017.19  20
   2   4  -5 12824.4 879.144   9
  -2  -4   5 13180.5 522.623   4
  -2  -4   5 15730.9 982.809   2
   2   4  -4 4319.69 497.201   9
  -2  -4   4 4550.98 492.609  16
  -2  -4   4 4113.97 492.323  15
  -2  -4   4 4224.26 339.913  14
  -2  -4   4 3947.91 519.666   3
   2   4  -4 4444.85 345.685  13
  -2  -4   4 4664.75 536.055  12
  -2  -4   4 4749.06 546.432   2
   2   4  -4 3670.92 334.699  21
   2   4  -4 3500.22 280.856  11
  -2  -4   4 3969.83 518.788  20
   2   4  -4 3774.12 318.130  19
  -2  -4   4 3905.04 232.640   4
  -2  -4   3 337.208 152.492  16
   2   4  -3 479.539 191.388   9
  -2  -4   3 73.5236 142.078  15
  -2  -4   3 490.526 177.721   2
  -2  -4   3 387.109 120.062  14
  -2  -4   3 531.934 212.231  20
   2   4  -3 261.908 75.5406  14
   2   4  -3 223.700 72.1686  13
  -2  -4   3 542.538 194.682   3
  -2  -4   3 777.927 258.420  12
   2   4  -3 294.780 88.7713  21
   2   4  -3 618.747 137.498  19
   2   4  -2 846.163 246.109   9
  -2  -4   2 773.151 187.470   2
  -2  -4   2 838.800 233.218  15
   2   4  -2 593.456 105.117  21
  -2  -4   2 694.484 147.689  14
   2   4  -2 549.704 125.213  14
   2   4  -2 466.475 106.458  13
  -2  -4   2 643.086 232.942   3
  -2  -4   2 980.794 265.764  12
  -2  -4   2 542.770 220.311  20
  -2  -4   2 891.287 237.534  16
   2   4  -1 19973.9 1017.48   9
  -2  -4   1 19929.5 962.920  15
   2   4  -1 18207.5 469.244  21
  -2  -4   1 21200.6 788.340  14
   2   4  -1 19328.2 758.653  14
  -2  -4   1 19649.9 996.810   3
   2   4  -1 21023.1 794.073  13
  -2  -4   1 23363.2 1147.24  12
  -2  -4   1 21581.1 1127.06  20
  -2  -4   1 21963.2 1088.81  16
  -2  -4   1 20509.4 1056.29   2
  -2  -4   0 62804.7 1712.92  15
   2   4   0 62746.3 1531.70  11
   2   4   0 62185.1 1475.96  14
  -2  -4   0 65350.9 1789.68   3
   2   4   0 63657.0 1530.72  13
  -2  -4   0 66190.4 2000.25   2
   2   4   0 67668.0 1945.03   9
   2   4   1 26745.4 1179.31   9
  -2  -4  -1 24908.3 978.315  15
   2   4   1 23418.3 901.037  14
  -2  -4  -1 26696.7 1034.73   3
   2   4   1 25502.8 894.020  19
  -2  -4  -1 25816.6 1214.83   2
   2   4   1 25315.6 948.462  11
  -2  -4  -1 22165.7 1009.52  17
  -2  -4  -2 75706.7 1677.54  15
   2   4   2 76666.6 1701.04  15
   2   4   2 79714.0 1777.91  19
   2   4   2 74787.8 1745.51  14
  -2  -4  -2 84378.2 1796.20   3
   2   4   2 82015.5 1877.35  11
   2   4   2 77754.5 1704.49   3
  -2  -4  -2 83711.1 2281.44   2
  -2  -4  -2 80798.5 2156.37   1
  -2  -4  -2 75844.8 2007.01  17
   2   4   3 135524. 2661.50  11
  -2  -4  -3 128095. 2183.69  15
   2   4   3 126167. 2189.04  15
  -2  -4  -3 131754. 2261.39   3
   2   4   3 126726. 2191.08   3
   2   4   3 129690. 1981.54   4
   2   4   3 137727. 2848.87   5
   2   4   3 139969. 2561.98  19
  -2  -4  -3 139553. 2915.86   1
  -2  -4  -3 138204. 2838.16  17
   2   4   4 86968.6 1629.18  15
  -2  -4  -4 94939.1 2339.62  17
   2   4   4 87054.8 1643.18   3
   2   4   4 95845.7 2264.94  11
  -2  -4  -4 76989.8 1469.82  21
   2   4   4 97835.1 2407.30   5
   2   4   4 90808.9 1762.16   4
  -2  -4  -4 97283.7 2430.83   1
   2   4   4 101784. 2216.64  19
   2   4   5 19984.2 585.610  15
   2   4   5 21048.9 1043.41  11
   2   4   5 21702.2 1011.06  19
  -2  -4  -5 22711.5 1134.64  16
  -2  -4  -5 19936.8 1056.10   1
  -2  -4  -5 22517.7 1132.57  12
  -2  -4  -5 22224.7 726.587  21
   2   4   5 21475.2 1077.41   5
   2   4   5 17499.4 748.546   4
  -2  -4  -5 19229.4 992.846  17
  -2  -4  -6 10925.7 777.855  16
  -2  -4  -6 9512.88 753.787   1
   2   4   6 9043.55 416.843   8
   2   4   6 9101.30 717.497  11
  -2  -4  -6 8905.64 509.057  21
  -2  -4  -6 10607.4 787.542  12
   2   4   6 9245.48 745.165   5
   2   4   6 10262.7 738.930  19
  -2  -4  -6 9850.34 714.811  17
   2   4   7 1598.88 337.957  11
  -2  -4  -7 1552.56 331.231  16
   2   4   7 1648.35 142.946   8
   2   4   7 2181.08 361.728  19
  -2  -4  -7 1813.83 345.058   1
  -2  -4  -7 2026.29 374.079  12
  -2  -4  -7 1639.30 243.914  21
  -2  -4  -7 1550.91 305.378  17
   2   4   7 1892.01 361.866  18
  -2  -4  -8 21456.9 1174.96   1
  -2  -4  -8 20998.7 917.859  21
  -2  -4  -8 23360.4 1116.01  16
   2   4   8 20189.0 1183.30  11
   2   4   8 21785.1 1271.99   6
   2   4   8 23027.3 1228.20  18
  -2  -4  -8 21822.4 1160.54  17
   2   4   8 21487.8 1165.40  19
   2   4   9 35889.5 1661.52  11
   2   4   9 38153.7 1649.13  18
  -2  -4  -9 42512.0 1545.52  16
  -2  -4  -9 37459.7 1635.81   1
  -2  -4  -9 36437.5 1604.55  17
  -2  -4  -9 36367.5 1361.70  21
   2   4   9 36952.1 1636.76  19
  -2  -4 -10 16603.6 1096.03  17
  -2  -4 -10 15877.5 929.197  16
  -2  -4 -10 16704.8 1121.45   1
  -2  -4 -10 16251.6 945.443  21
   2   4  10 14755.2 1105.67  11
   2   4  10 16764.6 1161.99  19
   2   4  10 15784.8 1073.73  18
   2   4  11 23971.9 1413.15  19
  -2  -4 -11 20431.6 1281.97   1
  -2  -4 -11 21669.4 1295.38  17
   2   4  11 21037.3 1347.97  11
  -2  -4 -11 19379.2 1026.89  16
   2   4  11 21788.4 1306.18  18
  -2  -4 -12 43621.4 1583.17  16
  -2  -4 -12 43963.1 1982.96   1
   2   4  12 43472.1 2023.86  11
  -2  -4 -12 48277.8 2019.45  17
   2   4  12 48609.9 2122.24  19
   2   4  12 45730.2 1973.67  18
  -2  -4 -13 9205.51 921.745   1
   2   4  13 10185.3 1006.47  11
   2   4  13 11985.8 1087.24  19
  -2  -4 -13 10155.7 960.155  17
   2   4  13 10301.5 975.185  18
  -2  -4 -14 1278.55 363.175  17
  -2  -4 -14 1368.68 424.481   1
   2   4  14 1055.58 360.392  11
   2   4  14 1288.97 386.192  19
  -2  -4 -15 611.300 271.105  17
  -2  -4 -15 331.776 172.222  21
   2   4  15 194.911 172.214  11
  -2  -4 -15 238.656 221.725   1
   2   4  15 681.461 311.054  19
  -2  -4 -16 2767.35 563.128  17
  -2  -4 -16 3406.61 630.879   1
  -2  -4 -16 2580.30 551.620  21
   2   4  16 1367.00 422.307  11
   2   4  16 1878.53 515.422  19
  -2  -4 -17 961.485 336.810  17
  -2  -4 -17 283.151 194.574  21
   2   4  17 484.268 294.865  11
   2   4  17 555.969 339.433  19
  -2  -4 -17 329.771 273.378   1
  -2  -4 -18 798.715 368.966  21
  -2  -4 -18 164.473 211.931   1
   2   4  18 411.460 282.542  11
   2   4  18 537.832 323.182  19
  -2  -4 -18 381.206 286.903  17
  -2  -4 -19 1738.10 504.707  17
  -2  -4 -19 1449.57 506.317  21
  -2  -4 -19 872.206 372.555   1
   2   4  19 401.472 273.216  11
   2   4  19 1465.79 493.938  19
  -2  -4 -20 585.796 360.324  17
  -2  -4 -20 753.088 382.669  21
   2   5 -15 197.911 290.774   9
   2   5 -14 426.104 329.260   9
  -2  -5  14 1137.52 433.923  15
  -2  -5  14 1720.03 450.426   2
   2   5 -14 1187.60 463.563   8
  -2  -5  14 734.489 419.960   3
  -2  -5  14 1215.87 435.462  20
   2   5 -13 1151.62 408.461   9
  -2  -5  13 999.163 354.655   2
   2   5 -13 573.032 367.118   8
  -2  -5  13 1366.99 439.585   3
  -2  -5  13 588.761 309.396  15
  -2  -5  13 1106.00 444.768  20
   2   5 -12 555.878 239.482   9
   2   5 -12 1070.76 337.922  21
  -2  -5  12 776.292 288.785   2
   2   5 -12 768.755 333.896   8
  -2  -5  12 1204.28 408.468  15
  -2  -5  12 1250.54 444.863   3
  -2  -5  12 482.012 267.803  20
  -2  -5  11 168.898 256.471  15
  -2  -5  11-259.423 275.613  20
  -2  -5  11 394.308 241.632   2
   2   5 -11 474.791 283.067   8
  -2  -5  11 533.969 297.559   3
   2   5 -11 375.776 233.945  21
   2   5 -11 71.1348 193.295   9
   2   5 -10 1171.63 382.618   9
  -2  -5  10 1586.75 328.663  16
  -2  -5  10 1195.81 402.597  15
   2   5 -10 1093.26 291.800  21
  -2  -5  10 1629.54 396.979   2
   2   5 -10 1526.10 408.333   8
  -2  -5  10 715.413 330.528   3
  -2  -5  10 1715.88 454.160  20
   2   5  -9 6464.51 784.086   9
  -2  -5   9 8218.45 887.432  15
   2   5  -9 8275.86 878.281   8
  -2  -5   9 7751.70 907.382   3
  -2  -5   9 8888.90 840.789   2
   2   5  -9 8840.77 750.099  21
  -2  -5   9 8455.59 740.114  16
  -2  -5   9 9260.66 958.326  20
  -2  -5   8 4065.73 531.216  16
   2   5  -8 3459.57 561.121   9
  -2  -5   8 3859.56 612.643  15
  -2  -5   8 4397.38 675.349   3
   2   5  -8 4512.93 648.304   8
   2   5  -8 4355.63 498.104  21
  -2  -5   8 4510.61 674.419  20
  -2  -5   8 4267.42 586.327   2
   2   5  -7 10674.3 951.997   9
  -2  -5   7 12622.0 903.702  16
  -2  -5   7 12241.5 1028.30  15
  -2  -5   7 11587.7 1038.42   3
   2   5  -7 11555.7 762.785  21
  -2  -5   7 11085.0 1020.21  20
  -2  -5   7 12878.0 1011.51   2
  -2  -5   6 4975.82 641.224  15
  -2  -5   6 5809.93 709.314   3
   2   5  -6 5041.58 651.690   9
   2   5  -6 5281.54 476.753  21
  -2  -5   6 5905.25 641.821  16
  -2  -5   6 5361.02 667.208  20
  -2  -5   6 4847.59 627.432   2
  -2  -5   5 2061.13 375.713  16
  -2  -5   5 1570.84 368.012  15
  -2  -5   5 1576.36 163.702  14
   2   5  -5 1320.22 359.592   9
  -2  -5   5 1815.64 348.299   2
  -2  -5   5 1342.22 369.823   3
   2   5  -5 1513.62 233.769  21
  -2  -5   5 1537.14 367.886  20
  -2  -5   4 3367.10 479.105  16
   2   5  -4 3478.40 505.197   9
  -2  -5   4 4196.75 561.823  15
  -2  -5   4 3560.24 259.356  14
   2   5  -4 1844.99 141.785  11
   2   5  -4 2871.78 231.609  13
   2   5  -4 3337.76 310.505  21
  -2  -5   4 3258.56 505.066   3
  -2  -5   4 3226.33 481.972  20
  -2  -5   4 4201.74 543.188   2
  -2  -5   3 2502.71 419.331  15
  -2  -5   3 2488.68 400.508  16
   2   5  -3 2589.50 428.983   9
   2   5  -3 2336.83 215.015  13
   2   5  -3 2328.58 205.822  21
  -2  -5   3 2849.78 470.172   3
   2   5  -3 2541.28 231.592  21
  -2  -5   3 2842.99 458.415  20
  -2  -5   3 3494.43 483.818   2
   2   5  -3 2019.22 185.944  11
   2   5  -2 1653.91 123.801  21
   2   5  -2 2844.61 452.067   9
  -2  -5   2 2873.97 437.540   2
   2   5  -2 2029.54 215.119  14
   2   5  -2 2240.50 221.700  13
   2   5  -2 1397.30 111.245  21
  -2  -5   2 2288.30 402.357   3
   2   5  -2 2093.07 210.358  11
  -2  -5   2 2476.33 430.155  20
  -2  -5   2 2287.76 364.327  16
  -2  -5   2 2407.81 392.471  15
   2   5  -1 520.211 216.061   9
  -2  -5   1 634.425 196.109  15
   2   5  -1 745.382 152.841  14
   2   5  -1 828.290 158.806  11
   2   5  -1 859.436 155.735  13
  -2  -5   1 1042.85 253.193   3
  -2  -5   1 810.020 235.140   2
  -2  -5   1 550.389 217.906  16
  -2  -5   0 2964.15 459.981  16
  -2  -5   0 2243.02 409.337   2
   2   5   0 2509.60 409.848   9
   2   5   0 2324.26 251.284  14
   2   5   0 2523.91 285.010  11
   2   5   0 2252.56 264.976  13
  -2  -5   0 2462.26 370.126   3
  -2  -5   0 2842.24 385.776  15
  -2  -5  -1 8105.22 741.471  16
  -2  -5  -1 8635.77 624.395  15
   2   5   1 7842.61 508.612  14
  -2  -5  -1 8471.12 641.358   3
   2   5   1 8608.04 792.561   9
   2   5   1 8398.18 544.811  11
  -2  -5  -1 8070.50 718.089   2
   2   5   2 7706.18 738.339   9
  -2  -5  -2 6970.89 708.368  16
  -2  -5  -2 6836.49 520.590  15
  -2  -5  -2 6846.44 542.647   3
  -2  -5  -2 7307.84 666.031  10
   2   5   2 6834.43 529.283  11
   2   5   2 7670.28 580.959  19
  -2  -5  -3 1337.87 264.127  17
  -2  -5  -3 1296.54 326.938  16
  -2  -5  -3 1699.40 264.263  15
   2   5   3 1661.57 383.384   6
  -2  -5  -3 1503.49 272.288   3
  -2  -5  -3 1763.48 374.166   1
   2   5   3 1711.58 345.149   5
   2   5   3 1792.19 281.506  11
  -2  -5  -3 1738.47 339.501  10
   2   5   3 1415.12 143.137   4
   2   5   3 1784.83 292.233  19
  -2  -5  -4 4268.70 558.543  16
  -2  -5  -4 3896.61 527.439   1
  -2  -5  -4 3755.42 328.647  15
   2   5   4 3804.16 340.029  15
  -2  -5  -4 3789.16 497.395  10
   2   5   4 3345.99 428.259  11
  -2  -5  -4 3959.60 458.398  17
  -2  -5  -4 4123.54 367.324   3
   2   5   4 3933.00 457.540  19
   2   5   4 3937.89 578.497   6
   2   5   4 3291.11 461.060   5
   2   5   4 3295.31 270.409   4
   2   5   4 4425.01 570.819  18
  -2  -5  -5 6687.00 308.429  21
  -2  -5  -5 8582.71 445.250  15
   2   5   5 8045.35 449.044  15
   2   5   5 9781.14 846.774  18
  -2  -5  -5 9344.30 482.785   3
  -2  -5  -5 7499.70 331.382  21
  -2  -5  -5 10076.8 863.221   1
   2   5   5 9534.06 899.621   6
   2   5   5 9738.22 732.445  19
   2   5   5 9046.24 710.338  11
   2   5   5 9417.23 811.316   5
  -2  -5  -5 8277.44 747.393  10
   2   5   5 7474.40 467.824   4
  -2  -5  -5 10594.3 853.449  16
  -2  -5  -5 9857.72 740.770  17
  -2  -5  -6 3779.70 507.910  16
  -2  -5  -6 3528.15 274.113  21
  -2  -5  -6 2969.47 260.547  21
   2   5   6 3765.55 592.287   6
   2   5   6 3448.25 472.828  11
   2   5   6 4084.54 531.652   5
  -2  -5  -6 3242.51 471.279  10
  -2  -5  -6 3804.86 548.086   1
   2   5   6 4326.43 577.398  18
   2   5   6 4236.38 495.555  19
  -2  -5  -6 3570.19 457.761  17
  -2  -5  -7 864.972 305.258   1
   2   5   7 966.499 173.240   8
   2   5   7 1054.44 338.420   6
  -2  -5  -7 575.400 145.382  21
  -2  -5  -7 599.113 205.117  16
  -2  -5  -7 877.342 251.687  17
   2   5   7 688.864 272.423  11
   2   5   7 1083.98 311.696   5
   2   5   7 983.992 280.226  19
   2   5   7 795.531 282.550  18
  -2  -5  -8 3709.66 566.772   1
   2   5   8 2879.90 266.786   8
  -2  -5  -8 3132.40 474.392  16
   2   5   8 3638.59 600.531   6
  -2  -5  -8 2271.97 290.050  21
  -2  -5  -8 2529.66 412.018  17
   2   5   8 3239.97 499.930  11
   2   5   8 3019.13 467.203  19
   2   5   8 2709.56 501.841  18
  -2  -5  -9 4798.03 598.614  16
  -2  -5  -9 4192.72 589.931   1
   2   5   9 4263.84 655.085   6
  -2  -5  -9 4513.91 565.835  17
  -2  -5  -9 4086.06 421.953  21
   2   5   9 4018.52 587.088  11
   2   5   9 4552.91 612.192  19
   2   5   9 4534.31 622.369  18
  -2  -5 -10 5227.10 693.655   1
  -2  -5 -10 4608.15 576.399  16
   2   5  10 4395.21 603.527  19
   2   5  10 3971.15 557.439  18
  -2  -5 -10 3624.14 431.366  21
  -2  -5 -10 4947.84 613.555  17
   2   5  10 3745.77 577.473  11
  -2  -5 -11 5533.86 698.815  17
  -2  -5 -11 4473.07 660.081   1
   2   5  11 4294.40 659.369  11
  -2  -5 -11 4828.87 592.371  16
   2   5  11 4530.78 656.501  19
   2   5  11 5575.29 682.207  18
  -2  -5 -12 8469.29 909.952   1
  -2  -5 -12 10312.3 849.216  16
  -2  -5 -12 8484.45 876.203  17
   2   5  12 8183.74 878.118  11
   2   5  12 9837.27 967.046  19
   2   5  12 9197.93 908.302  18
  -2  -5 -13 4348.05 542.834  16
  -2  -5 -13 4448.52 691.728   1
   2   5  13 4431.73 667.229  11
   2   5  13 5300.35 749.530  19
  -2  -5 -13 5057.47 686.236  17
   2   5  13 5347.85 714.504  18
  -2  -5 -14 3198.40 577.725  17
  -2  -5 -14 2984.10 442.278  16
  -2  -5 -14 2915.03 589.446   1
   2   5  14 2624.82 557.879  11
   2   5  14 2793.35 581.670  19
   2   5  14 3111.87 532.319  18
  -2  -5 -15 3774.08 653.446  17
   2   5  15 4305.71 720.238  19
  -2  -5 -15 3531.89 663.721   1
   2   5  15 2790.56 586.313  11
   2   5  15 3685.63 629.494  18
   2   5  16 757.915 345.023  11
  -2  -5 -16 15.5638 196.851   1
  -2  -5 -16 509.774 250.018  21
  -2  -5 -16 789.568 358.019  17
   2   5  16 541.132 323.166  19
  -2  -5 -17 956.210 365.484   1
  -2  -5 -17 1181.03 410.522  21
  -2  -5 -17 846.877 383.198  17
   2   5  17 1058.33 384.388  11
   2   5  17 1204.41 430.407  19
  -2  -5 -18 1104.19 387.810  21
  -2  -5 -18 361.267 297.415  17
  -2  -5 -18 229.701 228.887   1
   2   5  18 872.952 413.663  11
   2   5  18 718.081 398.502  19
  -2  -5 -19 247.789 258.456  17
  -2  -5 -19 456.004 303.564  21
  -2  -5 -20 561.654 381.533  17
  -2  -5 -20 209.536 284.450  21
   2   6 -13 1583.63 494.621   9
   2   6 -12 489.308 283.968   9
  -2  -6  12 639.226 344.886  20
   2   6 -11 505.067 255.233   9
  -2  -6  11 453.527 284.615  15
   2   6 -11 251.890 288.901   8
  -2  -6  11 51.9265 234.080   3
  -2  -6  11 43.4970 173.725  20
   2   6 -10 1557.78 454.509   9
  -2  -6  10 1325.88 455.155  15
  -2  -6  10 1825.70 435.812   2
   2   6 -10 1656.86 486.119   8
  -2  -6  10 1516.38 475.792   3
  -2  -6  10 1693.66 508.925  20
   2   6  -9 1147.31 388.107   9
  -2  -6   9 1277.50 403.911  15
  -2  -6   9 1513.17 416.993   2
   2   6  -9 2477.95 529.420   8
  -2  -6   9 1703.44 474.742   3
  -2  -6   9 1725.08 479.104  20
  -2  -6   9 1678.92 395.596  16
  -2  -6   8 2700.92 528.266  15
  -2  -6   8 2979.38 511.769   2
   2   6  -8 2218.89 518.783   9
  -2  -6   8 2333.72 546.747   3
  -2  -6   8 2586.33 471.278  16
  -2  -6   8 2818.43 570.270  20
   2   6  -7 10083.8 1039.75   9
  -2  -6   7 10845.5 948.105  16
  -2  -6   7 10119.1 994.037  15
  -2  -6   7 10694.9 1073.79   3
  -2  -6   7 10758.3 1052.71  20
  -2  -6   7 10741.8 966.681   2
  -2  -6   6 33607.2 1695.00  16
  -2  -6   6 29617.1 1697.69  15
  -2  -6   6 31142.8 1786.82   3
  -2  -6   6 33082.6 1692.42   2
   2   6  -6 26638.5 1648.08   9
  -2  -6   6 30921.0 1750.31  20
  -2  -6   5 7271.25 818.975  15
  -2  -6   5 8054.42 819.705  16
   2   6  -5 6189.78 794.713   9
  -2  -6   5 6668.37 816.555   3
  -2  -6   5 6891.98 804.350  20
  -2  -6   5 8025.04 803.946   2
   2   6  -4 9132.56 930.275   9
  -2  -6   4 9346.00 892.348  16
  -2  -6   4 8540.51 855.226  15
  -2  -6   4 8201.87 871.422   3
  -2  -6   4 9337.48 844.359   2
  -2  -6   4 8316.35 854.662  20
  -2  -6   3 2239.14 402.453   2
   2   6  -3 1442.86 387.369   9
  -2  -6   3 2165.50 431.336  15
  -2  -6   3 2356.76 450.906   3
  -2  -6   3 1596.15 379.596  20
  -2  -6   3 2070.79 448.539  16
   2   6  -2 11695.7 1030.84   9
  -2  -6   2 10718.6 966.315  16
  -2  -6   2 10395.0 882.366  15
  -2  -6   2 13616.2 1022.97   2
  -2  -6   2 9996.96 875.625   3
  -2  -6   1 5955.49 753.306  16
  -2  -6   1 4238.18 542.122  15
   2   6  -1 4828.03 662.045   9
  -2  -6   1 4557.34 582.595   3
  -2  -6   1 5745.22 656.748   2
   2   6   0 17822.7 1261.88   9
  -2  -6   0 17243.3 1203.63  16
  -2  -6   0 17120.8 1041.34  15
   2   6   0 15426.6 686.378  11
  -2  -6   0 15565.2 1032.26   3
   2   6   0 15930.0 680.484  13
  -2  -6   0 16955.4 1098.12  10
   2   6   1 3179.03 321.977  13
  -2  -6  -1 3615.49 582.199  16
   2   6   1 2991.46 533.187   9
  -2  -6  -1 3187.32 419.352  15
   2   6   1 3141.75 346.210  11
  -2  -6  -1 2951.23 434.959   3
  -2  -6  -1 3337.00 495.282  10
   2   6   2 17148.7 1229.18   9
  -2  -6  -2 18337.3 1273.10  16
  -2  -6  -2 15560.1 897.518  15
   2   6   2 15067.9 820.599  11
   2   6   2 17391.3 992.689  19
  -2  -6  -2 14208.6 1048.64  10
  -2  -6  -2 15578.4 929.690   3
  -2  -6  -3 4227.24 619.817  16
  -2  -6  -3 3631.53 404.090  15
   2   6   3 3906.06 598.946   9
   2   6   3 4051.76 653.604   6
  -2  -6  -3 3585.42 504.685  10
   2   6   3 4004.42 486.142  19
   2   6   3 3636.32 424.713  11
  -2  -6  -3 3195.18 397.144   3
   2   6   4 1041.93 331.317   6
  -2  -6  -4 939.491 257.344  17
  -2  -6  -4 1052.97 283.533  16
  -2  -6  -4 1148.68 228.871  15
  -2  -6  -4 936.855 292.036  10
  -2  -6  -4 1147.54 234.740   3
  -2  -6  -4 1401.93 383.886   1
   2   6   4 1286.64 284.155  11
   2   6   4 1587.68 318.730  19
   2   6   4 1085.24 314.463   5
  -2  -6  -5 347.990 210.321  16
  -2  -6  -5 412.404 140.178  15
  -2  -6  -5 339.533 218.108  10
  -2  -6  -5 267.212 141.382   3
  -2  -6  -5 398.227 273.099   1
   2   6   5-91.5372 244.671   6
  -2  -6  -5 311.888 124.804  17
   2   6   5 127.448 189.489   5
   2   6   5 629.380 234.139  11
   2   6   5 338.177 169.560  19
   2   6   5 264.484 237.612  18
  -2  -6  -6 2710.63 421.870  17
  -2  -6  -6 3140.69 289.945  15
  -2  -6  -6 3377.13 586.134   1
   2   6   6 3003.73 452.508  11
   2   6   6 2962.31 468.234  19
  -2  -6  -6 3538.26 328.207   3
   2   6   6 3546.81 580.706   5
  -2  -6  -6 3748.39 588.842  16
   2   6   6 3136.97 569.752   6
  -2  -6  -6 3083.20 493.792  10
   2   6   6 3027.48 529.041  18
  -2  -6  -7 2352.76 403.014  17
  -2  -6  -7 2293.41 489.522  16
   2   6   7 2348.46 399.254  19
   2   6   7 2550.56 504.958   5
   2   6   7 2859.94 596.785   6
  -2  -6  -7 2314.16 465.024  10
  -2  -6  -7 2454.24 514.967   1
   2   6   7 2924.38 467.958  11
   2   6   7 2963.90 552.614  18
  -2  -6  -8 9590.00 908.744  16
   2   6   8 9313.36 1047.36   6
   2   6   8 8473.12 806.075  11
  -2  -6  -8 8360.89 830.974  10
  -2  -6  -8 8693.00 929.630   1
   2   6   8 9324.69 939.416  18
   2   6   8 9795.55 972.852   5
  -2  -6  -8 8813.78 768.092  17
   2   6   8 8778.23 836.369  19
   2   6   9 12503.6 1037.78  19
  -2  -6  -9 12294.4 1032.97  16
   2   6   9 13446.9 1219.07   6
   2   6   9 11116.9 1041.02  18
   2   6   9 11903.4 1083.82   5
   2   6   9 10167.6 906.220  11
  -2  -6  -9 10889.1 1047.86   1
  -2  -6  -9 11262.7 896.950  17
  -2  -6 -10 20124.8 1322.22  16
  -2  -6 -10 18364.3 1395.23   1
   2   6  10 19193.9 1295.59  11
   2   6  10 20907.8 1541.62   6
   2   6  10 21322.4 1404.67  19
   2   6  10 20615.5 1417.20  18
  -2  -6 -10 19960.9 1230.77  17
  -2  -6 -11 14295.4 1115.75  16
   2   6  11 14967.6 1337.86   6
   2   6  11 14747.5 1218.98  19
  -2  -6 -11 14757.0 1256.97   1
   2   6  11 15698.6 1234.02  18
   2   6  11 13146.6 1102.24  11
  -2  -6 -11 14248.8 1082.97  17
  -2  -6 -12 8332.11 843.932  16
   2   6  12 7430.10 866.894  18
   2   6  12 7211.11 885.719  19
  -2  -6 -12 6431.99 625.352  21
   2   6  12 6515.45 796.843  11
  -2  -6 -12 7060.94 792.310  17
  -2  -6 -12 5865.64 811.839   1
  -2  -6 -13 9445.56 1050.63   1
  -2  -6 -13 10663.0 1024.76  17
  -2  -6 -13 11050.8 963.398  16
   2   6  13 10674.9 1099.12  19
   2   6  13 9502.34 1011.89  11
  -2  -6 -13 10113.8 832.424  21
   2   6  13 11040.8 1063.96  18
  -2  -6 -14 798.758 331.322  17
  -2  -6 -14 478.138 292.850   1
   2   6  14 321.288 252.817  11
   2   6  14 937.072 393.414  19
  -2  -6 -14 914.994 297.326  16
   2   6  14 715.973 306.873  18
  -2  -6 -15 808.524 361.194  17
  -2  -6 -15 41.6026 270.205   1
   2   6  15-259.613 237.083  11
   2   6  15 266.129 289.849  19
   2   6  15 1058.44 366.775  18
  -2  -6 -16 1600.34 482.207  17
   2   6  16 1231.30 473.847  19
  -2  -6 -16 376.324 352.069   1
   2   6  16 903.707 411.762  11
   2   6  16 1129.78 428.060  18
  -2  -6 -17 803.510 359.404  17
  -2  -6 -17 462.806 264.280   1
   2   6  17 805.339 388.823  11
   2   6  17 734.198 401.648  19
   2   6  17 191.309 232.177  18
  -2  -6 -18 1131.39 459.230  17
  -2  -6 -19 523.704 306.815  17
   2   7 -11-389.643 283.456   9
   2   7 -10 66.6851 288.652   9
  -2  -7  10 267.813 200.418  20
   2   7  -9 1928.42 506.850   9
  -2  -7   9 2595.74 594.631  15
   2   7  -9 2038.05 558.511   8
  -2  -7   9 1981.28 524.547   3
  -2  -7   9 2488.42 557.355  20
  -2  -7   8 874.265 333.218  16
  -2  -7   8 397.205 313.330   3
  -2  -7   8 1331.97 418.867  20
   2   7  -8 1265.63 417.289   9
   2   7  -7 2092.99 554.857   9
  -2  -7   7 1873.47 483.025  15
  -2  -7   7 2379.63 520.092  16
  -2  -7   7 1816.86 507.604   3
  -2  -7   7 1486.75 429.803  20
  -2  -7   6 3713.78 617.071  16
   2   7  -6 2169.15 565.397   9
  -2  -7   6 3108.06 620.711  15
  -2  -7   6 2689.40 582.712   3
  -2  -7   6 3160.37 597.269  20
  -2  -7   5 2718.08 531.329   2
  -2  -7   5 2224.58 489.768  15
   2   7  -5 2961.02 616.343   9
  -2  -7   5 1991.23 480.285   3
  -2  -7   5 2420.62 505.288  16
  -2  -7   5 2308.84 506.624  20
   2   7  -4 878.637 396.001   9
  -2  -7   4 849.298 333.840  15
  -2  -7   4 1126.42 364.763   3
  -2  -7   4 1037.26 333.177  20
  -2  -7   4 1445.74 371.066   2
  -2  -7   4 1046.41 363.285  16
  -2  -7   3 1998.27 465.244  16
  -2  -7   3 1810.80 415.498   2
   2   7  -3 2102.75 498.638   9
  -2  -7   3 2188.54 440.730  15
  -2  -7   3 2047.31 492.960   3
   2   7  -2 5204.79 763.477   9
  -2  -7   2 4805.50 731.250  16
  -2  -7   2 4921.27 656.231  15
  -2  -7   2 4835.48 661.280   3
  -2  -7   1 11969.4 1099.56  16
  -2  -7   1 11283.2 974.372   3
  -2  -7   1 11350.4 948.322  15
   2   7  -1 11539.8 1137.52   9
  -2  -7   0 1406.04 430.549  16
   2   7   0 243.707 224.757   9
  -2  -7   0 801.147 280.259  15
  -2  -7   0 1051.05 359.102  10
  -2  -7   0 979.657 318.835   3
  -2  -7  -1 4053.54 671.136  16
  -2  -7  -1 3668.46 518.348  15
  -2  -7  -1 3365.48 518.716   3
  -2  -7  -1 3299.67 568.312  10
   2   7   1 2789.93 570.783   9
   2   7   2 17951.5 1380.92   9
  -2  -7  -2 19818.6 1436.23  16
  -2  -7  -2 16467.9 1024.62  15
   2   7   2 16910.4 1085.31  19
  -2  -7  -2 16973.7 1053.53   3
   2   7   2 17510.6 1446.07   6
  -2  -7  -2 15668.9 1209.10  10
  -2  -7  -3 19291.7 1429.20  16
  -2  -7  -3 16582.4 1004.15  15
   2   7   3 17029.8 1417.89   6
   2   7   3 17734.8 1150.64  19
   2   7   3 16411.5 1328.93   9
  -2  -7  -3 16281.8 1225.50  10
  -2  -7  -3 16267.7 1004.94   3
   2   7   4 15281.6 1306.01   9
   2   7   4 14237.0 1069.84  19
  -2  -7  -4 16109.4 1295.72  16
  -2  -7  -4 15150.0 889.890  15
  -2  -7  -4 14245.6 1144.59  10
  -2  -7  -4 15339.4 928.033   3
   2   7   4 16416.3 1412.87   6
   2   7   4 15192.4 941.356  11
   2   7   4 16693.5 1308.11   5
   2   7   5 5022.44 651.276  19
   2   7   5 5455.84 806.210   9
  -2  -7  -5 5675.85 778.153  16
   2   7   5 5974.15 855.635   6
   2   7   5 5289.95 594.697  11
   2   7   5 5649.99 779.989   5
  -2  -7  -5 5053.08 708.086  10
   2   7   5 5749.76 802.553  18
   2   7   6 8429.35 858.496  19
  -2  -7  -6 8781.15 976.942  16
  -2  -7  -6 7849.73 972.462   1
   2   7   6 7522.08 728.338  11
   2   7   6 9846.89 1107.57   6
   2   7   6 8884.00 976.093   5
  -2  -7  -6 7366.31 827.428  10
   2   7   6 8866.19 987.444  18
  -2  -7  -7 6016.35 812.650  16
   2   7   7 6286.13 744.700  19
   2   7   7 5872.31 669.197  11
   2   7   7 6355.90 945.890   6
   2   7   7 6074.59 837.900   5
  -2  -7  -7 5739.85 845.761   1
  -2  -7  -7 5296.38 737.513  10
   2   7   7 6473.20 842.997  18
  -2  -7  -8 1773.88 493.079  16
   2   7   8 1536.17 364.732  11
  -2  -7  -8 1448.23 471.265   1
   2   7   8 1773.79 473.901  18
   2   7   8 1447.10 485.194   6
   2   7   8 1780.96 447.765   5
   2   7   8 1592.79 390.198  19
  -2  -7  -8 1333.90 387.549  10
  -2  -7  -9 226.762 214.080  16
   2   7   9 519.138 300.893  11
   2   7   9 430.143 282.286  19
   2   7   9 106.476 223.554   6
  -2  -7  -9 319.418 253.586   1
   2   7   9 59.8506 167.844   5
  -2  -7  -9 20.8714 165.429  10
   2   7   9 383.733 267.161  18
  -2  -7 -10 917.841 362.397  16
   2   7  10 954.195 367.661   6
  -2  -7 -10 384.718 289.323   1
   2   7  10 245.615 196.476  11
   2   7  10 951.540 417.633   5
   2   7  10 688.419 308.283  19
   2   7  10 921.209 335.823  18
  -2  -7 -11-273.146 271.474  16
   2   7  11 517.564 262.506  11
   2   7  11 411.989 296.115   6
  -2  -7 -11 76.8966 193.467   1
   2   7  11 591.423 264.293  19
   2   7  11 739.257 360.811  18
  -2  -7 -12 1550.06 431.792  16
   2   7  12 2158.64 509.437  19
   2   7  12 1154.71 396.985  11
  -2  -7 -12 1793.81 533.832   1
   2   7  12 2269.64 545.115  18
  -2  -7 -13 1675.47 449.608  16
   2   7  13 1748.68 478.394  11
   2   7  13 2377.28 557.915  19
  -2  -7 -13 1787.30 493.025   1
   2   7  13 1577.79 446.649  18
  -2  -7 -14 719.242 279.582  16
  -2  -7 -14 1021.25 412.170   1
   2   7  14 1034.83 399.773  11
   2   7  14 1338.66 481.521  19
   2   7  14 676.618 401.364  18
  -2  -7 -15 467.285 356.208   1
   2   7  15 683.725 354.198  11
   2   7  15 107.083 222.669  19
   2   7  15 530.160 364.768  18
   2   7  16 1934.31 565.140  11
   2   7  16 1820.61 498.975  18
   2   7  17 1088.68 370.500  18
  -2  -8   8 1985.68 554.434  20
  -2  -8   7 7.71249 177.657  20
  -2  -8   7 101.758 168.921  16
  -2  -8   6 532.469 288.619  16
   2   8  -6-29.2134 189.047   9
  -2  -8   6 338.153 287.828  15
  -2  -8   6 297.773 224.178   3
  -2  -8   6 137.294 160.811  20
  -2  -8   5-78.7657 195.555  16
  -2  -8   5-44.0755 173.153  15
  -2  -8   5 129.427 193.490   3
   2   8  -5-129.650 195.557   9
  -2  -8   4-248.965 242.739  16
   2   8  -4 154.836 253.017   9
  -2  -8   4 206.092 175.008  15
  -2  -8   4 135.490 185.821   3
  -2  -8   3-102.042 250.146  16
   2   8  -3 207.491 193.194   9
  -2  -8   3 510.705 293.730  15
  -2  -8   3 217.214 237.432   3
   2   8  -2 409.208 298.123   9
  -2  -8   2 397.919 241.000  16
  -2  -8   2 61.2191 165.578   3
  -2  -8   2 693.062 277.803  15
  -2  -8   1-31.4795 200.890  16
   2   8  -1 287.830 235.440   9
  -2  -8   1 380.038 244.100  15
  -2  -8   1 183.129 150.100   3
  -2  -8   0 1547.90 487.425  16
   2   8   0 888.362 366.088   9
  -2  -8   0 1037.83 349.576  15
  -2  -8   0 676.089 292.545   3
  -2  -8  -1 808.256 341.598  16
   2   8   1 493.296 271.440   9
  -2  -8  -1 584.341 250.659  15
   2   8   1 1102.32 416.582   6
  -2  -8  -1 951.003 280.802   3
  -2  -8  -1 1000.67 348.645  10
   2   8   2 360.676 292.875   6
  -2  -8  -2-175.886 259.341  16
   2   8   2 514.143 303.553   9
  -2  -8  -2 96.8026 181.336  10
  -2  -8  -3 1352.65 430.046  16
   2   8   3 1046.94 402.960   9
   2   8   3 736.946 315.975   5
  -2  -8  -3 1452.72 419.082  10
   2   8   3 1284.83 431.811   6
   2   8   3 1572.37 387.580  19
  -2  -8  -4 2026.42 529.747  16
   2   8   4 2202.62 511.492   9
   2   8   4 2118.72 554.480   6
   2   8   4 2614.50 561.480   5
   2   8   4 2943.10 522.755  19
  -2  -8  -4 1814.32 479.516  10
  -2  -8  -5 630.987 374.673  16
  -2  -8  -5 648.850 271.877  10
   2   8   5 544.670 311.529   9
   2   8   5 746.930 308.884  19
   2   8   5 1170.26 464.012   6
   2   8   5 657.496 310.784   5
   2   8   5 1235.35 445.273  18
  -2  -8  -6 1078.23 429.726  16
   2   8   6 883.221 365.984   9
  -2  -8  -6 1053.51 391.513  10
   2   8   6 964.976 369.860   6
   2   8   6 1112.98 373.710   5
   2   8   6 840.394 340.302  19
   2   8   6 1365.71 455.568  18
  -2  -8  -7 528.088 353.323  16
   2   8   7 1036.40 435.159   9
   2   8   7 1263.52 550.162   6
   2   8   7 507.923 285.394   5
   2   8   7 410.287 250.506  19
  -2  -8  -7 530.280 267.390  10
   2   8   7 915.837 398.806  18
  -2  -8  -8 1331.58 442.752  16
   2   8   8 1473.89 419.735   5
   2   8   8 943.976 384.949   6
   2   8   8 1189.30 363.461  19
  -2  -8  -8 696.873 349.717   1
  -2  -8  -8 572.991 268.322  10
   2   8   8 1310.66 461.891  18
  -2  -8  -9 333.474 261.120  16
   2   8   9 903.134 351.217  19
   2   8   9 362.062 325.716   5
  -2  -8  -9 110.566 239.321   1
   2   8   9 39.6658 278.864   6
  -2  -8  -9-93.8993 256.832  10
   2   8   9 288.017 215.423  18
   2   8  10-92.3088 227.847   5
   2   8  10 1014.67 463.087   6
  -2  -8 -10 101.944 225.028   1
   2   8  10 395.916 222.575  19
   2   8  10 12.6445 166.477  11
   2   8  10 509.303 301.776  18
  -2  -8 -10-270.812 282.038  16
   2   8  11 396.787 246.293  11
   2   8  11 114.164 197.297   6
  -2  -8 -11 664.129 318.882  16
  -2  -8 -11 306.727 283.933   1
   2   8  11 639.362 300.129  19
   2   8  11-111.614 230.667  18
  -2  -8 -12-300.670 252.166  16
   2   8  12 590.224 480.278   6
   2   8  12-6.86008 156.302  11
  -2  -8 -12 469.923 301.113   1
   2   8  12 258.653 281.964  19
   2   8  12 3.47008 192.321  18
  -2  -8 -13 338.991 261.581  16
   2   8  13 238.202 278.922  11
   2   8  13-8.99469 197.888  19
   2   8  13-72.6890 242.737  18
   2   8  14 1561.54 507.538  11
  -2  -8 -14 2037.38 525.302  16
  -2  -9   3 1227.01 432.770  15
  -2  -9   3 895.231 348.059   3
   2   9   0 747.245 394.758   9
   2   9   1 855.385 421.803   9
   2   9   2 1507.82 519.498   9
   2   9   2 1891.67 510.185   5
   2   9   3 5000.15 901.846   9
   2   9   3 5068.64 860.716   5
   2   9   4 1968.30 578.885   9
   2   9   4 1315.79 420.994   5
   2   9   5 757.323 375.674   9
   2   9   5 614.738 306.940   5
   2   9   6 6881.92 1051.51   9
   2   9   6 7693.55 1066.55   5
   2   9   8 112.269 248.634  19
   2   9   9 1679.74 483.058  19
   2   9  10 38.2373 192.096  19
   3  -7  -3 29.6585 202.355  15
   3  -7  -3-141.903 180.812   3
  -3   6  11 1879.74 541.426   4
  -3   6  10 758.102 387.705   4
  -3   6   9-31.3657 252.436   9
  -3   6   9-286.472 275.541   4
  -3   6   9 65.5335 209.722   5
  -3   6   8 879.887 443.027   9
  -3   6   8 1207.95 422.259   4
  -3   6   8 1232.34 486.191   5
  -3   6   7 1082.94 452.132   9
  -3   6   7 958.827 487.631   5
  -3   6   7 704.787 349.793   4
   3  -6  -7 569.470 336.407  10
  -3   6   6 783.607 359.216   4
   3  -6  -6 239.825 214.061  15
  -3   6   6 176.284 243.266   9
  -3   6   6 62.5976 246.242   5
   3  -6  -6-168.276 208.457  10
   3  -6  -5 54.5169 154.743  15
  -3   6   5-136.261 280.721   9
  -3   6   5 151.131 217.251   4
   3  -6  -5-69.3945 199.200  10
  -3   6   4 831.855 452.578   9
   3  -6  -4 590.940 305.645  15
  -3   6   4 726.896 325.361   4
   3  -6  -4 416.151 180.010  10
  -3   6   3 1288.57 483.670   9
   3  -6  -3 2045.63 489.579  15
  -3   6   3 979.742 325.314   4
   3  -6  -3 1370.89 435.533  10
   3  -6  -3 1858.33 477.777   3
  -3   6   2 1612.69 520.927   9
   3  -6  -2 1490.68 450.894  15
   3  -6  -2 1772.68 480.428   3
   3  -6  -2 1616.57 480.641  10
   3  -6  -1 3725.24 700.764   3
  -3   6   1 3749.73 734.752   9
   3  -6  -1 4137.04 728.798  15
   3  -6  -1 3434.28 635.854  10
  -3   6   0 3367.20 719.301   9
   3  -6   0 4148.81 731.142  15
   3  -6   0 2530.97 576.327  10
   3  -6   0 3665.79 676.459   3
  -3   6  -1 2214.33 622.559   9
   3  -6   1 1324.72 460.898  15
   3  -6   1 1931.51 518.899   3
   3  -6   1 919.208 388.671  10
  -3   6  -2 192.515 259.635   9
   3  -6   2 357.582 247.915  15
   3  -6   2 751.085 362.120   3
   3  -6   2 215.738 278.007  10
   3  -6   3 1442.55 458.178  15
   3  -6   3 1036.79 428.375   3
   3  -6   3 1285.19 430.130  10
   3  -6   4 972.053 351.002  10
   3  -6   5 1012.55 445.756  16
   3  -6   5 430.501 274.086  10
   3  -6   6 6098.99 935.392  16
   3  -6   6 5052.63 787.275  10
   3  -5 -15 986.537 381.722  10
   3  -5 -14 875.062 349.011  10
  -3   5  14 1207.82 470.962  14
   3  -5 -14 1009.02 443.961   1
  -3   5  13 242.335 280.275  14
   3  -5 -13 325.691 322.674   1
   3  -5 -13 24.2513 220.428  10
  -3   5  12 377.911 325.670  19
  -3   5  12 233.467 272.222  14
   3  -5 -12-101.352 233.755   1
  -3   5  12 118.824 182.311   5
   3  -5 -12-72.7464 172.091  10
  -3   5  11 536.744 344.347  19
  -3   5  11-8.41612 160.243  14
  -3   5  11 695.960 355.092   5
   3  -5 -11 283.376 332.041   1
   3  -5 -11 24.0091 153.333  10
  -3   5  10 77.8590 195.567   5
  -3   5  10-63.6039 205.201  14
  -3   5  10 359.323 218.954  19
   3  -5 -10-158.581 255.483  10
   3  -5  -9 142.588 161.234  15
  -3   5   9-237.991 211.834   4
  -3   5   9 159.321 227.813  19
  -3   5   9 318.212 239.237  14
  -3   5   9 235.436 236.514   5
   3  -5  -9 36.3920 187.432  10
   3  -5  -8 205.177 213.937  15
  -3   5   8 391.590 273.439   4
  -3   5   8 290.712 183.278  14
  -3   5   8 408.436 312.406   5
   3  -5  -8-46.8998 202.143  10
  -3   5   7 2446.01 597.540   9
   3  -5  -7 2346.33 471.907  15
  -3   5   7 1972.07 478.272   4
  -3   5   7 1816.17 405.153  14
  -3   5   7 2354.85 593.862   5
   3  -5  -7 2612.70 545.845  10
  -3   5   6 4443.56 780.886   9
   3  -5  -6 3506.93 594.135  15
  -3   5   6 3892.13 571.406  14
  -3   5   6 3971.83 647.757   4
  -3   5   6 5141.09 690.297  21
  -3   5   6 4553.91 802.204   5
   3  -5  -6 4025.96 650.897  10
  -3   5   5 1499.42 475.682   9
   3  -5  -5 1556.06 430.878  15
  -3   5   5 1695.90 429.308   4
  -3   5   5 1553.24 348.329  14
  -3   5   5 1944.62 419.351  21
   3  -5  -5 1279.92 393.497  10
  -3   5   4 1110.03 430.934   9
  -3   5   4 475.722 201.723   4
  -3   5   4 465.706 223.269   6
  -3   5   4 1172.36 349.990  21
   3  -5  -4 390.639 202.045  15
   3  -5  -4 418.077 234.157  10
  -3   5   3-90.3751 217.949   9
  -3   5   3 647.948 276.399  21
   3  -5  -3 407.598 261.695  15
  -3   5   3 289.176 235.291   4
  -3   5   3 323.358 215.579   6
   3  -5  -3 188.075 205.494  10
  -3   5   2 229.424 134.583  21
  -3   5   2 299.796 276.265   9
   3  -5  -2 285.061 190.172  15
  -3   5   2 391.087 224.284   4
  -3   5   2 314.604 195.529   6
   3  -5  -2 307.762 232.842  10
  -3   5   1 1084.19 422.537   9
   3  -5  -1 764.947 329.126  15
  -3   5   1 370.980 243.410   4
  -3   5   1 676.526 276.526   6
  -3   5   1 727.327 283.515  21
   3  -5  -1 1001.03 367.546  10
  -3   5   0 184.938 235.384   9
   3  -5   0 251.121 241.171  15
  -3   5   0 332.323 248.458  21
  -3   5   0 351.272 239.521   4
   3  -5   0 324.696 235.938  10
  -3   5  -1 5036.43 821.132   9
  -3   5  -1 3493.43 581.934   4
   3  -5   1 3049.54 611.937  15
   3  -5   1 3528.75 660.713   3
  -3   5  -1 4466.21 630.217  21
   3  -5   1 3057.54 582.483  10
  -3   5  -2 3930.10 739.858   9
   3  -5   2 4185.02 722.345  15
  -3   5  -2 3947.86 617.227   4
  -3   5  -2 4330.46 624.116  21
   3  -5   2 4378.73 737.934   3
   3  -5   2 3886.61 636.400  10
  -3   5  -3 1769.58 480.963   9
  -3   5  -3 1132.77 359.515   4
   3  -5   3 1525.89 455.864  15
  -3   5  -3 1618.86 398.469  21
   3  -5   3 1216.02 391.808   3
   3  -5   3 1211.43 356.533  10
  -3   5  -4 800.572 395.932   9
  -3   5  -4 723.426 280.491   4
   3  -5   4 980.289 386.676  15
  -3   5  -4 881.401 271.980  21
   3  -5   4 801.682 336.030   3
   3  -5   4 516.623 248.759  10
  -3   5  -5 118.686 221.680   9
  -3   5  -5-139.771 196.745   4
   3  -5   5-144.350 225.955  15
  -3   5  -5-341.125 249.997  21
   3  -5   5-72.7333 194.539   3
   3  -5   5-350.527 284.041  10
  -3   5  -6-172.414 185.957   4
  -3   5  -6 187.232 206.771   9
   3  -5   6 170.829 251.838  15
   3  -5   6-184.145 230.043   3
  -3   5  -6 298.429 203.000  21
   3  -5   6 268.664 193.630  10
  -3   5  -7-231.090 268.787   9
  -3   5  -7 221.595 203.341  21
   3  -5   7-169.313 183.438  10
   3  -5   7 426.427 275.275   3
   3  -5   8 811.198 377.876  15
  -3   5  -8 1033.23 462.937   9
   3  -5   8 1545.26 479.121   3
   3  -5   9 676.895 326.287  16
   3  -4 -16-516.949 326.299   1
   3  -4 -15 385.697 265.689   1
  -3   4  15 38.6291 213.019  14
  -3   4  14-61.5203 270.229  19
  -3   4  14-70.5790 209.875  14
   3  -4 -14 33.7095 237.336   1
   3  -4 -14 176.162 188.596  10
  -3   4  13 2193.11 575.192  14
   3  -4 -13 3015.41 665.324   1
  -3   4  13 2196.38 558.117  19
   3  -4 -13 1804.10 412.124  10
  -3   4  12 836.130 371.763  14
   3  -4 -12 796.125 362.971   1
  -3   4  12 1757.08 539.627  19
   3  -4 -12 933.066 332.125  10
  -3   4  11 2969.88 611.116   5
  -3   4  11 2378.58 562.560  14
   3  -4 -11 2344.00 569.783   1
  -3   4  11 3858.24 729.082  19
   3  -4 -11 2271.64 493.585  10
  -3   4  10 5415.70 800.538   5
  -3   4  10 4386.68 707.664  14
   3  -4 -10 4845.60 809.087   1
   3  -4 -10 4303.09 651.674  10
  -3   4  10 4857.70 798.245  19
  -3   4   9 2894.67 563.835  14
  -3   4   9 4048.58 689.213   5
   3  -4  -9 2461.96 550.635   1
  -3   4   9 3415.47 662.967  19
   3  -4  -9 1967.56 435.907  10
  -3   4   8 1003.65 338.386  14
   3  -4  -8 1126.94 378.441   1
  -3   4   8 1391.74 450.413   5
   3  -4  -8 974.741 321.252  10
  -3   4   7 1710.10 394.701  14
  -3   4   7 2157.75 495.536   5
  -3   4   7 2363.49 497.037  21
   3  -4  -7 1357.75 398.489  10
  -3   4   6 2814.99 442.129   6
  -3   4   6 3791.72 587.460  21
  -3   4   6 2934.28 532.166   4
  -3   4   6 2845.72 472.418  14
  -3   4   6 3121.34 600.183   5
   3  -4  -6 2514.87 537.670  10
  -3   4   5 5188.27 687.732   4
  -3   4   5 4545.60 712.959   9
  -3   4   5 4804.23 587.957  14
   3  -4  -5 5060.33 599.447  13
  -3   4   5 5105.87 594.206   6
  -3   4   5 5119.35 652.220  21
   3  -4  -5 4249.74 629.659  10
   3  -4  -4 5176.81 703.823  15
  -3   4   4 3397.15 659.553   9
  -3   4   4 4060.67 536.323  14
   3  -4  -4 5297.92 590.934  13
  -3   4   4 5065.82 587.290   6
  -3   4   4 4559.97 584.767  21
   3  -4  -4 5148.26 683.126  10
  -3   4   4 4360.67 637.964   4
  -3   4   3 7131.79 937.719   9
   3  -4  -3 10194.4 956.508  15
  -3   4   3 7493.08 710.295  14
   3  -4  -3 9881.87 771.771  13
  -3   4   3 10587.6 865.491   6
  -3   4   3 9703.54 866.886  21
   3  -4  -3 8541.35 882.087  10
  -3   4   3 7533.09 818.827   4
  -3   4   2 6394.93 840.575   9
   3  -4  -2 7065.82 803.652  10
   3  -4  -2 7219.38 824.277  15
   3  -4  -2 7101.90 625.269  13
  -3   4   2 6258.89 697.466  21
  -3   4   2 5398.95 570.780  14
  -3   4   2 7320.72 721.664   6
  -3   4   2 6082.85 727.991   4
  -3   4   1 1489.47 370.028  21
   3  -4  -1 1658.68 420.846  15
  -3   4   1 1504.14 376.887   4
  -3   4   1 1180.36 260.440  14
   3  -4  -1 1991.41 418.575  10
   3  -4  -1 2185.16 350.831  13
  -3   4   1 1550.42 419.520   9
  -3   4   0 11946.5 1113.07   9
   3  -4   0 12633.1 1083.91  15
  -3   4   0 10151.1 696.421  14
   3  -4   0 12414.3 782.763  13
  -3   4   0 12055.7 971.645  21
   3  -4   0 11989.3 1003.07  10
  -3   4   0 11713.4 965.531   4
  -3   4  -1 4147.66 652.305   9
  -3   4  -1 3614.31 539.477   4
   3  -4   1 3427.33 600.606  15
   3  -4   1 3759.73 414.446  13
   3  -4   1 3336.96 547.290  10
  -3   4  -1 3560.65 510.436  21
  -3   4  -2 1848.52 401.780   4
   3  -4   2 1506.98 389.185  15
  -3   4  -2 1370.51 331.597  21
  -3   4  -2 2036.71 461.983   9
   3  -4   2 2123.99 436.372  10
  -3   4  -3 1938.73 492.888   9
  -3   4  -3 1962.52 444.151   4
   3  -4   3 2157.87 473.611  15
   3  -4   3 1692.32 406.626  10
  -3   4  -3 1690.43 397.468  21
   3  -4   3 2101.34 480.629   3
  -3   4  -4 400.265 273.908   9
  -3   4  -4 519.847 272.884   4
   3  -4   4 511.240 252.910  15
  -3   4  -4 475.285 229.836  21
   3  -4   4 501.153 282.303   3
   3  -4   4 556.731 246.199  10
  -3   4  -5 496.244 303.543   9
  -3   4  -5 580.914 288.977   4
   3  -4   5 977.058 404.650  15
   3  -4   5 582.949 333.382   3
  -3   4  -5 672.670 259.611  21
   3  -4   5 709.606 280.762  10
  -3   4  -6 541.172 296.181   9
  -3   4  -6 282.134 210.128   4
   3  -4   6 131.713 202.455  15
  -3   4  -6 202.017 176.939  21
   3  -4   6-33.4937 169.941   3
   3  -4   6 15.7572 167.925  10
  -3   4  -7 528.418 260.351   4
  -3   4  -7 269.609 242.155   9
   3  -4   7 591.940 293.067  15
   3  -4   7 761.165 338.223   3
  -3   4  -7 572.968 281.706  21
   3  -4   7 354.796 221.558  10
  -3   4  -8 2738.54 512.829   4
  -3   4  -8 2444.09 576.742   9
   3  -4   8 2903.04 596.728  15
  -3   4  -8 2941.20 582.754  21
   3  -4   8 3345.49 635.067   3
   3  -4   8 2104.31 408.675  10
  -3   4  -9 1491.02 394.393   4
  -3   4  -9 1040.15 428.533   9
   3  -4   9 2048.61 505.632  15
  -3   4  -9 1771.83 475.052  21
   3  -4   9 1155.70 404.523   3
  -3   4 -10 207.856 201.893   4
  -3   4 -10 149.440 242.233   9
   3  -4  10 263.538 248.737  15
  -3   4 -10 326.308 251.885  21
   3  -4  10-246.187 239.084   3
   3  -4  11 235.753 199.541   3
  -3   4 -11 404.048 224.485   4
  -3   4 -11 192.832 273.645   9
   3  -4  11 453.283 320.085  15
  -3   4 -11 922.957 381.587  21
  -3   4 -12 614.154 285.278   4
  -3   4 -12 1294.78 492.852  21
  -3   4 -13 650.972 400.418  21
   3  -3 -18 595.067 396.601   1
   3  -3 -17 638.955 337.098   8
   3  -3 -17 868.324 395.161   1
  -3   3  17 749.205 362.295  19
  -3   3  16 91.4170 257.032  19
   3  -3 -16 149.278 219.036   8
   3  -3 -16 27.0027 205.257   1
   3  -3 -15 297.803 271.228   8
  -3   3  15 156.350 238.409  19
   3  -3 -15 281.933 262.357   1
   3  -3 -14 842.011 323.526   8
  -3   3  14 1457.70 448.969  19
   3  -3 -14 1186.27 444.304   1
   3  -3 -14 434.868 181.701  10
  -3   3  13 6140.63 852.591  19
   3  -3 -13 5504.40 759.089   8
  -3   3  13 5255.21 800.843  14
   3  -3 -13 4695.20 611.499  10
   3  -3 -13 5657.61 810.820   1
   3  -3 -12 4708.13 712.438   8
  -3   3  12 4968.90 781.362  14
  -3   3  12 5774.25 839.384  19
   3  -3 -12 5268.77 656.752  10
   3  -3 -12 5133.15 761.128   1
   3  -3 -11 2647.13 513.586   8
  -3   3  11 2964.82 598.390  14
   3  -3 -11 3832.39 660.188   1
  -3   3  11 4130.39 699.857  19
   3  -3 -11 2575.68 474.132  10
   3  -3 -10 243.676 242.883   8
   3  -3 -10-149.111 211.751  10
  -3   3  10 314.640 258.884  14
  -3   3  10 425.393 316.353  19
   3  -3 -10 468.279 316.743   1
  -3   3  10 735.199 317.480   5
  -3   3   9 6155.40 774.863  14
   3  -3  -9 5177.01 635.796  10
  -3   3   9 6692.34 797.063   5
  -3   3   9 6225.58 855.220  19
   3  -3  -9 5214.49 767.234   1
  -3   3   8 589.716 234.566  14
   3  -3  -8 192.702 179.877  13
   3  -3  -8 536.198 291.848   1
  -3   3   8 800.527 323.127   5
  -3   3   8 563.151 188.195  18
   3  -3  -8 210.492 149.546  10
  -3   3   7 3322.61 556.909  21
  -3   3   7 1648.23 393.770  14
   3  -3  -7 2052.69 392.644  13
   3  -3  -7 2294.93 519.698   1
  -3   3   7 2670.68 506.316   5
   3  -3  -7 2129.33 413.931  10
  -3   3   6 4581.57 604.182  14
   3  -3  -6 5253.03 625.399  13
  -3   3   6 4077.86 612.853   5
  -3   3   6 4616.83 641.950  21
   3  -3  -6 4380.01 588.768  10
  -3   3   5 810.146 325.706   4
  -3   3   5 1081.64 281.590  14
   3  -3  -5 1202.14 308.000  13
  -3   3   5 740.674 197.788   6
  -3   3   5 1125.72 320.704  21
   3  -3  -5 943.092 249.949  10
  -3   3   4 12726.7 1008.30   4
  -3   3   4 11266.7 1089.35   9
  -3   3   4 12619.3 914.884  14
   3  -3  -4 14094.6 965.616  13
   3  -3  -4 13011.2 979.372  10
  -3   3   4 13464.8 813.562   6
  -3   3   4 14282.8 1026.71  21
  -3   3   3 33916.9 1754.68   9
  -3   3   3 27125.2 978.434   2
  -3   3   3 31067.8 1404.04  14
  -3   3   3 31510.9 1581.55   4
   3  -3  -3 33549.4 1446.46  13
  -3   3   3 33104.5 1581.52  21
  -3   3   3 31519.9 1273.87   6
  -3   3   2 16527.6 1168.13   9
  -3   3   2 13639.0 589.882   2
  -3   3   2 15183.8 952.379  14
   3  -3  -2 17635.1 1000.25  13
  -3   3   2 17822.0 977.928   6
  -3   3   2 15970.2 1082.35  21
  -3   3   2 14448.7 1072.03   4
  -3   3   1 3026.87 210.873   2
  -3   3   1 3924.68 580.985   9
   3  -3  -1 4711.77 655.694  15
  -3   3   1 2969.46 544.414   4
  -3   3   1 3873.26 469.874  14
   3  -3  -1 4188.01 486.228  13
  -3   3   1 3592.18 516.511  21
  -3   3   0 10378.6 958.269   9
   3  -3   0 11295.1 961.859  15
  -3   3   0 10200.8 711.486  14
  -3   3   0 10195.2 868.080  21
   3  -3   0 11903.3 777.126  13
  -3   3   0 10213.0 916.127   4
   3  -3   1 9622.55 880.824  15
  -3   3  -1 7208.17 710.528  21
  -3   3  -1 7687.62 598.327  14
  -3   3  -1 8930.82 866.231   9
   3  -3   1 8968.97 657.758  13
  -3   3  -1 8088.69 769.726   4
  -3   3  -1 6719.27 352.627  17
   3  -3   2 16020.6 1162.72  15
  -3   3  -2 14805.5 1165.43   9
  -3   3  -2 13684.3 808.105  14
  -3   3  -2 12495.3 586.619  17
   3  -3   2 15872.4 855.590  13
  -3   3  -2 14604.4 1027.13  21
   3  -3   2 12162.1 517.640  20
  -3   3  -2 15057.8 1077.08   4
  -3   3  -3 4585.09 610.146  21
   3  -3   3 5198.47 689.940  15
  -3   3  -3 5284.10 415.485  17
  -3   3  -3 4331.18 456.292  14
  -3   3  -3 5844.13 722.316   9
   3  -3   3 4567.02 446.407  13
   3  -3   3 5402.07 396.591  20
  -3   3  -3 4750.88 629.193   4
  -3   3  -4 1898.00 431.285   9
  -3   3  -4 1382.95 397.815   4
   3  -3   4 1732.01 417.360  15
  -3   3  -4 1711.22 283.677  17
  -3   3  -4 1742.94 283.704  14
   3  -3   4 1921.54 293.220  13
  -3   3  -4 2189.10 438.604  21
   3  -3   4 1544.53 235.730  20
  -3   3  -5 179.555 112.699  17
  -3   3  -5 507.639 290.039   9
   3  -3   5 379.424 287.625   3
  -3   3  -5 472.754 263.852   4
   3  -3   5 239.168 217.132  15
  -3   3  -5 321.439 121.225  14
   3  -3   5 460.789 169.519  13
  -3   3  -5 546.304 293.474  21
   3  -3   5 228.832 137.572  20
   3  -3   5 498.840 209.494  10
  -3   3  -6 2508.29 540.307   9
  -3   3  -6 3130.88 527.625   4
   3  -3   6 3302.83 593.334  15
   3  -3   6 1934.40 483.663   3
   3  -3   6 3113.92 363.267  13
  -3   3  -6 2789.29 399.002  17
  -3   3  -6 3621.08 572.441  21
   3  -3   6 2867.08 380.578  20
   3  -3   6 2688.33 426.441  10
  -3   3  -7 1961.89 434.888   4
  -3   3  -7 992.013 378.830   9
   3  -3   7 1499.56 385.774  15
  -3   3  -7 1361.60 308.644  17
  -3   3  -7 1857.49 434.917  21
   3  -3   7 1270.28 298.454  10
   3  -3   7 1546.35 430.305   3
   3  -3   7 1236.99 265.155  20
  -3   3  -8 1093.49 281.661  17
  -3   3  -8 1107.53 354.904   4
  -3   3  -8 1588.51 443.284   9
   3  -3   8 948.625 344.411  15
   3  -3   8 1390.95 310.604  20
  -3   3  -8 1437.75 399.101  21
   3  -3   8 1473.66 429.683   3
   3  -3   8 1168.23 270.423  10
  -3   3  -9 759.525 260.112  17
  -3   3  -9 1151.16 346.658   4
  -3   3  -9 774.504 386.854   9
   3  -3   9 1073.94 391.256  15
   3  -3   9 997.125 292.572  20
  -3   3  -9 1615.12 456.308  21
   3  -3   9 1031.95 393.363   3
   3  -3   9 818.175 255.610  10
  -3   3 -10-343.574 255.506   9
   3  -3  10-615.489 295.898  15
  -3   3 -10 113.914 149.232  17
  -3   3 -10-1.21027 185.897  21
   3  -3  10 218.942 250.935   3
   3  -3  10-88.1013 170.973  20
  -3   3 -10-131.664 158.939   4
  -3   3 -11 1572.76 393.701  17
  -3   3 -11 1256.83 398.086   4
  -3   3 -11 1084.80 415.614   9
   3  -3  11 1016.56 338.877  15
  -3   3 -11 2149.96 552.555  21
   3  -3  11 1523.48 469.532   3
   3  -3  11 1351.66 399.896  20
  -3   3 -12 3377.95 570.602  17
  -3   3 -12 2830.88 622.768   9
   3  -3  12 4055.85 698.926  15
   3  -3  12 4599.45 761.304   3
  -3   3 -12 5050.77 795.203  21
   3  -3  12 4215.62 657.844  20
  -3   3 -12 4569.79 720.124   4
  -3   3 -13 356.394 260.133  17
  -3   3 -13 957.259 365.137   4
  -3   3 -13-199.852 206.259   9
  -3   3 -13 870.395 363.547  21
   3  -3  13 503.318 274.199  15
   3  -3  13 444.152 296.674   3
   3  -3  13 832.017 332.713  20
  -3   3 -14 161.804 203.319  17
  -3   3 -14 391.155 262.662   4
   3  -3  14 32.3216 179.726  15
  -3   3 -14 165.980 292.831  21
   3  -3  14 337.865 314.789   3
   3  -3  14 704.857 328.192  20
  -3   3 -15 91.4278 283.257  17
  -3   3 -15 614.205 350.801   4
  -3   3 -15 88.0030 201.216  21
   3  -3  15 285.502 309.145  20
   3  -3  16 89.2199 196.827  20
   3  -2 -19 1196.69 419.552   1
   3  -2 -19 825.524 377.557   8
  -3   2  19 2276.58 618.254  19
   3  -2 -19 1378.36 469.432  17
   3  -2 -18 1513.84 482.852   1
   3  -2 -18 1082.37 412.664   8
  -3   2  18 1989.66 569.112  19
   3  -2 -17 353.595 259.017   1
  -3   2  17 155.338 284.591  11
   3  -2 -17 616.127 289.308   8
  -3   2  17 720.131 360.279  19
   3  -2 -16 467.309 293.887   1
   3  -2 -16 96.3175 251.914   8
  -3   2  16-8.12318 222.901  11
  -3   2  16 391.028 279.685  19
   3  -2 -15-105.815 175.943   1
  -3   2  15 609.619 318.437  19
   3  -2 -15 88.8609 207.939   8
  -3   2  15 18.9521 210.273  11
   3  -2 -14 414.855 236.292   1
   3  -2 -14 733.189 318.638   8
  -3   2  14 182.401 287.334  11
  -3   2  14 1092.12 427.818  19
   3  -2 -14 705.090 242.751  10
   3  -2 -13 2267.96 488.093   1
   3  -2 -13 2307.41 486.572   8
  -3   2  13 1334.84 308.592  20
  -3   2  13 1892.21 527.063  11
  -3   2  13 2168.79 508.995  19
   3  -2 -13 1630.62 339.889  10
   3  -2 -12 1950.12 373.989  10
   3  -2 -12 2907.45 547.927   1
   3  -2 -12 2705.13 528.857   8
  -3   2  12 1928.26 344.950  20
  -3   2  12 2250.62 471.642  19
   3  -2 -11 4776.61 654.060   8
  -3   2  11 4717.71 695.387  14
   3  -2 -11 4506.94 637.082   1
  -3   2  11 3733.14 442.846  20
  -3   2  11 6174.90 762.911  19
   3  -2 -11 3963.96 509.417  10
   3  -2 -10 937.278 321.676   8
  -3   2  10 1404.14 404.559  14
   3  -2 -10 1623.76 419.987  13
  -3   2  10 1119.14 242.574  20
  -3   2  10 1133.27 381.132  19
   3  -2 -10 1112.87 324.504   1
   3  -2 -10 1267.05 309.534  10
   3  -2  -9 4686.52 637.155   8
  -3   2   9 5053.74 672.708  14
   3  -2  -9 5606.53 682.317  13
  -3   2   9 4509.91 419.223  20
  -3   2   9 4483.16 635.182  19
   3  -2  -9 5288.97 672.563   1
  -3   2   9 5151.73 352.752  18
   3  -2  -8 3305.35 515.670   8
  -3   2   8 3074.40 305.784  18
  -3   2   8 3664.60 559.384  14
   3  -2  -8 3981.27 566.779  13
  -3   2   8 3692.02 341.269  20
  -3   2   8 3784.87 543.770   5
  -3   2   8 3576.25 577.330  19
   3  -2  -8 4454.08 600.205   1
   3  -2  -7 5922.69 684.412   8
  -3   2   7 6129.74 698.865  14
  -3   2   7 4663.27 348.166  20
   3  -2  -7 7090.86 734.014  13
  -3   2   7 7560.48 791.721  21
  -3   2   7 8144.55 751.027   5
   3  -2  -7 6846.00 715.090   1
  -3   2   7 7004.60 461.554  18
   3  -2  -6 11492.5 934.716   8
  -3   2   6 10950.2 888.242  14
   3  -2  -6 12616.1 943.020  13
  -3   2   6 11830.8 968.965  21
  -3   2   6 11233.3 889.669   5
   3  -2  -6 12418.7 971.268   1
   3  -2  -6 10754.7 649.600  17
   3  -2  -5 16716.9 1119.97   8
  -3   2   5 17561.3 1097.39  14
   3  -2  -5 18568.8 1113.84  13
  -3   2   5 18326.1 1154.93  21
  -3   2   5 19699.8 1154.32   5
   3  -2  -5 17130.5 1100.93   1
   3  -2  -5 15006.3 721.790  17
  -3   2   4 11543.0 683.137   2
  -3   2   4 13826.7 919.934  14
  -3   2   4 14004.4 992.832   4
   3  -2  -4 13432.2 919.250  13
   3  -2  -4 11792.0 597.596  17
  -3   2   4 12955.1 635.442   6
  -3   2   4 13118.6 962.428  21
  -3   2   3 5639.76 637.463   4
  -3   2   3 4538.96 686.209   9
  -3   2   3 5639.41 442.695   2
   3  -2  -3 5860.10 388.390  17
  -3   2   3 7020.93 649.988  14
   3  -2  -3 7324.08 648.969  13
  -3   2   3 6095.44 434.670   6
  -3   2   3 5628.31 641.427  21
  -3   2   2 2307.90 252.235   2
  -3   2   2 1792.03 382.146   9
  -3   2   2 2279.41 436.611   4
  -3   2   2 2105.23 376.436  14
   3  -2  -2 2900.08 406.615  13
  -3   2   2 2230.67 274.023   6
   3  -2  -2 1986.93 221.373  17
  -3   2   2 2162.97 405.864  21
  -3   2   1-49.7077 206.584   9
   3  -2  -1 223.895 76.3080  17
  -3   2   1 585.791 236.717   4
  -3   2   1 356.674 194.429  14
  -3   2   1 408.626 102.754   2
   3  -2  -1 498.902 212.710  13
  -3   2   1 101.280 181.627  21
   3  -2   0 1077.04 162.075  17
  -3   2   0 1057.08 167.285  17
  -3   2   0 1234.48 301.901   9
  -3   2   0 949.004 281.835   4
  -3   2   0 920.175 116.159   2
  -3   2   0 1375.95 276.345  14
   3  -2   0 1613.30 290.820  13
  -3   2   0 733.255 241.768  21
  -3   2  -1 5127.01 586.275   9
   3  -2   1 5173.55 587.960  15
  -3   2  -1 4110.04 434.576  14
  -3   2  -1 4451.23 367.914  17
   3  -2   1 4854.95 474.138  13
  -3   2  -1 4398.82 562.958  21
   3  -2   1 4602.87 359.238  17
  -3   2  -1 4115.49 528.528   4
  -3   2  -2 11117.9 890.221   9
   3  -2   2 10532.8 855.965  15
  -3   2  -2 9825.53 683.208  14
   3  -2   2 11290.7 727.285  13
  -3   2  -2 10526.6 840.591  21
   3  -2   2 10016.0 562.833  17
  -3   2  -2 11621.1 891.070   4
  -3   2  -2 10737.5 613.054  17
  -3   2  -3 13464.5 960.016   9
  -3   2  -3 13596.9 730.742  17
   3  -2   3 14109.2 993.891  15
  -3   2  -3 11835.2 746.541  14
   3  -2   3 13924.0 802.424  13
  -3   2  -3 11951.1 931.977  21
  -3   2  -3 12103.8 921.635   4
  -3   2  -4 7118.66 569.680  14
  -3   2  -4 7253.97 726.630   9
   3  -2   4 7779.09 606.412  13
  -3   2  -4 8284.10 788.061  21
   3  -2   4 8802.34 800.285  15
  -3   2  -4 7533.06 792.721   4
  -3   2  -4 7343.16 577.048  17
   3  -2   5 9089.92 823.697  15
  -3   2  -5 8493.10 621.159  14
  -3   2  -5 9444.61 868.542  21
   3  -2   5 8260.61 634.107  13
  -3   2  -5 9014.59 833.183   9
  -3   2  -5 7884.74 811.303   4
  -3   2  -5 8877.90 671.171  17
  -3   2  -6 4844.27 638.823   9
   3  -2   6 5242.63 647.025  15
  -3   2  -6 4848.59 504.457  14
  -3   2  -6 5287.22 538.959  17
   3  -2   6 5426.86 532.452  13
  -3   2  -6 4495.70 616.216   4
  -3   2  -6 6158.10 718.526  21
  -3   2  -7 3921.27 586.858   9
   3  -2   7 3548.40 604.596  15
   3  -2   7 4088.80 489.449  13
  -3   2  -7 5797.31 730.694  21
   3  -2   7 3799.27 640.160   3
  -3   2  -7 4712.18 609.774   4
  -3   2  -7 4695.52 534.970  17
  -3   2  -8 2385.81 412.980  17
  -3   2  -8 1400.42 373.709   9
  -3   2  -8 2265.75 482.092   4
   3  -2   8 1903.78 425.813  15
   3  -2   8 2243.00 384.648  13
  -3   2  -8 2372.46 491.602  21
   3  -2   8 1937.36 439.348   3
   3  -2   8 1240.96 259.197  11
  -3   2  -9 2756.41 548.758   9
  -3   2  -9 2522.46 491.627   4
   3  -2   9 2805.55 525.500  15
   3  -2   9 3384.51 470.559  13
   3  -2   9 2518.31 393.109  11
  -3   2  -9 3337.27 598.821  21
   3  -2   9 1960.17 471.543   3
  -3   2  -9 3042.36 498.925  17
  -3   2 -10 528.392 248.934  17
  -3   2 -10 889.648 326.828   4
  -3   2 -10 278.020 223.091   9
   3  -2  10 526.568 309.850  15
   3  -2  10 638.324 227.548  13
   3  -2  10 521.326 263.655   3
  -3   2 -10 968.340 409.723  21
   3  -2  10 680.092 227.925  11
  -3   2 -11 925.963 294.774  17
  -3   2 -11 1604.80 426.783   4
  -3   2 -11 1024.39 397.062   9
   3  -2  11 1674.69 454.383  15
   3  -2  11 1689.07 341.402  13
  -3   2 -11 1696.51 454.712  21
   3  -2  11 1060.90 369.917   3
  -3   2 -12 1247.57 373.072   4
  -3   2 -12 726.349 388.274   9
  -3   2 -12 1598.74 412.021  17
   3  -2  12 1498.55 404.273  15
   3  -2  12 1367.56 403.002   3
  -3   2 -12 2016.07 507.685  21
  -3   2 -13-37.3875 197.362   4
  -3   2 -13 612.023 351.132   9
  -3   2 -13 173.822 217.319  17
   3  -2  13 297.169 234.420  15
  -3   2 -13 189.335 264.816  21
   3  -2  13-26.7038 198.184   3
  -3   2 -14 297.113 267.220   4
  -3   2 -14-21.9171 200.479   9
   3  -2  14-381.757 260.051  15
  -3   2 -14 574.720 346.985  17
  -3   2 -14 38.6705 234.181  21
   3  -2  14 204.903 194.979   3
  -3   2 -15 202.154 268.638  17
  -3   2 -15 667.293 340.756   4
  -3   2 -15 157.599 263.333   9
   3  -2  15 269.035 197.366  15
   3  -2  15 296.652 330.595  20
  -3   2 -15-246.639 269.132  21
   3  -2  15 92.0711 210.532   3
  -3   2 -16 1656.80 506.332  17
  -3   2 -16 2192.96 624.385  21
   3  -2  16 1557.39 490.619  15
   3  -2  16 1158.87 450.318   3
  -3   2 -16 1713.43 496.922   4
   3  -2  16 1551.53 491.871  20
  -3   2 -17 508.287 298.395  17
   3  -2  17 632.394 384.154  15
   3  -2  17 937.758 444.778   3
   3  -2  17 977.206 439.893  20
   3  -1 -20 0.36251 172.194   8
  -3   1  20 362.716 299.805  19
   3  -1 -19-52.2824 191.194   8
  -3   1  19-107.383 232.213  20
  -3   1  19 395.792 287.206  19
   3  -1 -18-113.211 186.926   8
   3  -1 -18 278.834 228.941   1
  -3   1  18-90.4902 163.837  20
  -3   1  18-314.039 270.491  19
   3  -1 -17 516.976 292.633   8
   3  -1 -17 1019.30 379.993   1
  -3   1  17 1313.58 401.890  20
  -3   1  17 1045.78 396.758  19
   3  -1 -16 55.2522 170.268   1
  -3   1  16 269.778 244.925  20
   3  -1 -16 94.1734 221.564   8
  -3   1  16 46.5676 183.738  19
   3  -1 -15 563.633 231.319   1
   3  -1 -15-68.8230 198.757   8
  -3   1  15 385.344 306.894  11
  -3   1  15 103.923 130.720  20
  -3   1  15 407.693 304.436  19
   3  -1 -14 144.658 186.699   1
   3  -1 -14 506.587 266.536   8
  -3   1  14-84.5802 180.153  20
  -3   1  14 468.488 277.813  19
   3  -1 -13 4404.64 618.266   1
   3  -1 -13 4003.50 628.703   8
  -3   1  13 4095.38 555.996  20
  -3   1  13 5571.02 724.532  19
   3  -1 -13 3423.05 428.028  10
   3  -1 -12 580.478 265.828   1
   3  -1 -12 694.274 272.199   8
  -3   1  12 536.661 247.277  20
  -3   1  12 393.707 264.533  19
   3  -1 -12 499.356 208.229  10
   3  -1 -11 3648.54 548.263   1
  -3   1  11 3529.83 459.434  20
   3  -1 -11 3690.25 559.370   8
  -3   1  11 4323.43 653.997  14
   3  -1 -11 4033.03 636.478  13
  -3   1  11 4630.61 620.681  19
   3  -1 -10 6786.78 680.801   1
   3  -1 -10 6533.28 719.158   8
  -3   1  10 6829.21 771.609  14
   3  -1 -10 6668.02 768.239  13
  -3   1  10 5884.20 553.544  20
  -3   1  10 6997.21 716.110  19
   3  -1  -9 9061.81 829.171   8
  -3   1   9 8804.57 842.897  14
   3  -1  -9 10471.8 933.405  13
  -3   1   9 9293.68 675.536  20
  -3   1   9 8926.80 798.083  19
   3  -1  -9 9999.81 801.802   1
  -3   1   8 1393.44 249.396  20
  -3   1   8 1534.32 351.921  19
   3  -1  -8 1720.05 382.843   8
  -3   1   8 778.847 288.419  14
   3  -1  -8 1418.58 364.303  13
   3  -1  -8 1358.74 311.153   1
   3  -1  -7 12248.8 920.121   8
  -3   1   7 11376.9 923.554  14
  -3   1   7 12790.7 894.709  19
  -3   1   7 12844.2 1002.49  21
   3  -1  -7 11579.4 912.124  13
   3  -1  -7 8398.95 544.507   6
  -3   1   7 11691.9 652.136  20
  -3   1   7 13121.4 850.631   5
   3  -1  -7 12348.9 826.228   1
   3  -1  -6 16196.7 1039.61   8
  -3   1   6 17205.4 1064.01  14
   3  -1  -6 16679.2 1054.36  13
  -3   1   6 17916.4 1134.47  21
   3  -1  -6 9975.91 550.697   6
  -3   1   6 13239.3 655.204  20
  -3   1   6 17982.6 948.413   5
   3  -1  -6 14825.3 906.141   1
  -3   1   5 25455.9 868.336  20
  -3   1   5 25527.8 1109.74   2
   3  -1  -5 29322.4 1386.27   8
  -3   1   5 30367.6 1375.85  14
   3  -1  -5 30508.3 1389.61  13
  -3   1   5 30982.5 1431.61  21
  -3   1   5 28883.3 1215.24   5
   3  -1  -5 27736.2 1223.11   1
   3  -1  -4 29156.7 1252.49   1
  -3   1   4 27855.2 1104.11   2
   3  -1  -4 31651.6 1411.65   8
  -3   1   4 29658.8 1204.89   5
  -3   1   4 29641.5 1322.77  14
   3  -1  -4 33196.3 1398.80  13
   3  -1  -4 27572.4 1054.73  17
  -3   1   3 23267.5 1241.58   4
  -3   1   3 23384.6 936.737   2
   3  -1  -3 25378.4 1272.63   8
  -3   1   3 26272.7 1198.49  14
   3  -1  -3 27177.0 1202.10  13
   3  -1  -3 21702.9 901.395  17
   3  -1  -3 24277.9 679.693  20
  -3   1   2 15695.0 966.484   4
  -3   1   2 13495.4 646.733   2
  -3   1   2 12102.0 853.389   9
   3  -1  -2 15178.5 965.282   8
  -3   1   2 13593.1 856.591  14
   3  -1  -2 14981.9 860.394  13
   3  -1  -2 11533.5 426.394  20
  -3   1   2 12257.8 422.417   6
   3  -1  -2 13036.2 658.651  17
  -3   1   1 6887.16 422.531   2
  -3   1   1 6862.05 591.783  14
   3  -1  -1 8028.97 625.378  13
   3  -1  -1 6265.18 444.585  17
  -3   1   1 4421.61 281.995   6
   3  -1  -1 5151.95 282.742  20
  -3   1   1 7039.91 585.276   9
  -3   1   1 6870.75 667.967   4
  -3   1   1 6222.39 443.074  17
  -3   1   0 40034.3 1415.00   9
  -3   1   0 40892.7 1399.52  14
   3  -1   0 42970.2 1458.92  13
   3  -1   0 40239.5 1204.39  17
  -3   1   0 42885.2 1263.45  17
  -3   1   0 40345.5 1557.90   4
  -3   1  -1 26564.1 1127.39   9
  -3   1  -1 24604.8 1051.42  14
   3  -1   1 26344.5 1111.95  13
   3  -1   1 25090.4 923.120  17
  -3   1  -1 24419.0 992.363  17
  -3   1  -1 25456.7 755.949   2
  -3   1  -1 27113.1 1264.97   4
   3  -1   2 1140.06 203.702  17
  -3   1  -2 914.316 202.068  17
  -3   1  -2 811.005 198.861   9
  -3   1  -2 1037.90 277.972   4
  -3   1  -2 1015.22 228.479  14
   3  -1   2 1112.94 238.418  13
  -3   1  -2 822.353 286.137  21
   3  -1   3 118307. 2856.49  15
  -3   1  -3 115419. 2559.55  14
   3  -1   3 115178. 2569.94  13
  -3   1  -3 119719. 2735.70   9
  -3   1  -3 123496. 3006.80  21
  -3   1  -3 121432. 2966.35   4
  -3   1  -3 118149. 2519.10  17
  -3   1  -4 26339.4 1234.22   9
   3  -1   4 29023.0 1309.05  15
  -3   1  -4 28029.9 1113.91  14
   3  -1   4 27688.1 1145.40  13
  -3   1  -4 28863.6 1371.30  21
  -3   1  -4 26857.6 1335.84   4
  -3   1  -4 26373.6 1132.50  17
  -3   1  -5 38050.8 1565.58   9
   3  -1   5 43254.1 1647.88  15
   3  -1   5 41072.6 1471.87  13
  -3   1  -5 44191.0 1771.33  21
  -3   1  -5 41239.9 1507.61  17
  -3   1  -5 40058.2 1396.75  14
  -3   1  -5 41689.8 1694.96   4
  -3   1  -6 1204.83 340.334   9
  -3   1  -6 1122.96 298.162   4
   3  -1   6 1180.73 163.835   2
   3  -1   6 881.937 289.265  15
  -3   1  -6 959.438 252.586  14
  -3   1  -6 1069.58 291.905  21
   3  -1   6 777.911 226.292  13
  -3   1  -6 1128.46 277.988  17
  -3   1  -7 1625.09 379.142   9
  -3   1  -7 1294.75 317.987   4
   3  -1   7 789.404 185.450   2
   3  -1   7 1814.29 386.520  15
   3  -1   7 1940.63 340.856  13
  -3   1  -7 1346.52 319.537  21
  -3   1  -7 2025.91 382.818  17
  -3   1  -8 38704.9 1789.61   9
   3  -1   8 39506.7 1695.39  15
   3  -1   8 37345.1 1694.13   3
  -3   1  -8 43012.2 1876.56  21
   3  -1   8 32744.0 1104.62   2
   3  -1   8 41174.6 1574.48  11
  -3   1  -8 45116.3 1842.97   4
  -3   1  -8 43495.9 1720.60  17
  -3   1  -9 33035.3 1709.18   9
   3  -1   9 35765.5 1621.48  15
   3  -1   9 35940.4 1644.46   3
   3  -1   9 34718.8 1489.22  11
  -3   1  -9 36947.6 1811.67  21
  -3   1  -9 31837.0 1647.83   4
  -3   1  -9 35630.0 1626.44  17
  -3   1 -10 11402.6 1032.50   9
   3  -1  10 13557.3 1008.71  15
  -3   1 -10 14290.6 1139.97  21
   3  -1  10 13286.5 1020.47   3
   3  -1  10 11785.5 890.047  11
  -3   1 -10 12895.6 1076.76   4
  -3   1 -10 13531.5 1050.25  17
  -3   1 -11 2218.14 480.429  17
   3  -1  11 2904.06 440.703  11
  -3   1 -11 3253.30 571.697   4
  -3   1 -11 2183.91 511.249  21
  -3   1 -11 2159.47 497.869   9
   3  -1  11 2510.44 487.603  15
   3  -1  11 2717.21 506.389   3
  -3   1 -12 782.169 292.987  17
   3  -1  12 242.515 172.790  11
  -3   1 -12 262.428 204.003   4
  -3   1 -12 61.1851 194.166   9
   3  -1  12 426.552 242.921  15
   3  -1  12 249.167 207.319   3
  -3   1 -12 699.219 309.068  21
  -3   1 -13 3084.45 568.665  17
  -3   1 -13 2964.14 583.401   4
  -3   1 -13 2075.86 494.533   9
   3  -1  13 2350.20 487.054  15
   3  -1  13 2040.89 410.685  11
  -3   1 -13 3217.85 610.436  21
   3  -1  13 1778.89 447.605   3
  -3   1 -14 385.872 282.229  17
  -3   1 -14 179.421 222.204   4
  -3   1 -14 175.255 216.474   9
   3  -1  14 221.504 204.015  15
  -3   1 -14 413.543 284.967  21
   3  -1  14 407.285 253.772   3
   3  -1  14 229.941 187.154  11
  -3   1 -15-600.524 321.891  17
  -3   1 -15 322.652 279.187   4
   3  -1  15 226.279 278.829   3
  -3   1 -15 31.5186 249.111   9
   3  -1  15 124.528 204.631  15
  -3   1 -15 134.811 281.728  21
  -3   1 -16 2943.58 669.714  17
  -3   1 -16 1632.80 573.328   9
   3  -1  16 1784.39 452.019  15
  -3   1 -16 1874.52 503.511   4
  -3   1 -16 2536.31 607.835  21
   3  -1  16 2222.51 537.744   3
  -3   1 -17 1733.76 548.942  17
   3  -1  17 702.534 306.267  15
  -3   1 -17 875.362 361.680   4
   3  -1  17 903.207 354.219   3
  -3   1 -17 1679.76 543.000  21
  -3   1 -17 940.530 417.485   9
   3  -1  18 153.789 195.150  15
   3  -1  18-186.740 219.261   3
   3   0 -19 221.489 246.477   8
  -3   0  19 161.127 206.766  20
   3   0 -18 1178.90 422.283   8
  -3   0  18 1333.94 469.231  14
  -3   0  18 1619.36 520.824   2
  -3   0  18 1301.95 464.225  20
  -3   0  18 1257.62 414.027  19
   3   0 -17 345.688 251.094   8
  -3   0  17 359.349 273.399  14
   3   0 -17 209.064 196.840   1
  -3   0  17 587.960 345.130   2
  -3   0  17-99.4194 208.220  20
  -3   0  17 588.916 248.997  19
   3   0 -16 762.888 345.000   8
  -3   0  16 1135.58 415.115  14
   3   0 -16 709.570 277.548   1
  -3   0  16 759.218 312.158   2
  -3   0  16 602.512 293.358  20
  -3   0  16 1180.33 372.906  19
   3   0 -15 171.268 172.668   1
  -3   0  15 175.420 174.318  19
   3   0 -15 282.238 240.856   8
  -3   0  15 78.1227 175.656   2
  -3   0  15 47.6881 205.533  20
   3   0 -14 4244.05 590.653   1
   3   0 -14 4084.42 608.564   8
  -3   0  14 4173.13 684.919  14
  -3   0  14 4086.20 664.716   2
  -3   0  14 3132.80 558.212  20
  -3   0  14 4722.02 651.610  19
  -3   0  13 17694.4 1298.57   2
   3   0 -13 16742.3 1126.33   1
   3   0 -13 16959.7 1200.42   8
  -3   0  13 20075.4 1414.78  14
  -3   0  13 17969.7 1225.44  20
  -3   0  13 19394.1 1240.15  19
  -3   0  12 24931.1 1494.06   2
   3   0 -12 25351.4 1340.28   1
   3   0 -12 24663.4 1422.98   8
  -3   0  12 25808.1 1587.43  14
  -3   0  12 23215.7 1353.48  20
  -3   0  12 26873.2 1430.09  19
   3   0 -11 1883.78 410.772   8
  -3   0  11 2324.50 496.319  14
   3   0 -11 1930.53 368.952   1
   3   0 -11 2500.08 511.978  13
  -3   0  11 2080.04 431.674   2
  -3   0  11 1624.25 349.227  20
  -3   0  11 2045.52 416.175  19
   3   0 -10 1453.17 343.777   8
  -3   0  10 1760.65 428.422  14
   3   0 -10 1610.16 320.915   1
   3   0 -10 1586.59 391.697  13
  -3   0  10 1529.27 384.330   2
  -3   0  10 2178.28 385.555  20
  -3   0  10 1699.42 348.316  19
   3   0  -9 1998.69 331.020   1
   3   0  -9 1907.86 364.864   8
  -3   0   9 2084.16 435.619  14
   3   0  -9 2170.14 437.446  13
  -3   0   9 2028.68 392.711   2
  -3   0   9 1913.62 342.384  20
  -3   0   9 2266.08 391.908  19
   3   0  -8 1086.29 247.365   1
  -3   0   8 1602.28 344.988   2
   3   0  -8 1342.82 308.403   8
  -3   0   8 1383.13 371.661  14
   3   0  -8 1151.79 338.255  13
  -3   0   8 1260.05 277.381  20
  -3   0   8 1475.71 295.000  19
   3   0  -7 238.728 141.884   1
   3   0  -7-62.9681 144.907   8
  -3   0   7-7.31627 145.249  14
   3   0  -7-11.9449 210.405  13
  -3   0   7-66.9386 160.510   2
  -3   0   7-68.6306 109.724  20
  -3   0   7-10.5973 106.684  19
  -3   0   6 8582.66 685.443   2
   3   0  -6 8839.35 715.064   8
  -3   0   6 9452.35 786.019  14
  -3   0   6 8385.83 539.962   1
  -3   0   6 8473.80 661.234  19
  -3   0   6 8187.17 589.340  20
   3   0  -6 8088.37 566.869   1
  -3   0   5 607.192 162.420  20
  -3   0   5 940.249 180.316   1
   3   0  -5 941.385 253.523   8
  -3   0   5 820.337 257.537  14
   3   0  -5 839.068 133.270   6
  -3   0   5 1096.86 246.826   2
   3   0  -5 857.782 193.499  20
   3   0  -5 687.682 181.306   1
  -3   0   4 1984.89 240.937   1
  -3   0   4 1992.78 302.890   2
   3   0  -4 2142.46 389.094   8
  -3   0   4 2641.78 407.125  14
   3   0  -4 1750.86 154.986   6
  -3   0   4 2132.27 256.705   5
   3   0  -4 1785.26 245.880  20
  -3   0   4 1786.89 265.780  20
   3   0  -4 1889.74 277.257   1
  -3   0   3 13605.7 725.146   2
  -3   0   3 14012.5 635.283   1
   3   0  -3 15481.1 897.456   8
  -3   0   3 15123.7 880.151  14
  -3   0   3 11615.1 586.723   5
   3   0  -3 14012.0 631.668  20
  -3   0   3 12680.1 626.813  20
  -3   0   2 9118.89 726.957   4
  -3   0   2 8847.55 556.767   2
   3   0  -2 9055.17 711.546   8
  -3   0   2 8964.63 675.926  14
   3   0  -2 8528.55 586.857  17
   3   0  -2 8552.61 474.755  20
  -3   0   2 8686.67 504.780   1
  -3   0   1 6637.53 456.366   9
   3   0  -1 7775.30 485.816   2
   3   0  -1 7512.35 617.404   8
  -3   0   1 6302.14 552.879  14
   3   0  -1 6307.90 416.414  20
  -3   0   1 7228.30 478.162   1
   3   0  -1 5913.23 485.195  17
  -3   0   1 7380.90 615.660   4
  -3   0   1 6800.46 463.332   2
  -3   0   1 6416.06 528.678  17
  -3   0   0 2955.61 327.556   9
   3   0   0 3653.09 326.210   2
   3   0   0 4042.11 450.888   8
  -3   0   0 3686.71 402.388  14
  -3   0   0 2971.18 411.687   4
   3   0   0 3159.59 312.618  20
  -3   0   0 3455.84 332.860   2
   3   0   0 3242.95 345.914  17
  -3   0   0 3465.78 390.192  17
  -3   0  -1 5741.11 424.460   9
   3   0   1 6030.90 392.270   2
   3   0   1 4386.58 395.112   9
  -3   0  -1 6037.54 521.134  14
   3   0   1 5269.04 522.175  13
  -3   0  -1 5580.82 409.321   2
  -3   0  -1 5449.72 553.768   4
   3   0   1 4545.65 423.896  17
  -3   0  -1 4989.14 480.468  17
   3   0   2 53494.0 1257.49   2
  -3   0  -2 52401.3 1441.98   9
   3   0   2 50336.4 1420.91   9
  -3   0  -2 50149.4 1559.59  14
   3   0   2 52336.7 1622.88  13
  -3   0  -2 47486.2 1319.27   2
  -3   0  -2 55634.9 1731.51   4
  -3   0  -2 56394.9 1657.66  17
  -3   0  -3-80.4577 153.851  17
  -3   0  -3 355.773 173.203   9
   3   0   3 118.419 113.313   9
  -3   0  -3 299.981 214.410   4
  -3   0  -3 176.894 130.905  14
   3   0   3 90.6966 74.7650   2
   3   0   3 418.533 200.344  13
  -3   0  -4 4493.47 445.209   9
  -3   0  -4 4070.45 415.786  14
  -3   0  -4 4142.63 464.829  17
   3   0   4 4466.48 469.782  13
   3   0   4 4307.30 342.962   2
  -3   0  -4 3507.71 457.461   4
  -3   0  -5 6825.68 584.208   9
  -3   0  -5 7137.65 617.668  17
   3   0   5 6630.30 592.649  15
  -3   0  -5 6607.42 570.587  14
   3   0   5 6727.04 597.327  13
   3   0   5 7026.61 461.216   2
  -3   0  -5 7423.44 670.635   4
  -3   0  -6 778.808 233.446   9
  -3   0  -6 467.947 204.786   4
   3   0   6 396.464 150.004   2
  -3   0  -6 872.483 275.093  17
   3   0   6 507.284 208.818  15
  -3   0  -6 396.651 194.810  14
  -3   0  -7 10630.2 807.550   9
   3   0   7 11002.5 785.596  15
  -3   0  -7 11544.5 893.410  21
   3   0   7 10890.7 891.656  19
   3   0   7 10630.4 647.272   2
  -3   0  -7 10871.3 812.495   4
  -3   0  -7 12250.0 864.513  17
   3   0   8 3885.62 503.079  15
  -3   0  -8 5088.86 621.790  21
   3   0   8 6073.79 668.061  19
  -3   0  -8 5237.20 623.339   4
   3   0   8 4619.48 538.375  11
  -3   0  -8 5833.65 639.204  17
  -3   0  -8 4201.10 530.983   9
  -3   0  -9 1668.67 400.061  17
  -3   0  -9 914.363 263.899   9
  -3   0  -9 742.183 269.771   4
   3   0   9 752.507 276.662  15
  -3   0  -9 1287.49 346.537  21
   3   0   9 575.574 266.234  11
   3   0   9 693.114 259.942   3
   3   0   9 1097.06 329.260  19
  -3   0 -10 2116.32 442.676  17
  -3   0 -10 1895.30 393.288   9
  -3   0 -10 2624.48 503.284   4
   3   0  10 1975.06 418.307  15
  -3   0 -10 1945.30 436.125  21
   3   0  10 1966.68 396.816   3
   3   0  10 1350.61 369.899  11
   3   0  10 2377.64 498.026  19
   3   0  11 18416.0 1118.90  15
  -3   0 -11 15029.8 1139.24   9
   3   0  11 16740.9 1084.21   3
  -3   0 -11 18395.3 1291.79  21
   3   0  11 16863.0 1124.31  11
   3   0  11 19141.5 1321.08  19
  -3   0 -11 19429.6 1298.95   4
  -3   0 -11 18315.2 1265.83  17
  -3   0 -12 9060.59 928.877  21
   3   0  12 10259.9 867.949  15
   3   0  12 9675.31 965.505  19
   3   0  12 9318.17 841.196   3
   3   0  12 9263.41 832.559  11
  -3   0 -12 10684.0 978.332   4
  -3   0 -12 10255.1 973.786  17
  -3   0 -12 7341.80 859.324   9
   3   0  13 9748.12 884.767  15
   3   0  13 10612.0 933.064  11
  -3   0 -13 13385.3 1164.22  21
   3   0  13 11040.3 942.207   3
   3   0  13 11938.4 1109.95  19
  -3   0 -13 11754.8 1060.34   4
  -3   0 -13 11763.6 1103.16  17
  -3   0 -13 9581.50 983.406   9
  -3   0 -14 12688.2 1157.45  21
   3   0  14 10002.4 914.298  15
   3   0  14 10784.5 955.044   3
   3   0  14 9249.21 901.792  11
  -3   0 -14 11285.1 1080.45   4
   3   0  14 11196.9 1100.78  19
  -3   0 -14 11855.6 1144.19  17
  -3   0 -14 9081.30 1011.65   9
   3   0  15 931.310 301.578  15
   3   0  15 1051.33 335.810   3
  -3   0 -15 1320.73 428.767   4
  -3   0 -15 1966.33 523.315  21
   3   0  15 924.443 350.692  11
   3   0  15 1612.77 460.795  19
  -3   0 -15 950.600 385.705  17
  -3   0 -16 1230.57 423.834  17
  -3   0 -16 1527.91 448.915   4
   3   0  16 1516.69 398.703  15
  -3   0 -16 1423.60 432.144  21
   3   0  16 1345.68 381.162   3
   3   0  16 1688.50 435.330  11
   3   0  16 1184.49 409.798  19
  -3   0 -17 718.498 316.435  17
   3   0  17 581.201 276.804  15
  -3   0 -17 588.159 397.449   4
  -3   0 -17 329.871 342.945   1
  -3   0 -17 1066.72 399.603  21
   3   0  17 329.197 227.197   3
   3   0  17 658.227 321.222  11
   3   0  17 8.82522 180.308  19
  -3   0 -18 339.077 301.573  17
  -3   0 -18 387.482 333.646   4
  -3   0 -18 306.162 383.732   1
  -3   0 -18 523.121 305.579  21
   3   0  18 596.554 313.452  19
  -3  -1  19 785.349 417.060  14
   3   1 -19-370.214 266.007   8
  -3  -1  18 484.892 273.673  14
   3   1 -18 904.771 364.082   8
  -3  -1  18 426.451 278.473  20
  -3  -1  17 413.809 296.444  14
   3   1 -17 92.8333 162.701   8
  -3  -1  17 67.7392 199.007   2
  -3  -1  17-341.217 326.047  20
   3   1 -16 1500.24 392.386   1
  -3  -1  16 1560.59 465.075  20
  -3  -1  16 1396.81 415.190  14
   3   1 -16 1173.19 419.655   8
  -3  -1  16 941.685 388.687   2
  -3  -1  16 1825.89 431.884  19
   3   1 -15 339.004 224.119   1
  -3  -1  15-37.6962 185.633  14
   3   1 -15 749.921 331.643   8
  -3  -1  15 155.392 246.548   2
  -3  -1  15 685.587 290.917  19
  -3  -1  15-156.753 257.273  20
   3   1 -14 690.588 245.700   1
  -3  -1  14 404.505 253.186   2
  -3  -1  14 56.3185 186.398  14
   3   1 -14 1026.89 351.152   8
  -3  -1  14 598.086 264.890  20
  -3  -1  14 784.645 275.849  19
   3   1 -13 1241.47 313.049   1
  -3  -1  13 1448.49 398.099  14
   3   1 -13 1929.72 447.213   8
  -3  -1  13 1450.19 371.131   2
  -3  -1  13 1266.35 381.973  20
  -3  -1  13 1328.87 317.822  19
   3   1 -12 3716.48 479.352   1
   3   1 -12 4209.35 610.793   8
  -3  -1  12 4936.80 662.729  14
   3   1 -12 4860.15 717.396  13
  -3  -1  12 3327.59 347.243  12
  -3  -1  12 3963.39 619.467   2
  -3  -1  12 4752.54 652.488  20
  -3  -1  12 5688.98 595.567  19
  -3  -1  11 5961.03 720.006   2
   3   1 -11 5300.76 551.407   1
   3   1 -11 5607.21 691.818   8
  -3  -1  11 5663.62 690.956  14
   3   1 -11 6533.85 762.541  13
  -3  -1  11 4559.66 406.372  12
  -3  -1  11 5316.88 669.570  20
  -3  -1  11 6735.05 626.585  19
   3   1 -10 2512.19 368.393   1
  -3  -1  10 3371.28 426.792  19
  -3  -1  10 2183.69 439.160  14
   3   1 -10 2756.46 487.674   8
   3   1 -10 2852.53 498.261  13
  -3  -1  10 1813.27 258.194  12
  -3  -1  10 3033.36 485.759   2
  -3  -1  10 2192.92 420.196  20
  -3  -1   9 9085.67 810.380   2
   3   1  -9 8430.07 598.137   1
   3   1  -9 9526.89 775.617   8
  -3  -1   9 8851.42 800.594  14
   3   1  -9 10090.6 861.415  13
  -3  -1   9 8762.24 782.016  20
  -3  -1   9 9448.02 660.495  19
  -3  -1   8 26473.7 1333.59   2
   3   1  -8 25969.5 1276.90   8
  -3  -1   8 25923.8 1295.06  14
   3   1  -8 25968.6 1395.58  13
   3   1  -8 23500.3 974.800   1
  -3  -1   8 27375.3 1288.10  20
  -3  -1   8 26000.8 1076.77  19
  -3  -1   7 14556.5 947.014   2
  -3  -1   7 12039.7 699.774   9
   3   1  -7 12825.9 661.354   1
   3   1  -7 14718.6 922.276   8
  -3  -1   7 13781.9 932.682  14
   3   1  -7 13501.2 933.532  13
   3   1  -7 12968.1 664.806   5
  -3  -1   7 14024.4 889.706  20
  -3  -1   7 14414.0 751.188  19
  -3  -1   6 13429.8 879.577   2
   3   1  -6 11890.8 584.146   1
   3   1  -6 14583.3 874.414   8
  -3  -1   6 12937.3 855.108  14
  -3  -1   6 12300.5 651.687  19
   3   1  -6 14913.9 931.046  13
   3   1  -6 10596.4 549.953   5
  -3  -1   6 13868.7 844.740  20
  -3  -1   6 13548.4 672.086   9
  -3  -1   5 9740.18 708.943   2
   3   1  -5 8215.04 435.222   1
   3   1  -5 8233.18 653.300   8
  -3  -1   5 8651.86 694.941  14
  -3  -1   5 7353.59 496.909  19
  -3  -1   5 9230.26 725.931  21
  -3  -1   5 7651.57 621.831  20
  -3  -1   5 9480.14 506.664   9
   3   1  -4 7055.28 565.264   8
  -3  -1   4 6608.83 597.084  14
  -3  -1   4 6869.20 385.766   9
  -3  -1   4 5786.33 579.595   2
  -3  -1   4 7154.74 572.694  20
   3   1  -4 5591.79 317.664   1
  -3  -1   3 31744.7 1199.91   2
   3   1  -3 33112.3 1240.91   8
  -3  -1   3 33537.5 1306.38  14
  -3  -1   3 35263.0 1217.78  20
  -3  -1   2 21120.2 936.547   2
  -3  -1   2 22324.9 1023.48   4
  -3  -1   2 18290.2 449.861   1
   3   1  -2 22696.3 981.498   8
  -3  -1   2 21669.0 985.819  14
   3   1  -2 21269.3 900.920  20
  -3  -1   2 18311.3 574.989  18
  -3  -1   1 59912.7 1747.48  17
   3   1  -1 56805.9 1542.85   8
  -3  -1   1 58733.7 1601.91  14
   3   1  -1 49875.0 830.354   6
   3   1  -1 59469.1 1536.11  20
  -3  -1   1 55904.7 1589.28   4
  -3  -1   1 55145.5 1502.30   2
  -3  -1   1 53242.4 1121.59  18
  -3  -1   0 25347.8 613.923   9
   3   1   0 32042.5 1088.01   2
   3   1   0 29525.1 1129.73   8
  -3  -1   0 30668.0 1128.03  14
   3   1   0 32700.8 1134.93  20
  -3  -1   0 34577.0 1317.02  17
  -3  -1   0 30984.6 897.843  18
  -3  -1   0 31311.4 1123.57   2
  -3  -1   0 26884.0 1082.51   4
  -3  -1  -1 7088.94 321.596   9
   3   1   1 4763.83 299.652   9
   3   1   1 6632.86 511.151   8
  -3  -1  -1 6210.48 448.975   8
  -3  -1  -1 5914.33 508.563  14
  -3  -1  -1 5279.56 419.265  19
  -3  -1  -1 4880.62 461.449   2
  -3  -1  -1 6376.28 420.998  18
  -3  -1  -1 5524.55 506.096   4
  -3  -1  -1 4886.83 480.996  17
   3   1   1 6103.51 450.874   2
   3   1   2 53018.0 1241.93   9
   3   1   2 57305.5 1586.31   8
  -3  -1  -2 63874.5 1595.14  19
  -3  -1  -2 65489.7 1570.95   8
  -3  -1  -2 60488.1 1703.71  14
  -3  -1  -2 55908.9 1249.26   6
  -3  -1  -2 59949.4 1637.73   2
  -3  -1  -2 63963.1 1577.16  18
  -3  -1  -2 62948.9 1705.40   4
   3   1   2 59105.6 1542.11   2
  -3  -1  -2 64733.4 1313.60   9
  -3  -1  -3 1606.66 265.832   2
  -3  -1  -3 1717.70 323.017   4
  -3  -1  -3 2344.71 282.541   8
   3   1   3 1858.64 266.732   2
  -3  -1  -3 2163.43 316.320  14
   3   1   3 2680.03 273.856   9
  -3  -1  -3 2002.66 233.452   6
  -3  -1  -3 2268.95 256.570   9
  -3  -1  -4 11738.9 618.168   8
   3   1   4 9787.01 576.793   9
  -3  -1  -4 10351.1 698.081  14
   3   1   4 12814.7 695.306   7
   3   1   4 10046.1 716.603  19
   3   1   4 12265.3 700.644   2
  -3  -1  -4 8653.82 708.307   4
  -3  -1  -4 9422.89 549.429   9
  -3  -1  -5 4065.88 357.228   8
  -3  -1  -5 3867.01 442.651  14
   3   1   5 4648.93 423.775   7
   3   1   5 3993.53 455.342  19
   3   1   5 2975.81 381.154   2
  -3  -1  -5 3867.74 451.158   4
  -3  -1  -5 3223.13 360.044   9
   3   1   6 9381.62 651.296  15
  -3  -1  -6 9456.07 553.962   8
  -3  -1  -6 11615.6 789.911  14
   3   1   6 10544.6 654.911   7
  -3  -1  -6 11623.8 835.291  17
   3   1   6 10243.5 766.453  19
  -3  -1  -6 11900.6 779.756   4
  -3  -1  -6 8369.61 616.313   9
  -3  -1  -7 5646.55 625.415  17
   3   1   7 6002.75 519.795  15
   3   1   7 6657.54 519.687   7
   3   1   7 6510.75 638.426  19
  -3  -1  -7 6968.81 653.931   4
  -3  -1  -7 5833.40 559.847   9
   3   1   8 9166.16 773.391  11
   3   1   8 9799.49 670.387  15
   3   1   8 10890.2 675.648   7
  -3  -1  -8 12564.2 902.271  21
   3   1   8 9334.69 839.329  19
  -3  -1  -8 10257.6 821.436   4
  -3  -1  -8 10875.7 858.207  17
  -3  -1  -8 9962.63 760.444   9
  -3  -1  -9 2899.65 475.498  17
  -3  -1  -9 2830.73 446.276   4
   3   1   9 2922.49 387.856  15
   3   1   9 2376.90 439.997  11
   3   1   9 3599.64 379.855   7
   3   1   9 2176.64 351.632   3
  -3  -1  -9 3323.69 528.115  21
   3   1   9 2924.49 497.232  19
  -3  -1  -9 2885.88 443.762   9
   3   1  10 10081.8 882.143  11
   3   1  10 10543.1 732.425  15
   3   1  10 10724.7 759.465   3
   3   1  10 10304.4 644.201   7
  -3  -1 -10 8426.63 577.264  12
  -3  -1 -10 11567.4 947.059  21
   3   1  10 9674.87 912.850  19
  -3  -1 -10 10213.4 891.687   4
  -3  -1 -10 10891.3 925.554  17
  -3  -1 -10 8748.68 775.356   9
  -3  -1 -11 3485.84 533.432   4
   3   1  11 3229.76 413.732  15
   3   1  11 2676.32 502.120  11
   3   1  11 3207.84 434.404   3
  -3  -1 -11 2924.76 334.048  12
  -3  -1 -11 3821.78 568.037  21
  -3  -1 -11 3865.93 580.168  17
   3   1  11 4164.19 625.725  19
  -3  -1 -12 710.680 271.326  17
  -3  -1 -12 1582.30 377.663   4
   3   1  12 1240.53 295.794  15
  -3  -1 -12 766.763 178.208  12
  -3  -1 -12 1229.71 358.172  21
   3   1  12 878.961 241.151   3
   3   1  12 481.986 247.656  11
   3   1  12 1156.97 348.898  19
  -3  -1 -13 2344.57 492.060  17
  -3  -1 -13 2686.56 520.453   4
   3   1  13 2298.46 382.938  15
   3   1  13 2481.98 397.908   3
  -3  -1 -13 2137.72 484.309   1
  -3  -1 -13 2217.56 286.065  12
  -3  -1 -13 3218.09 566.650  21
   3   1  13 2764.09 530.486  11
   3   1  13 2231.45 492.949  19
   3   1  14 4924.74 578.739  15
  -3  -1 -14 5208.27 515.958   8
  -3  -1 -14 6179.17 822.476  21
   3   1  14 4935.36 577.398   3
  -3  -1 -14 5068.78 716.647   1
   3   1  14 4093.97 636.425  11
   3   1  14 6046.50 826.045  19
  -3  -1 -14 4825.76 738.103   4
  -3  -1 -14 5738.29 807.007  17
  -3  -1 -15 2979.79 588.953  17
  -3  -1 -15 3233.53 628.173   4
  -3  -1 -15 3560.18 632.252   1
   3   1  15 3773.01 513.972  15
  -3  -1 -15 4462.13 683.320  21
   3   1  15 3486.14 499.100   3
   3   1  15 3138.92 595.223  11
   3   1  15 3555.67 658.448  19
  -3  -1 -16 1260.35 417.093  17
  -3  -1 -16 394.802 223.406   4
   3   1  16 986.105 271.475  15
  -3  -1 -16 1173.49 399.967   1
   3   1  16 1747.13 381.200   3
  -3  -1 -16 714.566 338.291  21
   3   1  16 595.094 281.067  11
   3   1  16 955.348 414.955  19
  -3  -1 -17-755.829 361.381  17
  -3  -1 -17 260.147 297.115   4
  -3  -1 -17-194.614 225.083   1
  -3  -1 -17 885.396 395.633  21
   3   1  17 118.349 176.735  11
   3   1  17-62.7076 271.261  19
  -3  -1 -18 870.279 418.417  17
  -3  -1 -18 379.136 297.712  21
   3   1  18 417.816 268.274  11
  -3  -1 -18 159.288 224.380   4
  -3  -1 -18 16.5479 245.607   1
   3   1  18 544.078 319.379  19
   3   1  19 620.236 311.954  11
   3   1  19-41.3824 177.381  19
   3   1  20 409.600 287.377  11
  -3  -2  19 1839.50 509.838  14
  -3  -2  18 373.042 276.330  14
   3   2 -18 275.191 296.890   8
  -3  -2  17 340.364 231.941  14
   3   2 -17 590.094 316.126   8
  -3  -2  17-3.95962 182.469  20
  -3  -2  17 58.8169 210.006   2
  -3  -2  16 474.761 284.795  14
   3   2 -16 377.805 244.859   8
  -3  -2  16 102.792 212.351   2
  -3  -2  16 302.449 244.556  20
  -3  -2  15 605.053 271.408  14
   3   2 -15 707.916 336.895   8
   3   2 -15 1211.15 346.248   1
  -3  -2  15 661.761 316.467   2
  -3  -2  15 1438.82 443.641  20
  -3  -2  14-44.8809 151.290  14
   3   2 -14 485.790 274.155   8
   3   2 -14-10.2126 153.636   1
  -3  -2  14 126.695 207.030   2
  -3  -2  14 144.464 123.404  19
  -3  -2  13 355.406 188.785  14
   3   2 -13 321.279 212.145   8
  -3  -2  13 236.678 156.088   2
   3   2 -13 21.7489 141.361   1
  -3  -2  13 430.799 267.147  20
  -3  -2  13 275.439 172.707  19
  -3  -2  12 1393.28 384.445   2
  -3  -2  12 1028.38 302.841  14
   3   2 -12 1690.14 382.469   8
  -3  -2  12 1357.06 399.699  20
   3   2 -12 1085.97 245.532   1
  -3  -2  12 998.257 267.032  19
  -3  -2  11 5231.33 679.064   2
   3   2 -11 5679.97 701.301   8
  -3  -2  11 4853.47 616.650  14
   3   2 -11 5044.25 534.923   1
   3   2 -11 6229.42 725.798  13
  -3  -2  11 6527.48 582.731  19
  -3  -2  11 4532.52 427.690  12
  -3  -2  11 5054.89 713.921  20
  -3  -2  10 4757.85 632.975   2
   3   2 -10 5706.80 667.152   8
  -3  -2  10 4585.98 601.888  14
   3   2 -10 4760.36 494.812   1
   3   2 -10 5090.67 636.568  13
  -3  -2  10 4010.65 410.212  12
  -3  -2  10 5631.27 507.597  19
  -3  -2  10 5092.76 656.601  20
  -3  -2   9 29425.1 1493.78   2
   3   2  -9 29986.2 1448.12   8
  -3  -2   9 29784.2 1414.83  14
   3   2  -9 25988.8 1095.31   1
   3   2  -9 28813.7 1464.70  13
  -3  -2   9 26680.4 1066.09  12
  -3  -2   9 29824.6 1505.27  20
  -3  -2   9 31431.3 1136.09  19
   3   2  -8 984.231 218.881   1
  -3  -2   8 885.367 270.536  14
   3   2  -8 1175.67 329.545   8
   3   2  -8 325.140 190.737  13
  -3  -2   8 507.378 215.899   2
  -3  -2   8 528.698 170.474  12
  -3  -2   8 652.451 244.608  20
  -3  -2   8 668.556 163.870  19
  -3  -2   7 34828.5 1540.88   2
   3   2  -7 37025.3 1506.91   8
  -3  -2   7 35211.3 1417.14  14
   3   2  -7 29796.9 1014.64   1
   3   2  -7 36430.7 1516.73  13
  -3  -2   7 29735.6 1129.69  12
  -3  -2   7 36023.7 1041.28  19
  -3  -2   7 36415.8 1545.62  20
  -3  -2   6 14220.5 687.994   9
  -3  -2   6 14719.8 940.563   2
   3   2  -6 14894.5 923.852   8
  -3  -2   6 14631.5 862.348  14
   3   2  -6 12765.1 573.625   1
   3   2  -6 15256.9 936.045  13
  -3  -2   6 13254.3 735.900  12
  -3  -2   6 14883.0 581.170  19
  -3  -2   6 13853.8 923.251  20
  -3  -2   5 53918.5 1805.05   2
   3   2  -5 54985.0 1724.93   8
  -3  -2   5 54487.1 1706.18  14
   3   2  -5 46364.0 1067.26   1
   3   2  -5 60901.6 1834.51  13
  -3  -2   5 51302.2 1502.19  12
  -3  -2   5 54263.1 1816.10  20
  -3  -2   5 52414.5 1094.17  19
  -3  -2   5 48115.2 1237.85   9
  -3  -2   4 2865.43 424.706   2
  -3  -2   4 2560.07 223.472   9
   3   2  -4 3067.41 409.883   8
   3   2  -4 2184.46 163.458   1
  -3  -2   4 2407.64 359.726  14
   3   2  -4 2327.05 360.424  13
  -3  -2   4 3248.34 378.275  12
  -3  -2   4 2494.87 404.653  20
  -3  -2   4 2256.26 176.121  19
   3   2  -4 2289.49 239.085  18
  -3  -2   4 2485.65 364.197  21
   3   2  -3 99280.1 1763.72  18
   3   2  -3 98690.3 2198.10   8
  -3  -2   3 90508.5 2166.65  14
   3   2  -3 97204.4 2290.20  13
  -3  -2   3 97380.4 2131.22  12
  -3  -2   3 98823.3 2179.66  21
  -3  -2   3 104892. 2441.55  20
  -3  -2   3 94908.8 2342.17   2
  -3  -2   2 64519.7 1624.41   4
   3   2  -2 61450.7 1690.27   8
  -3  -2   2 64314.5 1736.26  14
   3   2  -2 66350.8 1828.59  13
   3   2  -2 68104.1 1741.47   7
  -3  -2   2 69115.6 1757.30  12
  -3  -2   2 65799.9 1690.80  21
  -3  -2   2 66967.8 1906.86  20
   3   2  -2 65621.2 1421.42  18
  -3  -2   2 69026.0 1892.06   2
   3   2  -1 165879. 2927.99   8
  -3  -2   1 167559. 3067.64  14
   3   2  -1 156201. 2998.12  21
  -3  -2   1 174390. 3092.21  21
  -3  -2   1 150123. 2231.10  19
   3   2  -1 165594. 2689.07  18
  -3  -2   1 170229. 3257.22   2
  -3  -2   1 148550. 2831.68   4
   3   2   0 2574.14 299.826   8
  -3  -2   0 1485.25 266.386   4
  -3  -2   0 2666.66 378.299  14
  -3  -2   0 2881.31 290.226   8
  -3  -2   0 2271.57 351.049   2
   3   2   0 2262.40 252.482   6
   3   2   0 2472.54 312.894  21
  -3  -2   0 2214.90 298.866  21
  -3  -2   0 2804.47 208.009  19
   3   2   0 2982.93 303.701  18
  -3  -2  -1 8110.59 315.437   1
   3   2   1 8807.10 513.521   8
  -3  -2  -1 8279.70 585.778  14
  -3  -2  -1 8923.18 473.730   8
  -3  -2  -1 9467.63 602.632  21
   3   2   1 8227.11 481.845   6
   3   2   1 9273.74 582.560  21
  -3  -2  -1 7127.93 309.491   5
  -3  -2  -1 7691.28 396.785  19
  -3  -2  -1 8772.32 537.789  18
  -3  -2  -1 8958.14 654.081   2
   3   2   1 8913.86 527.263  18
  -3  -2  -1 8164.74 525.522   4
   3   2   1 7772.19 531.235   4
   3   2   2 22340.5 611.103   9
  -3  -2  -2 22914.9 985.502  21
   3   2   2 19784.9 763.213   8
   3   2   2 20276.2 893.365  21
  -3  -2  -2 21181.2 968.362  14
  -3  -2  -2 23058.2 738.976   8
  -3  -2  -2 21519.2 642.134   1
   3   2   2 22906.0 844.440   6
  -3  -2  -2 19505.6 725.523  19
   3   2   2 20147.6 785.284  19
  -3  -2  -2 20587.1 1024.75   2
  -3  -2  -2 20641.5 877.926  18
   3   2   2 22487.1 876.577  18
  -3  -2  -2 19636.1 852.292   4
   3   2   2 16742.8 813.534   4
  -3  -2  -3 322.345 96.4674   1
   3   2   3 431.836 106.827   9
  -3  -2  -3 446.543 180.434   4
  -3  -2  -3 607.021 193.846  14
   3   2   3 398.846 135.969   8
  -3  -2  -3 452.089 114.264   8
  -3  -2  -3 251.975 166.687   2
  -3  -2  -3 385.498 137.886   6
  -3  -2  -3 256.306 176.512  21
   3   2   3 280.363 126.147   6
  -3  -2  -3 375.540 121.794  19
   3   2   3 295.090 123.774  19
   3   2   3 446.029 154.746  18
   3   2   4 5500.13 507.253  19
   3   2   4 4929.08 344.292   8
  -3  -2  -4 5946.26 330.336   8
  -3  -2  -4 6378.95 554.564  14
  -3  -2  -4 6620.53 455.298   1
  -3  -2  -4 7186.11 527.570  12
  -3  -2  -4 6530.19 503.638   6
  -3  -2  -4 7020.37 553.866  21
  -3  -2  -4 6086.44 506.998   4
  -3  -2  -4 6679.71 475.144  19
   3   2   4 5715.71 503.692  18
   3   2   4 5936.74 405.969   9
  -3  -2  -5 1782.63 292.681   4
  -3  -2  -5 1689.33 173.734   8
  -3  -2  -5 1847.97 335.892  14
   3   2   5 1830.41 304.387   7
  -3  -2  -5 1781.30 303.068  12
  -3  -2  -5 1824.83 323.394  21
  -3  -2  -5 1767.94 277.756   1
   3   2   5 1500.25 288.539  19
   3   2   5 1755.19 256.512   9
  -3  -2  -6 53152.8 1100.45   8
  -3  -2  -6 53494.7 1599.30   1
   3   2   6 54324.0 1585.97   7
  -3  -2  -6 56804.7 1574.97  12
  -3  -2  -6 55115.6 1751.44  21
   3   2   6 54888.8 1716.77  19
  -3  -2  -6 48806.9 1634.62   4
  -3  -2  -7 36014.4 1451.12  21
   3   2   7 32980.7 1059.35  15
  -3  -2  -7 32325.1 843.001   8
  -3  -2  -7 33556.6 1324.10   1
   3   2   7 37895.5 1277.28   7
  -3  -2  -7 34616.9 1203.58  12
   3   2   7 36042.7 1444.73  19
   3   2   7 31206.7 1417.53  11
  -3  -2  -7 33130.6 1371.91   4
   3   2   8 25501.0 940.735  15
  -3  -2  -8 27551.3 775.385   8
  -3  -2  -8 26244.4 1241.52   1
   3   2   8 30514.7 1148.35   7
  -3  -2  -8 25806.3 1046.35  12
  -3  -2  -8 32634.3 1387.19  21
   3   2   8 27119.8 1381.88  11
   3   2   8 29363.6 1377.51  19
  -3  -2  -8 29102.2 1346.07   4
   3   2   9 5158.98 596.744  19
   3   2   9 3775.16 366.987  15
  -3  -2  -9 3005.40 248.825   8
   3   2   9 3913.33 562.269  11
  -3  -2  -9 3989.70 512.232   1
   3   2   9 3956.54 421.576   7
   3   2   9 3466.78 382.936   3
  -3  -2  -9 4369.69 567.819  17
  -3  -2  -9 3549.63 388.524  12
  -3  -2  -9 4706.71 570.722  21
  -3  -2  -9 4006.06 515.181   4
  -3  -2 -10-21.7999 149.315  17
  -3  -2 -10 165.484 172.565   4
   3   2  10 206.632 110.298  15
   3   2  10-83.1042 138.906   7
  -3  -2 -10 208.570 147.914  12
  -3  -2 -10 354.537 239.821  21
   3   2  10 83.2516 103.704   3
   3   2  10 154.434 171.879  11
   3   2  10-39.7767 199.053  19
  -3  -2 -10 506.368 235.375   1
  -3  -2 -11 2313.65 464.379  17
  -3  -2 -11 2547.30 470.228   4
   3   2  11 2225.32 295.352  15
  -3  -2 -11 2363.06 235.863   8
   3   2  11 2398.84 311.700   3
   3   2  11 2520.66 354.273   7
  -3  -2 -11 2810.70 343.338  12
  -3  -2 -11 2387.06 454.699  21
   3   2  11 2188.37 463.678  11
  -3  -2 -11 2244.97 425.965   1
   3   2  11 2309.13 441.060  19
   3   2  12 7044.44 539.869  15
  -3  -2 -12 6242.19 412.442   8
   3   2  12 7106.18 783.857  11
  -3  -2 -12 7423.56 771.887   1
   3   2  12 7435.63 560.643   3
   3   2  12 8167.73 609.946   7
  -3  -2 -12 7529.56 557.411  12
  -3  -2 -12 9720.00 882.970  21
   3   2  12 8051.95 853.349  19
  -3  -2 -12 8255.94 845.473   4
  -3  -2 -12 8232.19 865.013  17
  -3  -2 -13 139.764 236.938  17
  -3  -2 -13-1.74154 189.463   4
   3   2  13-157.514 125.447  15
  -3  -2 -13 184.759 97.1360   8
   3   2  13-63.9604 85.9666   7
  -3  -2 -13 128.336 181.796   1
  -3  -2 -13-44.0480 108.615  12
  -3  -2 -13-216.145 188.047  21
   3   2  13 85.0662 104.938   3
   3   2  13-76.7069 174.644  11
   3   2  13 132.405 251.769  19
   3   2  14 7058.81 580.612  15
   3   2  14 6707.13 579.522   3
  -3  -2 -14 7145.22 830.577   1
   3   2  14 7966.58 611.486   7
  -3  -2 -14 9118.21 947.630  21
   3   2  14 6218.91 843.990  11
   3   2  14 7731.47 909.012  19
  -3  -2 -14 6309.83 833.225   4
  -3  -2 -14 7668.56 886.034  17
  -3  -2 -15 168.536 226.359  17
  -3  -2 -15 583.472 310.255   4
  -3  -2 -15 517.509 282.145   1
  -3  -2 -15 915.010 358.321  21
   3   2  15 818.887 328.675  11
   3   2  15 987.754 392.675  19
  -3  -2 -16 381.410 285.502   4
  -3  -2 -16 160.337 243.930  17
  -3  -2 -16 40.9409 173.676   1
  -3  -2 -16-10.8989 212.261  21
   3   2  16 627.820 303.798  11
   3   2  16 149.648 251.549  19
  -3  -2 -17 263.276 277.313   1
  -3  -2 -17 394.049 286.423  17
  -3  -2 -17 602.727 329.365  21
   3   2  17 183.472 247.993  11
   3   2  17 311.476 289.595  19
  -3  -2 -18-320.443 256.682  17
  -3  -2 -18-86.0824 213.656   1
   3   2  18 110.198 185.496  11
   3   2  18 84.0511 196.553  19
  -3  -2 -19 2222.11 578.727  17
  -3  -2 -19 2190.47 599.370  21
   3   2  19 1579.83 496.710  11
   3   2  19 2038.26 584.915  19
  -3  -2 -19 1638.61 515.778   1
   3   2  20 108.479 220.098  11
   3   3 -17 917.789 377.239   8
  -3  -3  17 894.931 434.911   2
   3   3 -16-201.099 184.986   8
  -3  -3  16 773.907 369.703   2
  -3  -3  16 656.492 353.719  20
  -3  -3  15 1884.98 430.140  14
   3   3 -15 1710.00 457.953   8
  -3  -3  15 1790.55 484.921   2
  -3  -3  15 1981.36 495.535  20
  -3  -3  14 913.590 341.077  14
   3   3 -14 694.755 314.664   8
  -3  -3  14 1138.44 382.458   2
  -3  -3  14 672.179 310.132  20
   3   3 -14 754.693 266.585   1
  -3  -3  13 1175.78 311.774  14
   3   3 -13 936.076 316.443   8
  -3  -3  13 1006.17 378.500   2
  -3  -3  13 813.294 343.314  20
   3   3 -13 1065.69 291.404   1
  -3  -3  12 4394.40 655.847   2
   3   3 -12 4607.56 659.573   8
  -3  -3  12 4459.99 569.840  14
   3   3 -12 3782.15 513.175   1
  -3  -3  12 3725.19 626.362  20
  -3  -3  11 20667.4 1362.75   2
   3   3 -11 21866.0 1372.31   8
  -3  -3  11 20806.6 1195.92  14
  -3  -3  11 22956.9 1054.48  19
   3   3 -11 20041.8 1265.46  13
   3   3 -11 17399.1 1060.55   1
  -3  -3  11 18903.0 963.607  12
  -3  -3  11 20902.9 1408.83  20
  -3  -3  10 4719.41 626.305   2
   3   3 -10 5409.49 688.050   8
  -3  -3  10 4284.93 541.957  14
   3   3 -10 4733.35 585.766  13
  -3  -3  10 4333.24 478.943  12
  -3  -3  10 4791.18 442.957  19
  -3  -3  10 5034.24 693.633  20
   3   3  -9 2207.55 373.458   9
   3   3  -9 3714.04 550.728   8
  -3  -3   9 2806.40 420.432  14
   3   3  -9 2948.44 458.092  13
  -3  -3   9 2871.81 492.131   2
  -3  -3   9 3024.71 405.012  12
  -3  -3   9 2877.15 509.879  20
  -3  -3   9 2952.09 313.681  19
  -3  -3   8 7724.40 777.625   2
  -3  -3   8 7515.04 456.404  19
   3   3  -8 8003.44 736.324   8
  -3  -3   8 7322.55 636.056  14
   3   3  -8 6884.69 675.660  13
  -3  -3   8 6435.92 574.366  12
  -3  -3   8 7676.49 785.381  20
   3   3  -8 5460.89 562.445   9
  -3  -3   7 10919.3 886.814   2
   3   3  -7 11284.3 864.969   8
  -3  -3   7 10806.8 758.742  14
   3   3  -7 9658.23 749.693  13
  -3  -3   7 9929.99 705.014  12
  -3  -3   7 11364.1 927.760  20
  -3  -3   7 10647.9 490.729  19
   3   3  -7 9272.21 687.215   9
  -3  -3   6 3843.29 510.177   2
   3   3  -6 4432.62 511.957   8
  -3  -3   6 3366.75 407.871  14
  -3  -3   6 2822.51 213.422  19
   3   3  -6 3831.64 460.812  13
  -3  -3   6 3077.99 389.028  12
  -3  -3   6 3426.83 515.347  20
   3   3  -6 3106.98 355.741   9
  -3  -3   5 9331.25 576.610   9
  -3  -3   5 8755.72 639.806  14
   3   3  -5 9711.33 738.682   8
   3   3  -5 9569.68 691.687  13
   3   3  -5 8295.86 573.904   7
  -3  -3   5 8043.94 653.628  12
  -3  -3   5 9308.91 794.935  20
   3   3  -5 8508.06 543.027   9
  -3  -3   5 9085.22 759.069   2
  -3  -3   4 10371.0 566.142   9
  -3  -3   4 12958.7 744.585  14
   3   3  -4 13402.5 826.979   8
   3   3  -4 12044.9 767.065  13
   3   3  -4 12673.7 708.069   7
  -3  -3   4 12431.6 777.352  12
  -3  -3   4 13869.7 944.427  20
  -3  -3   4 13207.6 924.265   2
   3   3  -4 11377.7 588.599   9
   3   3  -3 18222.6 678.599   9
  -3  -3   3 16690.8 669.219   9
  -3  -3   3 17308.4 850.001  14
   3   3  -3 19509.2 953.712   8
   3   3  -3 19275.8 939.226  13
   3   3  -3 19430.8 878.355   7
  -3  -3   3 18291.2 925.682  12
   3   3  -3 15007.7 590.513   1
  -3  -3   3 18863.3 1087.46  20
  -3  -3   3 19895.1 1080.01   2
   3   3  -2 2372.44 217.369   9
   3   3  -2 2513.15 354.429   8
  -3  -3   2 1548.06 216.839   4
   3   3  -2 2429.15 299.380  21
  -3  -3   2 1971.49 296.762  14
  -3  -3   2 1582.81 336.522   2
   3   3  -2 2124.48 309.033  13
   3   3  -2 2603.40 335.468   7
  -3  -3   2 2090.04 329.507  12
  -3  -3   2 1445.56 230.599  21
  -3  -3   2 2291.13 398.645  20
   3   3  -2 1785.23 181.024   1
   3   3  -1 26176.5 727.554   9
   3   3  -1 24849.7 695.285   1
  -3  -3   1 29266.2 1115.67  14
   3   3  -1 30336.8 1080.22   8
   3   3  -1 31301.0 1205.32  13
   3   3  -1 32630.5 1159.35   7
  -3  -3   1 29542.4 972.235  21
   3   3  -1 28965.6 1004.10  21
   3   3  -1 28648.3 750.002   5
   3   3  -1 29347.4 1123.66  18
  -3  -3   1 31298.2 1318.66   2
  -3  -3   1 24167.7 842.029   4
   3   3   0 25193.3 745.843   9
   3   3   0 29184.6 750.521   1
  -3  -3   0 31237.2 1129.42  14
   3   3   0 30802.5 1050.61   8
   3   3   0 30146.9 1192.47  13
   3   3   0 28725.0 978.510  21
  -3  -3   0 30741.4 987.373  21
   3   3   0 30038.5 781.608   5
   3   3   0 33605.7 1215.08  18
  -3  -3   0 32767.5 1353.77   2
  -3  -3   0 31273.6 901.643   4
  -3  -3  -1 7212.93 463.042  21
  -3  -3  -1 6733.11 513.533  14
   3   3   1 6781.98 438.744   8
   3   3   1 7555.53 383.056   1
   3   3   1 7438.87 567.031  13
   3   3   1 6424.36 545.251   6
   3   3   1 7083.65 450.588  21
  -3  -3  -1 6040.80 303.981  19
   3   3   1 6529.94 330.653  19
  -3  -3  -1 6004.50 388.033   1
  -3  -3  -1 6464.99 627.181   2
   3   3   1 7428.17 581.421  18
  -3  -3  -1 6300.31 398.688   4
   3   3   1 6594.58 447.692   4
   3   3   2 7043.52 459.732  15
   3   3   2 7528.63 472.548  21
  -3  -3  -2 7744.56 568.868  14
   3   3   2 8289.08 454.446   8
  -3  -3  -2 8298.10 504.713  21
   3   3   2 8403.82 616.326  13
   3   3   2 8628.89 452.010   1
   3   3   2 8654.39 619.359   6
  -3  -3  -2 7426.05 393.682  19
   3   3   2 8137.23 428.546  19
  -3  -3  -2 6260.01 656.850   2
   3   3   2 8807.38 623.213  18
  -3  -3  -2 9158.32 505.308   4
   3   3   2 6027.98 441.486   4
  -3  -3  -2 7807.92 451.687   1
  -3  -3  -3 19764.2 778.883   1
   3   3   3 19564.4 774.979  21
   3   3   3 17851.8 622.619   8
  -3  -3  -3 17826.5 910.069  14
  -3  -3  -3 18261.5 801.140  21
   3   3   3 19087.6 745.543   1
   3   3   3 19183.1 974.476   6
  -3  -3  -3 17306.2 739.509   5
  -3  -3  -3 17901.2 702.357  19
   3   3   3 17711.5 734.127  19
  -3  -3  -3 18439.0 1046.09   2
  -3  -3  -3 21357.6 820.495   4
   3   3   3 19491.0 959.288  18
   3   3   3 16962.6 792.680   4
  -3  -3  -4 6800.05 476.686   1
   3   3   4 5526.34 306.220   8
  -3  -3  -4 5937.75 559.489  14
  -3  -3  -4 6942.80 498.969  21
   3   3   4 5957.92 439.658   1
  -3  -3  -4 6022.03 433.511  19
   3   3   4 5607.25 438.719  21
   3   3   4 6849.22 572.862   6
  -3  -3  -4 5999.39 464.437   4
  -3  -3  -4 4839.48 406.760   5
   3   3   4 5402.56 446.299  19
   3   3   4 5722.86 461.721   4
  -3  -3  -5 19945.7 876.981   1
   3   3   5 14995.0 470.122   8
  -3  -3  -5 20863.6 1004.89  12
  -3  -3  -5 19462.5 897.778  21
   3   3   5 20916.9 1040.63   6
   3   3   5 16185.8 848.430  19
  -3  -3  -5 19263.3 889.228   4
  -3  -3  -6 18293.0 898.233   1
   3   3   6 17871.1 945.827  19
  -3  -3  -6 19502.9 975.503  12
  -3  -3  -6 18284.9 910.805  21
   3   3   6 17465.9 1063.96  11
  -3  -3  -6 18887.9 924.604   4
  -3  -3  -7 912.271 240.632   4
  -3  -3  -7 888.708 255.025   1
  -3  -3  -7 625.542 198.628  12
  -3  -3  -7 523.863 198.528  21
   3   3   7 548.212 232.429  11
   3   3   7 926.570 242.522  19
  -3  -3  -8 1272.69 320.395  17
  -3  -3  -8 1081.35 276.989   4
   3   3   8 1041.42 146.436  15
  -3  -3  -8 1265.82 291.852   1
  -3  -3  -8 1669.21 319.840  21
  -3  -3  -8 1445.99 277.201  12
   3   3   8 1119.93 349.645  11
   3   3   8 1357.02 308.731  19
   3   3   9 4456.32 294.146  15
  -3  -3  -9 5601.99 577.023   1
   3   3   9 4838.58 584.148  19
  -3  -3  -9 6572.16 610.789  21
   3   3   9 4067.45 276.794   3
  -3  -3  -9 6623.06 592.826  12
   3   3   9 6197.72 690.479  11
  -3  -3  -9 6239.06 629.677   4
  -3  -3  -9 5451.12 649.264  17
  -3  -3 -10 1890.84 387.183   4
   3   3  10 1673.26 183.851  15
  -3  -3 -10 1873.57 445.165  17
   3   3  10 1622.79 182.782   3
  -3  -3 -10 2901.82 454.256   1
  -3  -3 -10 2744.15 370.814  12
  -3  -3 -10 2667.23 410.714  21
   3   3  10 1633.40 387.170  11
   3   3  10 2800.91 478.402  19
  -3  -3 -11 3776.77 548.144   4
   3   3  11 3214.13 267.374  15
   3   3  11 4402.22 601.240  19
  -3  -3 -11 4706.36 596.804   1
  -3  -3 -11 4621.79 579.561  21
   3   3  11 3567.00 283.396   3
  -3  -3 -11 4158.09 478.944  12
   3   3  11 4752.96 652.539  11
  -3  -3 -11 4908.37 661.084  17
   3   3  12 4763.50 329.498  15
  -3  -3 -12 4663.21 620.493   1
   3   3  12 4086.97 644.739  11
   3   3  12 4597.12 336.235   3
  -3  -3 -12 4864.89 708.725  17
  -3  -3 -12 4932.81 521.657  12
  -3  -3 -12 5715.22 674.673  21
  -3  -3 -12 5262.45 703.582   4
   3   3  12 3894.28 606.860  19
  -3  -3 -13 2320.31 504.579   4
  -3  -3 -13 2233.59 448.776  21
  -3  -3 -13 2273.00 474.700  17
  -3  -3 -13 2928.48 530.251   1
  -3  -3 -13 2713.38 368.397  12
   3   3  13 2440.44 543.984  11
   3   3  13 2225.75 476.842  19
  -3  -3 -14 2881.76 553.581  17
  -3  -3 -14 2270.51 334.005  12
  -3  -3 -14 2660.31 507.586   1
  -3  -3 -14 3248.36 571.496  21
   3   3  14 2721.79 571.997  11
  -3  -3 -14 2096.33 479.268   4
   3   3  14 2635.66 563.613  19
   3   3  15 7408.02 944.716  11
  -3  -3 -15 7113.44 833.985   1
   3   3  15 8279.51 695.897   7
  -3  -3 -15 8190.72 925.498  21
   3   3  15 6415.27 866.506  19
  -3  -3 -15 7845.63 914.654  17
  -3  -3 -16 2709.76 568.549  17
  -3  -3 -16 2457.50 541.896   1
   3   3  16 1994.12 355.517   7
  -3  -3 -16 2014.46 489.645  21
   3   3  16 1794.23 502.366  11
   3   3  16 2014.48 485.078  19
  -3  -3 -17 1750.73 441.002  17
  -3  -3 -17 1554.61 429.745   1
  -3  -3 -17 2721.19 574.481  21
   3   3  17 1626.22 489.655  11
   3   3  17 1846.28 489.690  19
  -3  -3 -18 417.638 323.927  17
  -3  -3 -18-177.071 213.270   1
  -3  -3 -18 50.0427 222.313  21
   3   3  18-128.439 219.355  11
   3   3  18 138.142 195.257  19
  -3  -3 -19 189.463 302.996  17
  -3  -3 -19-45.8355 213.289   1
  -3  -3 -19 153.348 200.130  21
   3   3  19 390.591 301.446  19
   3   3  19 280.735 248.543  11
   3   3  20-126.952 249.551  11
  -3  -4  16 968.837 384.642   2
   3   4 -15-95.5717 264.024   8
  -3  -4  15-213.412 238.005   2
  -3  -4  15-87.8709 189.994  20
   3   4 -14 52.1892 228.228   8
  -3  -4  14 610.834 316.798   2
  -3  -4  14-100.376 204.328  20
   3   4 -13 935.303 365.641   8
  -3  -4  13-31.7473 161.137   2
  -3  -4  13 682.845 292.685  20
   3   4 -12 1487.37 388.466   9
   3   4 -12 2324.38 501.316   8
  -3  -4  12 2345.63 503.691   2
  -3  -4  12 2588.65 548.528  20
  -3  -4  11 7594.72 868.180   2
  -3  -4  11 7603.78 696.304  14
   3   4 -11 8096.38 870.167   8
  -3  -4  11 8058.58 926.164  20
   3   4 -11 6251.74 744.068   9
  -3  -4  10 15555.9 1195.64   2
  -3  -4  10 14355.9 1137.76  15
  -3  -4  10 15668.5 973.043  14
   3   4 -10 14024.1 1114.15   8
  -3  -4  10 13374.6 1159.29  20
   3   4 -10 11207.9 938.767   9
   3   4  -9-15.1600 143.165   9
  -3  -4   9 165.348 199.121  15
  -3  -4   9 8.28064 105.376  14
   3   4  -9-89.3982 186.487   8
  -3  -4   9 495.359 281.276   2
   3   4  -9 16.4758 116.535  13
  -3  -4   9 10.0717 138.280  12
  -3  -4   9-42.0786 186.147  20
   3   4  -8 203.532 132.944   9
  -3  -4   8-292.620 209.652  15
  -3  -4   8 14.8691 134.231  14
   3   4  -8 88.1228 210.353   8
  -3  -4   8 59.2240 150.828   2
   3   4  -8-217.168 148.560  13
  -3  -4   8 78.9764 128.615  12
  -3  -4   8-230.196 212.778  20
  -3  -4   7 1794.71 378.331  15
  -3  -4   7 1828.73 314.946  14
  -3  -4   7 2035.22 401.640   2
   3   4  -7 2642.53 445.755   8
   3   4  -7 1744.51 329.709  13
   3   4  -7 2123.94 287.774   7
   3   4  -7 2034.33 351.950   9
  -3  -4   7 2075.28 473.778  20
  -3  -4   7 2428.47 408.374  12
  -3  -4   6 112.566 125.452  12
   3   4  -6-68.5434 123.208   9
  -3  -4   6-127.338 167.282  15
  -3  -4   6 43.7891 127.208  14
  -3  -4   6-30.0002 214.313   2
   3   4  -6-74.8933 146.619   8
   3   4  -6 119.413 155.361  13
   3   4  -6 44.9010 93.4180   7
  -3  -4   6 56.8809 89.4645   4
  -3  -4   6-24.8876 183.998  20
   3   4  -5 9689.94 681.466   9
  -3  -4   5 10874.2 833.414  15
  -3  -4   5 10512.4 656.798  14
   3   4  -5 10304.5 795.834   8
   3   4  -5 10467.8 695.893  13
   3   4  -5 9438.42 620.500   7
  -3  -4   5 10841.5 825.257  12
  -3  -4   5 9998.81 889.730  20
  -3  -4   5 9084.06 503.154   4
  -3  -4   5 11837.7 926.980   2
   3   4  -4 2132.42 320.984   9
  -3  -4   4 2186.45 380.199  15
  -3  -4   4 2214.25 434.987  20
  -3  -4   4 2037.24 290.362  14
  -3  -4   4 2009.25 382.379   2
   3   4  -4 1969.66 361.629   8
   3   4  -4 2433.67 331.400   7
   3   4  -4 1829.25 300.179  13
  -3  -4   4 2419.80 404.413  12
   3   4  -4 1935.70 285.670   1
  -3  -4   4 1755.88 207.342   4
   3   4  -3 428.233 147.008   9
   3   4  -3 651.441 164.168  21
  -3  -4   3 507.050 116.423   4
  -3  -4   3 473.325 238.380   2
  -3  -4   3 777.582 201.489  14
   3   4  -3 756.421 216.364   8
   3   4  -3 560.394 150.866  13
  -3  -4   3 333.548 200.485  20
  -3  -4   3 363.643 182.728  12
   3   4  -3 472.313 147.760   1
   3   4  -2 1782.38 259.482   9
  -3  -4   2 2415.11 363.807  16
  -3  -4   2 1489.93 313.615   2
   3   4  -2 1784.46 227.543  21
  -3  -4   2 1605.44 257.819  14
   3   4  -2 1892.54 322.708   8
   3   4  -2 2010.53 303.458  13
  -3  -4   2 1660.86 324.799  12
  -3  -4   2 2102.30 413.342  20
   3   4  -2 1434.21 233.720   1
  -3  -4   2 1293.18 157.262   4
   3   4  -1 2166.10 287.363   9
  -3  -4   1 2261.23 378.491  16
  -3  -4   1 2957.96 445.728  12
  -3  -4   1 1761.00 347.652   2
  -3  -4   1 2358.03 307.632  14
   3   4  -1 2113.11 316.653   8
   3   4  -1 1810.85 294.524  13
   3   4  -1 1663.99 208.604  21
  -3  -4   1 1887.16 156.618   4
   3   4  -1 1803.35 252.096   1
   3   4   0 853.006 188.219   9
  -3  -4   0 1372.56 329.952   2
   3   4   0 1420.68 224.929   1
  -3  -4   0 1609.61 276.695  14
   3   4   0 1919.98 291.466   8
   3   4   0 1187.98 239.866  13
   3   4   0 1546.76 182.739  21
  -3  -4   0 847.186 120.429  21
   3   4   0 1402.45 129.825  19
  -3  -4   0 1429.05 142.923   4
   3   4   1 30529.9 859.451  21
   3   4   1 36950.6 1292.44   9
  -3  -4  -1 37931.8 1300.24  14
   3   4   1 35161.6 1145.70   8
   3   4   1 39207.9 1357.98  13
  -3  -4  -1 36767.2 925.516  21
   3   4   1 36242.1 1163.80   1
   3   4   1 37136.1 1187.04   5
   3   4   1 37540.6 905.765  19
  -3  -4  -1 36677.0 1569.94   2
  -3  -4  -1 32764.1 810.720   4
   3   4   1 39140.4 1503.46  18
  -3  -4  -1 38352.0 1567.53  17
   3   4   2 6458.01 398.692  19
   3   4   2 5558.89 435.605   1
  -3  -4  -2 5778.18 532.300  14
   3   4   2 5529.52 404.463   8
   3   4   2 4234.28 542.376   6
   3   4   2 5138.58 325.583  21
  -3  -4  -2 4367.28 303.371  21
   3   4   2 6005.70 466.577   5
  -3  -4  -2 4852.60 458.901   1
  -3  -4  -2 5619.17 672.946   2
  -3  -4  -2 6184.59 350.584   4
   3   4   2 6057.58 602.353  18
   3   4   2 4023.98 310.852   4
  -3  -4  -2 5631.68 591.755  17
  -3  -4  -3 71464.3 1516.32  21
   3   4   3 63362.0 1544.94  15
  -3  -4  -3 70654.6 1997.56  14
   3   4   3 65916.5 1472.40   8
   3   4   3 65171.4 1589.83   3
   3   4   3 76028.7 2260.93   6
   3   4   3 62870.4 1412.08  21
   3   4   3 75255.6 1866.64   5
   3   4   3 71724.5 1634.22  19
  -3  -4  -3 74727.3 2299.39   2
  -3  -4  -3 69839.6 1479.76   4
   3   4   3 75041.6 2222.01  18
  -3  -4  -3 70469.9 1870.20   1
   3   4   3 63095.9 1479.85   4
  -3  -4  -3 75428.8 2254.21  17
  -3  -4  -4 4505.25 546.344  16
   3   4   4 3719.85 305.256  15
  -3  -4  -4 3178.98 300.709  21
   3   4   4 3497.46 269.537   8
   3   4   4 3342.59 305.297   3
  -3  -4  -4 3370.19 348.507  19
   3   4   4 3728.99 498.967   6
   3   4   4 3092.85 436.901  11
   3   4   4 4011.38 389.566  19
  -3  -4  -4 3920.02 340.137   4
   3   4   4 4148.43 513.601  18
   3   4   4 3036.58 329.145   4
  -3  -4  -4 4247.32 536.650  17
  -3  -4  -4 3320.33 388.985   1
  -3  -4  -5 7394.40 595.526   1
  -3  -4  -5 8250.46 690.947  16
   3   4   5 5987.84 357.052  15
   3   4   5 7264.08 330.440   8
   3   4   5 6137.15 370.079   3
  -3  -4  -5 8212.49 729.722  12
   3   4   5 8165.08 729.580   6
  -3  -4  -5 7627.57 499.593  21
   3   4   5 7477.63 566.489  19
   3   4   5 6849.21 653.407  11
  -3  -4  -5 7197.64 500.013   4
   3   4   5 7584.94 695.655  18
  -3  -4  -5 7242.79 677.244  17
  -3  -4  -6 533.996 177.684   4
  -3  -4  -6 538.444 222.880  17
  -3  -4  -6 828.916 244.532  16
   3   4   6 464.698 89.4380  15
  -3  -4  -6 552.144 178.141   1
   3   4   6 351.418 81.8485   3
  -3  -4  -6 546.035 243.287  12
  -3  -4  -6 600.848 168.209  21
   3   4   6 409.938 202.551   6
   3   4   6 757.436 246.400  11
   3   4   6 583.097 179.257  19
   3   4   6 623.518 207.234  18
  -3  -4  -7 518.547 202.027   4
  -3  -4  -7 396.833 258.289  17
   3   4   7 303.555 58.3726   3
   3   4   7 298.103 66.4750  15
  -3  -4  -7 416.692 188.714   1
  -3  -4  -7 752.423 271.053  12
  -3  -4  -7 425.775 152.234  21
   3   4   7 903.453 317.459   6
   3   4   7 347.934 214.111  11
   3   4   7 476.588 217.597  19
   3   4   7 425.639 214.312  18
  -3  -4  -8 2562.40 396.661   4
  -3  -4  -8 3305.51 504.434  17
  -3  -4  -8 3171.62 462.937  12
   3   4   8 3088.90 505.602  11
  -3  -4  -8 2662.49 413.689   1
  -3  -4  -8 3227.41 393.330  21
   3   4   8 2679.22 434.362  19
   3   4   8 3487.89 502.483  18
  -3  -4  -9 1338.71 323.037   4
  -3  -4  -9 1499.98 362.380  17
  -3  -4  -9 1512.72 321.600  12
  -3  -4  -9 1735.52 319.889  21
   3   4   9 1820.00 416.709  11
  -3  -4  -9 1495.97 323.818   1
   3   4   9 1531.63 357.443  19
   3   4   9 1524.06 380.582  18
  -3  -4 -10 10713.3 889.935   1
   3   4  10 9800.06 946.051  11
  -3  -4 -10 11181.2 847.312  12
  -3  -4 -10 11005.2 813.098  21
   3   4  10 10748.6 947.694  19
  -3  -4 -10 9732.85 826.029   4
   3   4  10 12743.0 1014.50  18
  -3  -4 -10 9662.71 914.587  17
  -3  -4 -11 12791.0 997.033   1
  -3  -4 -11 11302.4 1017.16  17
  -3  -4 -11 12720.2 909.572  12
  -3  -4 -11 12012.8 900.846  21
   3   4  11 9287.48 927.866  11
   3   4  11 13334.5 1089.78  19
   3   4  11 12290.0 1027.44  18
  -3  -4 -12 1191.53 406.960  17
  -3  -4 -12 1266.12 314.850  12
  -3  -4 -12 856.547 275.824  21
   3   4  12 702.341 300.279  11
   3   4  12 884.005 348.268  19
  -3  -4 -12 1050.36 329.674   1
   3   4  12 1246.64 360.513  18
  -3  -4 -13 13130.6 1101.87   1
  -3  -4 -13 15658.6 975.366  12
  -3  -4 -13 15543.4 1128.88  21
  -3  -4 -13 16553.7 1300.41  17
   3   4  13 16070.3 1288.45  19
  -3  -4 -14 4557.99 663.674  21
   3   4  14 4542.88 744.239  11
   3   4  14 4565.43 731.301  19
  -3  -4 -14 3533.47 594.161   1
  -3  -4 -14 4751.41 747.893  17
  -3  -4 -15 10899.8 1069.97   1
  -3  -4 -15 11671.1 1066.37  21
   3   4  15 9432.89 1113.86  11
   3   4  15 12434.3 1212.07  19
  -3  -4 -15 11732.5 1161.32  17
  -3  -4 -16 2095.83 536.957  17
  -3  -4 -16 2113.50 506.423  21
   3   4  16 1381.59 451.600  11
   3   4  16 1548.06 463.596  19
  -3  -4 -16 1823.93 483.447   1
  -3  -4 -17 636.295 312.269  21
   3   4  17 1364.88 484.648  11
  -3  -4 -17 924.424 363.231  17
   3   4  17 1665.54 496.084  19
  -3  -4 -17 699.876 380.304   1
  -3  -4 -18 784.358 401.229  17
  -3  -4 -18 1038.25 416.685  21
   3   4  18 1233.57 486.410  11
   3   4  18 1461.05 512.162  19
  -3  -4 -18 1074.30 411.263   1
  -3  -4 -19 1351.66 451.985   1
  -3  -4 -19 1415.76 493.060  17
  -3  -4 -19 929.234 433.759  21
   3   4  19 1214.17 467.841  11
   3   4  19 886.527 427.252  19
  -3  -4 -20 99.5708 298.285  21
  -3  -5  15 252.941 266.204   2
   3   5 -14 427.635 282.076   9
  -3  -5  14 753.440 361.714   2
   3   5 -13 120.097 167.168   9
  -3  -5  13-102.976 169.159  15
   3   5 -13-54.5498 197.120   8
  -3  -5  13-185.530 166.801   2
  -3  -5  13 248.859 331.111  20
   3   5 -12-77.3166 201.229   9
  -3  -5  12 44.6462 178.963  15
  -3  -5  12-69.0528 192.370   2
   3   5 -12 198.382 214.425   8
  -3  -5  12 670.553 392.568  20
   3   5 -11 291.992 173.841   9
  -3  -5  11 345.267 271.414  15
  -3  -5  11-36.7080 203.219   2
   3   5 -11 48.0681 199.487   8
  -3  -5  11 442.576 302.309  20
   3   5 -10 563.667 244.862   9
  -3  -5  10 520.684 311.187  15
  -3  -5  10 627.299 302.514   2
   3   5 -10 535.353 276.515   8
  -3  -5  10 709.203 299.074  20
   3   5  -9 954.323 311.244   9
  -3  -5   9 1355.45 389.966  15
  -3  -5   9 2182.40 480.307   2
   3   5  -9 1445.28 393.533   8
  -3  -5   9 1251.93 429.807  20
   3   5  -8 2188.50 417.711   9
  -3  -5   8 2444.83 499.516  15
  -3  -5   8 3566.57 566.215   2
   3   5  -8 3349.26 551.468   8
  -3  -5   8 3585.42 623.174  20
   3   5  -7 1403.90 341.946   9
  -3  -5   7 1176.98 366.686  15
  -3  -5   7 1435.31 263.159  14
  -3  -5   7 1411.99 363.251   2
   3   5  -7 1182.69 354.734   8
   3   5  -7 1238.25 254.441  13
   3   5  -7 1533.73 273.241   7
  -3  -5   7 1110.46 391.334  20
   3   5  -6 11114.7 870.642   9
  -3  -5   6 12270.3 914.779  16
  -3  -5   6 11321.8 974.508  15
  -3  -5   6 11146.7 681.395  14
   3   5  -6 10826.3 908.552   8
  -3  -5   6 11013.6 1015.94   3
   3   5  -6 9802.30 655.278  13
   3   5  -6 11369.1 730.042   7
  -3  -5   6 12867.6 996.381  12
  -3  -5   6 11400.1 1039.24  20
  -3  -5   6 12849.6 1058.26   2
   3   5  -5 11875.4 870.546   9
  -3  -5   5 13628.6 966.986  16
  -3  -5   5 11954.9 964.900  15
  -3  -5   5 12085.5 684.000  14
   3   5  -5 11346.2 901.283   8
  -3  -5   5 11729.5 1005.37   3
   3   5  -5 11469.8 699.499  13
  -3  -5   5 13389.3 1020.63  12
  -3  -5   5 11899.3 1023.98  20
  -3  -5   5 13879.3 1077.93   2
  -3  -5   4 18406.5 1105.36  16
  -3  -5   4 14288.9 1030.12  15
  -3  -5   4 14965.8 746.690  14
   3   5  -4 14714.6 990.633   8
  -3  -5   4 15884.1 1103.56   3
   3   5  -4 13925.4 756.334  13
   3   5  -4 13614.6 908.573   9
  -3  -5   4 15850.8 1101.01  12
  -3  -5   4 15228.1 1130.41  20
  -3  -5   4 16458.3 1159.97   2
   3   5  -3 10011.9 743.837   9
  -3  -5   3 10847.4 870.339  16
  -3  -5   3 9705.72 811.691  15
  -3  -5   3 11047.5 648.096  14
   3   5  -3 10271.3 800.031   8
   3   5  -3 8932.00 609.529  13
  -3  -5   3 12394.7 969.158  12
  -3  -5   3 9312.23 879.524  20
  -3  -5   3 11156.2 941.396   2
   3   5  -2 34303.7 1379.68   9
  -3  -5   2 35049.6 1564.42  16
  -3  -5   2 33241.2 1443.25  15
  -3  -5   2 36794.1 1220.15  14
   3   5  -2 33054.5 1390.45   8
   3   5  -2 29080.8 839.528  21
   3   5  -2 33706.4 869.552  19
   3   5  -2 35209.2 1247.27  13
  -3  -5   2 38545.9 1708.01  12
  -3  -5   2 32892.0 1652.75  20
   3   5  -2 30460.7 854.007  19
  -3  -5   2 38215.0 1729.40   2
   3   5  -1 17173.3 972.877   9
  -3  -5   1 15191.0 1044.79  16
  -3  -5   1 14452.4 901.692  15
  -3  -5   1 16053.7 828.202  14
   3   5  -1 14855.9 894.419   8
   3   5  -1 15256.8 834.274  13
  -3  -5   1 18523.4 1166.94  12
   3   5  -1 13685.1 447.087  21
   3   5  -1 14818.3 570.690  19
  -3  -5   1 15287.7 1073.24   2
   3   5   0 36441.0 1473.64   9
  -3  -5   0 38657.7 1639.13  16
  -3  -5   0 33433.2 1342.79  15
  -3  -5   0 37259.7 1328.02  14
   3   5   0 35290.7 1341.31   8
   3   5   0 34222.3 1314.90  13
  -3  -5   0 38964.1 1710.79  12
   3   5   0 36816.8 1005.65  19
  -3  -5   0 35288.6 1698.33   2
  -3  -5  -1 1233.73 403.621   2
   3   5   1 1018.03 216.879   9
   3   5   1 1698.74 305.050   5
   3   5   1 1860.53 316.780  13
   3   5   1 1809.87 297.621   8
  -3  -5  -1 2118.43 443.536  12
   3   5   1 2302.73 353.690  11
   3   5   1 2019.47 235.615  19
  -3  -5  -1 2382.77 470.350  16
  -3  -5  -2 20730.9 1100.06   1
   3   5   2 19451.0 1094.56   9
  -3  -5  -2 20264.9 1187.96  16
  -3  -5  -2 19893.9 1149.02  17
   3   5   2 18594.7 864.283   8
   3   5   2 20053.6 989.524  13
   3   5   2 20761.8 842.366  19
  -3  -5  -2 21725.9 1253.92  12
   3   5   2 20430.9 1277.10   6
   3   5   2 19037.5 1002.11  11
   3   5   2 20373.0 1058.84   5
  -3  -5  -2 19093.9 1196.52   2
   3   5   2 19612.7 1201.76  18
  -3  -5  -3 8502.57 775.946  16
   3   5   3 8097.95 529.610   8
  -3  -5  -3 9603.80 828.227  12
   3   5   3 9050.46 842.102   6
   3   5   3 8020.92 668.848  11
   3   5   3 7929.08 659.188   5
   3   5   3 8761.66 573.830  19
  -3  -5  -3 8419.61 706.399   1
  -3  -5  -3 5757.23 228.776  21
   3   5   3 9442.19 827.948  18
   3   5   3 5977.25 337.973   4
  -3  -5  -3 7381.16 674.826  17
  -3  -5  -4 1368.42 320.611  17
  -3  -5  -4 1890.12 425.304  16
   3   5   4 435.946 119.589   4
   3   5   4 850.466 184.618  15
   3   5   4 811.496 193.192   3
   3   5   4 973.886 200.320   8
  -3  -5  -4 2312.74 458.830  12
   3   5   4 566.678 226.619   6
  -3  -5  -4 735.415 114.123  21
  -3  -5  -4 772.024 263.796   1
   3   5   4 972.764 260.742   5
   3   5   4 1066.97 283.085  11
   3   5   4 969.592 233.059  19
   3   5   4 569.975 239.957  18
   3   5   5 41925.5 1652.26  11
  -3  -5  -5 42251.3 1723.43  16
   3   5   5 35027.4 1023.57  15
   3   5   5 41720.5 1091.11   8
   3   5   5 40480.6 1450.72  19
   3   5   5 35166.0 1026.39   3
  -3  -5  -5 48495.5 1906.83  12
   3   5   5 41845.7 1886.49   6
  -3  -5  -5 37264.3 997.942  21
   3   5   5 43094.0 1633.97   5
   3   5   5 44304.4 1860.74  18
   3   5   5 31352.1 1085.43   4
  -3  -5  -5 40740.2 1659.69   1
  -3  -5  -5 44561.8 1783.64  17
  -3  -5  -6 38293.4 1633.60   1
  -3  -5  -6 40779.6 1704.72  16
   3   5   6 30525.8 842.348  15
   3   5   6 33847.6 881.718   8
   3   5   6 40316.3 1661.85  11
   3   5   6 30189.9 841.384   3
  -3  -5  -6 44255.4 1837.00  12
   3   5   6 43174.6 1926.57   6
  -3  -5  -6 38253.2 1113.59  21
   3   5   6 38166.2 1485.58  19
   3   5   6 41456.5 1824.60  18
  -3  -5  -6 41882.7 1753.47  17
  -3  -5  -7 37457.3 1639.46   1
  -3  -5  -7 39801.4 1669.90  16
  -3  -5  -7 41868.7 1768.12  12
   3   5   7 42949.1 1912.02   6
  -3  -5  -7 33817.6 1119.18  21
   3   5   7 40128.7 1712.10  11
   3   5   7 39162.8 1559.99  19
   3   5   7 42169.1 1834.46  18
  -3  -5  -7 41904.1 1737.37  17
  -3  -5  -8 4136.09 571.333   1
  -3  -5  -8 3916.69 538.470  17
  -3  -5  -8 4554.69 574.539  16
  -3  -5  -8 4657.44 605.689  12
   3   5   8 4382.84 642.849   6
  -3  -5  -8 3463.90 389.980  21
   3   5   8 4017.08 562.461  11
   3   5   8 4370.18 554.978  19
   3   5   8 4373.34 597.693  18
  -3  -5  -9 6120.21 714.740   1
  -3  -5  -9 5982.66 657.753  16
   3   5   9 5200.43 679.613  11
  -3  -5  -9 6346.16 704.004  12
  -3  -5  -9 5890.61 531.358  21
   3   5   9 6357.15 796.903   6
   3   5   9 6075.96 678.189  19
   3   5   9 6428.69 731.844  18
  -3  -5  -9 5586.47 689.188  17
  -3  -5 -10 15272.1 1125.86   1
  -3  -5 -10 17529.3 1109.63  16
  -3  -5 -10 17604.8 1175.13  12
  -3  -5 -10 17948.7 989.563  21
   3   5  10 16356.0 1248.59  11
   3   5  10 17915.4 1210.88  19
   3   5  10 17025.9 1203.91  18
  -3  -5 -10 17686.6 1229.38  17
  -3  -5 -11 5845.64 651.075  16
  -3  -5 -11 5384.86 697.454   1
   3   5  11 5944.89 767.317  11
  -3  -5 -11 5156.22 569.697  21
  -3  -5 -11 6082.62 774.123  17
   3   5  11 5121.86 693.398  19
   3   5  11 5336.98 707.345  18
  -3  -5 -12 12176.3 1080.91   1
   3   5  12 11967.8 1154.52  11
  -3  -5 -12 13073.7 954.652  21
   3   5  12 12674.4 1129.48  19
   3   5  12 12902.5 1109.88  18
  -3  -5 -12 12481.7 1124.15  17
  -3  -5 -13 2956.49 593.614  17
  -3  -5 -13 2893.64 550.161   1
  -3  -5 -13 2746.02 467.173  21
   3   5  13 2576.70 593.996  11
   3   5  13 2753.42 539.582  19
   3   5  13 2646.94 512.664  18
  -3  -5 -14 148.329 241.631  17
  -3  -5 -14 778.491 333.135   1
  -3  -5 -14 311.016 196.834  21
   3   5  14 205.504 252.588  11
   3   5  14 393.088 277.493  19
   3   5  14-54.8462 199.892  18
  -3  -5 -15 483.362 290.784  17
  -3  -5 -15 964.107 389.220   1
  -3  -5 -15 1039.63 363.992  21
   3   5  15 540.346 336.400  19
   3   5  15 621.105 334.806  11
  -3  -5 -16 188.759 277.757  17
  -3  -5 -16 452.576 240.065   1
  -3  -5 -16 229.466 222.907  21
   3   5  16-78.7922 252.804  11
   3   5  16-157.393 238.862  19
  -3  -5 -17 547.382 352.228  17
  -3  -5 -17 314.422 248.904   1
  -3  -5 -17 148.315 236.244  21
   3   5  17 63.8759 222.840  11
   3   5  17 526.049 311.112  19
  -3  -5 -18 867.491 364.697  17
  -3  -5 -18 872.471 404.169   1
  -3  -5 -18 449.235 268.685  21
   3   5  18 124.935 242.579  11
   3   5  18 900.651 386.644  19
  -3  -5 -19 385.850 318.277  17
  -3  -5 -19 796.821 335.376  21
  -3  -5 -20 171.754 248.873  21
  -3  -6  13 243.862 284.327   2
  -3  -6  12 119.506 235.016  20
   3   6 -12-154.777 198.765   9
  -3  -6  12-212.456 242.454   2
   3   6 -11-106.081 181.488   9
  -3  -6  11-266.475 286.466  15
  -3  -6  11 358.530 286.540   2
   3   6 -11 1049.98 382.211   8
  -3  -6  11 933.997 414.163  20
   3   6 -10 921.081 333.518   9
  -3  -6  10 407.050 266.532  15
  -3  -6  10 580.098 321.636   2
  -3  -6  10 360.472 336.210   3
   3   6 -10 635.774 373.693   8
  -3  -6  10 420.093 263.880  20
   3   6  -9 480.665 257.211   9
  -3  -6   9 1206.50 401.722  15
  -3  -6   9 1557.74 434.212   2
  -3  -6   9 825.155 329.738   3
   3   6  -9 604.294 267.002   8
  -3  -6   9 1074.60 391.507  20
   3   6  -8 802.286 309.115   9
  -3  -6   8 1109.63 335.390  16
  -3  -6   8 976.587 355.685  15
  -3  -6   8 1215.21 377.578   2
  -3  -6   8 483.781 299.982   3
   3   6  -8 1146.00 375.470   8
  -3  -6   8 1423.02 408.926  20
   3   6  -7 2933.81 524.589   9
  -3  -6   7 3792.94 549.956  16
  -3  -6   7 3743.30 611.726  15
   3   6  -7 4738.80 678.444   8
  -3  -6   7 3258.73 592.187   3
  -3  -6   7 4357.85 704.854  20
  -3  -6   7 5118.13 721.970   2
  -3  -6   6 809.583 283.457  15
   3   6  -6 1252.41 338.772   9
  -3  -6   6 1060.27 298.393  16
  -3  -6   6 1598.26 411.597   2
   3   6  -6 1092.30 369.612   8
  -3  -6   6 769.622 323.271   3
  -3  -6   6 1137.34 378.648  20
   3   6  -5 5350.16 689.634   9
  -3  -6   5 6166.21 710.548  16
  -3  -6   5 5415.30 690.573  15
   3   6  -5 5958.06 727.662   8
  -3  -6   5 5627.59 722.742   3
  -3  -6   5 5717.50 752.571  20
  -3  -6   5 6876.95 825.898   2
  -3  -6   4 2276.58 452.669  16
   3   6  -4 1911.66 397.195   9
  -3  -6   4 1696.54 379.913  15
  -3  -6   4 2605.83 521.791   2
   3   6  -4 2600.03 444.862   8
  -3  -6   4 1953.30 431.044   3
  -3  -6   4 2294.24 480.164  20
  -3  -6   3 927.567 318.962  16
   3   6  -3 214.437 166.810   9
  -3  -6   3 891.196 285.310  15
  -3  -6   3 749.544 316.990   2
   3   6  -3 811.974 264.428   8
  -3  -6   3 739.639 280.079   3
  -3  -6   3 715.004 301.137  20
   3   6  -2 835.559 287.407   9
  -3  -6   2 644.676 229.965  15
  -3  -6   2 640.505 258.962   2
  -3  -6   2 480.976 241.450  16
   3   6  -2 879.329 267.477   8
   3   6  -2 615.040 163.453  13
  -3  -6   2 445.665 232.314   3
   3   6  -1 9796.58 849.061   9
  -3  -6   1 9711.66 890.097  16
  -3  -6   1 8007.38 729.397  15
   3   6  -1 9074.04 754.886   8
  -3  -6   1 8770.36 777.304   3
   3   6  -1 9127.83 602.916  13
   3   6  -1 7901.30 564.973  11
   3   6  -1 9574.14 567.806  19
  -3  -6   1 9843.71 929.977   2
  -3  -6   0 695.187 313.502   2
   3   6   0 931.908 296.686   9
  -3  -6   0 386.247 177.622  15
  -3  -6   0 683.786 262.663  16
  -3  -6   0 476.543 165.234   3
   3   6   0 725.727 204.415  13
   3   6   0 598.764 192.300  11
   3   6   0 457.494 149.478  19
   3   6   1 8413.39 794.055   9
  -3  -6  -1 9146.90 865.709  16
  -3  -6  -1 7984.47 666.659  15
   3   6   1 7847.44 608.119  13
  -3  -6  -1 8528.47 853.281   2
   3   6   1 7202.78 580.636  11
   3   6   1 7929.18 562.287  19
  -3  -6  -2 1037.52 365.760  16
  -3  -6  -2 1024.36 247.196  15
   3   6   2 603.229 230.763   9
   3   6   2 610.858 175.429  13
   3   6   2 590.726 219.065   6
   3   6   2 1057.76 284.121   5
   3   6   2 652.985 183.833  11
   3   6   2 912.436 200.408  19
  -3  -6  -3 1266.08 319.147  17
  -3  -6  -3 941.328 334.529  16
   3   6   3 718.842 271.723   9
   3   6   3 441.217 261.350   6
   3   6   3 960.255 293.946   5
   3   6   3 989.375 265.113  11
   3   6   3 1238.65 248.941  19
   3   6   3 1110.84 349.650  18
  -3  -6  -4 3097.43 483.008  17
  -3  -6  -4 2668.74 502.036  16
  -3  -6  -4 3289.31 509.554   1
   3   6   4 3883.61 636.951   6
   3   6   4 3268.90 452.647  11
   3   6   4 3795.62 530.691   5
   3   6   4 3707.33 423.204  19
   3   6   4 4038.20 624.245  18
  -3  -6  -5 1186.52 303.098  17
  -3  -6  -5 1227.11 343.618  16
   3   6   5 1339.13 309.653  11
   3   6   5 1291.72 372.197   6
   3   6   5 1124.16 340.554   5
  -3  -6  -5 1507.90 363.726   1
   3   6   5 1265.88 269.081  19
   3   6   5 1187.54 375.767  18
  -3  -6  -6 378.413 216.856  17
  -3  -6  -6 562.225 268.466  16
   3   6   6 888.832 329.627   6
  -3  -6  -6 311.616 172.443   1
   3   6   6 291.651 206.371  11
   3   6   6 472.904 257.253   5
   3   6   6 673.332 244.202  19
   3   6   6 629.948 293.452  18
  -3  -6  -7 299.241 230.719  17
  -3  -6  -7 325.407 235.925  16
   3   6   7 690.638 278.779   5
   3   6   7 643.745 275.635   6
   3   6   7 397.424 206.296  11
   3   6   7 471.237 203.430  19
  -3  -6  -7 169.945 205.422   1
   3   6   7 186.284 234.590  18
   3   6   8 2283.11 495.723  18
  -3  -6  -8 2045.28 414.397  17
  -3  -6  -8 2457.80 459.156  16
   3   6   8 2244.83 444.816  11
   3   6   8 2542.34 552.434   6
   3   6   8 2469.00 464.344  19
  -3  -6  -8 1683.45 371.004   1
  -3  -6  -9 1451.80 409.530   1
  -3  -6  -9 1419.90 372.271  17
  -3  -6  -9 1055.42 341.650  16
   3   6   9 1711.69 413.721   6
   3   6   9 435.690 222.476  11
   3   6   9 1582.10 377.334  19
   3   6   9 1439.31 394.971  18
  -3  -6 -10 3085.57 548.357  17
  -3  -6 -10 2163.68 482.240   1
  -3  -6 -10 3683.78 546.306  16
   3   6  10 3017.30 555.081  11
   3   6  10 3595.43 639.969   6
   3   6  10 2521.18 498.970  19
   3   6  10 3364.75 584.193  18
  -3  -6 -11 9.92028 181.013  17
  -3  -6 -11 61.9470 242.125   1
  -3  -6 -11-62.1895 207.162  16
   3   6  11 201.369 179.455  11
   3   6  11-73.6802 178.772  19
   3   6  11 243.128 207.098  18
  -3  -6 -12 275.348 258.508  17
  -3  -6 -12 133.034 176.670  16
  -3  -6 -12 116.529 213.784   1
  -3  -6 -12-265.012 195.257  21
   3   6  12 140.180 187.705  11
   3   6  12 162.185 261.952  19
   3   6  12 220.012 223.870  18
  -3  -6 -13 145.052 267.102  17
  -3  -6 -13 97.3778 169.926  16
  -3  -6 -13 85.4888 188.176   1
   3   6  13-406.026 300.590  11
   3   6  13 144.475 225.849  19
   3   6  13 5.50183 190.581  18
  -3  -6 -14 849.206 327.929  17
  -3  -6 -14 1309.83 353.452  16
  -3  -6 -14 1087.33 419.168   1
   3   6  14 705.096 372.744  11
   3   6  14 441.142 265.132  19
   3   6  14 1514.20 441.974  18
  -3  -6 -15 135.037 310.820  17
  -3  -6 -15-185.970 247.230   1
   3   6  15-25.7527 188.109  11
   3   6  15 318.322 276.503  19
   3   6  15 100.282 296.605  18
  -3  -6 -16 603.297 314.350  17
  -3  -6 -16 218.068 300.160   1
   3   6  16 192.614 246.206  11
   3   6  16-12.7863 192.011  19
   3   6  16 129.471 306.323  18
  -3  -6 -17 181.873 264.688  17
  -3  -6 -17 179.001 193.501   1
   3   6  17-63.2207 204.989  11
  -3  -6 -18 289.168 288.577  17
  -3  -6 -19 125.455 318.918  17
  -3  -7  10 609.682 425.493  20
   3   7  -9 2823.97 582.286   9
  -3  -7   9 4289.66 745.427  15
  -3  -7   9 4845.02 741.232   2
  -3  -7   9 3499.19 739.556   3
   3   7  -9 2961.40 610.702   8
  -3  -7   9 4420.66 769.260  20
   3   7  -8 1729.61 473.196   9
  -3  -7   8 1815.24 430.493  16
  -3  -7   8 990.837 380.374  15
  -3  -7   8 1548.43 465.507   2
   3   7  -8 1549.47 456.898   8
  -3  -7   8 1603.91 512.485   3
  -3  -7   8 1424.20 428.910  20
   3   7  -7 771.623 319.430   9
  -3  -7   7 728.510 347.041  16
  -3  -7   7 504.207 277.610  15
  -3  -7   7 1026.50 353.725   2
   3   7  -7 306.110 168.846   8
  -3  -7   7 903.932 381.311   3
  -3  -7   7 675.853 311.724  20
   3   7  -6 223.110 261.931   9
  -3  -7   6 333.959 181.409  16
  -3  -7   6 379.397 298.752   2
   3   7  -6 283.316 212.809   8
  -3  -7   6 42.4908 197.367  15
  -3  -7   6 250.568 214.416   3
  -3  -7   6 696.190 322.656  20
  -3  -7   5 2370.72 501.775  16
   3   7  -5 1984.25 458.938   9
  -3  -7   5 2187.43 477.633  15
  -3  -7   5 3258.49 588.776   2
   3   7  -5 1403.77 377.349   8
  -3  -7   5 2322.18 516.564   3
  -3  -7   5 1960.67 486.801  20
   3   7  -4 4327.76 659.557   9
  -3  -7   4 3071.28 568.988  16
  -3  -7   4 3402.82 569.593  15
   3   7  -4 4099.55 621.819   8
  -3  -7   4 3375.91 606.818   3
  -3  -7   4 4643.22 713.416   2
  -3  -7   3 629.393 285.834  16
   3   7  -3 72.1240 162.081   9
  -3  -7   3 345.857 272.734   2
  -3  -7   3 587.806 242.581  15
   3   7  -3 556.229 271.969   8
  -3  -7   3 474.821 284.507   3
  -3  -7   2 3259.82 545.030  16
  -3  -7   2 3219.80 632.734   2
   3   7  -2 3762.33 609.435   9
  -3  -7   2 3184.52 496.117  15
  -3  -7   2 2853.87 505.045   3
  -3  -7   1 2469.21 497.991  16
  -3  -7   1 2461.09 499.136   2
   3   7  -1 2201.59 452.295   9
  -3  -7   1 2330.11 438.662  15
  -3  -7   1 2119.50 433.160   3
   3   7   0 8232.18 892.716   9
  -3  -7   0 8278.86 944.103  16
  -3  -7   0 6635.95 689.626  15
  -3  -7   0 6630.08 702.775   3
   3   7   1 21227.3 1428.22   9
  -3  -7  -1 17365.6 1058.82  15
  -3  -7  -1 19596.2 1158.59   3
  -3  -7  -1 21622.6 1471.01  16
   3   7   2 3640.75 436.844  19
  -3  -7  -2 3403.98 625.373  16
   3   7   2 3015.75 547.719   9
  -3  -7  -2 2678.14 412.492  15
   3   7   2 2997.72 601.298   6
  -3  -7  -2 2972.46 443.479   3
   3   7   2 2924.02 525.120   5
  -3  -7  -3 377.381 219.910  16
  -3  -7  -3 345.591 161.913  15
   3   7   3-162.597 240.182   9
   3   7   3 547.162 206.688  13
   3   7   3 198.487 334.869   6
   3   7   3 565.889 275.730   5
   3   7   3 826.942 219.598  11
   3   7   3 857.705 225.741  19
   3   7   3 698.654 297.899  18
  -3  -7  -4 3589.79 624.098  16
  -3  -7  -4 2106.41 311.188  15
   3   7   4 3359.28 575.473   9
   3   7   4 2280.01 394.112  11
   3   7   4 2691.36 572.838   6
   3   7   4 2997.02 562.989   5
   3   7   4 3341.72 447.490  19
   3   7   4 3747.41 638.582  18
  -3  -7  -5 17352.1 1323.53  16
   3   7   5 18127.7 1485.09   6
   3   7   5 16456.9 1084.77  11
   3   7   5 19287.1 1362.23   5
  -3  -7  -5 17351.7 1338.79   1
   3   7   5 17049.7 1079.08  19
   3   7   5 18827.6 1440.84  18
  -3  -7  -5 16534.9 1137.27  17
  -3  -7  -6 12328.9 993.261  17
  -3  -7  -6 12443.4 1118.74  16
   3   7   6 10831.2 939.956  11
   3   7   6 12671.5 942.990  19
   3   7   6 12333.5 1278.25   6
   3   7   6 12309.6 1105.14   5
  -3  -7  -6 12321.6 1143.00   1
   3   7   6 12755.7 1193.39  18
  -3  -7  -7 3458.43 534.109  17
   3   7   7 3850.06 546.075  19
   3   7   7 4230.62 755.888   6
  -3  -7  -7 4124.96 666.808  16
  -3  -7  -7 3843.52 680.152   1
   3   7   7 4167.11 618.852  11
   3   7   7 3645.93 605.419   5
   3   7   7 4642.89 716.336  18
  -3  -7  -8 527.992 227.715  17
   3   7   8 704.206 309.369   5
   3   7   8 848.786 312.844  19
  -3  -7  -8-331.308 200.686  16
   3   7   8 670.313 361.715   6
  -3  -7  -8 5.55131 171.792   1
   3   7   8 501.916 232.707  11
   3   7   8 698.432 338.054  18
  -3  -7  -9 184.085 181.939  17
  -3  -7  -9 252.944 265.328  16
   3   7   9 194.222 241.527   6
   3   7   9 220.096 209.238  11
  -3  -7  -9-252.096 275.046   1
   3   7   9 81.7447 196.046  19
   3   7   9 295.831 218.871  18
  -3  -7 -10 694.385 250.316  17
  -3  -7 -10 828.976 333.081  16
   3   7  10 1514.95 498.451   6
   3   7  10 372.612 265.471  11
   3   7  10 1126.79 339.148  19
  -3  -7 -10 1174.27 380.582   1
   3   7  10 1318.84 389.845  18
  -3  -7 -11 94.5746 190.915  17
  -3  -7 -11 534.481 265.856  16
   3   7  11 889.228 382.171   6
   3   7  11 344.349 231.089  11
   3   7  11 70.3031 177.570  19
  -3  -7 -11 303.502 240.349   1
   3   7  11 68.5751 211.410  18
  -3  -7 -12 1701.41 453.369  17
  -3  -7 -12 1938.81 445.823  16
   3   7  12 1765.30 460.817  11
   3   7  12 1175.38 394.751  19
   3   7  12 1044.69 401.705  18
  -3  -7 -12 1625.51 482.926   1
  -3  -7 -13 926.501 385.641   1
  -3  -7 -13 1703.49 504.701  17
  -3  -7 -13 1070.60 377.217  16
   3   7  13 930.792 357.255  11
   3   7  13 914.326 346.678  19
   3   7  13 1047.58 371.669  18
  -3  -7 -14 1929.64 510.657  17
  -3  -7 -14 1844.46 512.348   1
  -3  -7 -14 1897.69 474.661  16
   3   7  14 1393.44 459.519  11
   3   7  14 2999.05 641.162  19
   3   7  14 2357.57 559.547  18
  -3  -7 -15 1692.19 503.606  17
  -3  -7 -15 2228.77 552.892   1
   3   7  15 2331.72 561.723  11
   3   7  15 3503.57 733.137  19
   3   7  15 2688.08 595.121  18
  -3  -7 -16 5021.08 857.100  17
  -3  -7 -16 5166.43 882.824   1
   3   7  16 5479.54 871.051  11
   3   7  16 5448.50 887.911  19
   3   7  16 5713.25 882.575  18
  -3  -8   7 281.609 257.113  16
  -3  -8   7-15.5441 174.124  20
   3   8  -6 931.445 397.349   9
  -3  -8   6 500.114 300.211  16
  -3  -8   6 622.590 295.820  15
   3   8  -6 741.210 338.386   8
  -3  -8   6 665.455 361.358   3
  -3  -8   5 695.411 346.142  16
   3   8  -5 401.954 270.308   9
  -3  -8   5 260.626 225.431  15
   3   8  -5 85.4025 172.517   8
  -3  -8   5 637.350 286.529   3
  -3  -8   4 72.4478 188.090  16
   3   8  -4 384.771 270.566   9
  -3  -8   4 468.706 214.033  15
   3   8  -4 652.443 309.568   8
  -3  -8   4 283.144 216.475   3
  -3  -8   3-63.2613 199.177  16
   3   8  -3 164.652 149.165   9
  -3  -8   3 12.4788 171.260  15
  -3  -8   3-145.665 227.144   3
  -3  -8   3-85.7420 251.510   2
  -3  -8   2 531.898 322.528  16
   3   8  -2 211.708 210.960   9
  -3  -8   2 337.691 252.343  15
  -3  -8   2 595.496 326.469   3
  -3  -8   1 1291.51 403.106  16
   3   8  -1 891.817 333.393   9
  -3  -8   1 1397.22 380.616  15
  -3  -8   1 1302.89 378.488   3
  -3  -8   0 1022.91 352.957  16
   3   8   0 1236.44 370.411   9
  -3  -8   0 1016.51 285.525  15
  -3  -8   0 830.073 282.439   3
  -3  -8  -1 1035.63 366.954  16
   3   8   1 1096.12 395.129   9
  -3  -8  -1 670.902 293.778  15
  -3  -8  -1 549.971 254.257   3
   3   8   1 1008.63 441.033   6
  -3  -8  -2 2088.43 522.961  16
   3   8   2 1934.52 462.804   9
   3   8   2 2250.64 590.889   6
   3   8   2 1684.31 437.442   5
  -3  -8  -3 250.973 273.636  16
   3   8   3 132.874 178.471   9
   3   8   3 189.672 260.453   6
   3   8   3 350.924 244.768   5
   3   8   3 196.256 229.803  18
  -3  -8  -4-168.070 250.187  16
   3   8   4 57.0005 202.473   9
   3   8   4 221.450 232.248   6
   3   8   4 204.938 254.342   5
   3   8   4-317.587 341.650  18
  -3  -8  -5 909.480 294.700  16
   3   8   5 908.672 379.561   9
   3   8   5 1253.36 456.319   6
   3   8   5 1167.33 401.709   5
   3   8   5 720.506 305.030  18
  -3  -8  -6 1092.37 407.349  16
   3   8   6 1794.09 474.821   9
   3   8   6 1956.48 557.972   6
   3   8   6 1576.62 456.713   5
   3   8   6 2017.44 443.906  19
   3   8   6 1995.32 558.319  18
  -3  -8  -7 2141.75 521.202  16
   3   8   7 2283.61 631.249   6
  -3  -8  -7 2767.20 605.790   1
   3   8   7 2378.90 550.537   5
   3   8   7 2499.39 489.315  19
   3   8   7 3129.00 676.211  18
  -3  -8  -8 463.797 293.220  16
  -3  -8  -8 1159.28 439.100   1
   3   8   8 1044.61 452.773   6
   3   8   8 371.435 274.360   5
   3   8   8 340.015 156.400  11
   3   8   8 1093.93 343.911  19
   3   8   8 870.455 401.960  18
  -3  -8  -9-82.0778 245.905  16
  -3  -8  -9 391.278 288.951   1
   3   8   9 379.214 355.467   6
   3   8   9-89.3435 215.092  11
   3   8   9-130.128 171.760   5
   3   8   9 346.088 248.735  19
   3   8   9 161.962 236.900  18
  -3  -8 -10-250.783 204.452  16
  -3  -8 -10-71.1927 316.631   1
   3   8  10 291.333 351.114   6
   3   8  10-211.471 222.296  11
   3   8  10 211.714 222.380  19
   3   8  10-159.702 186.833  18
  -3  -8 -11 143.915 203.910  16
   3   8  11-175.379 235.447   6
  -3  -8 -11 259.625 244.943   1
   3   8  11-322.575 255.021  11
   3   8  11 664.784 305.670  19
   3   8  11 39.0552 240.317  18
  -3  -8 -12 1011.31 384.932  16
   3   8  12 1610.83 551.500   6
   3   8  12 492.989 275.855  11
  -3  -8 -12 152.549 184.522   1
   3   8  12 429.498 308.593  19
   3   8  12 1263.30 458.595  18
  -3  -8 -13 14.7056 174.977  16
   3   8  13 524.802 297.404  11
  -3  -8 -13-50.9543 262.823   1
   3   8  13 348.624 242.044  18
  -3  -8 -14 660.730 348.918  16
   3   8  14 955.531 350.250  11
   3   8  14 318.761 261.304  19
   3   9  -3 603.715 344.582   9
  -3  -9   3 618.742 343.250  15
  -3  -9   3 645.722 292.158   3
   3   9  -2 233.657 301.450   9
   3   9  -1 422.480 305.779   9
   3   9   0 482.919 278.372   9
   3   9   1 948.807 469.552   9
   3   9   1-169.868 265.522   5
   3   9   2 2212.02 549.590   9
   3   9   2 2350.64 550.265   5
   3   9   3 962.170 422.655   9
   3   9   3 1289.26 420.550   5
   3   9   4 1415.48 506.896   9
   3   9   4 1285.86 462.403   5
   3   9   5 2120.58 559.152   9
   3   9   5 2369.72 574.237   5
   3   9   6-608.265 344.831   9
   3   9   6-113.762 210.186   5
   3   9   7 1921.22 568.290   9
   3   9   7 1652.16 519.160   5
   3   9   8 2648.55 653.986   9
   3   9   8 2957.27 681.716   5
   3   9   9 95.8680 270.974   5
   3   9  12 909.134 357.423  19
   4  -6  -6 480.033 224.057  15
  -4   6   6 361.618 277.998   4
   4  -6  -5 1056.74 407.260  15
  -4   6   5 487.092 356.723   4
   4  -6  -4 1712.50 511.886  15
  -4   6   4 933.172 366.865   4
  -4   5  11 379.469 268.380  14
  -4   5  11 1147.10 462.586   5
  -4   5  10-11.2680 206.709   9
  -4   5  10 252.565 237.250  14
  -4   5  10 590.296 335.672   5
  -4   5   9 183.946 363.378   9
   4  -5  -9 607.845 305.370  15
  -4   5   9 714.965 351.567   4
  -4   5   9 411.066 235.917  14
  -4   5   9 433.512 338.987   5
  -4   5   8 58.7457 322.443   9
   4  -5  -8 182.539 217.002  15
  -4   5   8 193.804 271.431   4
  -4   5   8 238.922 282.772   5
   4  -5  -8 344.412 318.220  10
  -4   5   7 18.8216 204.707   9
   4  -5  -7 228.229 236.493  15
  -4   5   7-85.0250 182.056   4
  -4   5   7 338.339 230.490  21
  -4   5   7 455.257 315.096   5
   4  -5  -7-197.237 199.491  10
  -4   5   6 250.009 245.363   9
   4  -5  -6 295.105 291.013  15
  -4   5   6 167.998 259.519   4
  -4   5   6 223.785 211.276  21
  -4   5   6 370.366 293.291   5
   4  -5  -6 341.194 263.503  10
  -4   5   5 348.897 199.627   9
   4  -5  -5-22.9960 274.404  15
  -4   5   5-55.6969 173.410   4
  -4   5   5 226.075 172.541  21
   4  -5  -5 377.589 267.265  10
  -4   5   4 645.224 374.190   9
   4  -5  -4-109.933 191.655  15
  -4   5   4 646.057 300.040   4
  -4   5   4 240.180 179.166  21
   4  -5  -4 149.438 193.262  10
  -4   5   3 2886.44 700.530   9
   4  -5  -3 3458.79 682.374  15
  -4   5   3 2810.67 602.725   4
  -4   5   3 3211.30 577.053  21
   4  -5  -3 2929.14 605.555  10
  -4   5   2 1689.87 523.367   9
   4  -5  -2 2022.72 512.689  15
  -4   5   2 1432.48 416.667   4
  -4   5   2 1293.96 375.404  21
   4  -5  -2 1472.21 446.267  10
  -4   5   1 1739.99 589.778   9
  -4   5   1 2204.35 495.469   4
   4  -5  -1 2502.66 613.091  15
  -4   5   1 2628.61 531.469  21
   4  -5  -1 1817.07 487.424  10
  -4   5   0 767.536 440.284   9
  -4   5   0 769.629 348.032   4
   4  -5   0 1049.65 436.245  15
  -4   5   0 1324.68 470.426  21
   4  -5   0 989.435 352.386  10
  -4   5  -1 2543.62 644.980   9
  -4   5  -1 1135.41 389.748   4
   4  -5   1 1582.27 539.298  15
  -4   5  -1 2512.91 536.263  21
   4  -5   1 1496.65 447.107  10
  -4   5  -2 553.549 331.640   9
  -4   5  -2 376.070 248.820   4
   4  -5   2 1072.06 445.984  15
  -4   5  -2 1050.73 357.895  21
   4  -5   2 1113.24 427.137   3
   4  -5   2 264.253 255.106  10
  -4   5  -3 355.091 314.665   9
  -4   5  -3 594.008 298.177   4
   4  -5   3 516.964 328.057  15
  -4   5  -3 588.047 290.738  21
   4  -5   3 544.750 303.494   3
   4  -5   3 613.149 373.218  10
  -4   5  -4 1245.43 482.865   9
  -4   5  -4 926.024 373.491   4
  -4   5  -4 632.570 302.734  21
   4  -5   4 586.016 247.206  10
  -4   5  -5 628.854 323.019   4
   4  -5   5 914.782 385.573  10
   4  -5   6 626.340 332.467  10
   4  -5   7 2643.01 609.644  10
   4  -4 -14 24.1265 188.980   1
   4  -4 -14-304.212 233.436  10
  -4   4  13 1215.02 456.525  14
   4  -4 -13 1282.66 525.476   1
   4  -4 -13 1232.55 423.586  10
  -4   4  12 344.959 276.396  14
   4  -4 -12 584.110 352.841   1
  -4   4  12 925.346 418.933  19
   4  -4 -12 447.651 270.887  10
  -4   4  11 217.378 204.208  14
  -4   4  11 516.222 301.834   5
  -4   4  11 186.454 248.163  19
   4  -4 -11 419.004 282.172  10
  -4   4  10 508.957 293.236  14
  -4   4  10 631.589 353.567  19
   4  -4 -10 857.495 338.259  10
  -4   4   9 905.123 401.615   4
  -4   4   9 1573.57 439.998  14
  -4   4   9 2020.33 514.053   5
   4  -4  -9 1335.79 394.826  10
  -4   4   8 310.821 192.882   9
  -4   4   8 504.045 274.064   4
  -4   4   8-221.328 229.988  14
  -4   4   8-32.8275 206.030   5
   4  -4  -8 91.9673 241.264  10
  -4   4   7 1385.98 494.081   9
  -4   4   7 2548.72 570.727   4
  -4   4   7 1458.74 373.878  14
   4  -4  -7 1844.00 442.116  13
  -4   4   7 1693.39 442.623  21
  -4   4   7 1133.29 462.913   5
   4  -4  -7 1410.97 445.443  10
  -4   4   6 1564.95 475.935   9
  -4   4   6 2396.86 568.404   4
  -4   4   6 2091.40 467.121  14
   4  -4  -6 2402.83 474.947  13
  -4   4   6 1489.18 453.741  21
  -4   4   6 2217.08 543.652   5
   4  -4  -6 1623.24 418.203  10
  -4   4   5 1659.93 489.807   9
  -4   4   5 2073.17 504.089   4
  -4   4   5 1785.13 399.102  14
   4  -4  -5 2270.63 466.628  13
  -4   4   5 2000.79 493.433  21
   4  -4  -5 1763.98 450.980  10
  -4   4   4 1590.85 452.939   9
   4  -4  -4 2006.82 493.830  15
  -4   4   4 1973.24 476.064   4
  -4   4   4 1455.86 350.632  14
   4  -4  -4 1884.33 389.050  13
  -4   4   4 1936.99 430.996  21
   4  -4  -4 1694.32 458.383  10
  -4   4   3 3511.36 642.124   9
   4  -4  -3 3072.88 591.591  15
  -4   4   3 2904.86 574.368   4
  -4   4   3 3588.56 529.589  14
   4  -4  -3 3920.62 564.408  13
  -4   4   3 3569.37 593.267  21
   4  -4  -3 3474.18 626.666  10
  -4   4   2 2032.92 521.594   9
   4  -4  -2 2113.43 525.429  15
  -4   4   2 2508.05 545.962   4
  -4   4   2 1479.71 339.783  14
   4  -4  -2 3030.45 485.209  13
  -4   4   2 3072.68 565.916  21
   4  -4  -2 3338.26 600.344  10
  -4   4   1 4262.39 707.025   9
   4  -4  -1 3508.73 645.597  15
  -4   4   1 2371.46 498.338   4
  -4   4   1 3422.19 581.642  21
   4  -4  -1 3106.14 552.434  10
  -4   4   0 2261.89 500.698  21
  -4   4   0 2017.46 537.451   9
  -4   4   0 2727.40 540.453   4
   4  -4   0 2207.04 492.789  15
   4  -4   0 2557.64 507.312  10
  -4   4  -1 1482.63 421.169   9
  -4   4  -1 1659.72 429.227   4
   4  -4   1 1663.13 481.922  15
  -4   4  -1 1748.20 416.226  21
   4  -4   1 1537.31 424.340  10
  -4   4  -2 2855.36 634.659   9
  -4   4  -2 2385.15 515.283   4
   4  -4   2 1900.32 505.115  15
  -4   4  -2 2968.61 545.713  21
   4  -4   2 1632.40 408.646  10
  -4   4  -3 1084.68 396.916   9
  -4   4  -3 933.046 326.228   4
   4  -4   3 948.309 370.638  15
  -4   4  -3 1597.67 405.510  21
   4  -4   3 1275.72 350.054  10
  -4   4  -4 722.887 374.117   9
  -4   4  -4 942.303 353.912   4
   4  -4   4 1602.08 476.653   3
   4  -4   4 648.438 321.494  15
  -4   4  -4 780.700 318.534  21
   4  -4   4 1094.31 347.619  10
  -4   4  -5 784.540 338.944   9
  -4   4  -5 119.020 183.276   4
   4  -4   5 312.216 235.543  15
  -4   4  -5 81.0053 194.132  21
   4  -4   5 93.5144 237.414   3
   4  -4   5 331.876 225.869  10
  -4   4  -6 215.516 266.482   9
  -4   4  -6 304.833 233.491   4
   4  -4   6 499.562 326.240  15
  -4   4  -6-30.7643 281.809  21
   4  -4   6 378.631 247.295   3
   4  -4   6 400.312 237.322  10
  -4   4  -7 869.837 398.735   9
  -4   4  -7 1141.98 373.993   4
   4  -4   7 623.297 327.380  15
  -4   4  -7 472.453 327.451  21
   4  -4   7 906.731 432.794   3
   4  -4   7 605.094 271.496  10
  -4   4  -8 79.7504 233.485   9
  -4   4  -8 302.632 228.242   4
   4  -4   8 577.506 342.839  15
  -4   4  -8 270.788 235.722  21
   4  -4   8 809.200 376.341   3
   4  -4   8 228.137 226.573  10
  -4   4  -9 531.049 323.255   4
  -4   4  -9 209.179 253.706   9
  -4   4  -9 983.823 392.611  21
  -4   4 -10-191.977 261.356   4
  -4   4 -10 982.872 440.583  21
  -4   4 -11-39.8995 170.633   4
  -4   4 -11 234.072 270.980  21
   4  -3 -16 1127.10 470.982   8
   4  -3 -15 204.970 210.810   8
   4  -3 -15 677.854 351.255   1
  -4   3  15 664.346 362.493  19
   4  -3 -14 1283.87 462.756   8
  -4   3  14 1678.46 534.629  14
   4  -3 -14 1580.75 512.527   1
  -4   3  14 1985.59 532.445  19
   4  -3 -14 912.861 324.169  10
   4  -3 -13 2010.99 540.129   8
  -4   3  13 2585.68 609.750  14
   4  -3 -13 1910.25 594.654   1
  -4   3  13 3003.69 632.976  19
   4  -3 -13 2572.89 513.692  10
   4  -3 -12 453.759 266.360   8
  -4   3  12-23.7529 246.214  14
  -4   3  12 538.054 347.830  19
   4  -3 -12 60.6520 255.841   1
   4  -3 -12 648.185 283.758  10
  -4   3  11 1304.72 445.254  14
   4  -3 -11 764.252 395.385   1
  -4   3  11 940.853 330.463   2
  -4   3  11 360.502 249.808  19
   4  -3 -11 1047.46 330.167  10
  -4   3  10 7600.67 814.213   2
  -4   3  10 9691.47 1026.05  14
   4  -3 -10 9606.46 1024.12  13
  -4   3  10 11373.1 1078.90   5
  -4   3  10 9590.65 1132.47  19
   4  -3 -10 9449.43 1041.79   1
   4  -3 -10 7359.03 837.859  10
  -4   3   9 808.866 348.262  14
   4  -3  -9 1857.98 500.684  13
  -4   3   9 1918.42 403.800   2
   4  -3  -9 1088.17 382.688   1
  -4   3   9 1820.06 501.483  19
  -4   3   9 1506.47 432.921   5
   4  -3  -9 1578.37 396.322  10
  -4   3   8 413.479 282.576  14
   4  -3  -8 339.244 249.977  13
  -4   3   8 551.579 245.557   2
  -4   3   8 619.833 327.107  21
  -4   3   8 321.239 162.668   5
   4  -3  -8 421.184 232.748  10
  -4   3   7 1001.90 356.452   4
  -4   3   7 1408.21 396.015  14
   4  -3  -7 1618.23 406.990  13
  -4   3   7 1442.80 318.727   2
  -4   3   7 1769.00 465.075  21
  -4   3   7 1487.20 454.531   5
   4  -3  -7 1536.53 406.788  10
  -4   3   6 5877.06 801.573   4
  -4   3   6 5817.01 865.619   9
  -4   3   6 4767.32 527.216   2
  -4   3   6 6277.27 758.676  14
   4  -3  -6 6996.54 803.454  13
  -4   3   6 6591.27 814.962  21
  -4   3   6 7407.47 896.591   5
  -4   3   5 17537.9 1372.43   9
  -4   3   5 15508.8 1176.94  14
   4  -3  -5 17210.0 1232.81  13
  -4   3   5 18120.3 1313.96  21
  -4   3   5 15303.6 1259.03   4
  -4   3   4 1144.48 369.821   9
  -4   3   4 1229.29 413.746   4
  -4   3   4 2090.14 461.279  14
   4  -3  -4 1651.22 425.587  13
  -4   3   4 1660.02 440.346  21
  -4   3   3 325.598 176.660   9
  -4   3   3 1117.52 343.717   4
  -4   3   3 820.852 259.104  14
   4  -3  -3 1075.29 329.869  13
  -4   3   3 1216.32 378.094  21
  -4   3   2 10390.9 1008.29   9
  -4   3   2 8974.47 805.821  14
   4  -3  -2 10597.4 893.761  13
  -4   3   2 9935.96 967.030  21
  -4   3   2 7940.14 866.875   4
  -4   3   1 14253.1 1181.88   9
   4  -3  -1 14379.6 1172.38  15
  -4   3   1 13392.1 956.658  14
   4  -3  -1 16842.8 1091.68  13
  -4   3   1 13000.0 1114.56  21
  -4   3   1 13004.8 1092.71   4
  -4   3   0 11126.1 1029.01   9
   4  -3   0 11870.3 1097.53  15
  -4   3   0 10265.2 814.555  14
   4  -3   0 14275.1 976.009  13
  -4   3   0 11822.1 1045.68  21
  -4   3   0 11468.8 1036.16   4
  -4   3  -1 2425.37 499.923   9
  -4   3  -1 2830.05 532.304   4
   4  -3   1 2138.57 529.033  15
  -4   3  -1 2151.67 389.327  14
  -4   3  -1 1955.54 453.252  21
   4  -3   1 2707.21 431.695  13
  -4   3  -2 6261.15 793.669   9
   4  -3   2 7345.77 898.345  15
  -4   3  -2 5652.28 593.389  14
  -4   3  -2 5902.64 731.632  21
   4  -3   2 7566.30 680.251  13
  -4   3  -2 5994.64 781.628   4
  -4   3  -3 6072.18 776.594   9
   4  -3   3 6096.51 833.984  15
  -4   3  -3 4941.92 561.229  14
   4  -3   3 6209.72 612.918  13
  -4   3  -3 6475.60 792.045  21
  -4   3  -3 5743.04 767.423   4
  -4   3  -4 3575.71 625.925   9
  -4   3  -4 3381.69 619.874   4
   4  -3   4 3362.74 593.935  15
   4  -3   4 3462.89 445.917  13
  -4   3  -4 4692.80 686.227  21
  -4   3  -5 844.223 313.088   9
  -4   3  -5 1289.74 404.320   4
   4  -3   5 837.746 361.525  15
  -4   3  -5 1664.57 414.593  21
  -4   3  -6-97.3928 227.907   9
  -4   3  -6 241.108 220.606   4
   4  -3   6 59.7698 181.133  15
  -4   3  -6 362.183 286.192  21
   4  -3   6 456.554 282.906   3
  -4   3  -7 485.590 290.427   9
  -4   3  -7 499.247 262.489   4
   4  -3   7 412.256 269.070  15
  -4   3  -7 543.469 280.250  21
   4  -3   7 396.174 288.280   3
   4  -3   7 534.501 233.251  10
  -4   3  -8 822.918 373.536   9
  -4   3  -8 729.033 298.349   4
   4  -3   8 1583.42 461.521  15
  -4   3  -8 1052.34 427.379  21
   4  -3   8 1484.76 447.846   3
   4  -3   8 379.886 220.429  10
  -4   3  -9 3168.19 648.744   9
   4  -3   9 3774.03 671.566  15
   4  -3   9 4516.64 735.197   3
  -4   3  -9 5232.88 835.657  21
  -4   3  -9 5052.43 768.987   4
   4  -3   9 4356.89 604.874  10
  -4   3 -10 1677.73 483.829   4
  -4   3 -10 1217.97 431.685   9
   4  -3  10 812.559 344.920  15
  -4   3 -10 1839.18 550.995  21
   4  -3  10 1573.81 489.857   3
  -4   3 -11 1444.96 470.028   4
  -4   3 -11 1299.47 488.889   9
   4  -3  11 711.970 372.820  15
  -4   3 -11 889.420 408.628  21
   4  -3  11 1401.82 456.444   3
  -4   3 -12 1215.37 415.132   4
  -4   3 -12 1252.42 469.788   9
   4  -3  12 971.946 386.355  15
  -4   3 -12 2427.39 636.631  21
   4  -3  12 1287.41 444.335   3
  -4   3 -13 1069.77 441.328   4
   4  -2 -17 655.060 347.290   8
  -4   2  17 418.408 298.639  19
   4  -2 -16 581.081 314.760   8
  -4   2  16 1363.72 449.265   2
  -4   2  16 1009.66 394.097  19
   4  -2 -15 400.945 271.848   8
  -4   2  15 883.599 421.797  14
  -4   2  15 223.366 228.335   2
  -4   2  15 87.8159 180.434  19
   4  -2 -14 155.990 242.703   8
  -4   2  14 759.232 368.413  14
  -4   2  14 729.332 360.253   2
  -4   2  14 515.133 336.411  19
   4  -2 -14 290.319 229.963   1
   4  -2 -13 2499.55 564.845   8
  -4   2  13 3488.18 686.003  14
  -4   2  13 3187.44 599.977   2
   4  -2 -13 3973.00 662.947   1
  -4   2  13 3580.65 631.655  19
   4  -2 -13 2664.75 495.213  10
   4  -2 -12 2214.71 534.316   8
  -4   2  12 1769.17 508.072  14
   4  -2 -12 3150.50 633.042  13
  -4   2  12 2843.63 551.760   2
   4  -2 -12 3051.07 577.569   1
  -4   2  12 3367.69 610.246  19
   4  -2 -12 2509.24 471.989  10
   4  -2 -11 667.022 319.906   8
  -4   2  11 796.451 376.794  14
   4  -2 -11 1082.66 407.176  13
   4  -2 -11 1134.64 366.282   1
  -4   2  11 777.331 297.153   2
  -4   2  11 347.619 259.551  19
   4  -2 -11 585.681 248.309  10
  -4   2  10 16879.0 1202.54   2
   4  -2 -10 16621.5 1320.27   8
  -4   2  10 18567.1 1430.21  14
   4  -2 -10 20463.7 1472.06  13
  -4   2  10 20660.4 1470.22  19
   4  -2 -10 19693.5 1373.66   1
  -4   2   9 17850.5 1200.65   2
   4  -2  -9 17939.7 1359.57   8
  -4   2   9 20871.1 1451.77  14
  -4   2   9 24122.0 1404.07   5
   4  -2  -9 23794.1 1550.69  13
  -4   2   9 25350.7 1600.38  19
   4  -2  -9 21165.3 1397.19   1
  -4   2   8 7865.97 759.267   2
   4  -2  -8 7365.56 882.959   8
  -4   2   8 9032.35 931.859  14
   4  -2  -8 8773.17 921.855  13
  -4   2   8 9805.27 1045.77  21
  -4   2   8 10731.0 928.975   5
   4  -2  -8 9623.06 941.664   1
  -4   2   7 5724.52 614.540   2
   4  -2  -7 6139.29 780.516   8
  -4   2   7 6533.15 766.528  14
   4  -2  -7 6892.91 809.962  13
  -4   2   7 5356.48 777.828  21
  -4   2   7 7038.29 756.304   5
  -4   2   6 2131.36 501.807  21
  -4   2   6 1491.85 442.767   4
  -4   2   6 2599.36 493.667  14
   4  -2  -6 2946.96 535.076  13
  -4   2   6 2087.88 358.682   2
  -4   2   6 2108.36 435.268   5
  -4   2   5 16790.0 1247.07   4
  -4   2   5 13570.0 866.444   2
  -4   2   5 13209.4 1106.13   9
  -4   2   5 14956.8 1105.42  14
   4  -2  -5 16546.0 1171.52  13
  -4   2   5 18063.8 1177.13   5
  -4   2   5 17296.3 1271.69  21
  -4   2   4 1461.71 379.093   9
  -4   2   4 2195.72 483.566   4
  -4   2   4 2634.69 488.745  14
   4  -2  -4 3033.26 525.868  13
  -4   2   4 2083.17 320.763   2
  -4   2   4 2381.14 502.598  21
  -4   2   3 6974.18 536.529   2
  -4   2   3 7814.15 817.901   9
  -4   2   3 7591.50 761.822  14
   4  -2  -3 9649.78 849.977  13
  -4   2   3 8723.82 893.443  21
  -4   2   3 8550.89 903.039   4
  -4   2   2 1413.75 365.445   9
  -4   2   2 2116.58 485.596  21
  -4   2   2 1807.94 430.881   4
  -4   2   2 1867.22 379.119  14
  -4   2   2 1901.02 265.896   2
   4  -2  -2 2301.96 417.332  13
  -4   2   2 1407.64 195.651   6
  -4   2   1 2066.96 402.694   9
  -4   2   1 1981.66 457.559   4
  -4   2   1 2634.60 436.319  14
   4  -2  -1 3440.71 498.251  13
  -4   2   1 1932.23 246.025   6
  -4   2   1 2225.35 459.474  21
  -4   2   1 2066.26 245.041   2
  -4   2   0 279.147 171.174   9
  -4   2   0 341.370 92.0991   2
  -4   2   0 213.871 168.646   4
  -4   2   0-29.1100 158.963  14
   4  -2   0 310.600 183.475  13
  -4   2  -1 1396.63 251.274  17
  -4   2  -1 1628.44 387.711   9
  -4   2  -1 1401.20 368.715   4
  -4   2  -1 1664.72 334.184  14
   4  -2   1 2119.52 371.319  13
  -4   2  -1 2130.25 453.569  21
  -4   2  -2 36.7998 95.0655  17
  -4   2  -2-59.6928 170.194   9
  -4   2  -2-85.9654 239.138   4
   4  -2   2 15.7862 182.580  15
  -4   2  -2 66.2682 163.898  14
   4  -2   2 155.783 150.982  13
  -4   2  -2-21.4433 182.010  21
  -4   2  -3 2538.53 471.960   9
  -4   2  -3 2405.52 489.377   4
   4  -2   3 1742.24 416.376  15
  -4   2  -3 2421.96 402.743  14
   4  -2   3 2861.02 443.048  13
  -4   2  -3 2335.08 499.543  21
  -4   2  -3 2546.62 388.982  17
  -4   2  -4 2112.86 363.296  17
  -4   2  -4 1609.85 418.368   9
  -4   2  -4 2392.87 490.939   4
   4  -2   4 2173.15 496.861  15
  -4   2  -4 2234.96 380.450  14
  -4   2  -4 2091.94 468.632  21
   4  -2   4 2510.37 391.723  13
   4  -2   5 6018.17 772.632  15
  -4   2  -5 6420.81 636.378  14
   4  -2   5 7144.49 658.625  13
  -4   2  -5 6258.61 788.462  21
  -4   2  -5 5426.71 725.505   9
  -4   2  -5 6201.69 821.244   4
  -4   2  -5 6208.05 627.246  17
  -4   2  -6 6334.67 789.135   9
   4  -2   6 6518.15 774.721  15
  -4   2  -6 7251.25 683.076  14
   4  -2   6 8484.13 726.545  13
  -4   2  -6 9639.44 990.666  21
  -4   2  -6 8986.56 954.545   4
  -4   2  -6 6869.05 679.595  17
  -4   2  -7 14812.0 1199.33   9
   4  -2   7 15010.5 1219.61  15
  -4   2  -7 19756.1 1424.74  21
   4  -2   7 19126.1 1104.97  13
  -4   2  -7 17583.2 1315.55   4
  -4   2  -7 15970.1 1081.19  17
  -4   2  -8 9421.73 1007.95   9
   4  -2   8 10037.8 1006.62  15
   4  -2   8 12413.0 894.763  13
   4  -2   8 9647.59 998.721   3
  -4   2  -8 12751.2 1193.27  21
  -4   2  -8 12058.6 1085.68   4
  -4   2  -8 10711.7 930.525  17
  -4   2  -9 5797.95 804.100   9
  -4   2  -9 7021.81 781.511  17
   4  -2   9 8830.57 934.354  15
   4  -2   9 7792.76 724.391  13
   4  -2   9 8387.80 933.839   3
  -4   2  -9 8855.31 1026.58  21
   4  -2   9 6685.65 690.910  11
  -4   2  -9 7997.12 914.623   4
  -4   2 -10 5562.87 817.394   9
   4  -2  10 6268.09 852.880  15
  -4   2 -10 7374.10 936.910  21
   4  -2  10 6613.18 873.011   3
  -4   2 -10 6039.56 823.877   4
  -4   2 -10 7315.30 812.986  17
  -4   2 -11 338.942 210.507  17
  -4   2 -11 271.196 279.943   9
  -4   2 -11 374.655 312.421   4
   4  -2  11 243.618 254.604  15
  -4   2 -11 1134.88 448.066  21
   4  -2  11 135.371 241.584   3
  -4   2 -12-111.386 176.106   4
  -4   2 -12 524.402 332.122   9
   4  -2  12 65.2088 164.336  15
  -4   2 -12 85.1360 201.590  21
  -4   2 -12 189.043 209.622  17
   4  -2  12 296.187 232.668   3
  -4   2 -13 268.418 284.362   4
  -4   2 -13-176.353 270.414   9
   4  -2  13 395.623 264.521  15
  -4   2 -13 374.175 274.851  17
  -4   2 -13 223.370 289.145  21
   4  -2  13 92.8721 159.796   3
  -4   2 -14 538.855 320.933  17
  -4   2 -14-258.829 251.819   4
  -4   2 -14 445.079 302.435   9
   4  -2  14 83.6095 195.450  15
  -4   2 -14-309.736 354.595  21
   4  -2  14-234.752 233.572   3
  -4   2 -15 263.626 203.703  17
  -4   2 -15 290.760 195.507   4
   4  -2  15 253.360 269.444  15
   4  -2  15 125.490 199.067   3
  -4   2 -16 835.518 407.617  17
   4  -2  16 1082.38 421.297  20
   4  -1 -17-265.308 252.573   8
  -4   1  17-195.867 200.743  19
   4  -1 -16 225.169 263.949   8
  -4   1  16 1490.82 521.765  14
  -4   1  16 969.344 424.906   2
  -4   1  16 879.705 402.278  19
   4  -1 -15 435.832 300.166   8
  -4   1  15 369.570 258.289  14
  -4   1  15 257.115 248.393   2
  -4   1  15 835.055 322.442  19
   4  -1 -14 205.590 157.487   1
  -4   1  14 512.538 305.805   2
   4  -1 -14 669.178 317.579   8
  -4   1  14 298.502 266.071  14
  -4   1  14 560.423 306.896  19
  -4   1  13 305.813 220.591   2
   4  -1 -13 158.669 178.397   8
  -4   1  13-182.427 253.612  14
   4  -1 -13-228.025 282.172  13
  -4   1  13 310.825 205.681  19
   4  -1 -13 219.279 157.627  10
   4  -1 -13 414.891 299.033   1
  -4   1  12 5828.76 763.537   2
   4  -1 -12 5025.84 753.187   8
  -4   1  12 5694.23 815.888  14
   4  -1 -12 6455.97 861.027  13
  -4   1  12 5393.48 619.080  20
  -4   1  12 6907.21 804.560  19
   4  -1 -12 5745.79 720.070   1
   4  -1 -11 2046.10 480.906   8
  -4   1  11 2532.87 537.518  14
   4  -1 -11 2910.90 566.783  13
  -4   1  11 2690.86 564.711   2
  -4   1  11 1879.52 364.832  20
  -4   1  11 3518.62 558.844  19
   4  -1 -11 2400.29 460.759   1
   4  -1 -10 419.459 222.754   8
  -4   1  10 669.015 256.040   2
  -4   1  10 803.958 318.277  14
   4  -1 -10 281.609 208.046  13
  -4   1  10 513.396 193.646  20
   4  -1 -10 811.786 304.029   1
  -4   1  10 784.544 297.328  19
   4  -1  -9 361.777 199.058   8
  -4   1   9 763.322 300.593  14
   4  -1  -9 448.353 290.135  13
  -4   1   9 556.981 229.992   2
   4  -1  -9 716.630 260.807   1
  -4   1   9 396.117 178.830  20
  -4   1   9 335.409 245.471  19
  -4   1   8 4903.42 599.882   2
  -4   1   8 4780.50 669.182  14
   4  -1  -8 3991.91 635.705   8
   4  -1  -8 3927.04 645.374  13
  -4   1   8 4967.40 734.450  21
  -4   1   8 3586.87 421.158  20
  -4   1   8 4644.17 651.051  19
   4  -1  -8 4781.94 596.034   1
   4  -1  -7 3120.24 534.449   8
  -4   1   7 2931.84 505.301  14
   4  -1  -7 2734.57 491.377  13
   4  -1  -7 2644.72 426.420   1
  -4   1   7 2707.47 452.778   2
  -4   1   7 3619.85 603.007  21
  -4   1   7 2338.44 314.459  20
  -4   1   7 3782.44 486.526   5
   4  -1  -6 295.014 225.246   8
  -4   1   6-253.381 183.474  14
  -4   1   6 156.150 143.021   2
   4  -1  -6-101.731 200.852  13
  -4   1   6-63.0930 194.354  21
  -4   1   6 303.460 169.835   5
  -4   1   6 76.3835 47.3620  18
  -4   1   5 4715.86 672.683   4
  -4   1   5 4019.75 478.500   2
  -4   1   5 4616.76 606.794  14
   4  -1  -5 4061.38 587.400   8
   4  -1  -5 6036.60 696.820  13
  -4   1   5 5418.33 692.755  21
  -4   1   5 4046.58 495.402   5
  -4   1   4 5453.69 682.819   4
  -4   1   4 4548.32 494.502   2
  -4   1   4 3198.97 531.015   9
  -4   1   4 6498.07 758.708  21
   4  -1  -4 5017.20 663.934   8
  -4   1   4 4266.83 581.661  14
   4  -1  -4 6043.92 676.361  13
  -4   1   3 3085.81 377.093   2
  -4   1   3 2028.06 396.006   9
   4  -1  -3 3041.43 517.858   8
  -4   1   3 2006.13 449.869   4
  -4   1   3 2780.93 450.999  14
   4  -1  -3 3639.21 508.896  13
  -4   1   3 3162.53 521.904  21
   4  -1  -3 2354.92 226.777  20
  -4   1   2 10732.3 805.837   9
  -4   1   2 11406.4 880.603  14
   4  -1  -2 11857.5 912.068  13
  -4   1   2 12340.2 1012.53  21
   4  -1  -2 10098.2 462.888  20
  -4   1   2 11663.9 976.440   4
  -4   1   2 10215.8 640.450   2
  -4   1   1 16180.5 963.868   9
  -4   1   1 17034.3 1032.96  14
   4  -1  -1 17640.3 1071.92  13
  -4   1   1 16811.1 1161.40  21
   4  -1  -1 14024.9 572.469  20
  -4   1   1 14970.7 746.130   2
  -4   1   1 16751.1 1149.73   4
  -4   1   0 15465.1 918.316   9
  -4   1   0 15986.1 1122.79  21
  -4   1   0 15585.1 968.793  14
   4  -1   0 17165.4 1046.87  13
   4  -1   0 13124.4 585.946  20
  -4   1   0 14333.9 696.001   2
  -4   1   0 15829.6 1139.11   4
  -4   1   0 17115.6 896.479  17
  -4   1  -1 1077.68 232.987  17
  -4   1  -1 1670.25 326.134   9
  -4   1  -1 1475.96 213.354   2
  -4   1  -1 2196.12 428.086   4
  -4   1  -1 1602.10 310.244  14
   4  -1   1 1921.74 388.844  13
  -4   1  -1 771.250 199.783  21
  -4   1  -2 7561.25 669.984   9
  -4   1  -2 6010.02 725.967  21
  -4   1  -2 6858.54 649.953  14
   4  -1   2 7850.43 693.711  13
  -4   1  -2 7370.01 754.103   4
  -4   1  -2 7253.34 614.579  17
  -4   1  -3 18539.8 1084.68   9
  -4   1  -3 18952.5 1118.89  14
  -4   1  -3 20369.4 1072.87  17
   4  -1   3 22494.4 1170.41  13
  -4   1  -3 19596.8 1277.43  21
  -4   1  -3 19618.1 1265.45   4
  -4   1  -4 3256.10 436.305  17
   4  -1   4 2918.01 221.334   2
  -4   1  -4 3145.21 450.869   9
   4  -1   4 3652.57 587.705  15
  -4   1  -4 3307.06 570.596   4
  -4   1  -4 3142.08 442.097  14
   4  -1   4 3508.23 479.241  13
  -4   1  -4 3437.27 551.691  21
  -4   1  -5 3172.22 474.303   9
  -4   1  -5 3815.06 596.975   4
   4  -1   5 3797.51 573.090  15
  -4   1  -5 3694.92 490.083  14
  -4   1  -5 4099.02 644.224  21
   4  -1   5 3164.16 469.019  13
  -4   1  -5 4025.88 510.395  17
  -4   1  -6 139.222 140.333  17
  -4   1  -6 647.241 320.203  21
  -4   1  -6-287.385 250.771   9
  -4   1  -6-200.451 225.968   4
   4  -1   6 320.642 199.110  15
  -4   1  -6 249.652 181.048  14
   4  -1   6 307.837 207.099  13
  -4   1  -7 970.440 321.309  17
  -4   1  -7 461.025 217.759   9
  -4   1  -7 979.594 316.346   4
   4  -1   7 530.925 248.315  15
  -4   1  -7 1013.33 285.735  14
   4  -1   7 857.437 284.947  13
  -4   1  -7 757.476 325.388  21
  -4   1  -8 4477.13 639.119   9
  -4   1  -8 6694.99 848.030  21
   4  -1   8 5192.27 667.187  15
   4  -1   8 6153.70 700.590  13
  -4   1  -8 7370.69 817.156   4
  -4   1  -8 5541.81 674.301  17
  -4   1  -9 1589.99 393.232  17
  -4   1  -9 401.913 237.275   9
  -4   1  -9 865.387 305.178   4
   4  -1   9 1024.63 346.274  15
  -4   1  -9 1230.04 415.367  21
   4  -1   9 994.893 290.173  13
   4  -1   9 1404.61 401.432   3
  -4   1 -10 2250.19 478.944  17
  -4   1 -10 1274.07 374.476   9
  -4   1 -10 2165.05 487.776   4
   4  -1  10 2047.60 493.185  15
   4  -1  10 2279.68 453.042  13
  -4   1 -10 2730.17 582.764  21
   4  -1  10 1960.36 467.965   3
   4  -1  10 1745.06 402.276  11
  -4   1 -11 4090.24 641.047  17
  -4   1 -11 2108.49 467.402   9
  -4   1 -11 4048.52 683.593   4
  -4   1 -11 3377.67 626.462  21
   4  -1  11 3078.97 567.758  15
   4  -1  11 4458.22 615.796  13
   4  -1  11 3197.06 596.237   3
   4  -1  11 3343.96 542.802  11
   4  -1  12 5537.47 748.873  15
   4  -1  12 6062.85 716.349  13
   4  -1  12 4970.10 731.849   3
  -4   1 -12 5986.69 862.731  21
   4  -1  12 5389.92 665.913  11
  -4   1 -12 4748.82 779.934   4
  -4   1 -12 6066.50 804.111  17
  -4   1 -12 4817.93 772.585   9
  -4   1 -13 988.151 369.058  17
  -4   1 -13 522.994 300.453   4
  -4   1 -13 646.433 320.464   9
   4  -1  13 816.425 330.846  15
   4  -1  13 937.093 316.729  13
  -4   1 -13 1068.06 461.213  21
   4  -1  13 374.510 262.337   3
   4  -1  13 801.589 280.618  11
  -4   1 -14 632.863 319.272  17
  -4   1 -14 384.322 310.950   4
  -4   1 -14 159.063 191.585   9
   4  -1  14 476.360 272.720  15
  -4   1 -14 957.879 413.187  21
   4  -1  14 347.217 275.208   3
  -4   1 -15 1206.31 426.497   4
  -4   1 -15 639.635 366.586   9
  -4   1 -15 1720.08 514.569  17
   4  -1  15 1266.49 427.184  15
   4  -1  15 1766.06 497.970   3
  -4   1 -15 1507.36 439.956  21
  -4   1 -16 589.645 398.838  17
  -4   1 -16 67.5405 212.838   4
  -4   1 -16 285.010 195.353   9
   4  -1  16-30.9418 203.153  15
   4  -1  16 209.593 260.894   3
   4  -1  17-618.978 318.159  15
   4  -1  17 316.677 296.424   3
  -4   0  18 299.261 238.503  20
   4   0 -17 1263.38 430.983   8
  -4   0  17 877.834 413.055  14
  -4   0  17 796.218 328.498  20
   4   0 -16-46.2019 212.645   8
  -4   0  16-493.942 307.641  14
  -4   0  16 404.069 299.212   2
  -4   0  16-134.092 148.621  20
  -4   0  16 221.193 195.815  19
   4   0 -15 108.623 171.462   8
  -4   0  15 140.757 202.701   2
  -4   0  15-220.853 235.867  20
  -4   0  15-62.5878 161.203  19
   4   0 -14 282.871 173.894   8
  -4   0  14 146.214 176.869  14
  -4   0  14 152.371 256.781   2
  -4   0  14 21.9470 163.067  20
  -4   0  14 435.180 217.221  19
   4   0 -13 129.100 219.463   1
   4   0 -13 490.203 277.431   8
  -4   0  13-32.8511 184.473  14
   4   0 -13-49.5491 206.220  13
  -4   0  13 331.622 287.791   2
  -4   0  13-70.3416 167.601  20
  -4   0  13 34.7093 190.250  19
   4   0 -12 631.773 268.004   1
   4   0 -12 381.777 264.351   8
  -4   0  12 797.274 346.926  14
   4   0 -12 788.283 382.803  13
  -4   0  12 683.944 316.796   2
  -4   0  12 414.891 244.967  20
  -4   0  12 634.130 279.113  19
  -4   0  11 8496.25 903.744   2
   4   0 -11 7294.91 841.354   8
  -4   0  11 8125.51 912.652  14
   4   0 -11 8918.23 970.488  13
  -4   0  11 8298.15 780.561  20
  -4   0  11 9425.45 863.874  19
   4   0 -11 8100.75 748.538   1
  -4   0  10 4639.30 656.770   2
   4   0 -10 4278.94 645.126   8
  -4   0  10 5738.13 772.859  14
   4   0 -10 5129.42 731.653  13
  -4   0  10 4883.23 591.881  20
  -4   0  10 5751.65 644.222  19
   4   0 -10 5460.51 593.411   1
  -4   0   9 6813.36 755.306   2
   4   0  -9 5092.13 692.017   8
  -4   0   9 6378.82 783.963  14
   4   0  -9 5675.83 737.713  13
  -4   0   9 5087.78 589.753  20
  -4   0   9 6947.72 689.666  19
   4   0  -9 5589.85 561.455   1
  -4   0   8 8801.26 813.538   2
   4   0  -8 9624.60 891.305   8
  -4   0   8 9168.57 886.625  14
   4   0  -8 8646.64 908.570  13
  -4   0   8 8791.48 728.023  20
  -4   0   8 9321.08 789.778  19
   4   0  -8 8743.96 689.769   1
  -4   0   7 8204.72 763.627   2
   4   0  -7 10640.5 921.785   8
  -4   0   7 8662.57 823.251  14
   4   0  -7 9999.14 923.998  13
  -4   0   7 11512.2 1024.35  21
  -4   0   7 8962.41 699.262  20
  -4   0   7 10118.1 809.668  19
   4   0  -7 8178.55 647.715   1
  -4   0   6 12407.5 873.035   2
   4   0  -6 14036.6 1040.27   8
  -4   0   6 13446.0 1025.56  14
   4   0  -6 15087.7 1084.94  13
  -4   0   6 15484.5 1140.40  21
   4   0  -6 12801.9 777.868   1
  -4   0   6 13283.2 818.991  20
   4   0  -5 2006.44 403.190   8
  -4   0   5 1812.08 399.570  14
   4   0  -5 1869.32 402.180  13
  -4   0   5 1668.87 324.690   2
  -4   0   5 2162.08 433.314  21
  -4   0   5 1702.80 285.278  20
  -4   0   5 2060.27 284.090   5
  -4   0   5 1397.58 237.347   1
   4   0  -4 285.847 171.369   8
  -4   0   4 295.046 194.135   4
  -4   0   4 442.914 235.990  14
   4   0  -4 175.228 178.865  13
  -4   0   4 584.481 214.450   2
  -4   0   4 438.133 141.978   1
  -4   0   4 185.252 257.140  21
  -4   0   4 480.079 139.127   5
  -4   0   4 427.573 74.6584  18
  -4   0   3 729.521 206.746   9
  -4   0   3 1656.96 252.159   1
  -4   0   3 1348.69 292.124   4
   4   0  -3 1809.83 407.844   8
  -4   0   3 1246.76 307.337  14
  -4   0   3 1930.33 321.664   2
   4   0  -3 1890.14 363.174  13
  -4   0   3 1648.85 397.170  21
   4   0  -3 1702.64 234.141  20
  -4   0   3 1629.34 177.426  18
  -4   0   2 13235.4 719.563   9
   4   0  -2 13871.3 967.080   8
  -4   0   2 12638.0 911.277  14
   4   0  -2 14465.9 1002.92  13
   4   0  -2 12554.2 648.429  20
  -4   0   2 11994.8 688.827   1
  -4   0   2 13014.7 772.243   2
  -4   0   2 12116.3 956.420   4
  -4   0   1 14456.0 729.168   9
   4   0  -1 18373.9 1109.38   8
  -4   0   1 16777.5 1020.61  14
   4   0  -1 19055.9 1107.68  13
   4   0  -1 13757.4 701.834  20
  -4   0   1 16698.1 842.431   1
  -4   0   1 15936.6 835.832   2
  -4   0   1 16132.8 1084.73   4
  -4   0   1 13756.1 874.907  17
  -4   0   0 54546.7 1528.68   9
   4   0   0 52912.3 1930.57   8
  -4   0   0 53214.8 1796.18  14
   4   0   0 48886.9 1449.14  20
  -4   0   0 54093.9 1591.56   2
  -4   0   0 54418.4 2013.52   4
  -4   0   0 52638.9 1787.24  17
  -4   0  -1 66542.4 1641.54   9
   4   0   1 64017.0 1552.06   2
  -4   0  -1 64251.3 1957.16  14
  -4   0  -1 61960.5 1868.76  17
   4   0   1 68108.0 2023.31  13
  -4   0  -1 66293.1 1701.90   2
  -4   0  -1 64286.1 2127.44   4
  -4   0  -2 13541.3 769.750   9
   4   0   2 13515.7 669.912   2
  -4   0  -2 13736.5 905.907  14
   4   0   2 15961.0 1011.07  13
  -4   0  -2 15157.4 1029.29   4
  -4   0  -2 13801.4 901.418  17
  -4   0  -3 12366.4 760.672   9
   4   0   3 12464.7 639.817   2
  -4   0  -3 12497.0 879.707  14
   4   0   3 13886.7 939.690  13
  -4   0  -3 13785.4 1059.04  21
  -4   0  -3 12527.9 940.369   4
  -4   0  -3 13579.2 915.018  17
  -4   0  -4 373.259 195.599  17
  -4   0  -4 303.654 173.278   9
  -4   0  -4 738.226 273.693   4
  -4   0  -4 628.804 208.835  14
   4   0   4 731.400 156.197   2
   4   0   4 333.066 178.246  13
  -4   0  -4 285.455 190.322  21
  -4   0  -5 2525.59 422.065  17
  -4   0  -5 2563.40 386.248   9
  -4   0  -5 2192.94 440.470   4
  -4   0  -5 2420.25 393.571  14
   4   0   5 1972.84 394.528  13
  -4   0  -5 2688.86 501.413  21
   4   0   5 1989.80 259.142   2
  -4   0  -6 3684.59 497.285   9
   4   0   6 3842.03 506.876  15
  -4   0  -6 3829.53 498.930  14
   4   0   6 4818.69 574.562  13
  -4   0  -6 4808.77 664.996  21
  -4   0  -6 4277.17 615.462   4
   4   0   6 3972.67 379.806   2
  -4   0  -6 4369.12 560.091  17
  -4   0  -7 15929.7 1050.23   9
   4   0   7 15833.7 1062.12  15
  -4   0  -7 17955.9 1127.43  14
   4   0   7 18988.1 1147.40  13
  -4   0  -7 19921.0 1327.41  21
  -4   0  -7 18039.4 1167.73   4
   4   0   7 15645.4 807.082   2
  -4   0  -7 15441.9 1086.60  17
   4   0   8 8052.46 795.268  15
   4   0   8 11336.2 908.115  13
  -4   0  -8 9987.30 947.600  21
  -4   0  -8 9333.47 867.698   4
  -4   0  -8 7809.84 805.478  17
  -4   0  -8 8253.97 802.530   9
  -4   0  -9 17473.7 1219.74  17
   4   0   9 14605.5 1048.89  15
  -4   0  -9 17632.6 1285.81  21
  -4   0  -9 17164.0 1228.02   4
  -4   0  -9 13304.7 1052.14   9
   4   0  10 9712.36 927.854  15
   4   0  10 10231.4 929.228   3
  -4   0 -10 10970.9 1033.96  21
   4   0  10 9559.19 894.370  11
  -4   0 -10 10499.6 986.518   4
  -4   0 -10 11060.8 1017.56  17
  -4   0 -10 8753.82 888.988   9
   4   0  11 6970.31 774.658  15
   4   0  11 7135.48 796.832   3
  -4   0 -11 7143.76 906.802  21
   4   0  11 6587.12 757.221  11
  -4   0 -11 6004.26 791.137   4
  -4   0 -11 7464.80 872.000  17
  -4   0 -11 5867.49 756.980   9
  -4   0 -12 1791.64 471.607  17
  -4   0 -12 708.471 338.067   9
  -4   0 -12 1139.96 371.268   4
   4   0  12 1706.66 377.914  15
  -4   0 -12 815.346 345.084  21
   4   0  12 1433.64 368.672   3
   4   0  12 767.821 322.116  11
  -4   0 -13 607.089 329.654  17
  -4   0 -13 327.319 264.942   4
  -4   0 -13 485.496 270.931   9
   4   0  13 1201.01 345.024  15
   4   0  13 433.871 232.112   3
  -4   0 -13 531.333 308.904  21
   4   0  13 602.528 266.669  11
  -4   0 -14 607.420 322.769  17
  -4   0 -14 191.876 180.054   4
  -4   0 -14 47.7419 252.928   9
   4   0  14 625.872 295.790  15
   4   0  14 799.785 304.323  11
  -4   0 -14-88.8274 201.167  21
   4   0  14 549.330 286.283   3
  -4   0 -15 34.4564 258.452  17
  -4   0 -15 501.853 300.488   4
   4   0  15 464.573 275.234  15
  -4   0 -15-36.4025 250.279  21
   4   0  15 20.1523 148.414   3
   4   0  15 478.790 259.865  11
   4   0  15 39.7011 227.730  19
  -4   0 -15 22.0783 234.653   9
  -4   0 -16 466.569 327.330  17
  -4   0 -16 537.921 288.797   4
   4   0  16-432.668 245.170  15
  -4   0 -16 466.153 252.112  21
   4   0  16 299.808 213.890   3
   4   0  16 179.077 180.227  11
   4   0  16 383.826 293.142  19
  -4   0 -17 57.9054 213.284  17
  -4   0 -17 830.821 385.555   4
  -4  -1  18 73.1486 205.306  20
   4   1 -17 111.059 186.950   8
  -4  -1  17 465.377 322.782  14
  -4  -1  17-48.9394 165.006  20
  -4  -1  16-280.373 244.149  14
   4   1 -16 443.289 297.853   8
  -4  -1  16 515.368 356.406   2
  -4  -1  16-287.369 234.323  20
  -4  -1  15 574.677 310.292  14
   4   1 -15 622.329 295.220   8
  -4  -1  15 212.879 212.097   2
  -4  -1  15-189.037 248.613  20
  -4  -1  14-105.803 219.592  14
   4   1 -14 220.887 198.253   8
  -4  -1  14-29.5049 222.597   2
  -4  -1  14-77.8089 250.275  20
  -4  -1  13-56.4507 201.331  14
   4   1 -13 264.911 213.822   8
   4   1 -13-212.021 274.747  13
  -4  -1  13-168.598 264.618   2
  -4  -1  13 31.0706 179.311  20
  -4  -1  13-34.1594 120.643  19
  -4  -1  12 453.758 272.125  14
   4   1 -12 136.403 193.875   8
   4   1 -12 106.857 117.488   1
   4   1 -12 157.226 207.685  13
  -4  -1  12-34.2789 170.264  20
  -4  -1  12 487.601 216.175  19
  -4  -1  12-206.103 213.004   2
  -4  -1  11 4436.50 671.202   2
   4   1 -11 4045.68 484.940   1
   4   1 -11 4150.49 624.343   8
  -4  -1  11 4763.88 687.771  14
   4   1 -11 4897.87 716.793  13
  -4  -1  11 3805.94 441.580  12
  -4  -1  11 4169.57 602.023  20
  -4  -1  11 4265.39 536.147  19
   4   1 -10 256.840 167.162   1
  -4  -1  10 1.86561 192.508  14
   4   1 -10 113.351 206.222   8
   4   1 -10-60.0277 245.303  13
  -4  -1  10 287.322 228.337   2
  -4  -1  10 124.178 165.133  20
  -4  -1  10 230.172 135.190  19
   4   1  -9 1827.51 304.749   1
  -4  -1   9 1920.28 422.394  14
   4   1  -9 1788.12 397.858   8
   4   1  -9 2227.61 467.309  13
  -4  -1   9 2312.03 447.806   2
  -4  -1   9 2173.48 418.683  20
  -4  -1   9 2409.53 387.389  19
  -4  -1   8 10557.9 914.777   2
   4   1  -8 10275.9 894.574   8
  -4  -1   8 10993.9 934.172  14
   4   1  -8 11219.9 988.147  13
  -4  -1   8 10703.6 860.185  20
  -4  -1   8 11974.3 787.711  19
   4   1  -8 9809.44 619.832   1
  -4  -1   7 3013.21 497.172  14
   4   1  -7 3399.12 513.286   8
   4   1  -7 3237.12 547.558  13
  -4  -1   7 2846.98 479.103   2
  -4  -1   7 2931.71 455.559  20
  -4  -1   7 3131.38 387.960  19
   4   1  -7 2404.72 289.155   1
  -4  -1   7 2880.17 340.456   9
  -4  -1   6 321.810 120.572   9
  -4  -1   6 16.8528 156.529  14
   4   1  -6 635.770 268.635   8
  -4  -1   6 398.283 124.748  19
   4   1  -6 224.539 208.478  13
  -4  -1   6 144.960 170.367   2
   4   1  -6 478.970 139.576   1
  -4  -1   6 547.750 279.456  21
  -4  -1   6 284.272 197.190  20
  -4  -1   5 5010.58 581.894   2
   4   1  -5 4552.30 577.156   8
  -4  -1   5 5095.59 606.586  14
   4   1  -5 5653.89 626.576  13
  -4  -1   5 4503.14 609.200  21
  -4  -1   5 4759.21 539.862  20
   4   1  -5 4511.83 350.415   1
  -4  -1   4 11296.1 872.794   4
  -4  -1   4 8927.13 727.514   2
   4   1  -4 10407.5 823.349   8
  -4  -1   4 9824.87 812.555  14
  -4  -1   4 9195.73 413.163   1
   4   1  -4 9146.84 816.504  13
  -4  -1   4 11794.7 893.206  21
  -4  -1   4 10231.9 740.872  20
  -4  -1   3 11215.2 854.453   4
   4   1  -3 11129.4 836.937   8
  -4  -1   3 10025.9 405.580   1
  -4  -1   3 11095.4 843.314  14
  -4  -1   3 12386.7 940.108  21
  -4  -1   3 11975.7 811.803   2
  -4  -1   2 265.111 74.9948   9
  -4  -1   2 317.337 172.776   4
   4   1  -2 517.654 216.370   8
  -4  -1   2 324.568 194.206  14
  -4  -1   2 385.759 83.2722   1
  -4  -1   2 419.122 190.140   2
  -4  -1   2-37.0969 256.602  21
  -4  -1   2 197.165 73.4094   5
  -4  -1   2 523.195 118.150  18
  -4  -1   1 17726.7 554.311   9
   4   1  -1 18013.1 1022.89   8
  -4  -1   1 18134.4 1012.09  14
  -4  -1   1 19812.4 1151.30  21
  -4  -1   1 15306.4 659.653  18
  -4  -1   1 14871.7 581.532   1
  -4  -1   1 18514.9 961.712   2
  -4  -1   1 16230.8 1017.17   4
  -4  -1   1 16160.4 1051.49  17
  -4  -1   0 26329.4 759.924   9
   4   1   0 29882.6 1332.59   8
  -4  -1   0 30669.2 1314.93  14
  -4  -1   0 27696.2 905.627   1
  -4  -1   0 27712.9 974.054  18
  -4  -1   0 30008.2 1237.44   2
  -4  -1   0 28334.0 1351.42   4
  -4  -1   0 29088.1 1406.02  17
  -4  -1  -1 18306.4 656.425   9
   4   1   1 16891.0 982.503   8
  -4  -1  -1 16810.1 1010.83  14
  -4  -1  -1 15914.5 930.237   2
  -4  -1  -1 17675.5 1020.05   4
  -4  -1  -1 15570.7 989.038  17
  -4  -1  -2 14832.2 628.727   9
   4   1   2 12794.3 812.275   8
  -4  -1  -2 13907.9 888.627  14
  -4  -1  -2 14657.6 848.600   2
  -4  -1  -2 14148.9 905.949   4
  -4  -1  -2 14105.7 955.073  17
  -4  -1  -3 8810.26 534.584   9
   4   1   3 7527.65 512.690   9
  -4  -1  -3 6998.57 672.231  14
  -4  -1  -3 6951.70 433.135   6
  -4  -1  -3 7610.64 619.578   2
  -4  -1  -3 7498.46 676.742   4
  -4  -1  -3 8390.28 775.227  17
  -4  -1  -4 7583.11 675.746  14
   4   1   4 7912.01 715.489  13
  -4  -1  -4 6025.95 443.007   6
  -4  -1  -4 8728.57 795.588  21
  -4  -1  -4 7662.60 702.861   4
  -4  -1  -4 7897.40 717.550  17
  -4  -1  -4 7061.32 519.390   9
  -4  -1  -5 3798.12 387.561   6
  -4  -1  -5 5465.85 580.525  14
   4   1   5 5222.25 598.682  13
  -4  -1  -5 4766.75 639.936  21
  -4  -1  -5 4715.86 570.818   4
  -4  -1  -5 6084.83 646.800  17
  -4  -1  -5 4404.31 450.623   9
  -4  -1  -6 2247.36 420.729  17
  -4  -1  -6 1955.92 326.331   9
  -4  -1  -6 2161.43 407.005   4
  -4  -1  -6 2442.38 420.891  14
   4   1   6 2486.66 425.573  13
  -4  -1  -6 2337.51 441.845  21
  -4  -1  -7 1697.13 379.303  17
  -4  -1  -7 1543.56 299.994   9
  -4  -1  -7 1897.58 407.472   4
   4   1   7 1010.97 271.311  15
  -4  -1  -7 1412.34 305.350  14
  -4  -1  -7 1486.88 375.848  21
  -4  -1  -8 952.739 300.996  17
  -4  -1  -8 874.018 274.708   9
  -4  -1  -8 1103.02 317.760   4
   4   1   8 1516.44 334.081  15
  -4  -1  -8 1129.67 359.269  21
   4   1   8 1910.15 429.182  19
   4   1   9 6136.38 628.146  15
  -4  -1  -9 7112.16 787.965  21
   4   1   9 5956.39 713.368  11
   4   1   9 7441.31 801.062  19
  -4  -1  -9 6625.60 740.152   4
  -4  -1  -9 7611.66 813.287  17
  -4  -1  -9 5396.68 607.815   9
  -4  -1 -10 1600.19 430.703  17
  -4  -1 -10 1185.32 301.844   9
  -4  -1 -10 1244.06 363.352   4
   4   1  10 1645.81 342.998  15
  -4  -1 -10 2251.81 510.379  21
   4   1  10 1466.58 396.691  11
   4   1  10 1327.48 389.844  19
  -4  -1 -11 2502.00 548.426  17
  -4  -1 -11 2921.83 534.472   4
   4   1  11 2698.20 461.708  15
   4   1  11 3136.71 531.823  11
  -4  -1 -11 3194.28 574.136  21
   4   1  11 2485.67 445.494   3
   4   1  11 2389.79 518.039  19
  -4  -1 -11 2125.72 431.464   9
  -4  -1 -12 471.579 307.667  17
  -4  -1 -12-44.9673 173.363   4
   4   1  12 704.592 229.103  15
  -4  -1 -12 759.941 215.122  12
  -4  -1 -12 649.589 343.330  21
   4   1  12 788.732 270.735   3
   4   1  12 566.149 303.201  11
   4   1  12 434.329 248.791  19
  -4  -1 -13 837.755 324.910  17
  -4  -1 -13 587.373 299.081   4
   4   1  13 660.621 235.617  15
  -4  -1 -13 815.922 226.276  12
  -4  -1 -13 1242.28 410.416  21
   4   1  13 587.769 237.482   3
   4   1  13 581.121 300.860  11
   4   1  13 1093.57 367.002  19
  -4  -1 -14 123.377 234.680  17
  -4  -1 -14-87.2652 205.575   4
   4   1  14 192.369 189.740  15
  -4  -1 -14-30.9584 202.725  21
   4   1  14 26.1204 123.391   3
   4   1  14-73.5461 183.194  11
   4   1  14 168.757 213.013  19
  -4  -1 -15 275.824 284.199  17
  -4  -1 -15 408.544 283.686   4
   4   1  15 338.305 191.170  15
  -4  -1 -15-192.673 283.374  21
  -4  -1 -15 236.622 205.078   1
   4   1  15 430.455 261.238   3
   4   1  15 18.6594 160.878  11
   4   1  15 186.873 301.957  19
  -4  -1 -16 732.250 380.612  17
  -4  -1 -16 327.293 280.404   4
  -4  -1 -16 35.4157 175.816   1
  -4  -1 -16 1296.98 436.389  21
   4   1  16 409.010 290.248  11
   4   1  16 460.812 277.056  19
  -4  -1 -17 7.38355 201.667  17
  -4  -1 -17 506.624 347.171   4
  -4  -1 -17 217.382 186.111   1
  -4  -1 -17-80.8729 218.969  21
   4   1  17 123.186 238.973  11
   4   1  17 1.96007 206.934  19
  -4  -1 -18 149.332 207.227   1
   4   1  18 290.451 227.411  11
   4   1  19 388.183 298.595  11
  -4  -2  18 875.602 388.848  14
  -4  -2  17 88.0000 196.304  14
  -4  -2  17 12.9206 292.435  20
  -4  -2  16 365.593 255.476  14
   4   2 -16 625.811 334.382   8
  -4  -2  16 1.46334 257.420   2
  -4  -2  16 371.650 292.392  20
  -4  -2  15 747.057 308.496  14
   4   2 -15 901.376 349.032   8
  -4  -2  15 1031.74 397.231   2
  -4  -2  15 466.986 284.514  20
  -4  -2  14-2.80326 157.334  14
   4   2 -14 41.4155 194.517   8
  -4  -2  14 203.018 276.803   2
  -4  -2  14-365.237 278.270  20
  -4  -2  13-284.431 235.627  14
   4   2 -13 355.735 219.482   8
   4   2 -13-281.012 297.119  13
  -4  -2  13 102.285 219.576   2
  -4  -2  13 12.7818 173.639  20
  -4  -2  12 4811.84 706.175   2
   4   2 -12 4640.00 673.945   8
  -4  -2  12 4181.80 621.412  14
   4   2 -12 3646.63 657.164  13
  -4  -2  12 4411.76 681.255  20
  -4  -2  11 1789.14 414.022  14
   4   2 -11 1455.95 375.995   8
   4   2 -11 2360.40 510.842  13
  -4  -2  11 1852.50 438.709   2
  -4  -2  11 1484.80 291.118  12
  -4  -2  11 1843.49 454.730  20
  -4  -2  11 1867.07 326.517  19
  -4  -2  10 4551.53 650.744   2
   4   2 -10 3716.90 405.240   1
   4   2 -10 4805.81 662.697   8
  -4  -2  10 4106.18 600.955  14
   4   2 -10 4191.41 638.699  13
  -4  -2  10 3395.04 438.758  12
  -4  -2  10 4284.52 640.436  20
  -4  -2  10 5004.10 465.793  19
  -4  -2   9 1998.94 411.080  14
   4   2  -9 1793.98 400.903   8
   4   2  -9 1739.98 423.680  13
  -4  -2   9 2225.17 456.545   2
  -4  -2   9 1665.89 297.918  12
   4   2  -9 1811.10 269.018   1
  -4  -2   9 2209.69 448.751  20
  -4  -2   9 2155.67 288.268  19
  -4  -2   8 15092.7 1098.63   2
   4   2  -8 13880.6 674.951   1
   4   2  -8 16147.3 1111.32   8
  -4  -2   8 16609.1 1108.59  14
   4   2  -8 15629.9 1174.45  13
  -4  -2   8 14756.3 886.461  12
  -4  -2   8 14906.9 1082.23  20
  -4  -2   8 15965.8 751.059  19
  -4  -2   7 13112.2 680.586   9
  -4  -2   7 14443.7 1060.27   2
   4   2  -7 12223.0 568.346   1
   4   2  -7 15606.9 1057.01   8
  -4  -2   7 15909.1 1083.94  14
   4   2  -7 16842.6 1145.74  13
  -4  -2   7 14402.9 869.401  12
  -4  -2   7 13865.5 1051.46  20
  -4  -2   7 13971.6 666.602  19
  -4  -2   6 1645.28 214.503   9
   4   2  -6 1058.68 141.041   1
  -4  -2   6 1411.31 348.728  14
   4   2  -6 1332.70 332.527   8
  -4  -2   6 1686.75 377.176   2
   4   2  -6 1368.09 342.366  13
  -4  -2   6 1478.24 310.398  12
  -4  -2   6 1089.47 321.803  20
  -4  -2   6 1494.01 218.486  19
   4   2  -6 971.279 102.707  18
  -4  -2   5 1486.53 170.419   9
  -4  -2   5 1475.54 358.696  14
   4   2  -5 1905.38 366.014   8
  -4  -2   5 1556.92 363.782   2
   4   2  -5 1719.81 375.634  13
  -4  -2   5 1419.88 308.569  12
  -4  -2   5 1584.58 371.224  21
  -4  -2   5 1898.08 386.573  20
  -4  -2   5 1524.23 204.213  19
   4   2  -5 622.319 83.2628   1
   4   2  -5 1530.98 140.156  18
  -4  -2   4 7043.97 632.846   4
  -4  -2   4 4230.88 223.717   9
   4   2  -4 7823.74 677.537   8
  -4  -2   4 6810.98 658.268  14
   4   2  -4 6440.67 678.897  13
  -4  -2   4 6699.82 649.422  21
  -4  -2   4 6523.29 658.568  20
  -4  -2   4 6109.52 381.764  19
   4   2  -4 6185.52 325.703  18
  -4  -2   4 6517.27 670.945   2
  -4  -2   3 29842.6 1286.58   4
   4   2  -3 30907.0 1322.25   8
  -4  -2   3 31054.1 1361.48  14
   4   2  -3 31824.9 1435.49  13
  -4  -2   3 33439.2 1393.77  21
   4   2  -3 27722.3 817.432  18
  -4  -2   3 29582.5 1365.62   2
  -4  -2   2 3223.43 461.547  21
   4   2  -2 3768.71 459.864   8
  -4  -2   2 3570.00 460.469  14
   4   2  -2 3863.75 511.891  13
  -4  -2   2 3908.37 493.738   2
  -4  -2   2 3566.56 447.335   4
  -4  -2   1 1087.24 304.855  17
   4   2  -1 3478.84 440.725   8
  -4  -2   1 3706.04 463.880  14
   4   2  -1 2661.28 250.691   6
  -4  -2   1 1091.97 198.112  21
  -4  -2   1 2953.94 286.521  19
  -4  -2   1 3832.60 487.699   2
  -4  -2   1 3386.14 415.688   4
   4   2   0 56708.7 1712.18   8
  -4  -2   0 58578.6 1864.70  14
  -4  -2   0 61977.7 1937.63  21
   4   2   0 54415.0 1275.17   6
  -4  -2   0 55074.8 1415.09  19
  -4  -2   0 51304.3 1469.98  18
  -4  -2   0 57813.6 1897.83   2
  -4  -2   0 58145.2 1759.18   4
  -4  -2   0 62137.5 2172.13  17
   4   2   1 94727.6 2299.58   8
  -4  -2  -1 93455.7 2464.18  14
  -4  -2  -1 86743.9 1513.44   1
  -4  -2  -1 103863. 2611.49   2
   4   2   1 94956.8 1818.59   6
  -4  -2  -1 108102. 2619.06  21
  -4  -2  -1 94950.8 2006.36  19
  -4  -2  -1 97330.9 2346.85   4
  -4  -2  -1 104381. 2817.75  17
   4   2   2 71391.7 1859.31   8
  -4  -2  -2 73918.3 2118.17  14
  -4  -2  -2 69189.3 1387.38   1
  -4  -2  -2 73018.8 1716.88  19
  -4  -2  -2 74160.5 2157.47   2
  -4  -2  -2 72415.7 2000.92   4
  -4  -2  -2 70364.3 2233.36  17
   4   2   3 7521.06 422.839   9
   4   2   3 8466.41 602.718   8
  -4  -2  -3 7917.34 684.489  14
  -4  -2  -3 8761.68 505.267   1
  -4  -2  -3 6719.39 467.889   6
  -4  -2  -3 10451.3 823.985  21
  -4  -2  -3 7533.09 674.882   2
  -4  -2  -3 8045.09 639.738   4
  -4  -2  -3 9428.65 813.422  17
   4   2   4 4754.09 387.893   9
  -4  -2  -4 5404.58 415.167   8
  -4  -2  -4 4607.88 521.367  14
   4   2   4 5543.25 554.117   7
  -4  -2  -4 4896.82 425.797   1
  -4  -2  -4 3406.46 361.014   6
  -4  -2  -4 6156.75 624.521  21
  -4  -2  -4 4682.12 545.086   4
  -4  -2  -4 5393.90 629.626  17
   4   2   5 2729.23 318.519   9
  -4  -2  -5 2960.83 467.192  17
  -4  -2  -5 3311.27 337.814   8
  -4  -2  -5 3245.79 475.149  14
   4   2   5 3825.95 546.186  13
   4   2   5 3398.46 443.650   7
  -4  -2  -5 3040.37 363.685   1
  -4  -2  -5 3538.14 493.231  21
   4   2   5 2984.64 438.619  19
  -4  -2  -5 3240.82 432.552   4
  -4  -2  -6 6245.54 648.938  21
  -4  -2  -6 4243.67 372.485   8
  -4  -2  -6 4166.44 569.495  14
   4   2   6 4714.38 513.627   7
  -4  -2  -6 4122.71 462.308   1
  -4  -2  -6 4510.80 488.238  12
   4   2   6 4496.93 558.450  19
  -4  -2  -6 5812.11 574.333   4
  -4  -2  -6 5283.62 634.765  17
  -4  -2  -7 2350.31 450.480  17
  -4  -2  -7 2429.57 411.851   4
  -4  -2  -7 2261.51 269.576   8
  -4  -2  -7 1876.48 388.470  14
   4   2   7 2438.19 383.563   7
  -4  -2  -7 1980.24 343.435  12
  -4  -2  -7 2979.07 477.626  21
  -4  -2  -7 2116.40 340.813   1
   4   2   7 2208.70 407.524  19
  -4  -2  -8 1573.68 380.296  17
  -4  -2  -8 1389.93 377.619   4
   4   2   8 1830.39 318.637  15
  -4  -2  -8 1245.33 201.640   8
  -4  -2  -8 1520.17 306.668   1
   4   2   8 1478.09 301.091   7
  -4  -2  -8 1281.30 274.192  12
  -4  -2  -8 1523.68 369.277  21
   4   2   8 1525.31 368.585  19
   4   2   9 6972.48 598.142  15
  -4  -2  -9 7719.34 499.316   8
   4   2   9 7243.14 653.333   7
  -4  -2  -9 6059.53 647.542   1
  -4  -2  -9 6239.97 582.292  12
  -4  -2  -9 7224.17 776.481  21
   4   2   9 6354.80 752.437  11
   4   2   9 7213.82 760.945  19
  -4  -2  -9 6285.49 691.695   4
  -4  -2  -9 7400.56 800.794  17
  -4  -2 -10 1041.04 338.026  17
  -4  -2 -10 1008.41 333.712   4
   4   2  10 1044.73 247.506  15
   4   2  10 1441.60 310.757   7
  -4  -2 -10 1817.10 331.075  12
  -4  -2 -10 870.697 257.205  21
   4   2  10 868.656 331.314  11
  -4  -2 -10 1135.86 304.450   1
   4   2  10 1418.86 374.523  19
   4   2  11 9493.60 709.808  15
  -4  -2 -11 9394.81 945.509  21
  -4  -2 -11 7874.39 785.736   1
   4   2  11 8806.39 717.236   7
   4   2  11 8855.86 692.962   3
  -4  -2 -11 8085.80 663.859  12
   4   2  11 8991.22 919.838  11
   4   2  11 9630.65 986.329  19
  -4  -2 -11 9584.09 916.916   4
  -4  -2 -11 10033.9 992.770  17
  -4  -2 -12 781.045 289.360  17
  -4  -2 -12 727.966 319.117   4
   4   2  12 562.563 212.751  15
  -4  -2 -12 327.300 169.719   1
   4   2  12 565.315 206.617   7
  -4  -2 -12 341.692 196.302  12
  -4  -2 -12 292.527 254.016  21
   4   2  12 400.403 182.586   3
   4   2  12 647.947 329.814  11
   4   2  12 596.526 337.371  19
   4   2  13 4762.59 518.083  15
   4   2  13 5358.58 546.111   3
  -4  -2 -13 4563.56 649.996   1
   4   2  13 5301.66 542.792   7
  -4  -2 -13 4202.45 483.383  12
  -4  -2 -13 5910.22 802.715  21
   4   2  13 5356.26 745.898  11
   4   2  13 5373.32 794.329  19
  -4  -2 -13 5827.63 759.492   4
  -4  -2 -13 6608.07 863.444  17
  -4  -2 -14 4371.72 748.009  17
  -4  -2 -14 4284.19 667.618   4
   4   2  14 3406.21 450.199  15
   4   2  14 3387.86 450.064   3
   4   2  14 3653.14 463.199   7
  -4  -2 -14 4676.39 749.955  21
   4   2  14 3513.91 641.680  11
   4   2  14 4001.80 692.914  19
  -4  -2 -14 3490.46 593.607   1
  -4  -2 -15 320.263 262.661  17
  -4  -2 -15 355.095 251.825   4
  -4  -2 -15 894.301 393.394  21
  -4  -2 -15 636.430 316.949   1
   4   2  15 435.590 291.892  11
   4   2  15 730.952 357.778  19
  -4  -2 -16 582.999 390.740  17
  -4  -2 -16 205.656 208.204   4
  -4  -2 -16 256.818 226.269   1
  -4  -2 -16 547.688 381.762  21
   4   2  16 623.031 312.714  11
   4   2  16 282.927 303.114  19
  -4  -2 -17 916.836 420.325  17
  -4  -2 -17 108.970 233.563   4
  -4  -2 -17 263.757 309.118   1
  -4  -2 -17 957.677 412.158  21
   4   2  17 606.336 345.799  11
   4   2  17 462.214 306.900  19
  -4  -2 -18 39.4543 246.906   4
  -4  -2 -18 689.835 381.156  17
  -4  -2 -18 878.876 396.059   1
  -4  -2 -18 345.833 244.440  21
   4   2  18 187.944 262.944  11
   4   2  18-241.978 264.029  19
   4   2  19 1440.62 536.325  11
  -4  -3  16 401.678 271.231  14
  -4  -3  16 152.424 275.315  20
  -4  -3  15 1561.48 434.205  14
   4   3 -15 896.647 398.497   8
  -4  -3  15 1003.14 443.217   2
  -4  -3  15 942.233 393.349  20
  -4  -3  14 1496.10 421.589  14
   4   3 -14 1699.95 494.225   8
  -4  -3  14 1797.83 487.170   2
  -4  -3  14 1895.08 516.434  20
  -4  -3  13 443.054 277.835  14
   4   3 -13 219.862 181.427   8
   4   3 -13-140.860 167.054  13
  -4  -3  13 140.057 194.136   2
  -4  -3  13 14.7432 170.784  20
  -4  -3  12 3013.28 527.551  14
   4   3 -12 2787.24 565.017   8
   4   3 -12 2137.97 505.051  13
  -4  -3  12 1647.00 437.800   2
  -4  -3  12 2776.13 568.077  20
  -4  -3  11 5136.25 759.504   2
   4   3 -11 5815.02 775.962   8
  -4  -3  11 5055.21 653.911  14
   4   3 -11 6437.20 785.489  13
  -4  -3  11 4457.66 513.970  12
  -4  -3  11 5997.85 799.830  20
  -4  -3  10 1431.21 361.769  14
   4   3 -10 878.091 322.399   8
  -4  -3  10 1038.88 348.836   2
   4   3 -10 722.306 297.618  13
  -4  -3  10 968.154 256.770  12
  -4  -3  10 1237.40 373.437  20
   4   3  -9 2510.48 301.615   1
  -4  -3   9 3020.33 483.852  14
   4   3  -9 3387.40 549.019   8
  -4  -3   9 3243.37 561.277   2
   4   3  -9 3341.66 544.124  13
  -4  -3   9 2824.77 410.698  12
  -4  -3   9 2626.67 525.375  20
  -4  -3   8 3390.70 521.591  14
   4   3  -8 2331.40 282.064   1
   4   3  -8 3768.95 557.878   8
   4   3  -8 3614.58 553.637  13
  -4  -3   8 3298.55 592.875   2
  -4  -3   8 3054.69 414.574  12
  -4  -3   8 2845.25 538.915  20
  -4  -3   7 5779.88 714.452   2
   4   3  -7 4522.27 591.498   8
  -4  -3   7 4682.57 569.208  14
   4   3  -7 4198.94 322.657   1
   4   3  -7 5315.93 641.158  13
  -4  -3   7 4414.69 507.556  12
  -4  -3   7 4402.68 634.653  20
  -4  -3   7 4469.85 268.897  19
  -4  -3   6 613.293 155.976   9
   4   3  -6 690.856 113.834   1
  -4  -3   6 616.875 251.674  14
   4   3  -6 695.140 282.799   8
  -4  -3   6 1157.49 354.338   2
   4   3  -6 1324.03 342.440  13
  -4  -3   6 947.324 251.805  12
  -4  -3   6 533.177 258.573  20
  -4  -3   6 386.275 63.7413  19
   4   3  -6 364.383 131.412  18
   4   3  -5 1775.60 148.361   1
  -4  -3   5 2964.04 264.952   9
   4   3  -5 2088.18 149.418   1
   4   3  -5 3870.45 522.706   8
  -4  -3   5 4262.67 510.497  14
   4   3  -5 3460.97 514.768  13
  -4  -3   5 4323.45 502.797  12
  -4  -3   5 3905.00 602.856  20
   4   3  -5 3154.30 369.879  18
  -4  -3   5 4213.54 580.725   2
  -4  -3   4 4692.70 473.365   4
   4   3  -4 5833.74 598.953   8
  -4  -3   4 5231.45 559.637  14
   4   3  -4 5064.26 579.995  13
  -4  -3   4 4902.00 543.627  12
  -4  -3   4 4893.57 637.865  20
   4   3  -4 6155.49 460.845  18
  -4  -3   4 5252.53 626.282   2
   4   3  -3 14953.6 923.131   8
  -4  -3   3 15795.2 928.063  14
   4   3  -3 15806.4 1003.42  13
   4   3  -3 14808.5 885.240   7
  -4  -3   3 14531.7 923.969  12
  -4  -3   3 15497.9 910.549  21
  -4  -3   3 14532.1 1043.58  20
   4   3  -3 16581.5 779.869  18
  -4  -3   3 15873.1 1054.58   2
  -4  -3   3 14952.7 832.070   4
   4   3  -2 3213.54 408.321   8
  -4  -3   2 2449.58 334.534   4
  -4  -3   2 2697.18 417.939  14
  -4  -3   2 3039.16 487.371   2
   4   3  -2 3519.24 476.647  13
   4   3  -2 2899.38 410.189   7
  -4  -3   2 3256.92 456.008  12
  -4  -3   2 2923.30 386.542  21
   4   3  -2 3278.90 350.419  18
  -4  -3   1 816.958 173.473   4
  -4  -3   1 980.092 312.122   2
  -4  -3   1 670.066 198.523  14
   4   3  -1 1789.56 333.879   8
   4   3  -1 2226.90 385.303  13
   4   3  -1 1933.78 368.732   7
  -4  -3   1 1940.69 392.501  12
  -4  -3   1 1186.99 273.883  21
   4   3  -1 1480.11 261.639  18
   4   3   0 63916.0 1747.70   8
  -4  -3   0 57731.3 1855.59  14
   4   3   0 59776.2 1977.90  13
   4   3   0 65320.6 1952.43   7
   4   3   0 50655.0 1582.15   6
  -4  -3   0 53395.3 1700.45  21
  -4  -3   0 54500.5 1083.49  19
   4   3   0 64622.7 1715.36  18
  -4  -3   0 63078.3 2110.08   2
  -4  -3   0 59541.6 1624.56   4
   4   3   1 112740. 2345.35   8
  -4  -3  -1 114589. 2649.73  14
   4   3   1 115496. 2856.48  13
  -4  -3  -1 113006. 2549.09  21
   4   3   1 117849. 2423.47   6
  -4  -3  -1 107375. 1817.51  19
  -4  -3  -1 115975. 2922.05   2
   4   3   1 117944. 2456.30  18
  -4  -3  -1 106636. 2345.43   4
   4   3   2 127077. 2007.25   9
  -4  -3  -2 127666. 2214.72   1
   4   3   2 134340. 2657.32   8
  -4  -3  -2 148758. 3130.80  14
   4   3   2 154665. 3379.46  13
   4   3   2 142824. 2880.92   6
  -4  -3  -2 151041. 3069.60  21
  -4  -3  -2 136787. 2403.24  19
  -4  -3  -2 145749. 3413.36   2
   4   3   2 142668. 2918.70  18
  -4  -3  -2 133130. 2803.39   4
  -4  -3  -3 52878.6 1391.36  19
  -4  -3  -3 52487.1 1295.64   1
   4   3   3 50446.0 1413.29   8
  -4  -3  -3 58703.8 1841.55  14
  -4  -3  -3 49254.1 1277.66   8
   4   3   3 61148.3 1986.98  13
   4   3   3 56679.3 1661.59   6
  -4  -3  -3 55676.4 1774.06  21
  -4  -3  -3 44903.1 1227.95   5
   4   3   3 48023.9 1427.12  19
  -4  -3  -3 55601.3 1991.75   2
   4   3   3 57074.3 1737.33  18
  -4  -3  -3 56035.8 1645.91   4
   4   3   3 48795.3 1153.12   9
   4   3   4 10147.4 579.330   8
  -4  -3  -4 11252.1 604.203   1
  -4  -3  -4 12350.2 847.814  14
  -4  -3  -4 10416.7 512.033   8
   4   3   4 11082.3 848.856  13
  -4  -3  -4 11718.2 816.467  12
   4   3   4 10656.8 715.161   6
  -4  -3  -4 12714.7 840.463  21
  -4  -3  -4 9099.23 550.391   5
  -4  -3  -4 11136.8 904.346   2
   4   3   4 9832.17 675.221  19
  -4  -3  -4 11858.3 735.261   4
   4   3   4 11341.4 780.548  18
   4   3   4 9207.63 517.549   9
  -4  -3  -5 1269.07 286.871  21
   4   3   5 1449.64 225.240   9
  -4  -3  -5 1300.15 282.013   4
   4   3   5 1185.65 192.968   8
  -4  -3  -5 1364.67 231.922   1
  -4  -3  -5 1349.12 179.115   8
  -4  -3  -5 1147.21 312.469  14
   4   3   5 1640.60 305.739   7
  -4  -3  -5 1915.28 355.655  12
   4   3   5 1322.19 290.607  19
   4   3   5 1407.06 331.085  18
  -4  -3  -6 2052.60 384.725  17
  -4  -3  -6 1920.06 369.081   4
  -4  -3  -6 1802.52 178.001   8
  -4  -3  -6 1817.82 377.771  14
  -4  -3  -6 1925.23 366.101  21
  -4  -3  -6 1692.47 286.257   1
   4   3   6 1967.84 357.038   7
  -4  -3  -6 1958.53 359.488  12
   4   3   6 1369.58 325.522  19
   4   3   6 1953.02 360.592  18
  -4  -3  -7 650.783 284.349  17
  -4  -3  -7 301.059 186.140   4
  -4  -3  -7 226.121 68.5955   8
   4   3   7 378.399 185.196   7
  -4  -3  -7 372.470 157.038   1
  -4  -3  -7 119.840 151.891  12
  -4  -3  -7 46.2009 136.628  21
   4   3   7 223.202 198.759  19
  -4  -3  -8 2933.92 180.905   8
  -4  -3  -8 4124.01 490.075   1
  -4  -3  -8 4297.96 556.213  21
   4   3   8 5153.67 558.520   7
  -4  -3  -8 3709.96 463.109  12
   4   3   8 3782.08 578.711  11
   4   3   8 3675.79 523.446  19
  -4  -3  -8 3957.49 519.268   4
  -4  -3  -8 4750.75 649.787  17
  -4  -3  -9 1378.80 400.995  17
  -4  -3  -9 992.161 304.443   4
   4   3   9 1389.47 242.164  15
  -4  -3  -9 765.271 76.3590   8
   4   3   9 1305.28 306.807   7
  -4  -3  -9 1271.28 293.535  12
  -4  -3  -9 1093.37 310.509  21
  -4  -3  -9 1378.96 309.625   1
   4   3   9 1160.23 384.469  11
   4   3   9 1038.69 309.967  19
  -4  -3 -10 424.030 221.663  17
  -4  -3 -10 752.515 294.564   4
   4   3  10 667.225 167.245  15
   4   3  10 963.335 259.696   7
  -4  -3 -10 1220.05 276.174  12
  -4  -3 -10 729.607 292.739  21
   4   3  10 505.943 286.825  11
  -4  -3 -10 583.867 174.951   1
   4   3  10 680.323 243.058  19
  -4  -3 -11 2995.17 576.637  17
   4   3  11 2437.03 297.412  15
   4   3  11 3136.40 446.684   7
   4   3  11 2362.60 303.979   3
  -4  -3 -11 2654.86 404.747  12
  -4  -3 -11 3776.71 579.402  21
   4   3  11 2104.63 499.348  11
  -4  -3 -11 3667.27 577.084   4
   4   3  11 3078.15 544.129  19
  -4  -3 -11 2454.55 437.931   1
  -4  -3 -12 2078.58 501.941  17
  -4  -3 -12 1210.96 406.603   4
   4   3  12 1678.01 254.125  15
   4   3  12 2018.05 399.598   7
  -4  -3 -12 1353.57 306.842  12
  -4  -3 -12 1574.87 396.278  21
   4   3  12 1472.52 236.697   3
   4   3  12 1892.73 452.934  11
  -4  -3 -12 1676.66 442.494   1
   4   3  12 1782.93 454.547  19
  -4  -3 -13 4398.26 660.056   4
  -4  -3 -13 4789.72 665.373   1
   4   3  13 6060.18 633.781   7
  -4  -3 -13 5595.29 601.381  12
   4   3  13 5344.88 769.199  11
  -4  -3 -13 5865.46 767.447  21
   4   3  13 6058.30 783.832  19
  -4  -3 -13 7333.98 915.081  17
  -4  -3 -14 2234.87 556.667  17
  -4  -3 -14 1436.94 413.332   4
   4   3  14 2334.37 415.938   7
  -4  -3 -14 1738.12 476.429  21
  -4  -3 -14 1362.48 381.049   1
   4   3  14 1279.62 417.482  11
   4   3  14 2021.48 519.441  19
  -4  -3 -15 3847.70 693.382   4
   4   3  15 4996.23 579.230   7
  -4  -3 -15 4527.62 728.396  21
  -4  -3 -15 4339.67 681.111   1
   4   3  15 3898.33 689.874  11
   4   3  15 4641.78 740.387  19
  -4  -3 -15 5802.60 871.052  17
  -4  -3 -16 308.999 293.796   4
  -4  -3 -16 503.499 311.969  17
  -4  -3 -16 437.941 317.624  21
  -4  -3 -16 1093.90 392.836   1
   4   3  16 1270.50 464.333  11
   4   3  16 325.032 332.402  19
  -4  -3 -17 1320.62 502.902   4
  -4  -3 -17 1948.57 568.020  17
  -4  -3 -17 1525.56 439.148   1
  -4  -3 -17 2534.69 567.775  21
   4   3  17 1677.04 517.522  11
   4   3  17 2059.94 599.909  19
  -4  -3 -18-418.150 319.474  17
  -4  -3 -18 324.290 246.084   1
  -4  -3 -18 403.441 291.267  21
   4   3  18-274.936 261.488  11
   4   3  18 107.461 214.094  19
  -4  -3 -19 1300.27 480.223  21
   4   3  19 798.967 447.960  11
  -4  -4  15 1352.60 427.876   2
   4   4 -14-340.525 236.091   8
  -4  -4  14 248.225 252.630   2
  -4  -4  14 157.028 260.925  20
  -4  -4  13-88.7083 165.540  14
   4   4 -13-133.494 216.468   8
  -4  -4  13-212.980 259.578   2
  -4  -4  13 207.724 257.319  20
  -4  -4  12 334.027 160.446  14
   4   4 -12 558.730 303.831   8
  -4  -4  12 193.876 190.030   2
   4   4 -12 427.833 228.692  13
  -4  -4  12-216.932 216.330  20
  -4  -4  11-143.625 172.893  14
  -4  -4  11-6.79363 240.070   2
   4   4 -11-118.443 154.001  13
  -4  -4  11-101.377 215.866  20
   4   4 -10 4033.86 645.509   8
  -4  -4  10 3849.53 548.849  14
  -4  -4  10 4066.77 656.312   2
   4   4 -10 3386.77 530.862  13
  -4  -4  10 3554.07 503.482  12
  -4  -4  10 3142.84 608.368  20
   4   4  -9 6428.94 775.367   8
  -4  -4   9 5023.43 597.740  14
   4   4  -9 4386.89 589.519  13
  -4  -4   9 4384.98 556.559  12
  -4  -4   9 4142.12 685.264  20
  -4  -4   9 4706.03 687.225   2
  -4  -4   8 3741.70 502.475  14
   4   4  -8 3792.31 586.127   8
  -4  -4   8 3853.93 621.085   2
   4   4  -8 2936.92 476.669  13
  -4  -4   8 3372.43 498.410  12
  -4  -4   8 3005.29 589.888  20
   4   4  -8 3076.87 415.591   9
   4   4  -7 10908.1 931.250   8
  -4  -4   7 10672.4 827.683  14
   4   4  -7 11246.1 903.210  13
  -4  -4   7 9239.37 790.427  12
  -4  -4   7 10576.0 1024.68  20
  -4  -4   7 11467.7 1035.99   2
   4   4  -7 7618.27 606.724   9
   4   4  -6 4487.47 579.091   8
  -4  -4   6 4246.88 507.957  14
   4   4  -6 4315.24 553.442  13
   4   4  -6 4175.92 462.902   7
  -4  -4   6 4576.13 558.648  12
  -4  -4   6 5071.39 701.866  20
  -4  -4   6 4516.46 651.639   2
   4   4  -6 3590.70 393.747   9
   4   4  -5 1371.51 230.405   9
  -4  -4   5 1457.54 266.954   4
  -4  -4   5 1246.70 290.022  14
  -4  -4   5 1007.51 316.502   2
   4   4  -5 1436.43 334.316   8
   4   4  -5 1358.79 330.065  13
   4   4  -5 1356.67 274.836   7
  -4  -4   5 1655.22 366.188  12
  -4  -4   5 1805.56 428.116  20
  -4  -4   4 4058.87 495.067  14
   4   4  -4 3689.53 489.310   8
   4   4  -4 3723.86 497.226  13
   4   4  -4 3560.21 437.487   7
  -4  -4   4 3845.54 521.918  12
  -4  -4   4 3568.01 580.300  20
   4   4  -4 2659.73 253.853   1
  -4  -4   4 3853.26 595.476   2
   4   4  -4 3138.97 316.238   9
  -4  -4   4 3298.86 376.114   4
   4   4  -3 2562.32 258.361   9
   4   4  -3 2091.65 203.200   1
   4   4  -3 3327.67 457.825   8
  -4  -4   3 1966.23 438.561   2
  -4  -4   3 2548.72 384.943  14
   4   4  -3 2926.17 439.883  13
   4   4  -3 3208.19 421.470   7
  -4  -4   3 3348.64 476.683  12
  -4  -4   3 2989.43 536.733  20
   4   4  -3 3097.02 426.887  18
  -4  -4   3 2317.59 312.692   4
   4   4  -2 1700.29 193.687   9
   4   4  -2 1185.74 147.384   1
  -4  -4   2 1210.87 225.853   4
  -4  -4   2 1345.06 325.855   2
  -4  -4   2 1342.54 297.435  14
   4   4  -2 1963.10 348.842   8
   4   4  -2 1878.36 368.976  13
   4   4  -2 2568.79 390.310   7
  -4  -4   2 2101.15 374.992  12
  -4  -4   2 1858.40 294.658  21
   4   4  -2 1404.41 157.940   5
   4   4  -2 1983.07 335.063  18
   4   4  -1 4029.35 296.304   9
   4   4  -1 4357.13 275.137   1
  -4  -4   1 5035.64 529.782  14
   4   4  -1 5678.07 542.936   8
   4   4  -1 5056.03 566.835  13
   4   4  -1 5668.48 565.596   7
  -4  -4   1 5197.49 584.099  12
   4   4  -1 5101.23 304.800   5
  -4  -4   1 4891.89 446.830  21
   4   4  -1 5743.29 582.671  18
  -4  -4   1 4788.98 625.484   2
  -4  -4   1 4986.33 412.082   4
  -4  -4   0-312.909 298.015  17
   4   4   0 209.161 89.8451   9
  -4  -4   0 69.3537 82.6682   4
  -4  -4   0 192.458 227.092   2
  -4  -4   0 196.582 121.931  14
   4   4   0 57.4841 108.624   8
   4   4   0 142.521 144.013  13
   4   4   0 182.398 76.8819   1
   4   4   0 485.758 174.769   7
  -4  -4   0 300.554 220.623  12
  -4  -4   0 49.2897 103.189  21
   4   4   0 232.370 189.949  18
   4   4   1 2147.52 231.371   9
  -4  -4  -1 2607.89 483.165  17
  -4  -4  -1 3528.05 448.388  14
   4   4   1 3176.42 353.849   8
   4   4   1 3004.25 266.086   1
   4   4   1 3741.24 500.217  13
   4   4   1 3489.54 457.815   7
  -4  -4  -1 3534.17 505.275  12
   4   4   1 2657.77 425.305   6
  -4  -4  -1 2318.89 309.759  21
  -4  -4  -1 3875.36 577.129   2
   4   4   1 3347.26 461.164  18
  -4  -4  -1 2678.27 312.634   4
  -4  -4  -2 30109.8 1298.80  14
   4   4   2 27891.1 1031.65   8
   4   4   2 30547.7 1391.62  13
   4   4   2 27545.2 911.160   1
   4   4   2 31786.2 1351.99   7
  -4  -4  -2 27701.5 1368.73  12
   4   4   2 26826.0 1304.71   6
  -4  -4  -2 27730.6 1087.44  21
  -4  -4  -2 22496.9 765.618  19
   4   4   2 22903.2 798.492  19
  -4  -4  -2 24858.6 942.095   1
  -4  -4  -2 27622.7 1502.21   2
  -4  -4  -2 28754.4 1006.51   4
   4   4   2 29465.2 1343.95  18
  -4  -4  -2 31904.1 1581.26  17
   4   4   2 25928.6 1024.06   4
  -4  -4  -3 1892.03 411.123  17
  -4  -4  -3 2651.98 503.098   2
   4   4   3 2503.29 283.599   8
  -4  -4  -3 2757.60 432.339  14
   4   4   3 3126.75 466.450  13
   4   4   3 2165.03 262.747   1
   4   4   3 2619.73 417.641   6
  -4  -4  -3 2808.73 408.422  12
  -4  -4  -3 2813.22 332.861  21
  -4  -4  -3 1917.53 232.856  19
   4   4   3 2084.54 259.336  19
  -4  -4  -3 2575.15 304.096   4
   4   4   3 2995.20 444.279  18
  -4  -4  -3 2217.77 295.747   1
  -4  -4  -4 1270.65 314.778  17
  -4  -4  -4 1176.10 224.493   4
  -4  -4  -4 1611.02 264.199   1
  -4  -4  -4 1409.39 302.800  14
   4   4   4 1157.82 180.854   8
  -4  -4  -4 1595.34 338.830  12
   4   4   4 1523.29 332.203   6
  -4  -4  -4 1403.91 266.505  21
  -4  -4  -4 1261.40 215.749  19
   4   4   4 1181.88 222.319  19
   4   4   4 1416.13 294.345  18
  -4  -4  -5 3403.11 537.251  17
  -4  -4  -5 3080.78 369.742   1
   4   4   5 2137.97 236.155   8
  -4  -4  -5 2864.68 444.499  14
   4   4   5 2701.68 427.288   6
  -4  -4  -5 2725.30 423.827  12
  -4  -4  -5 3206.08 394.732  21
   4   4   5 2082.13 327.982  19
  -4  -4  -5 3032.83 377.036   4
   4   4   5 2724.48 424.359  18
  -4  -4  -6 1444.53 394.473  17
  -4  -4  -6 2101.71 331.676   4
   4   4   6 1394.51 158.526   8
  -4  -4  -6 2236.73 337.697   1
  -4  -4  -6 2258.54 394.102  12
  -4  -4  -6 2627.23 385.976  21
   4   4   6 1758.04 351.226   6
   4   4   6 1795.30 417.431  11
   4   4   6 1718.22 317.752  19
   4   4   6 1857.22 365.661  18
  -4  -4  -7 2226.80 473.697  17
  -4  -4  -7 2086.34 347.722   4
  -4  -4  -7 2598.56 438.199  12
  -4  -4  -7 2492.59 402.022  21
  -4  -4  -7 1923.87 331.651   1
   4   4   7 1767.84 422.650  11
   4   4   7 1820.35 336.160  19
   4   4   7 2207.90 439.193  18
  -4  -4  -8 2669.39 528.010  17
  -4  -4  -8 2674.95 415.031   4
  -4  -4  -8 2839.28 428.820   1
  -4  -4  -8 3059.00 478.979  12
  -4  -4  -8 2318.39 392.684  21
   4   4   8 2219.35 444.072  11
   4   4   8 1832.94 354.658  19
   4   4   8 3333.34 530.253  18
   4   4   9 3621.58 294.234  15
  -4  -4  -9 3967.46 511.389   1
  -4  -4  -9 3527.99 502.057  21
  -4  -4  -9 4883.14 592.600  12
   4   4   9 4341.45 622.780  11
   4   4   9 3879.99 538.627  19
  -4  -4  -9 4069.30 538.361   4
   4   4   9 3616.02 555.096  18
  -4  -4  -9 4646.45 659.894  17
  -4  -4 -10 4990.21 594.066   1
  -4  -4 -10 5595.20 634.906  21
  -4  -4 -10 6025.50 654.614  12
   4   4  10 4820.75 719.749  11
   4   4  10 4544.21 616.564  19
  -4  -4 -10 5008.27 612.373   4
   4   4  10 5317.51 690.742  18
  -4  -4 -10 5340.00 747.187  17
  -4  -4 -11 4875.34 613.292   1
  -4  -4 -11 6092.26 708.603  21
  -4  -4 -11 6101.62 673.165  12
   4   4  11 5188.43 740.028  11
   4   4  11 5313.51 697.249  19
  -4  -4 -11 5554.45 686.578   4
  -4  -4 -11 5758.68 774.725  17
  -4  -4 -12 5467.78 694.842   1
   4   4  12 6557.77 820.896  11
  -4  -4 -12 5636.35 649.096  12
  -4  -4 -12 6697.27 754.168  21
   4   4  12 5624.21 749.509  19
  -4  -4 -12 5146.95 701.123   4
  -4  -4 -12 6059.76 832.010  17
  -4  -4 -13 3142.57 585.652   4
  -4  -4 -13 2416.40 550.556  17
  -4  -4 -13 3338.51 592.410   1
  -4  -4 -13 3090.84 484.716  12
  -4  -4 -13 3468.66 561.243  21
   4   4  13 3239.14 619.496  11
   4   4  13 2667.05 549.938  19
  -4  -4 -14 1569.34 459.594   4
  -4  -4 -14 2476.10 545.195  17
  -4  -4 -14 2010.92 462.414   1
   4   4  14 1913.64 405.727   7
  -4  -4 -14 1701.33 355.394  12
  -4  -4 -14 2262.81 486.440  21
   4   4  14 1409.08 455.906  11
   4   4  14 1842.36 466.944  19
  -4  -4 -15 499.929 296.923  17
  -4  -4 -15-127.879 165.958   1
   4   4  15-69.4400 190.326   7
  -4  -4 -15 204.256 184.831  21
   4   4  15 169.977 211.085  11
  -4  -4 -15-211.930 309.712   4
   4   4  15 210.968 312.549  19
  -4  -4 -16 89.7887 250.828  17
  -4  -4 -16 291.918 255.432   1
   4   4  16 301.089 188.098   7
  -4  -4 -16-72.2951 222.948  21
   4   4  16 165.017 225.277  11
   4   4  16 465.979 369.730  19
  -4  -4 -17 332.885 267.019  17
  -4  -4 -17-23.4233 203.606   1
  -4  -4 -17-185.370 193.613  21
   4   4  17 9.36391 214.318  11
   4   4  17-47.0463 196.916  19
  -4  -4 -18 378.745 336.703  17
  -4  -4 -18 1019.00 419.665   1
  -4  -4 -18 1138.61 455.672  21
   4   4  18 972.761 431.784  11
   4   4  18 1029.68 395.875  19
  -4  -4 -19-150.276 232.952  21
  -4  -5  14 227.900 234.871   2
   4   5 -13-224.018 241.405   8
  -4  -5  13-14.5962 172.347   2
  -4  -5  13-368.978 292.430  20
   4   5 -12 149.828 211.833   8
  -4  -5  12 223.812 241.453   2
  -4  -5  12 491.509 339.576  20
  -4  -5  11 537.157 289.631   2
   4   5 -11 411.308 251.752   8
  -4  -5  11 394.162 252.969  20
  -4  -5  10 365.706 236.782   2
   4   5 -10 779.045 324.294   8
  -4  -5  10 290.798 264.890  20
  -4  -5   9 2284.41 508.069   2
   4   5  -9 2648.98 508.484   8
  -4  -5   9 1661.70 388.486  12
  -4  -5   9 1882.70 514.146  20
  -4  -5   8 4168.64 497.224  14
   4   5  -8 4643.50 659.684   8
  -4  -5   8 4164.43 679.233   2
   4   5  -8 3765.26 509.530  13
  -4  -5   8 5045.48 649.888  12
  -4  -5   8 4004.75 685.242  20
   4   5  -8 3968.65 519.592   9
  -4  -5   7 3101.36 518.648  12
  -4  -5   7 2772.39 403.085  14
  -4  -5   7 2271.90 519.650   2
   4   5  -7 3463.62 577.177   8
   4   5  -7 2785.53 399.564   7
   4   5  -7 2450.89 413.633  13
  -4  -5   7 2890.95 580.717  20
   4   5  -7 2769.84 422.288   9
   4   5  -6 8149.37 677.571   9
  -4  -5   6 10026.0 772.720  14
   4   5  -6 10188.3 917.658   8
   4   5  -6 10429.8 810.271  13
   4   5  -6 9705.00 740.521   7
  -4  -5   6 11005.0 946.956  12
  -4  -5   6 10710.6 1074.07  20
  -4  -5   6 11314.8 1062.95   2
   4   5  -5 15842.7 908.811   9
  -4  -5   5 20345.1 1096.03  14
   4   5  -5 18553.3 1179.62   8
   4   5  -5 18903.2 1085.51  13
   4   5  -5 18306.1 1028.71   7
  -4  -5   5 20664.1 1291.61  12
  -4  -5   5 20719.2 1422.18  20
  -4  -5   5 20637.5 1402.99   2
   4   5  -4 4566.89 458.470   9
  -4  -5   4 5055.44 529.290  14
   4   5  -4 4866.35 594.791   8
   4   5  -4 4527.81 544.742  13
   4   5  -4 5594.13 578.450   7
  -4  -5   4 5366.40 677.095  12
  -4  -5   4 6076.01 772.695  20
  -4  -5   4 4969.95 700.233   2
   4   5  -3 3875.70 408.157   9
  -4  -5   3 3480.77 446.507  14
  -4  -5   3 2969.34 529.781   2
   4   5  -3 3987.96 529.470   8
   4   5  -3 4430.24 533.209  13
   4   5  -3 4147.78 505.815   7
  -4  -5   3 3846.05 555.975  12
  -4  -5   3 3414.88 598.741  20
  -4  -5   3 3247.84 270.121   4
   4   5  -2 253.103 111.758   9
  -4  -5   2 331.201 76.7493   4
  -4  -5   2 313.329 185.242   2
  -4  -5   2 485.543 206.938  14
   4   5  -2 651.005 232.271   8
   4   5  -2 543.705 244.755  13
   4   5  -2 1005.34 280.536   7
  -4  -5   2 969.508 289.500  12
   4   5  -1 4431.22 419.134   9
   4   5  -1 4337.06 399.068   1
  -4  -5   1 5798.40 554.366  14
   4   5  -1 5704.05 573.944   8
   4   5  -1 5013.30 557.772  13
  -4  -5   1 5536.88 674.912  12
   4   5  -1 5287.42 435.466   5
  -4  -5   1 4517.92 663.380   2
  -4  -5   1 4927.17 277.376   4
   4   5  -1 5136.03 592.516  18
   4   5   0 4392.18 419.525   9
   4   5   0 3219.66 345.127   1
  -4  -5   0 5138.59 533.108  14
   4   5   0 4956.71 524.114   8
   4   5   0 4301.21 537.769  13
  -4  -5   0 4990.22 664.428  12
   4   5   0 3493.01 363.516   5
  -4  -5   0 2664.43 229.180   4
  -4  -5   0 5659.24 739.203   2
   4   5   0 4355.42 585.440  18
   4   5   1 50394.7 1582.86   9
  -4  -5  -1 60411.8 1917.79  14
   4   5   1 53161.6 1658.76   8
   4   5   1 56193.8 1948.62  13
  -4  -5  -1 59553.5 2226.65  12
   4   5   1 57488.4 2164.88   6
   4   5   1 48094.2 1284.69  21
  -4  -5  -1 51786.2 1321.91  21
   4   5   1 59164.9 1611.82   5
   4   5   1 49314.3 1030.19  19
  -4  -5  -1 61261.0 2329.14   2
  -4  -5  -1 49745.5 1139.74   4
   4   5   1 60932.4 2162.06  18
  -4  -5  -1 57983.5 2266.01  17
   4   5   2 21494.4 1047.23   9
  -4  -5  -2 24610.0 1242.85  14
   4   5   2 23202.1 1007.88   8
   4   5   2 26323.7 1311.82  13
  -4  -5  -2 28369.5 1494.69  12
   4   5   2 26326.0 1439.28   6
   4   5   2 26102.4 871.996  21
  -4  -5  -2 22573.4 831.180  21
   4   5   2 20326.7 737.663  19
  -4  -5  -2 24718.4 1492.89   2
  -4  -5  -2 24453.6 794.872   4
   4   5   2 26433.7 1070.44   5
   4   5   2 27853.8 1443.57  18
  -4  -5  -2 25911.5 1473.91  17
  -4  -5  -3 24352.6 1257.64  14
   4   5   3 21283.3 898.231   8
   4   5   3 23885.8 1245.43  13
  -4  -5  -3 25216.4 1440.09  12
   4   5   3 23369.7 1345.82   6
   4   5   3 17895.3 747.682  21
  -4  -5  -3 20571.2 826.270  21
   4   5   3 19573.5 804.591  19
  -4  -5  -3 20273.3 1033.63   1
  -4  -5  -3 21618.0 1369.89   2
  -4  -5  -3 21125.3 788.570   4
   4   5   3 23710.0 1348.15  18
   4   5   3 18039.1 791.704   4
  -4  -5  -3 21038.5 1328.23  17
   4   5   4 15472.3 702.521   8
  -4  -5  -4 18387.3 1200.52  12
   4   5   4 16166.2 1142.87   6
  -4  -5  -4 15376.3 728.563  21
   4   5   4 15993.1 1076.73  11
   4   5   4 14177.6 756.988  19
  -4  -5  -4 16416.2 737.787   4
  -4  -5  -4 15450.5 930.894   1
   4   5   4 16978.1 1147.50  18
   4   5   4 11156.0 647.299   4
  -4  -5  -4 14062.3 1056.54  17
  -4  -5  -5 4363.19 551.146  17
   4   5   5 4940.67 352.087   8
  -4  -5  -5 6557.27 749.594  12
   4   5   5 5242.72 667.865   6
  -4  -5  -5 5006.91 446.710  21
   4   5   5 5261.89 635.519  11
   4   5   5 4838.73 494.926  19
  -4  -5  -5 5914.82 470.334   4
   4   5   5 6747.15 729.876  18
  -4  -5  -5 5341.97 548.843   1
  -4  -5  -6 5057.33 563.342   1
   4   5   6 4063.22 271.846   8
  -4  -5  -6 4817.67 650.689  12
   4   5   6 4820.51 648.101   6
  -4  -5  -6 4678.23 449.276  21
   4   5   6 5394.46 650.679  11
   4   5   6 4896.22 511.828  19
  -4  -5  -6 4972.55 476.507   4
   4   5   6 5143.33 649.568  18
  -4  -5  -6 4755.80 693.352  17
  -4  -5  -7 11562.6 873.618   1
   4   5   7 12322.3 1020.80   6
  -4  -5  -7 13514.6 1066.60  12
  -4  -5  -7 12950.5 785.624  21
   4   5   7 11776.4 1006.83  11
   4   5   7 11715.5 845.228  19
  -4  -5  -7 12350.3 801.104   4
   4   5   7 12439.7 1010.02  18
  -4  -5  -7 12675.0 1056.58  17
  -4  -5  -8 6100.71 663.495   1
  -4  -5  -8 7466.09 813.929  12
  -4  -5  -8 5906.79 567.325  21
   4   5   8 7156.71 841.380   6
   4   5   8 5754.29 743.584  11
   4   5   8 6027.14 662.465  19
  -4  -5  -8 5832.21 590.334   4
   4   5   8 6836.86 770.623  18
  -4  -5  -8 6369.56 782.323  17
  -4  -5  -9 8402.02 801.011   1
  -4  -5  -9 8536.38 879.127  12
  -4  -5  -9 8689.98 718.779  21
   4   5   9 9199.72 939.037  11
   4   5   9 9646.10 849.955  19
  -4  -5  -9 7479.78 714.000   4
   4   5   9 8348.50 874.474  18
  -4  -5  -9 8737.95 927.682  17
  -4  -5 -10 13381.9 1040.28   1
  -4  -5 -10 15021.8 1130.09  12
  -4  -5 -10 13479.8 928.103  21
   4   5  10 14372.3 1188.99  11
   4   5  10 13402.2 1055.30  19
  -4  -5 -10 13150.7 995.438   4
   4   5  10 13743.5 1142.26  18
  -4  -5 -10 15942.0 1256.58  17
  -4  -5 -11 10138.8 936.865   1
  -4  -5 -11 11666.4 991.774  12
  -4  -5 -11 10266.7 842.880  21
   4   5  11 10994.2 1082.39  11
   4   5  11 9960.47 974.926  19
  -4  -5 -11 8614.59 843.952   4
   4   5  11 9893.15 999.860  18
  -4  -5 -11 12489.8 1154.05  17
  -4  -5 -12 3258.80 623.818  17
  -4  -5 -12 2566.04 523.033   1
  -4  -5 -12 3821.07 554.829  21
  -4  -5 -12 3601.12 557.568  12
   4   5  12 3393.12 632.790  11
   4   5  12 3216.92 578.810  19
   4   5  12 4061.72 687.808  18
  -4  -5 -13 5372.22 744.241   1
  -4  -5 -13 6306.93 728.146  12
  -4  -5 -13 7344.28 791.426  21
   4   5  13 6582.44 895.806  11
   4   5  13 5912.29 798.019  19
  -4  -5 -13 6650.65 877.298  17
  -4  -5 -14 3864.74 696.615  17
  -4  -5 -14 3606.80 554.138  12
  -4  -5 -14 4206.40 609.134  21
  -4  -5 -14 3010.99 583.336   1
   4   5  14 3852.30 732.416  11
   4   5  14 3596.11 644.711  19
  -4  -5 -15 1550.68 506.030  17
  -4  -5 -15 671.282 281.602  21
  -4  -5 -15 658.224 293.840   1
   4   5  15 1491.15 492.709  11
   4   5  15 1348.11 397.370  19
  -4  -5 -16 393.119 236.118  17
  -4  -5 -16 298.777 197.691  21
  -4  -5 -16 251.571 252.370   1
   4   5  16-185.588 297.457  11
   4   5  16-348.654 252.894  19
  -4  -5 -17 111.013 245.777  17
  -4  -5 -17 190.387 239.361  21
   4   5  17 423.595 300.030  11
  -4  -5 -17 312.015 235.621   1
   4   5  17 709.489 346.511  19
  -4  -5 -18-172.357 304.998  17
  -4  -5 -18 367.413 323.581  21
  -4  -5 -18-439.162 290.313   1
   4   5  18 389.893 362.335  19
  -4  -5 -19 16.4337 193.114  21
  -4  -6  12 840.484 344.535   2
  -4  -6  11 282.638 289.174   2
   4   6 -11 291.563 233.904   8
  -4  -6  11 507.931 308.873  20
  -4  -6  10 920.591 339.896   2
   4   6 -10 1044.98 414.340   8
  -4  -6  10 1319.83 478.476  20
  -4  -6   9 3549.47 672.442   2
   4   6  -9 2991.96 576.582   8
  -4  -6   9 3785.17 701.611  20
  -4  -6   8 1210.12 386.864   2
   4   6  -8 559.441 312.786   8
  -4  -6   8 314.645 279.784  20
  -4  -6   7 2897.41 605.555   2
   4   6  -7 2236.39 486.686   8
  -4  -6   7 2576.38 593.355  20
   4   6  -6 9060.68 886.055   8
   4   6  -6 8774.73 732.454   7
  -4  -6   6 10271.1 976.344  12
  -4  -6   6 9008.04 1035.61  20
  -4  -6   6 9905.05 1050.84   2
   4   6  -5 950.692 278.750   9
  -4  -6   5 917.986 357.155   2
   4   6  -5 1236.40 352.834   8
   4   6  -5 920.949 266.626   7
  -4  -6   5 1534.75 427.861  12
  -4  -6   5 975.083 385.547  20
   4   6  -4-278.283 195.314   9
  -4  -6   4 1042.77 400.669   2
  -4  -6   4 59.3519 111.461  14
   4   6  -4 365.744 193.043   8
   4   6  -4 383.687 206.518  13
   4   6  -4 358.205 184.645   7
  -4  -6   4 548.715 271.818  12
  -4  -6   4 103.911 185.618  20
   4   6  -3 88.0162 144.852   9
  -4  -6   3 27.5089 234.917   2
  -4  -6   3-20.3004 101.430  14
   4   6  -3-27.2620 138.877   8
   4   6  -3-246.458 193.752  13
  -4  -6   3 4.54684 163.571  12
  -4  -6   2 1742.12 419.121  16
   4   6  -2 1281.81 284.943   9
  -4  -6   2 1471.36 395.018   2
  -4  -6   2 1239.44 271.102  14
   4   6  -2 1140.57 309.003   8
   4   6  -2 1409.53 308.893  13
  -4  -6   2 1837.07 428.733  12
   4   6  -1 4920.62 547.404   9
  -4  -6   1 5759.94 726.530  16
  -4  -6   1 5226.77 543.400  14
   4   6  -1 4527.01 547.576   8
   4   6  -1 5085.95 553.238  13
  -4  -6   1 5286.12 700.979  12
  -4  -6   1 4871.68 719.464   2
  -4  -6   0 1927.30 459.043  16
   4   6   0 2017.35 371.626   9
  -4  -6   0 1825.32 478.614   2
  -4  -6   0 1689.93 298.949  14
   4   6   0 2249.79 366.502   8
   4   6   0 1973.35 369.076  13
  -4  -6   0 1911.71 458.551  12
   4   6   0 1867.97 344.932   5
   4   6   0 1851.38 429.224  18
  -4  -6  -1 3252.36 561.053  16
  -4  -6  -1 3078.50 580.057   2
   4   6   1 2449.23 400.867   9
   4   6   1 2179.87 477.096   6
   4   6   1 2395.72 372.145   8
   4   6   1 1782.49 333.947  13
  -4  -6  -1 2997.86 546.247  12
   4   6   1 2394.92 417.064  11
   4   6   1 3194.81 435.137   5
   4   6   1 2489.17 499.834  18
  -4  -6  -2 1088.14 359.576  17
  -4  -6  -2 375.531 287.910   2
  -4  -6  -2 956.935 389.018  16
   4   6   2 432.291 197.896   9
   4   6   2 616.350 195.737   8
   4   6   2 839.661 305.299   6
   4   6   2 487.581 208.340  13
  -4  -6  -2 805.065 321.697  12
   4   6   2 503.237 184.150   5
   4   6   2 583.488 251.194  11
   4   6   2 711.764 286.358  18
  -4  -6  -3 2914.12 493.804  17
  -4  -6  -3 3123.70 572.629  16
   4   6   3 2486.68 428.276   9
   4   6   3 2960.00 359.839   8
   4   6   3 3373.73 472.072  13
  -4  -6  -3 3620.69 581.513  12
   4   6   3 3735.49 632.181   6
   4   6   3 3262.20 437.478   5
   4   6   3 2924.53 328.845  19
   4   6   3 2734.39 438.650  11
   4   6   3 3513.51 600.539  18
  -4  -6  -4 150.881 242.969  17
  -4  -6  -4 656.622 310.804  16
   4   6   4 460.685 137.055   8
  -4  -6  -4 167.189 183.566   1
  -4  -6  -4 832.133 308.379  12
   4   6   4 382.767 202.341   6
   4   6   4 691.626 239.258   5
   4   6   4 459.035 212.264  11
   4   6   4 572.935 167.450  19
   4   6   4 839.909 330.736  18
  -4  -6  -5 552.099 282.507  17
  -4  -6  -5 633.280 335.242  16
   4   6   5 397.830 143.826   8
  -4  -6  -5 954.611 348.116  12
   4   6   5 111.370 191.167   6
  -4  -6  -5 439.555 207.028   1
   4   6   5 528.679 236.320  11
   4   6   5 434.371 185.206  19
   4   6   5 588.014 289.766  18
  -4  -6  -6 4616.01 680.422  16
  -4  -6  -6 5600.19 711.698  12
   4   6   6 4662.34 695.958   6
   4   6   6 4464.14 614.143  11
   4   6   6 4661.75 514.336  19
  -4  -6  -6 4359.01 576.191   1
   4   6   6 4745.13 710.797  18
  -4  -6  -6 5326.34 709.033  17
  -4  -6  -7 2113.44 492.345  17
  -4  -6  -7 2431.87 495.047  16
  -4  -6  -7 2186.24 486.175  12
   4   6   7 1419.99 385.137   6
   4   6   7 1619.40 403.219  11
   4   6   7 2160.40 392.012  19
  -4  -6  -7 2011.76 421.907   1
   4   6   7 2401.51 529.179  18
  -4  -6  -8 2571.56 474.391   1
  -4  -6  -8 3353.12 592.915  17
  -4  -6  -8 2836.00 536.265  12
   4   6   8 3049.81 565.844   6
   4   6   8 2524.10 498.765  11
   4   6   8 2774.05 447.943  19
   4   6   8 2377.69 482.471  18
  -4  -6  -9 1424.70 418.445  17
  -4  -6  -9 1078.70 333.263   1
  -4  -6  -9 1155.58 334.089  12
   4   6   9 1900.44 470.966   6
   4   6   9 1325.05 396.252  11
   4   6   9 1320.88 350.124  19
   4   6   9 1178.69 368.534  18
  -4  -6 -10 691.434 377.416  17
  -4  -6 -10 303.028 255.819   1
  -4  -6 -10 155.501 182.564  12
   4   6  10-191.174 243.509  11
   4   6  10 196.365 207.166  19
   4   6  10 156.503 252.111  18
  -4  -6 -11 5116.56 719.530   1
  -4  -6 -11 6042.08 777.144  12
   4   6  11 5267.25 791.059  11
   4   6  11 5619.80 740.435  19
   4   6  11 5166.30 774.952  18
  -4  -6 -11 5663.02 808.036  17
  -4  -6 -12 1596.47 476.121  17
  -4  -6 -12 1087.45 368.893  12
  -4  -6 -12 1097.75 340.448   1
   4   6  12 850.154 375.486  11
   4   6  12 1343.21 382.915  19
   4   6  12 1527.28 437.355  18
  -4  -6 -13 2633.77 587.222  17
  -4  -6 -13 2200.95 526.278   1
   4   6  13 1785.29 515.469  11
   4   6  13 2590.26 565.594  19
   4   6  13 1809.62 474.234  18
  -4  -6 -14 3908.53 705.539  17
  -4  -6 -14 3549.40 645.571   1
   4   6  14 3472.98 709.461  11
   4   6  14 3707.68 675.763  19
   4   6  14 3409.76 659.597  18
  -4  -6 -15 837.682 377.586  17
  -4  -6 -15 1474.71 447.428   1
   4   6  15 1460.83 462.514  11
   4   6  15 977.417 413.210  19
   4   6  15 1459.42 463.951  18
  -4  -6 -16 160.222 206.408  17
  -4  -6 -16 514.224 277.284   1
   4   6  16 346.232 279.421  11
   4   6  16 381.460 309.404  19
  -4  -6 -17 630.582 373.101  17
  -4  -6 -17-224.344 300.462   1
   4   6  17 325.653 257.050  19
  -4  -6 -18 191.055 276.998  17
  -4  -7  11 570.930 407.512   2
  -4  -7  10 1425.58 438.783   2
  -4  -7   9 2476.70 620.923   2
   4   7  -9 1797.14 515.495   8
  -4  -7   9 1702.47 501.265  20
  -4  -7   8 28.1229 218.484   2
   4   7  -8 261.740 278.145   8
  -4  -7   8 65.9052 234.413  20
   4   7  -7 347.350 195.110   8
  -4  -7   7-27.6280 207.866  20
  -4  -7   6 4525.62 743.062   2
   4   7  -6 3198.45 587.853   8
  -4  -7   6 2544.00 598.470  20
   4   7  -5 6482.36 782.980   8
   4   7  -5 7162.03 741.418   7
  -4  -7   5 7059.46 931.439   2
  -4  -7   4 1406.12 448.337  16
  -4  -7   4 1093.35 388.928   2
   4   7  -4 1235.35 328.775   8
  -4  -7   3-260.476 269.745  16
   4   7  -3 89.9438 138.061   9
  -4  -7   3 70.2943 181.394   2
   4   7  -3-203.243 179.712   8
  -4  -7   2 463.726 292.651  16
   4   7  -2 234.779 136.306   9
  -4  -7   2 471.073 330.640   2
   4   7  -2-16.4750 163.408   8
  -4  -7   1 3024.94 562.087  16
   4   7  -1 2332.64 442.307   9
  -4  -7   1 2168.12 523.193   2
   4   7  -1 2914.51 475.733   8
  -4  -7   0 2688.09 525.519  16
  -4  -7   0 2663.22 562.503   2
   4   7   0 2195.26 426.996   9
   4   7   0 1773.14 353.000   8
   4   7   0 2381.59 447.731   5
   4   7   1 723.172 335.234   6
  -4  -7  -1 946.704 345.539  16
   4   7   1 779.671 247.281   9
   4   7   1 989.635 271.246   8
  -4  -7  -1 955.545 306.704  12
   4   7   1 863.089 268.416   5
  -4  -7  -1 1151.24 397.348   2
   4   7   1 1850.90 458.565  18
   4   7   2 5749.24 679.769   9
  -4  -7  -2 5229.26 757.742  16
   4   7   2 4814.43 527.303   8
   4   7   2 5087.47 576.652  11
   4   7   2 5836.56 616.562  13
  -4  -7  -2 5735.11 786.739  12
   4   7   2 5981.20 836.760   6
   4   7   2 5840.55 679.644   5
   4   7   2 5870.20 775.314  18
   4   7   3 4743.65 618.035   9
  -4  -7  -3 4642.21 705.405  16
   4   7   3 4716.21 507.432   8
   4   7   3 4925.46 581.979  13
  -4  -7  -3 6524.71 825.741  12
   4   7   3 4352.15 774.853   6
   4   7   3 6113.60 646.397  11
   4   7   3 6117.71 684.635   5
   4   7   3 5258.05 762.605  18
   4   7   4 8218.68 852.835   9
  -4  -7  -4 7682.26 885.564  16
   4   7   4 8060.49 744.313  13
  -4  -7  -4 9327.77 997.514  12
   4   7   4 10424.4 1101.88   6
   4   7   4 7642.35 760.470  11
   4   7   4 8162.27 816.130   5
   4   7   4 9077.31 995.290  18
  -4  -7  -4 9580.11 956.144  17
  -4  -7  -5 2292.66 471.211  17
  -4  -7  -5 1997.02 453.484  16
  -4  -7  -5 2433.08 494.891   1
  -4  -7  -5 2959.55 587.023  12
   4   7   5 2391.33 546.648   6
   4   7   5 2255.63 445.910  11
   4   7   5 2709.83 477.449   5
   4   7   5 2574.95 554.866  18
  -4  -7  -6 183.377 234.879  17
  -4  -7  -6 388.798 223.201  16
  -4  -7  -6 134.703 234.488   1
   4   7   6 367.198 274.655   6
   4   7   6 382.969 219.825  11
   4   7   6 567.408 198.725  19
   4   7   6 494.383 307.880  18
  -4  -7  -7 1134.12 398.964  17
  -4  -7  -7 599.606 296.061  16
   4   7   7 896.011 373.620   6
  -4  -7  -7 1169.29 335.867   1
   4   7   7 205.744 181.791  11
   4   7   7 1054.06 277.395  19
   4   7   7 956.684 370.051  18
  -4  -7  -8 3105.28 600.094  17
  -4  -7  -8 3342.14 610.000  16
   4   7   8 3624.69 696.127   6
   4   7   8 2940.27 571.683  11
  -4  -7  -8 1988.80 475.598   1
   4   7   8 2721.84 461.658  19
   4   7   8 2802.57 588.143  18
  -4  -7  -9 1926.35 454.779  17
  -4  -7  -9 1754.04 431.808  16
   4   7   9 1940.70 516.102   6
   4   7   9 1939.00 505.162  11
   4   7   9 1866.55 436.459  19
  -4  -7  -9 1601.90 435.824   1
   4   7   9 2288.30 530.157  18
  -4  -7 -10 968.299 332.701  17
  -4  -7 -10 1019.22 395.875  16
   4   7  10 935.998 432.879   6
   4   7  10 59.5477 176.620  11
   4   7  10 830.617 305.074  19
  -4  -7 -10 1043.79 385.167   1
   4   7  10 725.148 300.647  18
  -4  -7 -11 1147.52 372.551  17
  -4  -7 -11 1966.11 457.384  16
   4   7  11 1709.28 471.014  11
   4   7  11 1446.12 393.852  19
   4   7  11 1932.77 463.416  18
  -4  -7 -11 1885.87 470.139   1
  -4  -7 -12 2701.43 612.296  17
  -4  -7 -12 2035.09 513.967   1
   4   7  12 2963.53 641.400  11
   4   7  12 2391.42 527.438  19
   4   7  12 2321.10 559.093  18
   4   7  13 7457.66 989.059  11
   4   7  13 7451.02 933.525  19
   4   7  13 7899.24 988.451  18
  -4  -7 -13 8757.77 1064.40  17
  -4  -7 -13 5571.91 838.577   1
  -4  -7 -14 747.779 388.240  17
  -4  -7 -14 864.998 380.249   1
   4   7  14 218.639 260.644  11
   4   7  14 1132.35 399.780  19
   4   7  14 1171.84 458.507  18
  -4  -7 -15 1555.87 494.237  17
  -4  -7 -15 1285.19 453.192   1
   4   7  15 670.819 403.694  11
   4   7  15 1292.97 483.564  19
   4   7  15 833.025 372.339  18
  -4  -7 -16 1583.95 525.976  17
  -4  -7 -16 1640.83 546.990   1
   4   7  16 2138.43 568.516  19
  -4  -7 -17 245.329 264.904  17
  -4  -8   7 163.124 269.214   2
  -4  -8   6 840.313 368.030  15
  -4  -8   6 1227.15 449.328   2
   4   8  -6 1006.19 378.123   8
  -4  -8   5 4750.49 766.951  16
  -4  -8   5 2351.59 539.576  15
  -4  -8   5 3891.81 738.577   2
   4   8  -5 2771.39 569.988   8
  -4  -8   4 1739.33 477.873  16
  -4  -8   4 950.323 355.488  15
  -4  -8   4 1200.01 411.133   2
   4   8  -4 1158.25 388.655   8
  -4  -8   3 297.457 249.723  16
  -4  -8   3 221.564 216.860   2
   4   8  -3 291.205 146.467   8
  -4  -8   2 325.577 240.957   2
  -4  -8   2 737.233 351.984  16
   4   8  -2 270.338 214.013   8
  -4  -8   1 2343.17 545.829  16
   4   8  -1 1592.84 394.268   8
  -4  -8   1 1697.53 452.996   2
  -4  -8   0 2013.03 532.408  16
   4   8   0 1457.80 350.914   8
   4   8   0 1201.12 422.343   6
  -4  -8  -1 3210.44 656.528  16
   4   8   1 3013.36 547.295   9
   4   8   1 2094.36 401.974   8
   4   8   1 1816.30 536.098   6
   4   8   1 2061.98 451.378   5
   4   8   1 2374.64 603.161  18
  -4  -8  -2 1652.06 483.823  16
   4   8   2 1015.39 354.716   9
   4   8   2 2112.86 587.870   6
   4   8   2 1773.17 430.527   5
   4   8   2 1780.95 517.463  18
  -4  -8  -3 2233.31 542.671  16
   4   8   3 1678.37 405.042   9
   4   8   3 2073.03 590.389   6
   4   8   3 1985.21 467.956   5
   4   8   3 1861.51 498.652  18
  -4  -8  -4 1763.01 494.926  16
   4   8   4 1361.07 387.267   9
   4   8   4 2194.49 569.929   6
   4   8   4 1582.35 416.701   5
   4   8   4 1657.33 425.647  18
   4   8   5 5388.48 787.302   9
  -4  -8  -5 6123.21 849.134  16
   4   8   5 6797.24 972.489   6
   4   8   5 6874.82 843.556   5
   4   8   5 5886.36 898.227  18
  -4  -8  -6 589.629 294.260  17
  -4  -8  -6 524.464 330.237  16
   4   8   6 728.690 322.300   9
   4   8   6 708.250 378.496   6
   4   8   6 668.154 291.996   5
   4   8   6 709.052 340.973  18
  -4  -8  -7 1529.34 433.545  17
  -4  -8  -7 1283.76 431.189  16
  -4  -8  -7 1946.05 486.705   1
   4   8   7 2120.34 593.925   6
   4   8   7 1455.54 371.923  11
   4   8   7 2059.50 567.690  18
  -4  -8  -8 3477.68 688.735  16
  -4  -8  -8 4091.77 721.895   1
   4   8   8 4951.65 878.704   6
   4   8   8 3569.58 607.624  11
   4   8   8 3724.32 741.594  18
  -4  -8  -8 5145.91 737.856  17
  -4  -8  -9 1598.03 471.221  17
  -4  -8  -9 2286.11 538.349  16
  -4  -8  -9 1601.71 457.680   1
   4   8   9 1980.31 571.869   6
   4   8   9 1671.13 451.521  11
   4   8   9 2264.72 584.150  18
  -4  -8 -10 929.444 322.833  17
  -4  -8 -10 1138.54 464.758  16
   4   8  10 1315.58 500.497   6
  -4  -8 -10 1179.56 411.496   1
   4   8  10 1746.11 476.969  11
   4   8  10 1199.72 425.572  18
  -4  -8 -11 64.8871 189.218  17
  -4  -8 -11 1184.50 446.968  16
   4   8  11 1286.85 550.766   6
   4   8  11 591.679 303.715  11
  -4  -8 -11 561.567 331.761   1
   4   8  11 1039.07 383.700  19
   4   8  11 1183.37 445.129  18
  -4  -8 -12 1651.13 479.126  16
   4   8  12 973.112 384.195  11
  -4  -8 -12 612.161 352.322   1
   4   8  12 2175.72 493.869  19
   4   8  12 1660.07 498.255  18
  -4  -8 -13 5981.54 847.371  16
   4   8  13 6352.98 945.445  11
   4   8  13 5491.03 814.100  19
  -4  -8 -13 5274.68 884.464   1
   4   8  14 720.347 356.685  11
   4   8  14 1055.22 402.917  19
  -4  -8 -14 1453.80 568.632   1
   4   8  15 614.728 374.234  19
  -4  -9   4-253.955 225.545  15
   4   9  -3 566.185 303.217   8
   4   9  -2 434.074 344.818   8
   4   9   4 364.974 326.110   5
   4   9   5 121.979 171.555   9
   4   9   5 343.794 245.236   5
   4   9   6 1110.32 403.453   9
   4   9   6 1268.05 432.383   5
   4   9   7 739.630 363.646   9
   4   9   7 988.356 353.940   5
   4   9   8 30.9446 172.264   9
  -4  -9  -9 1990.82 592.065   1
  -4  -9 -10 438.948 339.400   1
  -4  -9 -11-361.384 311.162   1
  -5   5   6 522.460 295.765  21
  -5   5   5-39.1202 246.809  21
  -5   5   4 1955.09 528.962  21
  -5   5   3 388.840 312.496  21
  -5   5   2 1900.13 509.027  21
  -5   5   1-137.675 235.301  21
  -5   5   0 368.214 278.457  21
  -5   4  10 465.027 339.720   9
  -5   4  10 152.700 183.566  14
  -5   4  10 407.744 295.011   5
  -5   4   9 265.859 317.559   9
  -5   4   9-590.941 318.742  14
  -5   4   9 0.38541 176.265   5
  -5   4   8-448.301 295.678   9
  -5   4   8 310.567 243.300  14
   5  -4  -8-195.836 257.828  13
  -5   4   8 334.834 286.285  21
  -5   4   8-310.022 259.489   5
  -5   4   7 344.261 309.666   9
  -5   4   7 1382.59 459.421   4
  -5   4   7 1162.33 363.782  14
   5  -4  -7 454.740 284.516  13
  -5   4   7 911.852 347.641  21
  -5   4   7 322.233 288.031   5
   5  -4  -7 976.360 375.315  10
  -5   4   6 144.015 230.994   9
  -5   4   6 567.540 352.527   4
  -5   4   6 184.789 171.724  14
   5  -4  -6-158.358 181.910  13
  -5   4   6 16.7873 202.817  21
  -5   4   6 43.4349 218.762   5
   5  -4  -6-145.868 191.932  10
  -5   4   5-176.855 241.115   9
   5  -4  -5 100.669 166.215  15
  -5   4   5 259.467 269.433   4
  -5   4   5 608.177 279.044  14
   5  -4  -5 282.745 255.726  13
  -5   4   5 585.739 329.907  21
  -5   4   5 497.155 301.382   5
   5  -4  -5-290.807 286.551  10
  -5   4   4 281.533 272.644   9
   5  -4  -4 951.977 387.021  15
  -5   4   4 127.340 277.970   4
  -5   4   4 34.4106 182.277  21
   5  -4  -4 528.207 272.769  10
  -5   4   3 385.356 331.913   9
   5  -4  -3 76.3055 208.209  15
  -5   4   3 1.70003 190.448   4
  -5   4   3 452.345 304.090  21
   5  -4  -3 236.549 219.369  10
  -5   4   2 1307.10 452.449   9
  -5   4   2 1714.41 487.395   4
   5  -4  -2 1754.61 485.769  15
  -5   4   2 1926.22 496.306  21
   5  -4  -2 1632.26 442.284  10
  -5   4   1 486.358 313.669   9
  -5   4   1-7.37932 182.276   4
   5  -4  -1 271.862 238.528  15
  -5   4   1-311.264 195.009  21
   5  -4  -1 108.011 248.569  10
  -5   4   0 1387.58 512.721   9
  -5   4   0 961.562 368.724   4
   5  -4   0 1868.88 512.212  15
  -5   4   0 1709.43 513.395  21
   5  -4   0 1047.77 359.472  10
  -5   4  -1 128.667 199.318   9
  -5   4  -1 255.031 283.872   4
   5  -4   1-186.442 246.238  15
  -5   4  -1 367.548 304.293  21
   5  -4   1-242.399 249.435  10
  -5   4  -2 145.110 191.807   9
  -5   4  -2-225.144 260.738   4
   5  -4   2 180.436 206.043  15
  -5   4  -2 721.309 335.043  21
   5  -4   2 636.382 329.710  10
  -5   4  -3 516.108 299.915   9
  -5   4  -3 276.453 244.326   4
   5  -4   3 52.5751 215.415  15
  -5   4  -3-124.358 246.919  21
   5  -4   3 446.286 256.835  10
  -5   4  -4 407.409 261.255   9
  -5   4  -4 33.0875 198.869   4
  -5   4  -4 141.047 206.508  21
   5  -4   4-69.0521 209.787  10
  -5   4  -5 538.237 345.505   9
  -5   4  -5 1040.00 405.534   4
  -5   4  -5 1068.27 409.098  21
   5  -4   5 697.986 336.236  10
  -5   4  -6 423.121 333.759   9
  -5   4  -6-208.271 228.180   4
  -5   4  -6 301.063 280.106  21
   5  -4   6 777.767 356.767  10
  -5   4  -7-162.001 217.996   4
   5  -4   7 77.0484 227.678  10
   5  -3 -13 821.616 361.017  10
  -5   3  12 1696.67 524.456  19
   5  -3 -12 904.125 352.565  10
  -5   3  11-0.74342 192.297  14
   5  -3 -11 354.095 327.115  13
  -5   3  11 615.066 337.350  19
   5  -3 -11 162.987 202.614  10
  -5   3  10 385.720 305.740   4
  -5   3  10 910.096 383.761  14
   5  -3 -10 315.887 273.952  13
  -5   3  10 791.801 330.641   5
  -5   3  10 744.212 393.348  19
   5  -3 -10 954.918 346.931  10
  -5   3   9 1362.28 502.405   9
  -5   3   9 1112.86 450.053   4
  -5   3   9 1033.65 383.511  14
   5  -3  -9 1756.36 492.500  13
  -5   3   9 891.895 378.858   5
   5  -3  -9 865.002 320.207  10
  -5   3   8-414.514 272.027   9
  -5   3   8-299.596 292.660   4
  -5   3   8-501.378 313.760  14
  -5   3   8 314.215 285.439  21
   5  -3  -8-232.715 249.853  13
  -5   3   8 224.447 243.550   5
   5  -3  -8 429.805 264.430  10
  -5   3   7 55.9068 168.577   9
  -5   3   7 718.239 393.033   4
  -5   3   7 326.100 252.738  14
   5  -3  -7-26.4015 231.014  13
  -5   3   7 826.810 351.328  21
  -5   3   7 522.813 277.959   5
   5  -3  -7 372.757 226.719  10
  -5   3   6 941.283 414.904   9
  -5   3   6 1903.72 544.609   4
  -5   3   6 924.938 340.586  14
   5  -3  -6 1942.65 485.126  13
  -5   3   6 2342.36 557.319  21
  -5   3   6 1647.08 472.018   5
  -5   3   5 3499.52 630.945   9
  -5   3   5 4361.33 755.148   4
  -5   3   5 3683.45 625.968  14
   5  -3  -5 4583.13 709.326  13
  -5   3   5 4679.90 738.709  21
  -5   3   5 4298.78 693.233   5
  -5   3   4 3044.09 593.086   9
  -5   3   4 3758.32 711.560   4
  -5   3   4 3310.81 584.379  14
   5  -3  -4 3950.12 651.624  13
  -5   3   4 2579.78 562.989  21
  -5   3   3 2971.79 573.227   9
  -5   3   3 1505.99 608.865   4
  -5   3   3 3171.54 552.073  14
   5  -3  -3 3245.43 574.566  13
  -5   3   3 3865.05 668.073  21
  -5   3   2 2109.64 495.764   9
  -5   3   2 1893.50 503.477   4
  -5   3   2 1873.00 409.199  14
   5  -3  -2 2513.06 488.721  13
  -5   3   2 2313.58 533.706  21
  -5   3   1 21.0697 172.346   9
  -5   3   1-287.536 224.830   4
   5  -3  -1-502.462 301.973  15
  -5   3   1 182.623 160.777  14
   5  -3  -1 113.634 218.410  13
  -5   3   1-403.621 291.545  21
  -5   3   0 1266.45 436.575   9
  -5   3   0 1353.93 416.420   4
   5  -3   0 991.148 359.956  15
  -5   3   0 1107.58 345.399  14
   5  -3   0 2028.22 436.044  13
  -5   3   0 985.605 363.296  21
  -5   3  -1 2769.87 562.103   9
  -5   3  -1 4242.92 682.624   4
   5  -3   1 3567.95 676.916  15
  -5   3  -1 3075.11 497.642  14
   5  -3   1 3485.73 542.521  13
  -5   3  -1 3869.17 665.132  21
  -5   3  -2 6018.96 828.364   9
   5  -3   2 6093.68 879.225  15
  -5   3  -2 7556.30 924.459  21
  -5   3  -2 6413.32 893.725   4
  -5   3  -3 2691.19 567.861   9
  -5   3  -3 3524.48 662.024   4
   5  -3   3 3886.30 729.486  15
  -5   3  -3 2829.49 600.004  21
  -5   3  -4 848.835 370.211   9
  -5   3  -4 203.314 205.007   4
   5  -3   4 451.834 260.300  15
  -5   3  -4 464.751 295.469  21
  -5   3  -5 401.934 284.424   9
  -5   3  -5 1327.89 470.996   4
   5  -3   5 644.902 335.106  15
  -5   3  -5 961.270 406.312  21
  -5   3  -6-126.534 209.309   9
  -5   3  -6-298.142 316.450   4
   5  -3   6-54.8815 236.547  15
  -5   3  -6-100.427 282.948  21
  -5   3  -7-269.662 245.994   9
  -5   3  -7-77.3950 218.991   4
   5  -3   7-50.5990 229.792  15
  -5   3  -7 244.704 217.673  21
   5  -3   7 243.172 278.845   3
  -5   3  -8 1644.29 476.042   9
  -5   3  -8 2437.07 598.775   4
   5  -3   8 2475.38 570.416  15
  -5   3  -8 1901.18 508.188  21
   5  -3   8 1761.39 517.411   3
   5  -3   8 2030.31 477.468  10
  -5   3  -9 431.491 227.182   9
  -5   3  -9 599.227 327.031   4
  -5   3  -9-173.167 290.247  21
  -5   3 -10 167.589 229.434   9
  -5   3 -10-33.5775 213.995   4
  -5   2  15 24.0520 203.137  19
  -5   2  14 1255.46 411.609   2
  -5   2  14 2916.23 646.602  19
   5  -2 -13 839.063 380.551   8
  -5   2  13 774.618 391.540  14
  -5   2  13 974.487 399.368   2
  -5   2  13 792.173 352.041  19
   5  -2 -13 1008.38 352.249  10
   5  -2 -12 585.710 363.969   8
  -5   2  12 1805.08 535.048  14
   5  -2 -12 1110.85 407.621  13
  -5   2  12 771.452 315.454   2
  -5   2  12 1028.24 416.842  19
   5  -2 -12 1057.72 353.593  10
   5  -2 -11 234.988 313.988   8
  -5   2  11 363.682 302.945  14
   5  -2 -11 275.930 248.969  13
  -5   2  11 285.793 267.384   2
  -5   2  11 174.488 229.062  19
  -5   2  10 127.764 171.093   2
   5  -2 -10 532.898 283.155   8
  -5   2  10 465.331 263.186  14
   5  -2 -10 503.174 289.811  13
  -5   2  10 728.230 387.450  19
   5  -2  -9 322.065 301.509   8
  -5   2   9 124.413 273.996   4
  -5   2   9 296.084 255.182  14
   5  -2  -9 701.200 323.483  13
  -5   2   9 309.547 218.013   2
  -5   2   9 289.222 256.863  19
  -5   2   9 322.672 215.214   5
   5  -2  -8 1754.61 475.118   8
  -5   2   8 2222.40 588.799   4
  -5   2   8 1868.12 516.139  14
   5  -2  -8 2447.59 552.092  13
  -5   2   8 2521.51 446.088   2
  -5   2   8 2777.33 602.000  21
  -5   2   8 3154.04 538.735   5
  -5   2   7 1534.78 454.600   9
  -5   2   7 1493.60 448.594   4
  -5   2   7 2610.59 590.854  14
   5  -2  -7 3326.54 633.845  13
  -5   2   7 2092.89 397.176   2
  -5   2   7 1981.04 543.845  21
  -5   2   7 3002.76 508.349   5
  -5   2   6 314.597 211.549   9
  -5   2   6 248.832 290.860   4
  -5   2   6 421.439 282.820  14
   5  -2  -6 325.061 271.363  13
  -5   2   6 357.643 194.422   2
  -5   2   6 144.330 225.170  21
  -5   2   6 160.859 155.555   5
  -5   2   5 246.506 172.874   9
  -5   2   5 428.808 336.255   4
  -5   2   5 346.471 260.440  14
   5  -2  -5 923.209 368.260  13
  -5   2   5 548.436 297.843  21
  -5   2   5 543.540 263.131   5
  -5   2   4 8671.99 907.532   9
  -5   2   4 8457.77 914.458  14
   5  -2  -4 11488.0 1071.41  13
  -5   2   4 12363.7 1157.73  21
  -5   2   4 11661.8 1166.28   4
  -5   2   3 7286.62 828.139   9
  -5   2   3 7548.71 864.117  14
   5  -2  -3 9801.23 954.648  13
  -5   2   3 8709.07 987.415  21
  -5   2   3 6885.63 879.852   4
  -5   2   2 3407.88 552.439   9
  -5   2   2 2630.20 642.768   4
  -5   2   2 3735.25 581.379  14
  -5   2   2 3579.47 667.767  21
  -5   2   1 395.499 221.158   9
  -5   2   1 158.276 178.426   4
  -5   2   1 218.571 156.931  14
   5  -2  -1 951.440 321.686  13
  -5   2   1 599.124 255.707  21
  -5   2   0 408.022 228.763   9
  -5   2   0 30.8689 186.273   4
  -5   2   0 16.8571 186.450  14
   5  -2   0 311.941 242.617  13
  -5   2   0-254.394 274.656  21
  -5   2  -1 4297.03 632.421   9
  -5   2  -1 4138.89 675.393   4
  -5   2  -1 4047.26 585.004  14
   5  -2   1 4621.74 623.955  13
  -5   2  -1 4871.87 718.129  21
  -5   2  -2 6861.83 790.472   9
   5  -2   2 7834.86 951.312  15
  -5   2  -2 6880.32 761.946  14
   5  -2   2 9022.96 845.895  13
  -5   2  -2 8456.24 966.857  21
  -5   2  -2 8788.19 968.228   4
  -5   2  -3 5524.96 725.580   9
   5  -2   3 5538.62 789.596  15
  -5   2  -3 5230.43 668.022  14
   5  -2   3 7098.82 755.546  13
  -5   2  -3 5350.02 774.370  21
  -5   2  -3 6121.83 847.087   4
  -5   2  -4 2171.21 463.244   9
  -5   2  -4 2594.91 566.066   4
   5  -2   4 3457.68 630.365  15
  -5   2  -4 3350.81 516.902  14
   5  -2   4 2708.65 497.743  13
  -5   2  -4 2997.89 590.517  21
  -5   2  -5 336.133 223.597   9
  -5   2  -5 623.830 389.685   4
   5  -2   5 113.663 211.905  15
  -5   2  -5 428.983 239.979  14
   5  -2   5 436.632 208.631  13
  -5   2  -5 306.033 248.935  21
  -5   2  -6 265.354 195.013   9
  -5   2  -6 12.9344 227.824   4
   5  -2   6 810.893 328.103  15
  -5   2  -6 581.385 249.341  14
   5  -2   6 222.238 184.705  13
  -5   2  -6 604.044 334.754  21
  -5   2  -7 250.966 190.417   9
  -5   2  -7 733.831 340.246   4
   5  -2   7 678.452 348.360  15
  -5   2  -7 395.867 281.066  21
  -5   2  -8 716.072 320.994   9
  -5   2  -8 633.216 360.691   4
   5  -2   8 1291.80 434.369  15
  -5   2  -8 865.378 384.170  21
  -5   2  -9 1103.63 397.566   9
  -5   2  -9 1512.29 450.880   4
   5  -2   9 1175.39 461.497  15
  -5   2  -9 2080.27 596.288  21
   5  -2   9 1545.72 478.512   3
  -5   2 -10 2138.78 547.570   9
  -5   2 -10 1937.64 501.618   4
   5  -2  10 2419.07 587.459  15
   5  -2  10 3127.40 676.066   3
  -5   2 -11 250.715 203.590   9
  -5   2 -11 638.355 378.415   4
   5  -2  11 337.999 299.239  15
  -5   2 -11 265.084 315.108  21
   5  -2  11 434.178 304.482   3
  -5   2 -12 2180.06 601.827   9
  -5   2 -12 2621.00 632.316   4
   5  -2  12 3396.21 700.843  15
   5  -2  12 2259.56 575.774   3
  -5   1  15 1231.41 508.327   2
   5  -1 -14 25.7404 183.898   8
  -5   1  14 494.267 320.056  14
   5  -1 -14 697.498 317.040  13
  -5   1  14 67.2325 182.111   2
  -5   1  14 299.581 234.041  19
   5  -1 -13 374.575 306.175   8
  -5   1  13-109.054 253.041  14
   5  -1 -13-359.654 280.211  13
  -5   1  13 63.5202 183.042   2
  -5   1  13 230.564 237.917  19
   5  -1 -12 1345.78 438.968   8
  -5   1  12 1631.68 481.420  14
   5  -1 -12 1515.94 486.195  13
  -5   1  12 1221.02 388.981   2
  -5   1  12 1628.96 450.578  19
   5  -1 -11 3008.94 609.394   8
  -5   1  11 3571.94 660.333  14
   5  -1 -11 5299.61 807.036  13
  -5   1  11 3141.00 599.215   2
  -5   1  11 3745.11 626.396  19
   5  -1 -10 191.028 257.184   8
  -5   1  10 509.680 260.591  14
   5  -1 -10 41.8750 199.821  13
  -5   1  10 269.138 169.668   2
  -5   1  10 265.346 207.682  19
   5  -1  -9 125.963 237.988   8
  -5   1   9-94.0197 210.856  14
   5  -1  -9-54.1560 193.065  13
  -5   1   9-282.556 234.248   2
  -5   1   9-79.2284 158.784  19
   5  -1  -8 2511.07 528.775   8
  -5   1   8 2049.47 489.858  14
   5  -1  -8 2519.60 556.762  13
  -5   1   8 2522.73 467.041   2
  -5   1   8 2915.33 619.999  21
   5  -1  -7 2881.54 563.611   8
  -5   1   7 3325.59 666.359   4
  -5   1   7 3105.24 602.038  14
   5  -1  -7 2730.12 563.154  13
  -5   1   7 2793.66 468.792   2
  -5   1   7 4061.97 729.234  21
  -5   1   7 4129.54 524.230   5
  -5   1   6 1474.66 410.457   9
   5  -1  -6 1210.30 382.946   8
  -5   1   6 1803.72 497.811   4
  -5   1   6 2288.01 503.908  14
   5  -1  -6 2179.33 519.741  13
  -5   1   6 1789.04 369.171   2
  -5   1   6 2282.14 542.393  21
  -5   1   6 1908.55 362.884   5
  -5   1   5 8345.89 738.331   2
  -5   1   5 8540.96 844.861   9
   5  -1  -5 7767.59 905.235   8
  -5   1   5 8990.34 970.353  14
   5  -1  -5 10238.7 1005.17  13
  -5   1   5 9987.69 1067.31  21
  -5   1   5 8701.97 774.953   5
  -5   1   5 10404.8 1072.96   4
  -5   1   4 5789.99 594.574   2
  -5   1   4 5314.84 625.755   9
   5  -1  -4 4615.33 720.093   8
  -5   1   4 5711.90 741.205  14
   5  -1  -4 6507.31 783.652  13
  -5   1   4 6213.67 842.099  21
  -5   1   4 4917.79 568.788   5
  -5   1   4 5643.24 797.449   4
  -5   1   3 1429.77 312.885   9
  -5   1   3 1593.49 446.567   4
  -5   1   3 2347.01 494.407  14
  -5   1   3 1536.32 301.827   2
   5  -1  -3 1684.32 405.852  13
  -5   1   3 1822.67 492.079  21
  -5   1   2 4867.72 566.270   9
  -5   1   2 5012.79 659.215  14
  -5   1   2 4057.22 664.894   4
   5  -1  -2 5283.06 687.575  13
  -5   1   2 5429.96 796.976  21
  -5   1   2 5021.74 514.943   2
  -5   1   1 1149.56 290.380   9
  -5   1   1 769.833 333.193   4
  -5   1   1 768.539 196.314   2
  -5   1   1 1594.49 388.488  14
   5  -1  -1 1100.75 339.089  13
  -5   1   1 630.030 303.144  21
  -5   1   0 115.389 114.505  17
  -5   1   0 192.731 165.948   9
  -5   1   0 161.256 131.749   2
  -5   1   0-73.7099 184.814   4
  -5   1   0 46.8285 146.590  14
   5  -1   0 83.3539 171.089  13
  -5   1  -1 3284.17 482.227   9
  -5   1  -1 2783.30 436.496  17
  -5   1  -1 3542.87 592.498   4
  -5   1  -1 3259.12 511.720  14
   5  -1   1 2968.90 508.092  13
  -5   1  -1 3165.04 562.480  21
  -5   1  -2 1131.48 295.528  17
  -5   1  -2 978.912 267.850   9
  -5   1  -2 846.316 311.973   4
  -5   1  -2 1125.15 339.873  14
   5  -1   2 1218.98 354.735  13
  -5   1  -2 1296.39 373.498  21
  -5   1  -3 2240.09 416.477  17
  -5   1  -3 2832.50 463.196   9
  -5   1  -3 3182.50 609.607   4
  -5   1  -3 2979.05 508.568  14
   5  -1   3 2912.83 499.617  13
  -5   1  -3 2640.16 529.080  21
  -5   1  -4 4282.58 575.889   9
  -5   1  -4 4478.18 716.965   4
   5  -1   4 3666.86 642.791  15
  -5   1  -4 4899.09 614.639  14
   5  -1   4 4477.13 581.494  13
  -5   1  -4 5479.12 781.827  21
  -5   1  -4 4441.51 590.415  17
  -5   1  -5 2579.91 461.143  17
  -5   1  -5 1935.37 423.714   9
  -5   1  -5 3796.79 665.468   4
   5  -1   5 2294.58 509.359  15
  -5   1  -5 3044.38 488.024  14
   5  -1   5 3845.97 569.881  13
  -5   1  -5 2838.75 561.846  21
  -5   1  -6 1935.74 403.466  17
  -5   1  -6 2218.94 470.842   9
  -5   1  -6 3297.38 651.164   4
   5  -1   6 3014.76 589.317  15
  -5   1  -6 3129.41 635.854  21
  -5   1  -6 2201.03 454.888  14
   5  -1   6 2940.20 515.818  13
  -5   1  -7 2482.94 469.841  17
  -5   1  -7 1656.63 435.070   9
  -5   1  -7 2082.94 521.183   4
   5  -1   7 2386.21 521.657  15
  -5   1  -7 2563.62 515.700  14
   5  -1   7 3073.79 531.047  13
  -5   1  -7 3299.49 644.300  21
  -5   1  -8 1317.04 373.939  17
  -5   1  -8 388.618 221.123   9
  -5   1  -8 717.622 312.550   4
   5  -1   8 1124.71 373.341  15
  -5   1  -8 688.180 223.975  14
   5  -1   8 1217.48 346.004  13
  -5   1  -8 1026.43 419.714  21
  -5   1  -9-68.3252 188.865  17
  -5   1  -9-129.781 212.629   9
  -5   1  -9 234.212 272.751   4
   5  -1   9-234.909 236.758  15
   5  -1   9 289.223 218.950  13
  -5   1  -9 5.06259 198.398  21
  -5   1 -10 772.405 355.738  17
  -5   1 -10 511.577 253.832   9
  -5   1 -10 618.249 321.018   4
   5  -1  10 856.405 327.680  15
   5  -1  10 487.050 272.831  13
  -5   1 -10 524.892 348.941  21
   5  -1  10 866.695 376.481   3
   5  -1  10 1040.24 341.164  11
  -5   1 -11 1649.98 448.476  17
  -5   1 -11 1152.48 406.686   9
  -5   1 -11 1421.78 495.098   4
   5  -1  11 1249.15 422.476  15
   5  -1  11 1569.05 428.837  13
  -5   1 -11 1131.67 479.023  21
   5  -1  11 1304.74 444.608   3
   5  -1  11 1512.27 417.306  11
  -5   1 -12 667.800 297.051  17
  -5   1 -12 1409.97 450.820   9
  -5   1 -12 1741.67 515.567   4
   5  -1  12 789.726 359.829  15
  -5   1 -12 1903.83 536.324  21
   5  -1  12 809.322 351.927   3
  -5   1 -13 811.461 385.229  17
  -5   1 -13-162.323 209.331   9
  -5   1 -13 808.617 429.464   4
   5  -1  13 44.1180 200.134  15
  -5   1 -13-227.616 330.692  21
   5  -1  13-265.370 232.534   3
  -5   1 -14 148.729 243.138  17
  -5   1 -14-10.1206 252.568   9
   5  -1  14 304.853 296.816  15
   5  -1  14-48.2102 161.198   3
  -5   1 -15-33.4795 227.092  17
   5  -1  15 243.209 250.350  15
   5  -1  15 110.419 216.213   3
   5   0 -15 28.0137 205.111   8
  -5   0  15-23.8571 171.940   2
   5   0 -14-91.4497 195.790   8
  -5   0  14 493.252 343.471  14
   5   0 -14 339.191 285.469  13
  -5   0  14 245.826 267.048   2
   5   0 -13 298.558 272.926   8
  -5   0  13 540.375 313.837  14
   5   0 -13 298.544 285.258  13
  -5   0  13 449.217 237.476   2
   5   0 -12 1080.55 393.563   8
  -5   0  12 1209.21 426.598  14
   5   0 -12 953.101 400.391  13
  -5   0  12 1199.72 409.272   2
  -5   0  12 1036.37 342.373  19
   5   0 -11 861.200 359.174   8
  -5   0  11 904.186 378.628  14
   5   0 -11 1075.55 438.122  13
  -5   0  11 901.624 374.238   2
  -5   0  11 805.880 291.505  20
  -5   0  11 1521.60 381.714  19
   5   0 -10 1015.02 359.060   8
  -5   0  10 1917.43 495.305  14
   5   0 -10 1762.15 493.212  13
  -5   0  10 1924.78 443.385   2
  -5   0  10 946.314 303.482  20
  -5   0  10 1892.51 418.254  19
   5   0  -9 1150.39 395.305   8
  -5   0   9 1750.70 474.703  14
   5   0  -9 2090.21 522.560  13
  -5   0   9 1810.00 430.702   2
  -5   0   9 1134.62 295.981  20
  -5   0   9 1527.03 389.574  19
  -5   0   8 4100.46 601.753   2
   5   0  -8 3892.47 640.105   8
  -5   0   8 4640.27 687.371  14
   5   0  -8 4588.33 710.359  13
  -5   0   8 4916.70 774.543  21
  -5   0   8 3697.49 496.569  20
  -5   0   8 4511.15 628.713  19
  -5   0   7 7716.48 791.087   2
   5   0  -7 7178.94 862.665   8
  -5   0   7 8617.35 920.963  14
   5   0  -7 8873.42 962.755  13
  -5   0   7 8755.49 1009.48  21
   5   0  -6 2578.16 520.334   8
  -5   0   6 3216.94 602.384   4
  -5   0   6 2587.83 526.278  14
   5   0  -6 3898.14 629.556  13
  -5   0   6 3064.44 503.367   2
  -5   0   6 3269.95 609.665  21
  -5   0   5 679.966 209.444   9
   5   0  -5 2051.28 483.942   8
  -5   0   5 1093.90 382.118   4
  -5   0   5 913.337 310.526  14
  -5   0   5 1444.07 339.029   2
   5   0  -5 1489.18 395.902  13
  -5   0   5 1664.82 473.276  21
  -5   0   5 1445.32 258.862   5
  -5   0   4 2028.08 322.356   9
  -5   0   4 1357.97 403.746   4
   5   0  -4 2827.92 535.896   8
  -5   0   4 2257.75 475.150  14
  -5   0   4 2001.36 369.228   2
   5   0  -4 2804.17 531.267  13
  -5   0   4 2322.26 492.413  21
  -5   0   4 2129.52 302.925   5
  -5   0   3 578.250 196.336   9
  -5   0   3 731.208 330.211   4
   5   0  -3 1147.31 371.615   8
  -5   0   3 368.897 243.746  14
  -5   0   3 589.198 233.311   2
   5   0  -3 1277.24 410.971  13
  -5   0   3 782.760 363.707  21
  -5   0   3 587.058 193.427   5
  -5   0   2 16384.2 852.217   9
   5   0  -2 18865.7 1277.90   8
  -5   0   2 18264.5 1224.46  14
   5   0  -2 19821.8 1275.82  13
  -5   0   2 20397.4 1443.62  21
  -5   0   2 17121.3 1015.75   2
  -5   0   2 18146.9 1296.53   4
  -5   0   1 2895.39 367.955   9
   5   0  -1 3191.66 571.882   8
  -5   0   1 1807.13 518.473   4
  -5   0   1 2352.84 386.657   2
  -5   0   1 2625.77 502.044  14
  -5   0   1 2741.71 540.301  21
  -5   0   0 9313.85 642.932   9
  -5   0   0 9366.99 853.621  14
   5   0   0 10520.4 951.353  13
  -5   0   0 9392.20 970.449  21
  -5   0   0 8773.46 688.560   2
  -5   0   0 9175.19 916.901   4
  -5   0   0 10266.9 855.007  17
  -5   0  -1 7188.24 587.098   9
  -5   0  -1 7740.07 795.273  14
   5   0   1 8329.26 825.010  13
  -5   0  -1 7142.45 825.205  21
  -5   0  -1 6495.81 582.954   2
  -5   0  -1 7907.52 838.935   4
  -5   0  -1 8224.16 775.050  17
  -5   0  -2 34.1133 227.687  17
  -5   0  -2 699.511 226.835   9
  -5   0  -2 435.442 183.284   2
  -5   0  -2 606.965 229.889   4
  -5   0  -2 392.894 186.908  14
   5   0   2 606.674 249.593  13
  -5   0  -3 276.307 202.656  17
  -5   0  -3 296.274 183.071   9
  -5   0  -3 247.767 212.784   4
  -5   0  -3 678.412 290.229  14
   5   0   3 34.1840 178.290  13
  -5   0  -3 138.967 264.421  21
  -5   0  -4 8584.44 736.538   9
  -5   0  -4 10614.6 897.106  14
   5   0   4 10664.0 925.962  13
  -5   0  -4 10431.3 1035.69  21
  -5   0  -4 9202.59 943.985   4
  -5   0  -4 9790.88 888.330  17
  -5   0  -5 5950.66 622.910   9
  -5   0  -5 6573.94 715.338  14
   5   0   5 7802.01 809.962  13
  -5   0  -5 6867.92 848.621  21
  -5   0  -5 5626.53 842.220   4
  -5   0  -5 6245.69 741.216  17
  -5   0  -6 1520.26 383.455  17
  -5   0  -6 1327.06 311.874   9
  -5   0  -6 1396.18 426.234   4
   5   0   6 1934.06 461.946  15
  -5   0  -6 1943.62 419.586  14
   5   0   6 2040.81 490.253  13
  -5   0  -6 1703.45 454.310  21
  -5   0  -7 3809.18 555.023   9
  -5   0  -7 4213.68 661.073   4
   5   0   7 3529.92 599.712  15
  -5   0  -7 4586.95 641.811  14
  -5   0  -7 4875.85 759.444  21
   5   0   7 4572.51 642.726  13
  -5   0  -7 4888.41 683.103  17
   5   0   8 8096.58 881.737  15
  -5   0  -8 8565.84 892.260  14
   5   0   8 10886.9 1020.61  13
  -5   0  -8 9379.54 1059.04  21
  -5   0  -8 9313.09 974.211   4
  -5   0  -8 8484.01 892.032  17
  -5   0  -8 7655.00 808.924   9
  -5   0  -9 1606.10 425.786  17
  -5   0  -9 1060.89 324.207   9
  -5   0  -9 1897.88 459.349   4
   5   0   9 1843.26 436.674  15
   5   0   9 1967.27 452.427  13
  -5   0  -9 1704.86 461.186  21
  -5   0 -10 1343.67 388.582  17
  -5   0 -10 910.495 305.013   9
  -5   0 -10 1858.16 479.092   4
   5   0  10 1773.52 421.539  15
   5   0  10 1608.81 457.250  13
  -5   0 -10 1905.24 520.103  21
  -5   0 -11 1384.23 418.640  17
  -5   0 -11 829.736 313.771   9
  -5   0 -11 1651.13 508.366   4
   5   0  11 1668.38 437.879  15
   5   0  11 1361.55 391.806  13
  -5   0 -11 1660.13 505.380  21
   5   0  11 1525.40 428.736   3
   5   0  11 1239.01 386.179  11
  -5   0 -12-36.4800 234.920  17
  -5   0 -12 69.5911 220.579   9
  -5   0 -12 215.970 249.227   4
   5   0  12 276.716 223.747  15
   5   0  12 394.415 273.083  13
  -5   0 -12 348.293 307.557  21
   5   0  12 456.860 273.406   3
   5   0  12-51.4790 169.242  11
  -5   0 -13 1232.67 458.552  17
  -5   0 -13 413.931 262.948   9
  -5   0 -13 496.865 335.210   4
   5   0  13 383.595 243.331  15
   5   0  13 226.248 186.453  13
  -5   0 -13 599.917 326.847  21
   5   0  13 474.278 274.794   3
   5   0  13 17.9837 166.257  11
  -5   0 -14 551.194 282.272  17
  -5   0 -14 387.580 264.352   9
  -5   0 -14 290.301 280.896   4
   5   0  14 327.628 236.430  15
   5   0  14 212.707 237.477  13
  -5   0 -14 931.405 464.236  21
   5   0  14 533.318 280.179   3
   5   0  14 477.855 284.141  11
  -5   0 -15 98.2854 238.152  17
  -5   0 -15 518.809 327.311   4
   5   0  15 77.2393 189.278  15
   5   0  15 686.471 312.163  13
   5   0  15 579.240 312.524   3
  -5   0 -15 93.1494 173.017   9
  -5   0 -16 148.370 296.824  17
   5   0  16 243.306 254.064  15
   5   0  16 80.8845 181.000   3
  -5  -1  16-458.025 281.467  20
   5   1 -15 63.1672 215.729   8
  -5  -1  15-141.483 216.781  14
  -5  -1  15-49.9117 187.729   2
  -5  -1  15 340.554 298.851  20
   5   1 -14 732.752 388.153   8
  -5  -1  14 1007.74 381.893  14
   5   1 -14 1102.04 442.866  13
  -5  -1  14 1235.20 429.525   2
  -5  -1  14 887.210 351.222  20
   5   1 -13 1795.06 500.923   8
  -5  -1  13 1920.17 514.918  14
   5   1 -13 1585.92 496.778  13
  -5  -1  13 1570.62 435.052   2
  -5  -1  13 2029.16 493.463  20
   5   1 -12 1302.94 403.904   8
  -5  -1  12 1320.90 422.841  14
   5   1 -12 1252.12 439.671  13
  -5  -1  12 1516.12 438.383   2
  -5  -1  12 1369.98 389.225  20
   5   1 -11 3392.81 606.357   8
  -5  -1  11 2990.97 595.894  14
   5   1 -11 3414.75 655.599  13
  -5  -1  11 3965.27 662.645   2
  -5  -1  11 3414.23 567.340  20
   5   1 -10 1172.84 384.622   8
  -5  -1  10 1842.35 461.113  14
   5   1 -10 1545.64 447.608  13
  -5  -1  10 1460.22 404.733   2
  -5  -1  10 1321.97 365.973  20
  -5  -1  10 1549.62 361.908  19
   5   1  -9 625.221 319.904   8
  -5  -1   9 348.684 192.488  14
   5   1  -9 890.670 331.095  13
  -5  -1   9 336.088 271.813   2
  -5  -1   9 533.074 254.528  20
  -5  -1   9 1035.59 279.617  19
  -5  -1   8 3771.82 602.685   2
   5   1  -8 5227.84 728.011   8
  -5  -1   8 5713.86 747.471  14
   5   1  -8 4527.25 746.666  13
  -5  -1   8 4944.71 625.035  20
  -5  -1   8 5565.36 579.244  19
   5   1  -7 55.9078 208.831   8
  -5  -1   7 378.650 264.279  14
   5   1  -7 436.000 283.720  13
  -5  -1   7 271.123 231.908   2
  -5  -1   7 186.152 291.499  21
  -5  -1   7-35.6954 128.569  20
  -5  -1   7 129.215 139.758  19
  -5  -1   6 4436.54 667.021   4
  -5  -1   6 4267.55 605.859   2
   5   1  -6 4396.45 640.464   8
  -5  -1   6 3506.53 599.449  14
   5   1  -6 5015.31 690.619  13
  -5  -1   6 5577.46 778.719  21
  -5  -1   6 3774.95 504.887  19
  -5  -1   5 115.592 80.2840   9
  -5  -1   5 287.444 254.143   4
   5   1  -5-160.179 215.372   8
  -5  -1   5 107.148 191.586  14
  -5  -1   5 223.843 178.472   2
   5   1  -5 296.865 269.990  13
  -5  -1   5 148.904 243.044  21
  -5  -1   4 1769.35 221.219   9
  -5  -1   4 1877.50 429.389   4
   5   1  -4 1557.52 378.461   8
  -5  -1   4 2367.81 491.517  14
  -5  -1   4 1806.78 400.767   2
   5   1  -4 2068.03 434.928  13
  -5  -1   4 2549.30 540.166  21
  -5  -1   3 224.869 67.9714   9
  -5  -1   3-181.413 234.026   4
   5   1  -3 704.531 305.026   8
  -5  -1   3 8.48122 174.941  14
  -5  -1   3 229.449 195.328   2
   5   1  -3 245.204 212.661  13
  -5  -1   3 519.792 326.954  21
  -5  -1   3 29.4768 61.2949   5
  -5  -1   2 8164.87 420.207   9
  -5  -1   2 7347.97 428.394   1
   5   1  -2 10106.8 907.928   8
  -5  -1   2 9043.43 825.959  14
   5   1  -2 11412.5 963.907  13
  -5  -1   2 8546.78 889.408  21
  -5  -1   2 6948.31 422.092   5
  -5  -1   2 7781.46 480.548  18
  -5  -1   2 9227.46 779.425   2
  -5  -1   2 9688.11 897.279   4
  -5  -1   1 6562.84 401.480   9
   5   1  -1 8548.75 858.063   8
  -5  -1   1 8186.06 777.237  14
   5   1  -1 11192.9 941.104  13
  -5  -1   1 9704.93 940.910  21
  -5  -1   1 7100.08 503.864  18
  -5  -1   1 9571.54 788.919   2
  -5  -1   1 7149.59 460.374   1
  -5  -1   1 8820.21 884.321   4
  -5  -1   1 7746.98 826.841  17
  -5  -1   0 29694.5 921.304   9
   5   1   0 30148.1 1545.84   8
  -5  -1   0 31175.8 1515.39  14
   5   1   0 36987.6 1682.03  13
  -5  -1   0 35274.6 1793.75  21
  -5  -1   0 28285.2 1053.11   1
  -5  -1   0 33022.2 1453.77   2
  -5  -1   0 31529.1 1561.76   4
  -5  -1   0 34722.8 1697.40  17
  -5  -1  -1 132.006 185.698  17
  -5  -1  -1 895.915 165.860   9
  -5  -1  -1 656.996 262.206   2
  -5  -1  -1 1114.40 380.377   4
   5   1   1 737.985 303.313   8
  -5  -1  -1 986.338 389.243  14
   5   1   1 1211.88 355.068  13
  -5  -1  -1 64.1516 270.420  21
  -5  -1  -1 709.111 172.753   1
  -5  -1  -2 10071.8 584.422   9
  -5  -1  -2 9229.80 840.302  14
   5   1   2 11042.8 919.854  13
  -5  -1  -2 10012.7 927.957  21
  -5  -1  -2 9189.91 787.920   2
  -5  -1  -2 9784.89 866.695   4
  -5  -1  -2 9836.72 876.732  17
  -5  -1  -3-333.332 308.834  17
  -5  -1  -3 477.710 155.015   9
  -5  -1  -3-63.9466 183.014   2
  -5  -1  -3 494.210 259.468   4
  -5  -1  -3 305.039 218.772  14
   5   1   3 223.141 186.144  13
  -5  -1  -3 136.811 64.6689   6
  -5  -1  -3-517.588 277.775  21
  -5  -1  -4 1743.76 419.371  17
  -5  -1  -4 1280.92 246.557   9
  -5  -1  -4 1125.86 355.797   4
  -5  -1  -4 970.240 304.670  14
   5   1   4 1273.05 361.396  13
  -5  -1  -4 1915.75 451.471  21
  -5  -1  -5 12300.2 973.722  14
   5   1   5 15089.9 1132.94  13
  -5  -1  -5 16022.4 1231.22  21
  -5  -1  -5 12703.0 1045.17   4
  -5  -1  -5 13502.6 1064.94  17
  -5  -1  -5 10252.3 730.590   9
  -5  -1  -6 659.888 297.005  17
  -5  -1  -6 871.633 242.081   9
  -5  -1  -6 1045.42 369.249   4
  -5  -1  -6 1351.66 355.425  14
   5   1   6 1124.33 381.603  13
  -5  -1  -6 817.033 386.088  21
  -5  -1  -7 768.134 270.525  17
  -5  -1  -7 565.920 213.818   9
  -5  -1  -7 392.208 253.769   4
   5   1   7 372.541 229.940  15
  -5  -1  -7 627.990 265.012  14
   5   1   7 898.212 327.674  13
  -5  -1  -7 983.461 313.428  21
   5   1   8 5894.69 695.845  15
  -5  -1  -8 5753.73 747.442  14
   5   1   8 6794.42 800.012  13
  -5  -1  -8 7409.66 890.557  21
  -5  -1  -8 6103.19 746.352   4
  -5  -1  -8 6702.77 816.970  17
  -5  -1  -8 4318.15 545.222   9
  -5  -1  -9 462.385 303.210  17
  -5  -1  -9 392.418 197.538   9
  -5  -1  -9 203.883 242.375   4
   5   1   9 176.058 156.260  15
   5   1   9 357.902 206.463  13
  -5  -1  -9 247.789 265.247  21
  -5  -1 -10 3192.53 595.476  17
  -5  -1 -10 1164.28 346.258   9
  -5  -1 -10 2045.33 480.224   4
   5   1  10 2358.07 456.236  15
   5   1  10 2099.73 494.563  13
  -5  -1 -10 1843.76 476.916  21
  -5  -1 -11 154.917 216.245  17
  -5  -1 -11 1049.05 376.983   4
   5   1  11 719.736 286.957  15
  -5  -1 -11 733.685 285.137  21
   5   1  11 360.193 290.064  11
  -5  -1 -11 206.245 199.511   9
  -5  -1 -12 668.851 341.127  17
  -5  -1 -12 1515.56 479.817   4
   5   1  12 1172.81 337.489  15
  -5  -1 -12 1318.21 429.187  21
   5   1  12 1353.99 398.010   3
   5   1  12 539.518 293.234  11
  -5  -1 -12 1030.67 363.065   9
  -5  -1 -13 3677.34 704.735  17
  -5  -1 -13 3863.72 672.047   4
   5   1  13 3736.39 602.901  15
   5   1  13 3907.25 611.070   3
  -5  -1 -13 5020.17 804.211  21
   5   1  13 3713.24 653.249  11
  -5  -1 -14 2671.88 647.898  17
  -5  -1 -14 2270.94 550.624   4
   5   1  14 2936.53 520.336  15
  -5  -1 -14 2979.21 659.882  21
   5   1  14 2415.52 489.900   3
   5   1  14 2372.93 549.631  11
  -5  -1 -15 794.292 464.217  17
  -5  -1 -15 723.861 331.550   4
  -5  -1 -15 998.495 432.009  21
  -5  -1 -15 722.554 345.608   1
   5   1  15 794.741 353.725  11
  -5  -1 -16 592.958 359.587  17
  -5  -1 -16 930.844 384.043   4
  -5  -1 -16 488.300 328.699  21
   5   1  16 758.815 344.622  11
  -5  -1 -16 413.524 284.510   1
   5   1  17-235.075 233.386  11
   5   1  18 58.2815 224.602  11
  -5  -2  16-330.774 265.954  14
  -5  -2  16-128.661 251.582  20
  -5  -2  15 129.887 222.054  14
   5   2 -15 120.222 228.010   8
  -5  -2  15 102.225 240.085  20
  -5  -2  14 614.735 330.112  14
   5   2 -14 708.680 371.444   8
   5   2 -14 406.137 273.208  13
  -5  -2  14 1423.22 465.519   2
  -5  -2  14 449.161 301.886  20
  -5  -2  13 1552.43 443.122  14
   5   2 -13 707.936 357.820   8
   5   2 -13 864.652 360.653  13
  -5  -2  13 1341.36 459.260   2
  -5  -2  13 633.235 311.868  20
  -5  -2  12 3135.53 600.747  14
   5   2 -12 3872.10 687.339   8
   5   2 -12 3241.03 639.938  13
  -5  -2  12 2923.22 612.764   2
  -5  -2  12 3203.44 609.603  20
  -5  -2  11 1017.14 359.659  14
   5   2 -11 2164.31 509.840   8
   5   2 -11 2293.64 554.822  13
  -5  -2  11 1762.46 480.446   2
  -5  -2  11 1240.96 305.682  12
  -5  -2  11 1594.66 438.913  20
  -5  -2  10-113.925 207.815  14
   5   2 -10 72.7145 222.400   8
   5   2 -10 256.744 234.225  13
  -5  -2  10 341.644 232.185   2
  -5  -2  10 115.927 114.452  12
  -5  -2  10 70.1067 177.874  20
  -5  -2   9 1843.94 431.309  14
   5   2  -9 1273.19 408.083   8
  -5  -2   9 1597.98 406.234   2
   5   2  -9 1773.16 476.900  13
  -5  -2   9 1827.98 377.578  12
  -5  -2   9 1769.28 461.251  20
  -5  -2   8 1982.66 480.350  14
   5   2  -8 1331.57 395.101   8
  -5  -2   8 1625.79 413.371   2
   5   2  -8 2300.22 519.305  13
  -5  -2   8 1737.81 369.994  12
  -5  -2   8 1956.66 438.010  20
  -5  -2   7 4371.31 654.894   2
   5   2  -7 4414.57 658.026   8
  -5  -2   7 3225.31 560.223  14
   5   2  -7 3846.66 620.191  13
  -5  -2   7 4258.29 549.893  12
  -5  -2   7 3979.86 595.835  20
  -5  -2   7 4036.78 417.983  19
  -5  -2   6 5296.59 684.705   2
  -5  -2   6 5688.98 693.139   4
   5   2  -6 5041.57 656.233   8
  -5  -2   6 5892.73 723.771  14
   5   2  -6 6419.52 785.738  13
  -5  -2   6 6494.63 800.328  21
  -5  -2   6 6690.01 756.742  20
  -5  -2   6 5897.10 475.572  19
  -5  -2   5 4461.49 611.800   4
   5   2  -5 4639.01 616.433   8
  -5  -2   5 5064.46 645.480  14
   5   2  -5 4429.21 625.703  13
  -5  -2   5 6014.84 732.328  21
  -5  -2   5 4080.69 404.651  19
  -5  -2   5 4598.84 608.313   2
  -5  -2   4 1412.70 372.047   4
  -5  -2   4 2007.05 417.122  14
   5   2  -4 1808.76 397.691   8
  -5  -2   4 1401.46 363.198   2
   5   2  -4 1499.07 378.493  13
  -5  -2   4 1230.11 376.928  21
  -5  -2   3 746.037 276.392   4
  -5  -2   3 846.498 291.346  14
   5   2  -3 934.520 328.563   8
  -5  -2   3 1028.28 288.816   2
   5   2  -3 815.312 314.793  13
   5   2  -3 346.940 89.9118   6
  -5  -2   3 1144.39 342.875  21
   5   2  -2 6341.92 667.165   8
  -5  -2   2 6526.17 679.332  14
   5   2  -2 6831.17 748.704  13
   5   2  -2 3974.91 238.737   6
  -5  -2   2 5601.73 478.460  19
  -5  -2   2 6972.54 754.299  21
  -5  -2   2 5909.51 668.181   2
  -5  -2   2 4884.12 600.833   4
  -5  -2   1 2289.27 516.815  17
  -5  -2   1 1475.50 384.791   4
  -5  -2   1 2551.21 448.975   2
  -5  -2   1 2870.41 467.345  14
   5   2  -1 2022.75 424.326   8
   5   2  -1 2334.61 458.574  13
  -5  -2   1 2447.38 490.108  21
  -5  -2   1 1799.70 259.023  18
  -5  -2   0 1292.01 374.787  17
  -5  -2   0 757.483 250.196   4
  -5  -2   0 1396.67 347.803   2
   5   2   0 650.107 286.032   8
  -5  -2   0 824.412 263.328  14
  -5  -2   0 827.804 93.5263   1
   5   2   0 1090.72 312.526  13
  -5  -2   0 994.839 353.154  21
  -5  -2   0 447.182 77.5569   1
  -5  -2  -1 1703.31 455.340  17
  -5  -2  -1 1662.03 354.427   4
  -5  -2  -1 1293.09 343.043   2
   5   2   1 1892.48 370.556   8
  -5  -2  -1 2097.75 417.436  14
   5   2   1 1533.03 399.377  13
  -5  -2  -1 1358.09 163.801   1
  -5  -2  -1 1226.48 343.432  21
  -5  -2  -2-226.693 308.695  17
  -5  -2  -2-42.6554 136.774   2
  -5  -2  -2-204.026 192.586   4
   5   2   2 108.831 176.233   8
  -5  -2  -2 103.190 156.379  14
   5   2   2 75.9223 217.112  13
  -5  -2  -2-181.297 250.688  21
  -5  -2  -3 474.640 274.203  17
  -5  -2  -3 180.089 196.285   2
   5   2   3 462.686 124.969   9
  -5  -2  -3 374.156 197.844   4
   5   2   3 728.197 230.544   8
  -5  -2  -3 395.640 232.855  14
   5   2   3 647.681 292.934  13
  -5  -2  -3 578.168 254.199  21
  -5  -2  -4 460.205 246.501  17
   5   2   4 118.178 90.3003   9
  -5  -2  -4 132.508 191.286   4
  -5  -2  -4 281.610 218.109  14
   5   2   4 30.2098 170.441  13
  -5  -2  -4 126.799 102.601   6
  -5  -2  -4 499.836 327.455  21
  -5  -2  -4 51.5646 142.263   2
  -5  -2  -5 1930.87 474.072  17
  -5  -2  -5 2380.31 455.110   4
  -5  -2  -5 2376.50 452.609  14
   5   2   5 1854.02 440.571  13
  -5  -2  -5 3002.22 543.263  21
  -5  -2  -6 3418.33 602.442  17
  -5  -2  -6 3478.45 510.188   4
  -5  -2  -6 2903.78 519.653  14
   5   2   6 3263.42 576.466  13
  -5  -2  -6 4836.98 667.907  21
  -5  -2  -7 4971.11 665.324  14
   5   2   7 5016.25 702.641  13
  -5  -2  -7 6356.22 783.315  21
  -5  -2  -7 4391.59 601.906   4
  -5  -2  -7 4292.95 666.842  17
  -5  -2  -8 1560.93 440.529  17
  -5  -2  -8 1276.97 346.945   4
   5   2   8 1236.80 313.196  15
  -5  -2  -8 1247.68 371.154  14
   5   2   8 2113.47 453.806  13
  -5  -2  -8 1907.20 464.906  21
  -5  -2  -9 1746.14 452.162  17
  -5  -2  -9 1445.66 383.889   4
   5   2   9 1607.80 357.766  15
  -5  -2  -9 1573.56 348.538  12
  -5  -2  -9 3284.68 586.533  21
  -5  -2  -9 1730.46 355.565   1
   5   2   9 2125.35 456.309  19
  -5  -2 -10 972.390 376.241  17
  -5  -2 -10 1033.64 332.793   4
   5   2  10 1112.76 301.186  15
  -5  -2 -10 695.954 222.697  12
  -5  -2 -10 955.400 400.146  21
   5   2  10 637.707 294.002  11
   5   2  10 885.001 319.053  19
  -5  -2 -10 789.144 277.539   1
  -5  -2 -11-23.5148 216.341  17
  -5  -2 -11 135.643 273.708   4
   5   2  11 405.025 203.646  15
  -5  -2 -11 311.034 208.661   1
  -5  -2 -11 13.7759 130.624  12
  -5  -2 -11-318.669 312.115  21
   5   2  11 360.200 318.083  11
   5   2  11-108.746 205.804  19
  -5  -2 -12 2123.94 527.890  17
  -5  -2 -12 1491.18 434.953   4
   5   2  12 1386.68 329.369  15
  -5  -2 -12 1757.98 341.181  12
  -5  -2 -12 2312.61 529.868  21
   5   2  12 2029.54 410.124   3
   5   2  12 1884.48 485.452  11
   5   2  12 1924.87 479.270  19
  -5  -2 -12 1311.07 341.355   1
  -5  -2 -13 2446.32 601.207  17
  -5  -2 -13 2212.13 520.244   4
   5   2  13 1447.49 337.079  15
  -5  -2 -13 1100.78 336.741   1
  -5  -2 -13 654.074 242.129  12
  -5  -2 -13 2192.47 557.562  21
   5   2  13 1650.34 369.252   3
   5   2  13 1287.91 450.315  11
   5   2  13 1883.32 469.995  19
  -5  -2 -14 2797.90 627.870  17
  -5  -2 -14 2030.57 531.442   4
  -5  -2 -14 1459.94 440.337   1
  -5  -2 -14 3229.94 667.906  21
   5   2  14 2233.01 554.085  11
   5   2  14 2037.70 540.421  19
  -5  -2 -15-131.441 187.149   1
  -5  -2 -15 846.429 408.744  17
  -5  -2 -15 680.869 335.438   4
  -5  -2 -15 243.149 243.106  21
   5   2  15 137.617 243.839  11
   5   2  15 721.914 337.632  19
  -5  -2 -16 1139.10 492.694  17
  -5  -2 -16 1160.03 407.661   4
  -5  -2 -16 2028.24 603.363  21
  -5  -2 -16 942.356 356.768   1
   5   2  16 1246.34 423.279  11
   5   2  16 1207.46 436.861  19
  -5  -2 -17 504.959 322.351   1
  -5  -2 -17 1061.06 452.643  21
   5   2  17 172.085 235.470  11
   5   2  17 699.886 331.259  19
   5   2  18 758.254 371.838  11
  -5  -3  16 4.59811 187.206  14
  -5  -3  15 421.697 274.567  14
  -5  -3  15 22.5878 209.272  20
  -5  -3  14 430.629 273.573  14
   5   3 -14 813.993 373.773   8
  -5  -3  14 399.560 310.379   2
   5   3 -14 610.788 296.410  13
  -5  -3  14 683.517 359.803  20
  -5  -3  13 620.418 288.242  14
   5   3 -13-6.96060 205.272   8
  -5  -3  13 81.0314 226.025   2
   5   3 -13 345.238 248.260  13
  -5  -3  13 65.7943 211.783  20
  -5  -3  12-4.37633 190.480  14
   5   3 -12 283.610 243.943   8
  -5  -3  12 330.260 245.526   2
   5   3 -12 697.736 331.960  13
  -5  -3  12 488.768 342.995  20
  -5  -3  11 2910.47 553.839  14
   5   3 -11 2982.16 573.978   8
  -5  -3  11 2788.55 603.314   2
   5   3 -11 3382.47 638.645  13
  -5  -3  11 2680.86 585.510  20
  -5  -3  10 1312.82 391.923  14
   5   3 -10 1380.90 406.009   8
  -5  -3  10 2379.64 545.958   2
   5   3 -10 1577.89 428.617  13
  -5  -3  10 1606.95 357.141  12
  -5  -3  10 1770.02 465.385  20
  -5  -3   9 884.583 308.339  14
   5   3  -9 403.601 260.201   8
  -5  -3   9 711.843 312.862   2
   5   3  -9 389.684 244.546  13
  -5  -3   9 578.002 213.839  12
  -5  -3   9 326.734 273.533  20
  -5  -3   8 487.336 206.725  14
   5   3  -8 530.751 320.358   8
  -5  -3   8 548.621 286.799   2
   5   3  -8 391.822 230.699  13
  -5  -3   8 426.500 222.971  12
  -5  -3   8 381.936 242.643  20
  -5  -3   7 23.0149 154.612  14
   5   3  -7 10.9611 185.243   8
  -5  -3   7 156.909 216.513   2
   5   3  -7 92.5764 193.164  13
  -5  -3   7-11.9161 137.044  12
  -5  -3   7 370.709 296.576  20
  -5  -3   6 7115.62 723.451   4
   5   3  -6 6798.21 783.118   8
  -5  -3   6 7777.16 795.355  14
   5   3  -6 9228.22 908.376  13
  -5  -3   6 7048.77 719.343  12
  -5  -3   6 8328.76 889.904  20
  -5  -3   6 8325.85 886.153   2
  -5  -3   5 7246.37 704.128   4
   5   3  -5 6941.44 749.317   8
  -5  -3   5 6041.00 701.057  14
   5   3  -5 6732.13 793.053  13
  -5  -3   5 6202.68 673.079  12
  -5  -3   5 6703.76 731.192  21
  -5  -3   5 6065.51 755.536  20
   5   3  -5 5771.26 381.843  18
  -5  -3   5 5363.57 693.789   2
  -5  -3   4 1945.63 372.883   4
  -5  -3   4 1575.37 372.343  14
  -5  -3   4 1607.77 390.085   2
   5   3  -4 1610.90 377.231   8
   5   3  -4 1106.21 328.285  13
  -5  -3   4 1545.43 368.403  12
  -5  -3   4 2762.10 488.475  21
   5   3  -4 1464.42 208.890  18
  -5  -3   3 514.841 206.462   4
  -5  -3   3 625.339 270.817  14
  -5  -3   3 809.544 340.896   2
   5   3  -3 804.247 277.168   8
   5   3  -3 612.075 272.586  13
  -5  -3   3 749.482 251.192  12
  -5  -3   3 574.823 239.350  21
  -5  -3   3 410.668 86.1231  19
   5   3  -3 464.962 143.773  18
  -5  -3   2 465.584 189.649   4
   5   3  -2 147.226 97.0664   6
  -5  -3   2 110.299 155.094   2
  -5  -3   2 243.043 201.227  14
   5   3  -2 701.080 241.661   8
   5   3  -2 637.122 295.643  13
  -5  -3   2 467.200 217.241  12
  -5  -3   2 458.870 245.280  21
   5   3  -2 585.047 151.123  18
  -5  -3   1 1946.11 343.659   4
  -5  -3   1 1597.79 397.363   2
  -5  -3   1 1677.42 378.034  14
   5   3  -1 1657.53 332.693   8
   5   3  -1 1884.83 390.034  13
  -5  -3   1 1417.50 365.978  12
   5   3  -1 1521.25 249.499   6
  -5  -3   1 1667.39 364.102  21
  -5  -3   1 1347.49 169.107  19
   5   3  -1 1702.85 274.041  18
  -5  -3   0 3956.86 668.343  17
   5   3   0 5150.77 563.899   8
  -5  -3   0 4920.54 606.190  14
   5   3   0 4441.97 592.804  13
   5   3   0 5318.04 612.150   7
  -5  -3   0 5212.36 597.986  12
   5   3   0 4413.88 408.294   6
  -5  -3   0 5145.75 598.366  21
  -5  -3   0 3673.65 312.104  19
  -5  -3   0 4457.72 635.559   2
   5   3   0 4818.52 462.977  18
  -5  -3   0 4937.73 517.582   4
  -5  -3  -1 1368.75 407.717  17
  -5  -3  -1 1787.02 330.584   4
  -5  -3  -1 1971.19 421.577   2
  -5  -3  -1 2392.85 439.120  14
   5   3   1 2443.24 371.204   8
   5   3   1 2384.87 463.488  13
   5   3   1 3026.66 470.324   7
  -5  -3  -1 2652.48 428.016  12
   5   3   1 2396.08 298.438   6
  -5  -3  -1 2017.05 391.873  21
  -5  -3  -1 1699.48 224.760  19
  -5  -3  -2 625.272 255.156  17
  -5  -3  -2 584.051 291.068   2
  -5  -3  -2 597.731 211.090   4
  -5  -3  -2 1072.11 300.747  14
   5   3   2 1185.52 286.549   8
   5   3   2 1302.07 368.852  13
  -5  -3  -2 946.336 131.085   1
   5   3   2 1239.63 335.637   7
  -5  -3  -2 1735.90 383.738  12
  -5  -3  -2 365.478 187.001  21
   5   3   2 1177.73 220.219   6
  -5  -3  -2 724.788 113.087   5
  -5  -3  -2 669.015 180.644  19
  -5  -3  -3 8451.25 461.098   1
   5   3   3 8961.45 697.390   8
  -5  -3  -3 8867.25 820.045  14
   5   3   3 9725.45 890.234  13
   5   3   3 11242.6 885.413   7
  -5  -3  -3 10845.8 859.916  12
  -5  -3  -3 9947.03 846.887  21
  -5  -3  -3 7025.09 424.748   5
  -5  -3  -3 8992.05 881.515   2
  -5  -3  -3 10197.0 806.851   4
  -5  -3  -3 9645.24 931.880  17
   5   3   4 19715.8 741.312   9
   5   3   4 19248.9 976.140   8
  -5  -3  -4 23248.5 1296.53  14
  -5  -3  -4 20118.1 835.764   1
   5   3   4 25871.5 1452.71  13
   5   3   4 23152.4 1282.99   7
  -5  -3  -4 23644.0 1280.67  12
  -5  -3  -4 24159.7 1353.94  21
  -5  -3  -4 20861.5 1371.76   2
  -5  -3  -4 22741.8 1213.35   4
  -5  -3  -4 22801.4 1444.86  17
  -5  -3  -5 1050.96 390.005  17
   5   3   5 530.144 167.494   9
  -5  -3  -5 1108.71 315.471   4
  -5  -3  -5 763.733 283.286  14
   5   3   5 1004.83 342.165  13
  -5  -3  -5 1000.58 217.937   1
   5   3   5 1015.85 345.997   7
  -5  -3  -5 1114.16 356.652  12
  -5  -3  -5 1187.71 348.568  21
  -5  -3  -6 5477.97 695.743  14
  -5  -3  -6 4872.98 487.777   1
   5   3   6 7133.34 790.708  13
   5   3   6 6076.68 658.423   7
  -5  -3  -6 6040.13 640.253  12
  -5  -3  -6 5998.18 695.721  21
   5   3   6 4900.59 600.135  19
  -5  -3  -6 6369.69 651.441   4
  -5  -3  -6 5450.81 736.323  17
  -5  -3  -7 2269.42 489.790  17
  -5  -3  -7 2924.54 482.336   4
  -5  -3  -7 1886.22 444.491  14
   5   3   7 2782.14 494.490  13
   5   3   7 2425.29 436.105   7
  -5  -3  -7 2904.76 508.243  21
  -5  -3  -7 2363.05 417.535  12
   5   3   7 2317.00 419.516  19
  -5  -3  -7 1925.59 343.667   1
  -5  -3  -8 1580.41 404.332  17
  -5  -3  -8 1634.63 331.725   1
  -5  -3  -8 2094.11 431.782   4
   5   3   8 1893.39 373.952   7
  -5  -3  -8 1504.04 349.270  12
  -5  -3  -8 2264.39 473.202  21
   5   3   8 1894.98 401.914  19
  -5  -3  -9 1502.59 426.952  17
  -5  -3  -9 927.884 311.961   4
  -5  -3  -9 1266.79 312.178   1
   5   3   9 890.051 235.462  15
   5   3   9 1413.59 349.141   7
  -5  -3  -9 1014.71 300.304  12
  -5  -3  -9 697.633 306.229  21
   5   3   9 1105.17 389.004  11
   5   3   9 1052.06 343.075  19
   5   3  10 8673.70 708.612  15
  -5  -3 -10 9158.05 831.716   1
   5   3  10 9460.62 824.995   7
  -5  -3 -10 8313.40 770.028  12
  -5  -3 -10 11522.1 1042.46  21
   5   3  10 8919.31 962.427  11
   5   3  10 9715.95 931.717  19
  -5  -3 -10 9604.81 923.324   4
  -5  -3 -10 8772.28 1018.24  17
  -5  -3 -11 2812.01 604.320  17
  -5  -3 -11 2249.01 475.654   4
  -5  -3 -11 2558.35 483.117   1
   5   3  11 2501.51 370.912  15
   5   3  11 2676.49 445.400   7
  -5  -3 -11 1677.38 357.394  12
  -5  -3 -11 3565.30 615.999  21
   5   3  11 2409.03 579.692  11
   5   3  11 3005.20 570.394  19
  -5  -3 -12 7316.18 805.970   1
   5   3  12 7621.31 763.827   7
  -5  -3 -12 6664.71 695.793  12
  -5  -3 -12 9320.42 986.335  21
   5   3  12 5951.32 829.989  11
   5   3  12 7155.52 916.196  19
  -5  -3 -12 7484.08 852.013   4
  -5  -3 -12 7246.38 962.055  17
  -5  -3 -13 1347.36 487.478  17
  -5  -3 -13 797.576 324.385   4
  -5  -3 -13 918.147 365.298   1
   5   3  13 593.231 246.386   7
  -5  -3 -13 554.976 228.796  12
  -5  -3 -13 817.318 412.617  21
   5   3  13 709.739 337.272  11
   5   3  13 874.551 346.333  19
  -5  -3 -14 5912.66 793.819   1
   5   3  14 6415.29 702.183   7
  -5  -3 -14 7562.47 944.685  21
   5   3  14 5680.94 858.579  11
   5   3  14 6790.65 903.498  19
  -5  -3 -14 6381.38 835.242   4
  -5  -3 -14 7599.48 1014.70  17
  -5  -3 -15 247.960 259.652   1
  -5  -3 -15 323.519 304.110  17
  -5  -3 -15 536.191 315.958   4
   5   3  15 288.314 201.076   7
  -5  -3 -15 553.980 363.613  21
   5   3  15 228.384 256.933  11
   5   3  15-31.7866 192.124  19
  -5  -3 -16 416.656 353.687  17
  -5  -3 -16-122.315 269.877   4
  -5  -3 -16 225.536 280.269  21
   5   3  16 341.334 286.698  11
   5   3  16 147.661 221.184  19
  -5  -3 -16 632.384 314.266   1
  -5  -3 -17 861.549 452.222  17
  -5  -3 -17 803.983 416.598   4
  -5  -3 -17 496.939 355.909  21
   5   3  17 949.485 425.898  11
  -5  -3 -17 494.915 290.108   1
   5   3  17 509.536 329.764  19
  -5  -3 -18 237.490 246.415   1
   5   3  18 33.5632 241.854  11
  -5  -4  13 642.616 294.781  14
   5   4 -13 357.631 264.097   8
  -5  -4  13 576.299 326.285   2
   5   4 -13-164.966 267.765  13
  -5  -4  13 590.339 336.180  20
  -5  -4  12 3132.30 578.410  14
   5   4 -12 3715.43 677.574   8
  -5  -4  12 2926.09 666.008   2
   5   4 -12 3526.62 639.518  13
  -5  -4  12 3600.21 699.601  20
  -5  -4  11 3584.28 607.298  14
   5   4 -11 4072.07 701.234   8
  -5  -4  11 3712.47 695.716   2
   5   4 -11 3991.79 670.316  13
  -5  -4  11 5098.95 805.696  20
  -5  -4  10 1155.55 341.270  14
   5   4 -10 2300.62 518.724   8
  -5  -4  10 1852.73 495.427   2
   5   4 -10 1541.81 431.832  13
  -5  -4  10 1760.91 405.137  12
  -5  -4  10 1010.39 410.186  20
  -5  -4   9 480.976 272.469  14
   5   4  -9 1109.35 379.213   8
  -5  -4   9 451.453 299.386   2
   5   4  -9 634.136 310.396  13
  -5  -4   9 574.505 256.912  12
  -5  -4   9 813.503 360.074  20
  -5  -4   8 3106.01 548.776  14
   5   4  -8 3204.40 577.445   8
  -5  -4   8 2775.63 579.329   2
   5   4  -8 3509.92 613.886  13
  -5  -4   8 2753.62 463.674  12
  -5  -4   8 2609.91 574.323  20
  -5  -4   7 978.612 291.925   4
  -5  -4   7 1398.73 372.020  14
  -5  -4   7 1338.78 426.651   2
   5   4  -7 800.058 326.177   8
   5   4  -7 1080.36 367.865  13
  -5  -4   7 1421.59 347.570  12
  -5  -4   7 746.049 341.401  20
  -5  -4   6 3289.25 498.244  14
  -5  -4   6 2977.90 583.191   2
   5   4  -6 3027.00 520.569   8
   5   4  -6 4514.67 644.823  13
  -5  -4   6 3743.21 546.188  12
  -5  -4   6 2554.19 552.252  20
  -5  -4   6 3121.88 441.791   4
  -5  -4   5 1984.98 350.897   4
  -5  -4   5 2260.64 419.601  14
  -5  -4   5 2274.80 483.224   2
   5   4  -5 2348.40 473.824   8
   5   4  -5 1411.89 378.653  13
  -5  -4   5 2489.39 432.263  12
  -5  -4   5 2284.48 512.384  20
   5   4  -5 2463.60 354.337  18
  -5  -4   4 1811.20 307.750   4
  -5  -4   4 2152.92 415.681  14
  -5  -4   4 1758.50 401.103   2
   5   4  -4 2209.15 402.518   8
   5   4  -4 2025.38 455.012  13
  -5  -4   4 1749.83 376.004  12
   5   4  -4 1991.98 310.665  18
  -5  -4   3 3607.95 489.043  21
   5   4  -3 3690.63 522.884   8
  -5  -4   3 4149.04 632.874   2
  -5  -4   3 2837.80 471.269  14
   5   4  -3 3409.34 541.510  13
   5   4  -3 3940.23 523.038   7
  -5  -4   3 3073.93 494.588  12
   5   4  -3 4042.63 447.943  18
  -5  -4   3 2326.24 376.892   4
   5   4  -2 5795.91 638.153   8
  -5  -4   2 5554.86 663.575  14
   5   4  -2 7317.69 777.961  13
   5   4  -2 5823.26 642.263   7
  -5  -4   2 7368.81 750.074  12
  -5  -4   2 6847.33 664.885  21
   5   4  -2 7482.06 610.380  18
  -5  -4   2 6446.48 781.437   2
  -5  -4   2 5603.78 544.190   4
   5   4  -1 10031.4 782.326   8
  -5  -4   1 10767.1 874.513  14
   5   4  -1 12642.6 1007.31  13
   5   4  -1 11807.0 899.025   7
  -5  -4   1 11715.1 939.803  12
   5   4  -1 9900.00 772.504   6
  -5  -4   1 12415.6 863.693  21
   5   4  -1 10804.8 756.165  18
  -5  -4   1 11556.6 1019.19   2
  -5  -4   1 10619.5 719.352   4
  -5  -4   0 4415.25 669.610  17
   5   4   0 4033.06 498.115   8
  -5  -4   0 3952.44 539.807  14
   5   4   0 4585.61 638.849  13
   5   4   0 4892.00 604.668   7
  -5  -4   0 4700.45 601.434  12
   5   4   0 3890.90 490.516   6
  -5  -4   0 4014.57 478.398  21
  -5  -4   0 4063.88 619.756   2
   5   4   0 4632.07 509.838  18
  -5  -4   0 4284.41 468.403   4
  -5  -4  -1 846.630 379.799  17
  -5  -4  -1 883.993 215.065   4
  -5  -4  -1 1602.07 392.436   2
  -5  -4  -1 1189.69 331.838  14
   5   4   1 1641.60 313.769   8
   5   4   1 1306.72 367.368  13
   5   4   1 1793.38 374.254   7
  -5  -4  -1 2117.40 451.416  12
   5   4   1 1110.05 272.011   6
  -5  -4  -1 1214.74 293.357  21
   5   4   1 1484.00 317.740  18
  -5  -4  -2 139.704 267.619  17
  -5  -4  -2 682.827 217.825   4
  -5  -4  -2 719.065 327.964   2
  -5  -4  -2 894.268 319.248  14
   5   4   2 807.105 222.202   8
   5   4   2 1164.79 358.126  13
   5   4   2 1087.41 309.542   7
  -5  -4  -2 1104.27 351.966  12
  -5  -4  -2 658.403 118.898   1
   5   4   2 909.215 265.567   6
  -5  -4  -2 519.577 180.960  21
   5   4   2 1140.05 253.721  18
  -5  -4  -3 2557.82 516.652  17
  -5  -4  -3 2547.99 376.493   4
  -5  -4  -3 2805.31 521.435   2
   5   4   3 2346.21 329.730   8
  -5  -4  -3 2732.79 464.525  14
   5   4   3 1980.16 442.142  13
   5   4   3 3421.10 509.538   7
  -5  -4  -3 3272.22 489.046  12
   5   4   3 2184.87 370.550   6
  -5  -4  -3 2161.34 377.201  21
  -5  -4  -3 1762.78 256.059  19
   5   4   3 2291.65 400.266  18
  -5  -4  -3 1970.18 241.382   1
  -5  -4  -4 8870.53 566.959   1
   5   4   4 7597.40 583.217   8
  -5  -4  -4 10282.2 887.115  14
   5   4   4 9127.87 891.591  13
   5   4   4 10934.4 885.626   7
  -5  -4  -4 10275.9 856.313  12
   5   4   4 9591.49 771.240   6
  -5  -4  -4 10101.5 796.094  21
  -5  -4  -4 9514.96 982.092   2
   5   4   4 8176.16 624.734  19
  -5  -4  -4 10376.5 748.045   4
   5   4   4 10067.9 829.475  18
  -5  -4  -4 9293.98 969.294  17
  -5  -4  -5 6402.76 519.713   1
   5   4   5 5187.60 453.977   8
  -5  -4  -5 6507.84 746.444  14
   5   4   5 7291.10 796.440  13
   5   4   5 7360.88 739.104   7
  -5  -4  -5 6579.49 695.527  12
  -5  -4  -5 7332.02 715.586  21
   5   4   5 5821.93 548.715  19
  -5  -4  -5 7493.40 666.943   4
   5   4   5 7090.15 710.383  18
  -5  -4  -5 7565.15 888.303  17
  -5  -4  -6 1868.13 445.934  17
  -5  -4  -6 1658.73 340.676   4
  -5  -4  -6 1727.01 385.260  14
   5   4   6 1547.72 388.959  13
   5   4   6 1867.47 420.031   7
  -5  -4  -6 1604.35 377.528  12
  -5  -4  -6 1901.23 405.770  21
  -5  -4  -6 1215.39 253.682   1
   5   4   6 1396.62 296.310  19
   5   4   6 1401.58 348.799  18
  -5  -4  -7 3674.51 616.742  17
  -5  -4  -7 3057.33 462.783   4
  -5  -4  -7 2977.29 404.258   1
   5   4   7 3132.33 498.313   7
  -5  -4  -7 2754.62 497.070  12
  -5  -4  -7 3044.27 494.235  21
   5   4   7 2669.95 469.745  19
  -5  -4  -8 6978.48 745.632  21
  -5  -4  -8 4712.74 541.237   1
   5   4   8 6964.92 727.035   7
  -5  -4  -8 6332.01 704.601  12
   5   4   8 5040.86 711.962  11
   5   4   8 5361.68 657.068  19
  -5  -4  -8 5775.65 647.662   4
  -5  -4  -8 6313.60 804.270  17
  -5  -4  -9 1002.93 360.464  17
  -5  -4  -9 567.045 233.262   1
  -5  -4  -9 549.858 242.576   4
   5   4   9 790.821 281.787   7
  -5  -4  -9 770.346 249.287  12
  -5  -4  -9 539.771 271.841  21
   5   4   9 708.939 297.744  11
   5   4   9 559.374 234.352  19
  -5  -4 -10 2953.53 604.332  17
  -5  -4 -10 2879.54 506.730   4
  -5  -4 -10 2581.62 453.153   1
   5   4  10 3380.68 552.379   7
  -5  -4 -10 2857.06 503.468  12
  -5  -4 -10 2996.61 516.520  21
   5   4  10 1772.94 482.142  11
   5   4  10 1983.45 460.570  19
  -5  -4 -11 4545.23 721.243  17
  -5  -4 -11 4262.85 602.670   1
   5   4  11 4443.71 599.146   7
  -5  -4 -11 3489.82 560.284  12
  -5  -4 -11 4510.78 664.668  21
   5   4  11 3467.11 647.768  11
   5   4  11 3979.70 619.451  19
  -5  -4 -11 4237.75 625.370   4
  -5  -4 -12 1221.34 406.823  17
  -5  -4 -12 803.799 321.790   4
  -5  -4 -12 1570.59 406.187   1
   5   4  12 874.184 310.753   7
  -5  -4 -12 551.118 233.440  12
  -5  -4 -12 1129.87 363.338  21
   5   4  12 755.490 365.144  11
   5   4  12 636.538 307.511  19
  -5  -4 -13 2293.58 589.304  17
  -5  -4 -13 702.020 278.414   4
  -5  -4 -13 1161.44 356.894   1
   5   4  13 1294.29 385.438   7
  -5  -4 -13 952.540 318.066  12
  -5  -4 -13 1637.17 454.393  21
   5   4  13 990.260 401.787  11
   5   4  13 1448.68 444.078  19
  -5  -4 -14 4587.59 692.257   1
   5   4  14 4652.92 661.784   7
  -5  -4 -14 5100.57 648.232  12
  -5  -4 -14 5070.19 771.940  21
   5   4  14 4083.11 743.889  11
   5   4  14 4658.01 784.435  19
  -5  -4 -14 4802.64 753.497   4
  -5  -4 -14 5792.39 880.385  17
  -5  -4 -15 3405.13 732.106  17
  -5  -4 -15 2444.83 570.127   4
  -5  -4 -15 2340.00 531.800   1
   5   4  15 1898.30 439.132   7
  -5  -4 -15 2510.92 577.933  21
   5   4  15 2393.47 596.342  11
   5   4  15 2651.28 599.187  19
  -5  -4 -16 251.503 273.070   4
  -5  -4 -16 899.628 410.317  17
  -5  -4 -16 664.781 335.049   1
   5   4  16 1363.30 360.663   7
  -5  -4 -16 798.349 362.568  21
   5   4  16 831.319 410.213  11
   5   4  16 773.825 383.427  19
  -5  -4 -17 838.480 368.145   4
  -5  -4 -17 1341.60 512.254  17
  -5  -4 -17 1281.29 436.452   1
  -5  -4 -17 1035.11 418.628  21
   5   4  17 965.480 403.128  11
   5   4  17 679.821 396.608  19
  -5  -4 -18 264.867 249.946   1
  -5  -4 -18 442.394 314.635  21
  -5  -5  12 697.195 332.372   2
   5   5 -12 74.2126 232.509   8
  -5  -5  12 554.667 340.567  20
  -5  -5  11 1998.96 563.962   2
   5   5 -11 1991.78 512.714   8
  -5  -5  11 2344.27 618.803  20
  -5  -5  10-226.634 246.822   2
   5   5 -10 203.368 240.424   8
   5   5 -10 6.32210 139.941  13
  -5  -5  10 260.840 270.995  20
  -5  -5   9 535.500 218.171  14
  -5  -5   9 347.649 217.930   2
   5   5  -9 1086.58 391.504   8
   5   5  -9 256.629 219.308  13
  -5  -5   9 518.526 240.335  12
  -5  -5   9 445.544 264.041  20
  -5  -5   8 1477.83 341.096  14
  -5  -5   8 1571.44 490.185   2
   5   5  -8 1521.32 403.419   8
   5   5  -8 1680.70 415.527  13
  -5  -5   8 1093.95 345.455  12
  -5  -5   8 1083.45 447.216  20
  -5  -5   7 1010.99 288.075  14
  -5  -5   7 847.652 356.875   2
   5   5  -7 939.246 325.819   8
   5   5  -7 1006.10 326.248  13
  -5  -5   7 656.937 288.394  12
  -5  -5   7 1356.97 428.496  20
  -5  -5   6 3651.23 543.411  14
  -5  -5   6 3482.97 637.075   2
   5   5  -6 2568.77 502.152   8
   5   5  -6 2852.16 489.945  13
   5   5  -6 3008.55 460.784   7
  -5  -5   6 2757.36 510.196  12
  -5  -5   6 2976.69 626.255  20
   5   5  -6 2788.57 437.580  18
  -5  -5   5 708.919 321.946   2
  -5  -5   5 833.841 278.854  14
   5   5  -5 1249.13 345.958   8
   5   5  -5 520.177 276.470  13
   5   5  -5 1004.94 273.533   7
  -5  -5   5 1292.13 345.052  12
  -5  -5   5 595.166 308.022  20
   5   5  -5 877.040 286.990  18
  -5  -5   4 2735.93 546.492   2
  -5  -5   4 2279.10 426.230  14
   5   5  -4 3462.97 525.147   8
   5   5  -4 2284.67 457.587  13
   5   5  -4 2629.70 426.472   7
  -5  -5   4 2929.51 504.341  12
   5   5  -4 2764.60 442.679  18
  -5  -5   3 1110.63 392.911   2
  -5  -5   3 1213.88 317.869  14
   5   5  -3 1485.34 343.485   8
   5   5  -3 1334.73 368.080  13
   5   5  -3 1288.70 313.682   7
  -5  -5   3 1156.87 357.439  12
   5   5  -3 1427.79 349.630  18
  -5  -5   2 1438.28 258.047   4
  -5  -5   2 1174.89 381.885   2
  -5  -5   2 1908.69 366.917  14
   5   5  -2 1646.27 351.819   8
   5   5  -2 1916.08 423.721  13
   5   5  -2 1409.39 325.651   7
  -5  -5   2 2275.67 465.621  12
   5   5  -2 2043.41 398.717  18
  -5  -5   1 883.433 214.445   4
  -5  -5   1 1212.78 399.348   2
  -5  -5   1 1341.76 338.511  14
   5   5  -1 1034.65 320.354   8
   5   5  -1 969.431 311.378  13
   5   5  -1 1956.22 395.562   7
  -5  -5   1 1360.07 387.177  12
  -5  -5   1 769.742 207.892  21
   5   5  -1 1315.43 315.232  18
   5   5   0 10307.8 789.706   8
  -5  -5   0 12827.3 939.820  14
   5   5   0 11939.8 988.209  13
   5   5   0 11842.8 928.349   7
  -5  -5   0 11774.6 1011.53  12
   5   5   0 11478.6 948.289   6
  -5  -5   0 11052.5 746.464  21
  -5  -5   0 11906.9 1087.78   2
   5   5   0 12510.3 953.855  18
  -5  -5   0 11037.0 669.075   4
  -5  -5  -1 1093.26 381.534  17
  -5  -5  -1 1404.45 240.220   4
  -5  -5  -1 1211.07 385.738   2
  -5  -5  -1 2124.58 435.033  14
   5   5   1 1933.48 329.772   8
   5   5   1 1479.91 396.471  13
   5   5   1 1498.15 378.770   7
  -5  -5  -1 2160.01 440.507  12
   5   5   1 1107.32 298.046   6
  -5  -5  -1 1360.01 276.136  21
   5   5   1 1646.97 368.467  18
   5   5   2 7343.35 458.309   9
   5   5   2 10195.0 704.804   8
  -5  -5  -2 10652.6 889.830  14
   5   5   2 10189.5 920.721  13
   5   5   2 10638.3 877.471   7
  -5  -5  -2 9969.71 914.285  12
   5   5   2 10947.6 914.888   6
  -5  -5  -2 10444.8 721.697  21
  -5  -5  -2 7908.96 934.641   2
  -5  -5  -2 10456.2 642.705   4
   5   5   2 10992.2 908.915  18
  -5  -5  -2 10181.9 1039.70  17
  -5  -5  -3 1647.67 472.945  17
   5   5   3 1671.71 278.662   9
  -5  -5  -3 1997.12 480.297   2
   5   5   3 2704.84 348.993   8
  -5  -5  -3 2616.13 453.512  14
   5   5   3 2842.15 496.788  13
   5   5   3 2931.47 473.952   7
  -5  -5  -3 2487.56 461.557  12
  -5  -5  -3 2230.50 298.293   1
   5   5   3 2866.76 495.143   6
  -5  -5  -3 2597.59 363.331  21
   5   5   3 1965.04 244.872  19
  -5  -5  -3 2638.34 342.206   4
   5   5   3 2859.66 472.030  18
  -5  -5  -4 2528.07 554.636  17
   5   5   4 2927.84 327.779   8
  -5  -5  -4 3569.74 545.443  14
   5   5   4 3175.89 551.687  13
   5   5   4 3377.02 509.821   7
  -5  -5  -4 4253.25 619.884  12
   5   5   4 3573.15 539.540   6
  -5  -5  -4 3470.46 436.439  21
  -5  -5  -4 3645.36 635.960   2
   5   5   4 2550.37 329.440  19
  -5  -5  -4 3319.12 390.932   4
  -5  -5  -4 2635.70 356.107   1
   5   5   4 3613.76 537.528  18
  -5  -5  -5 936.000 231.996   1
  -5  -5  -5 506.448 262.245  17
   5   5   5 780.202 289.206   6
  -5  -5  -5 1140.24 257.243   4
  -5  -5  -5 1441.50 368.404  14
   5   5   5 691.059 172.884   8
   5   5   5 1498.57 386.426  13
   5   5   5 1196.96 308.326   7
  -5  -5  -5 1480.48 387.965  12
  -5  -5  -5 1202.36 272.545  21
   5   5   5 1129.92 241.020  19
   5   5   5 1566.47 378.806  18
  -5  -5  -6 4456.58 510.409   1
  -5  -5  -6 4826.16 726.559  17
   5   5   6 5118.82 656.423   7
  -5  -5  -6 6158.19 749.776  12
   5   5   6 4973.36 632.772   6
  -5  -5  -6 4417.54 513.480  21
   5   5   6 4219.39 656.228  11
   5   5   6 3705.48 470.729  19
  -5  -5  -6 4719.37 520.496   4
   5   5   6 4931.66 641.001  18
  -5  -5  -7 5521.39 586.722   1
   5   5   7 7300.21 767.849   7
  -5  -5  -7 6145.90 751.476  12
  -5  -5  -7 5550.48 602.908  21
   5   5   7 5647.78 753.341  11
   5   5   7 4766.02 574.518  19
  -5  -5  -7 6448.79 612.312   4
   5   5   7 6451.11 765.455  18
  -5  -5  -7 6190.84 827.523  17
  -5  -5  -8 1542.88 461.852  17
  -5  -5  -8 2039.86 373.372   4
  -5  -5  -8 1788.60 355.172   1
   5   5   8 2364.44 455.822   7
  -5  -5  -8 1854.28 438.672  12
  -5  -5  -8 1944.26 369.931  21
   5   5   8 772.990 315.212  11
   5   5   8 1970.62 391.253  19
   5   5   8 1491.39 390.069  18
  -5  -5  -9 1129.37 408.057  17
  -5  -5  -9 854.755 270.315   4
   5   5   9 989.276 320.441   7
  -5  -5  -9 746.104 251.630   1
  -5  -5  -9 1599.78 441.774  12
  -5  -5  -9 1345.11 339.868  21
   5   5   9 832.379 326.305  11
   5   5   9 1080.44 310.224  19
   5   5   9 844.223 347.190  18
  -5  -5 -10 1295.63 480.578  17
  -5  -5 -10 592.144 240.060   4
   5   5  10 986.775 296.339   7
  -5  -5 -10 782.175 261.338   1
  -5  -5 -10 335.930 182.186  12
  -5  -5 -10 1324.79 354.247  21
   5   5  10 341.184 229.860  11
   5   5  10 409.116 218.054  19
   5   5  10 1039.50 411.151  18
  -5  -5 -11 731.240 371.879  17
  -5  -5 -11 88.5115 155.309   4
   5   5  11 494.571 237.770   7
  -5  -5 -11 238.521 181.677  12
  -5  -5 -11 273.099 199.151   1
  -5  -5 -11 233.435 192.607  21
   5   5  11 333.032 265.970  11
   5   5  11 505.702 264.214  19
  -5  -5 -12 34.3977 158.795   4
  -5  -5 -12 193.692 300.020  17
   5   5  12-260.830 164.186   7
  -5  -5 -12-408.320 313.491  12
  -5  -5 -12 535.166 271.156  21
  -5  -5 -12 171.057 218.122   1
   5   5  12 14.8473 181.708  11
   5   5  12-127.050 194.172  19
  -5  -5 -13 493.018 274.279   4
  -5  -5 -13 565.023 364.235  17
   5   5  13-8.58471 167.683   7
  -5  -5 -13 160.598 247.063  12
  -5  -5 -13 223.977 227.266  21
  -5  -5 -13 321.638 219.876   1
   5   5  13 584.255 348.317  11
   5   5  13 300.951 225.922  19
  -5  -5 -14 2139.80 513.066   4
  -5  -5 -14 1847.87 538.885  17
   5   5  14 1962.18 453.865   7
  -5  -5 -14 1537.85 408.422  12
  -5  -5 -14 2206.60 504.076  21
   5   5  14 1276.70 457.554  11
  -5  -5 -14 1299.80 382.824   1
   5   5  14 1785.65 478.273  19
  -5  -5 -15 1902.56 577.161  17
   5   5  15 3895.32 621.962   7
  -5  -5 -15 3162.85 618.284  21
   5   5  15 3361.19 705.639  11
  -5  -5 -15 2403.06 553.730   4
  -5  -5 -15 2400.79 532.268   1
   5   5  15 2369.72 550.564  19
  -5  -5 -16 2689.63 631.141  17
   5   5  16 1740.72 410.796   7
  -5  -5 -16 1428.05 461.505  21
   5   5  16 867.376 425.984  11
  -5  -5 -16 2190.24 574.291   4
  -5  -5 -16 1698.75 500.386   1
   5   5  16 1952.93 559.319  19
   5   5  17 614.701 286.792   7
  -5  -5 -17 556.204 275.584  21
  -5  -5 -17 770.999 365.216   1
   5   5  17 333.394 289.053  19
  -5  -5 -18-37.6330 260.280  21
  -5  -6  11 180.349 279.958   2
  -5  -6  10 861.207 441.476   2
   5   6 -10 565.769 338.944   8
  -5  -6  10 279.017 255.238  20
  -5  -6   9 832.029 388.113   2
   5   6  -9 356.399 297.455   8
  -5  -6   9 80.3158 160.559  12
  -5  -6   9 333.227 275.126  20
  -5  -6   8 649.909 360.306   2
   5   6  -8 27.9142 150.814   8
  -5  -6   8 153.196 231.376  12
  -5  -6   8 198.703 225.827  20
  -5  -6   7 2013.20 537.447   2
   5   6  -7 1214.54 395.668   8
  -5  -6   7 1724.48 446.091  12
  -5  -6   7 1502.09 509.101  20
  -5  -6   6 3170.06 660.285   2
   5   6  -6 3037.99 542.723   8
   5   6  -6 2270.96 411.869   7
  -5  -6   6 2414.63 518.120  12
  -5  -6   6 2623.18 579.086  20
  -5  -6   5 659.468 386.647   2
  -5  -6   5 566.625 251.606  14
   5   6  -5 639.800 299.446   8
   5   6  -5 724.217 264.329  13
   5   6  -5 549.529 252.349   7
  -5  -6   5 1204.69 374.320  12
   5   6  -5 706.480 288.028  18
  -5  -6   4 2592.78 587.845   2
  -5  -6   4 2786.15 444.046  14
   5   6  -4 2326.88 439.526   8
   5   6  -4 3035.83 496.723  13
   5   6  -4 2967.43 478.103   7
  -5  -6   4 3145.96 601.023  12
   5   6  -4 2477.33 482.703  18
  -5  -6   3 4434.52 553.737  14
   5   6  -3 4519.19 615.481   8
   5   6  -3 4006.56 560.568  13
   5   6  -3 4814.43 610.996   7
  -5  -6   3 4402.42 691.370  12
   5   6  -3 4427.97 638.455  18
  -5  -6   3 4806.64 768.988   2
  -5  -6   2 1591.61 472.336   2
  -5  -6   2 1880.02 363.675  14
   5   6  -2 2288.42 451.044   8
   5   6  -2 2354.46 458.489  13
   5   6  -2 2024.17 403.225   7
  -5  -6   2 2543.51 552.783  12
   5   6  -2 2478.12 492.370  18
  -5  -6   1 1456.33 438.331   2
  -5  -6   1 994.359 299.536  14
   5   6  -1 924.741 287.044   8
   5   6  -1 1294.70 344.106  13
   5   6  -1 1066.62 313.037   7
  -5  -6   1 1521.30 418.765  12
   5   6  -1 1940.93 433.856  18
  -5  -6   0 13658.6 990.746  14
   5   6   0 11639.0 882.642   8
   5   6   0 13195.0 1042.43  13
   5   6   0 13210.0 1004.30   7
  -5  -6   0 13780.3 1164.54  12
   5   6   0 14751.3 1215.00   6
  -5  -6   0 12649.6 1256.76   2
   5   6   0 15865.2 1184.60  18
  -5  -6  -1 1138.49 446.021   2
  -5  -6  -1 1937.47 403.734  14
   5   6   1 1643.73 328.202   8
   5   6   1 1486.33 399.669  13
   5   6   1 2644.56 491.425   7
  -5  -6  -1 2480.93 531.653  12
   5   6   1 1708.38 438.121   6
   5   6   1 1889.42 440.156  18
  -5  -6  -2 7607.14 773.920  14
   5   6   2 6913.47 610.935   8
   5   6   2 6582.60 756.362  13
  -5  -6  -2 7092.25 845.729  12
   5   6   2 7094.03 878.450   6
  -5  -6  -2 6247.13 847.848   2
   5   6   2 8413.69 860.979  18
  -5  -6  -2 7510.27 887.069  17
  -5  -6  -3 63.6717 257.119  17
  -5  -6  -3 615.322 201.855  14
   5   6   3 448.877 165.158   8
   5   6   3 521.782 245.905  13
  -5  -6  -3 472.595 247.252  12
   5   6   3 482.752 307.893   6
  -5  -6  -3-38.8317 223.728   2
   5   6   3 825.064 291.562  18
  -5  -6  -4 96.5642 266.592  17
   5   6   4 255.579 195.032  13
  -5  -6  -4 426.656 189.051   1
  -5  -6  -4 640.730 330.933  12
   5   6   4 464.296 285.242   6
   5   6   4 506.698 238.246  11
   5   6   4 605.389 284.383  18
  -5  -6  -5 836.605 375.578  17
   5   6   5 803.079 295.532  13
  -5  -6  -5 1329.27 333.766  12
   5   6   5 579.335 243.821   6
  -5  -6  -5 521.870 182.341   1
   5   6   5 717.366 256.832  11
   5   6   5 991.361 339.350  18
   5   6   6 5054.04 682.366  13
  -5  -6  -6 5785.10 782.921  12
   5   6   6 5592.51 741.701   6
   5   6   6 4544.71 694.117  11
   5   6   6 3931.21 454.279  19
  -5  -6  -6 3825.60 437.067   4
  -5  -6  -6 4285.64 550.705   1
   5   6   6 4899.20 686.774  18
  -5  -6  -6 4473.03 746.322  17
  -5  -6  -7 15850.2 1282.81  12
   5   6   7 17270.3 1308.33   6
   5   6   7 17019.3 1317.63  11
   5   6   7 13777.4 935.738  19
  -5  -6  -7 14401.9 886.838   4
   5   6   7 16176.9 1270.49  18
  -5  -6  -7 14654.7 1045.77   1
  -5  -6  -7 18032.3 1407.25  17
  -5  -6  -8 804.934 257.203   4
  -5  -6  -8 1131.51 404.661  17
  -5  -6  -8 926.643 318.380   1
  -5  -6  -8 1357.72 469.008  12
   5   6   8 1300.79 402.327   6
   5   6   8 854.721 361.358  11
   5   6   8 1005.25 318.680  19
   5   6   8 1154.51 374.882  18
  -5  -6  -9 1363.65 309.105   4
  -5  -6  -9 1211.91 402.874  17
  -5  -6  -9 1189.01 346.284   1
  -5  -6  -9 1262.36 374.774  12
   5   6   9 1022.79 353.512  11
   5   6   9 1395.47 345.253  19
   5   6   9 1449.10 443.847  18
  -5  -6 -10 3052.31 602.028  17
  -5  -6 -10 2973.91 531.988   1
  -5  -6 -10 2587.60 536.997  12
   5   6  10 2574.19 566.369  11
  -5  -6 -10 2478.78 441.563   4
   5   6  10 2257.76 438.728  19
   5   6  10 2515.83 554.881  18
  -5  -6 -11 308.511 228.367  17
  -5  -6 -11 783.259 286.906   1
  -5  -6 -11 549.707 272.072  12
   5   6  11 339.833 219.735  11
  -5  -6 -11 864.978 275.345   4
   5   6  11 1057.15 371.118  19
   5   6  11 473.215 286.414  18
  -5  -6 -12 305.405 287.696  17
  -5  -6 -12 372.335 245.992   1
  -5  -6 -12 660.945 333.214  12
   5   6  12 104.869 175.995  11
   5   6  12 360.920 229.253  19
   5   6  12 183.515 225.045  18
  -5  -6 -13 1851.37 543.189  17
  -5  -6 -13 1626.03 417.477   1
  -5  -6 -13 1600.01 444.277  12
   5   6  13 1066.58 432.195  11
   5   6  13 1241.46 385.412  19
   5   6  13 1046.23 459.773  18
  -5  -6 -14-184.200 251.289  17
  -5  -6 -14-54.4789 180.490   1
  -5  -6 -14-17.7166 157.590  12
   5   6  14 139.498 193.086  11
   5   6  14 404.331 245.254  19
  -5  -6 -15-133.037 222.941  17
  -5  -6 -15 581.013 307.613   1
   5   6  15-41.9981 233.309  11
   5   6  15 134.453 172.512  19
  -5  -6 -16 1037.25 484.489  17
   5   6  16 816.662 357.471   7
  -5  -6 -16 1119.38 444.713   1
   5   6  16 509.772 285.446  19
   5   6  17 234.523 197.797   7
  -5  -6 -17 154.256 251.201   1
   5   6  18 152.108 214.720   7
  -5  -7   9 644.793 283.998   2
  -5  -7   8 182.277 309.655   2
   5   7  -8 356.037 257.992   8
  -5  -7   7-81.7957 254.998   2
   5   7  -7 623.521 333.366   8
  -5  -7   7 92.8110 327.586  20
  -5  -7   6 519.991 347.778   2
   5   7  -6 900.018 317.608   8
  -5  -7   6-67.9349 239.112  12
  -5  -7   5 1966.70 550.310   2
   5   7  -5 1881.44 462.272   8
   5   7  -5 1683.59 382.907   7
  -5  -7   5 2154.17 533.930  12
  -5  -7   4 970.091 379.045   2
   5   7  -4 858.412 336.791   8
   5   7  -4 1065.74 320.534   7
  -5  -7   4 223.548 185.393  12
   5   7  -4 839.524 317.106  18
  -5  -7   3-211.783 280.150   2
   5   7  -3-122.396 185.319   8
   5   7  -3-177.587 129.047   7
  -5  -7   3 561.680 350.239  12
   5   7  -3 331.403 238.635  18
  -5  -7   2 88.5803 225.746   2
   5   7  -2 281.312 188.029   8
  -5  -7   2-48.3041 189.508  12
   5   7  -2 304.429 222.591   7
   5   7  -2-81.3023 213.955  18
  -5  -7   1-90.0333 216.739   2
   5   7  -1 436.853 241.392   8
   5   7  -1 331.837 207.991   7
  -5  -7   1 667.162 342.869  12
   5   7  -1-94.6445 165.076  18
  -5  -7   0 665.627 329.546   2
   5   7   0 648.879 225.202   8
   5   7   0 547.547 245.825  13
   5   7   0 48.3037 175.130   6
  -5  -7   0 88.9356 236.594  12
   5   7   0 417.551 253.666  18
  -5  -7  -1 2378.63 575.075   2
   5   7   1 1591.12 326.247   8
   5   7   1 1546.41 367.937  13
  -5  -7  -1 2515.22 536.903  12
   5   7   1 2019.57 541.240   6
   5   7   1 1853.81 382.622  11
   5   7   1 2625.12 545.265  18
   5   7   2 4.76824 138.551   8
   5   7   2 259.161 175.575  13
  -5  -7  -2 75.2680 226.703  12
   5   7   2 734.235 320.497   6
  -5  -7  -2-86.1171 280.346   2
   5   7   2 70.8174 125.512  11
   5   7   2 573.960 271.211  18
   5   7   3 664.105 247.467  13
  -5  -7  -3 83.1637 238.649  12
   5   7   3 495.066 287.365   6
   5   7   3-121.925 183.771  11
   5   7   3 489.646 319.075  18
  -5  -7  -4 36.3723 219.814  17
   5   7   4 224.743 210.355  13
  -5  -7  -4 791.740 391.021  12
   5   7   4 211.736 206.841   6
   5   7   4 171.066 180.950  11
   5   7   4 294.737 213.963  18
  -5  -7  -5 332.038 238.048  17
  -5  -7  -5 871.386 385.896  12
   5   7   5 333.290 184.664  13
   5   7   5 515.821 236.722   6
  -5  -7  -5 412.438 194.612   1
   5   7   5 577.788 245.923  11
   5   7   5 461.071 249.461  18
  -5  -7  -6 2350.87 546.812  17
   5   7   6 2254.08 486.199  13
  -5  -7  -6 1330.07 358.046   1
  -5  -7  -6 1785.10 458.191  12
   5   7   6 2386.66 555.825   6
   5   7   6 1843.02 456.498  11
   5   7   6 1654.09 479.524  18
  -5  -7  -7 659.023 348.171  17
  -5  -7  -7-126.451 239.907  12
   5   7   7 503.220 297.166   6
  -5  -7  -7 59.1235 185.209   1
   5   7   7 502.303 297.997  11
   5   7   7 404.570 230.425  18
  -5  -7  -8-70.2155 264.678  17
  -5  -7  -8 409.655 282.038  12
   5   7   8-136.768 151.091   6
   5   7   8 226.508 225.499  11
  -5  -7  -8 108.228 193.467   1
   5   7   8 228.647 230.957  18
  -5  -7  -9-364.196 382.468  17
  -5  -7  -9 180.314 271.805  12
   5   7   9-410.129 262.080   6
   5   7   9 511.992 305.339  11
  -5  -7  -9 58.9203 161.317   1
   5   7   9 58.6655 207.828  18
  -5  -7 -10-97.6968 222.254  17
  -5  -7 -10 405.841 347.330  12
   5   7  10 777.529 340.737  11
   5   7  10-199.188 229.552  19
   5   7  10 603.639 297.621  18
  -5  -7 -10-19.6516 182.472   1
  -5  -7 -11 371.679 261.252   1
  -5  -7 -11 504.915 275.060  17
  -5  -7 -11 183.715 180.563  12
   5   7  11-171.078 273.991  11
   5   7  11 258.044 188.908  19
   5   7  11 132.813 243.578  18
  -5  -7 -12 1407.19 513.541  17
  -5  -7 -12 1190.20 390.806   1
  -5  -7 -12 684.287 361.079  12
   5   7  12 607.172 309.323  11
   5   7  12 1440.25 377.818  19
   5   7  12 1682.37 495.581  18
  -5  -7 -13 1308.98 465.265  17
  -5  -7 -13 369.645 203.660   1
   5   7  13 1168.83 458.444  11
   5   7  13 348.593 238.451  19
   5   7  13 591.997 383.090  18
  -5  -7 -14 159.931 284.600  17
  -5  -7 -14 216.763 243.043   1
   5   7  14 357.274 301.019  11
   5   7  14 15.6714 208.096  19
   5   7  14 460.291 328.070  18
  -5  -7 -15-46.1662 228.875  17
  -5  -7 -15 21.1167 185.422   1
   5   7  15 300.099 254.164  19
  -5  -7 -16 14.3434 239.329   1
   5   7  16 150.743 255.873  19
  -5  -8   6 493.905 299.290   2
   5   8  -6 377.664 307.364   8
  -5  -8   5 518.656 340.680   2
   5   8  -5 94.5599 220.898   8
  -5  -8   4 2150.21 592.786   2
   5   8  -4 673.399 305.175   8
   5   8  -4 1800.29 496.280  18
  -5  -8   3 806.964 403.281   2
   5   8  -3 887.613 319.567   8
   5   8  -3 1203.91 382.278   7
   5   8  -3 761.953 381.755  18
  -5  -8   2 413.263 302.640   2
   5   8  -2 324.440 233.886   8
   5   8  -2 632.724 302.290   7
   5   8  -2 533.607 298.447  18
  -5  -8   1-37.6572 246.050   2
   5   8  -1 288.945 209.399   8
   5   8  -1-152.193 255.751   6
   5   8  -1 492.323 269.604  18
  -5  -8   0-112.474 230.469   2
   5   8   0 116.696 176.792   6
   5   8   0 432.416 320.130  18
   5   8   1 1792.89 529.487   6
  -5  -8  -1 1233.95 440.870  12
   5   8   1 1029.25 346.759  18
  -5  -8  -2 2250.43 587.587  12
   5   8   2 2222.34 577.330   6
   5   8   2 2416.62 568.186  18
  -5  -8  -3 49.2556 239.813  12
   5   8   3 133.747 215.233   6
   5   8   3 640.384 312.490  18
  -5  -8  -4 888.928 363.237  12
   5   8   4 355.442 252.010   6
   5   8   4 1444.32 451.376  18
  -5  -8  -5 2135.27 551.016  17
  -5  -8  -5 2156.06 540.192  12
   5   8   5 1598.87 528.386   6
   5   8   5 2050.89 534.974  18
   5   8   6 6504.73 763.267  13
  -5  -8  -6 7431.48 981.009  12
   5   8   6 7366.86 1037.87   6
   5   8   6 7270.28 842.435  11
   5   8   6 7544.58 1031.50  18
  -5  -8  -6 7483.05 943.893  17
  -5  -8  -7 11.3898 194.965  17
   5   8   7-126.210 193.785  13
   5   8   7 68.4989 202.384   6
   5   8   7 145.953 191.232  11
  -5  -8  -8 56.1228 233.982  17
   5   8   8 368.450 279.079   6
   5   8   8 598.875 265.701  11
   5   8   8 846.790 332.865  18
  -5  -8  -9 1589.32 492.746  17
  -5  -8  -9 857.756 377.926   1
   5   8   9 834.724 396.193   6
   5   8   9 835.442 331.205  11
   5   8   9 717.671 347.784  18
  -5  -8 -10 205.059 244.769  17
   5   8  10 431.807 313.484   6
  -5  -8 -10 235.632 280.198   1
   5   8  10 359.159 261.465  11
   5   8  10 368.177 288.543  18
  -5  -8 -11 141.757 249.902  17
   5   8  11 136.399 233.736  11
  -5  -8 -11 212.820 220.744   1
  -5  -8 -12 3036.72 726.434  17
   5   8  12 2965.13 655.717  11
  -5  -8 -12 2429.68 603.630   1
  -5  -8 -13 1004.82 472.015  17
   5   8  13 974.993 444.158  11
  -5  -8 -13 371.982 325.088   1
  -5  -8 -14 2361.21 679.870  17
  -5  -8 -14 2193.51 585.653   1
  -5  -8 -15 123.942 257.709  17
  -6   3   8 349.655 262.569  14
   6  -3  -8-32.4821 221.872  13
  -6   3   7-34.2696 260.366  14
   6  -3  -7 30.4192 188.376  13
  -6   3   6 275.311 228.131  14
   6  -3  -6 19.2398 203.628  13
  -6   3   5 530.693 270.115  14
   6  -3  -5 459.424 305.203  13
  -6   3   5 875.706 402.392  21
  -6   3   4 950.591 476.719   4
  -6   3   4 841.410 317.776  14
   6  -3  -4 704.463 357.371  13
  -6   3   4 542.948 340.843  21
  -6   3   3 957.345 435.875   4
  -6   3   3 584.937 289.995  14
   6  -3  -3 1301.53 425.387  13
  -6   3   3 289.229 281.831  21
  -6   3   2 3198.93 708.497   4
   6  -3  -2 3323.96 722.931  15
  -6   3   2 3357.40 625.277  14
   6  -3  -2 3376.22 630.994  13
  -6   3   2 3929.49 754.773  21
  -6   3   1 2631.08 661.691   4
   6  -3  -1 2113.14 596.869  15
  -6   3   1 3445.48 733.347  21
  -6   3   0 1744.65 481.621   9
  -6   3   0 1791.29 513.652   4
   6  -3   0 1975.38 564.109  15
  -6   3   0 2603.59 642.926  21
  -6   3  -1 1242.81 429.408   9
  -6   3  -1 1275.09 463.424   4
  -6   3  -1 1691.54 543.223  21
  -6   3  -2 279.405 241.376   9
  -6   3  -2 202.889 289.878   4
  -6   3  -3 409.200 288.229   9
  -6   3  -3 694.558 417.894   4
  -6   3  -3 339.264 334.102  21
  -6   3  -4 809.849 372.793   9
  -6   3  -4 509.337 303.950  21
  -6   3  -5 35.7912 192.237   9
  -6   3  -6-139.253 222.637   9
  -6   3  -7 616.924 364.781   9
  -6   2  12 223.564 286.632  19
   6  -2 -12 170.442 242.192  10
  -6   2  11 1069.51 438.184  19
  -6   2  10 707.523 394.380  19
  -6   2   9 2090.85 550.926  14
   6  -2  -9 2380.17 620.114  13
  -6   2   9 1467.28 514.659  19
  -6   2   8 765.329 389.300   4
  -6   2   8 675.358 354.544  14
   6  -2  -8 263.861 278.931  13
  -6   2   8 49.4345 224.918  21
  -6   2   7 660.051 390.821   4
  -6   2   7 292.829 229.110  14
   6  -2  -7 481.557 328.467  13
  -6   2   7 778.491 472.444  21
  -6   2   6 1081.44 419.078   4
  -6   2   6 1274.52 426.657  14
   6  -2  -6 1905.27 547.432  13
  -6   2   6 1709.82 493.804  21
  -6   2   5 2629.80 625.192   4
  -6   2   5 1400.56 447.313  14
   6  -2  -5 2379.17 568.913  13
  -6   2   5 2216.52 598.801  21
  -6   2   4 1602.26 551.375   4
  -6   2   4 1404.25 417.317  14
   6  -2  -4 1993.77 488.580  13
  -6   2   4 1432.49 480.484  21
  -6   2   3 499.980 324.631   4
  -6   2   3 970.170 360.772  14
   6  -2  -3 930.761 370.117  13
  -6   2   3 1093.38 413.093  21
  -6   2   2 292.241 275.593   4
  -6   2   2 656.035 303.960  14
   6  -2  -2 1276.89 423.850  13
  -6   2   2 648.212 390.382  21
  -6   2   1 2392.80 573.628   4
  -6   2   1 3064.79 587.004  14
   6  -2  -1 3388.90 607.917  13
  -6   2   1 1931.94 535.836  21
  -6   2   0 2426.79 484.801   9
  -6   2   0 2829.78 667.194   4
  -6   2   0 2338.20 500.432  14
   6  -2   0 3052.43 577.358  13
  -6   2   0 3207.88 689.267  21
  -6   2  -1 3100.67 566.335   9
  -6   2  -1 3003.81 623.319   4
   6  -2   1 2706.51 649.584  15
  -6   2  -1 2406.77 504.250  14
   6  -2   1 3867.06 623.298  13
  -6   2  -1 3396.74 674.728  21
  -6   2  -2 435.611 291.302   9
  -6   2  -2 169.067 254.881   4
   6  -2   2 502.003 334.121  15
  -6   2  -2 654.948 290.287  14
  -6   2  -2-278.610 357.014  21
   6  -2   2 301.285 235.665  13
  -6   2  -3 543.426 282.418   9
  -6   2  -3 759.303 333.430   4
   6  -2   3 383.357 294.714  15
  -6   2  -3 1093.81 329.159  14
   6  -2   3 982.968 342.831  13
  -6   2  -3 1001.22 402.963  21
  -6   2  -4 2158.37 496.184   9
  -6   2  -4 3186.69 700.781   4
   6  -2   4 3240.42 684.428  15
   6  -2   4 3309.53 571.183  13
  -6   2  -4 2914.15 656.977  21
  -6   2  -5 1154.53 387.367   9
  -6   2  -5 2049.49 607.149   4
   6  -2   5 3389.31 674.434  15
  -6   2  -5 2772.22 646.810  21
  -6   2  -6 1065.57 399.974   9
  -6   2  -6 1150.99 489.787   4
   6  -2   6 1183.71 467.337  15
  -6   2  -6 1019.15 425.972  21
  -6   2  -7-13.0026 193.781   9
  -6   2  -7-195.039 214.412   4
   6  -2   7 146.279 287.617  15
  -6   2  -7 290.844 335.690  21
  -6   2  -8 176.526 227.927   9
  -6   2  -8-461.943 285.761   4
  -6   2  -9 2850.62 658.258   9
  -6   2 -10 282.891 300.007   9
  -6   1  13 591.101 319.891   2
  -6   1  12 698.821 372.915   2
   6  -1 -11 156.187 272.403  13
  -6   1  11 448.151 294.578   2
  -6   1  11 563.007 312.762  19
   6  -1 -10 939.004 432.662   8
  -6   1  10 936.580 443.548   4
  -6   1  10 1571.34 525.214  14
   6  -1 -10 839.600 417.242  13
  -6   1  10 380.096 227.519   2
  -6   1  10 1386.05 441.688  19
   6  -1  -9 3146.46 654.494   8
  -6   1   9 3377.97 734.783   4
  -6   1   9 3661.47 705.153  14
  -6   1   9 3681.57 621.278   2
   6  -1  -9 4286.31 797.050  13
  -6   1   9 4161.29 732.969  19
  -6   1   8 6245.79 948.314   4
  -6   1   8 5387.89 725.528   2
  -6   1   8 5894.56 880.067  14
   6  -1  -8 4357.43 764.010   8
   6  -1  -8 4527.80 813.590  13
  -6   1   8 6480.37 994.731  21
   6  -1  -7 1889.13 495.987   8
  -6   1   7 2060.54 595.986   4
  -6   1   7 1884.14 520.036  14
  -6   1   7 1404.85 369.366   2
   6  -1  -7 1795.91 534.769  13
  -6   1   7 3425.36 739.499  21
   6  -1  -6 1167.41 434.225   8
  -6   1   6 1687.59 533.898   4
  -6   1   6 740.874 310.487  14
   6  -1  -6 928.358 370.140  13
  -6   1   6 833.355 421.688  21
  -6   1   5 986.793 404.177   4
  -6   1   5 1299.72 472.763  14
   6  -1  -5 1970.02 479.429  13
  -6   1   5 1521.54 477.830  21
  -6   1   4 3398.99 686.235   4
  -6   1   4 2789.80 553.878  14
   6  -1  -4 3831.42 666.295  13
  -6   1   4 2909.40 618.899  21
  -6   1   3 922.612 357.471   4
  -6   1   3 2167.54 477.081  14
   6  -1  -3 2344.45 511.196  13
  -6   1   3 1630.89 487.703  21
  -6   1   2-153.025 222.121   4
  -6   1   2-53.0825 178.271  14
   6  -1  -2 501.152 292.094  13
  -6   1   2 143.292 213.181  21
  -6   1   1 98.4322 214.555   4
  -6   1   1 220.370 198.496  14
   6  -1  -1-59.9247 164.308  13
  -6   1   1-104.509 294.929  21
  -6   1   0 402.339 200.619   9
  -6   1   0 78.5654 234.039   4
  -6   1   0 542.547 266.659  14
   6  -1   0 556.302 309.605  13
  -6   1   0 457.333 306.806  21
  -6   1  -1 2401.82 432.452   9
  -6   1  -1 3705.54 670.306   4
  -6   1  -1 2017.73 490.110  14
   6  -1   1 3799.45 624.949  13
  -6   1  -1 3553.83 675.894  21
  -6   1  -2 796.030 282.777   9
  -6   1  -2 567.152 301.986   4
  -6   1  -2 682.572 294.430  14
   6  -1   2 1014.82 383.538  13
  -6   1  -2 1129.40 406.656  21
  -6   1  -3 505.616 251.659   9
  -6   1  -3 459.417 303.724   4
  -6   1  -3 682.001 294.160  14
   6  -1   3 526.294 282.895  13
  -6   1  -3 345.602 320.861  21
  -6   1  -4 987.640 302.768   9
  -6   1  -4 1213.63 481.675   4
   6  -1   4 841.719 372.924  15
  -6   1  -4 824.056 284.547  14
   6  -1   4 1946.87 473.694  13
  -6   1  -4 1802.95 529.305  21
  -6   1  -5 1268.12 385.169   9
  -6   1  -5 2747.20 615.703   4
   6  -1   5 1742.81 505.721  15
  -6   1  -5 1575.91 411.333  14
   6  -1   5 2539.17 529.299  13
  -6   1  -5 1655.55 531.754  21
  -6   1  -6 2237.82 499.736   9
  -6   1  -6 2776.98 720.996   4
   6  -1   6 3347.21 666.501  15
  -6   1  -6 2289.14 506.279  14
   6  -1   6 3322.47 579.847  13
  -6   1  -6 2619.91 620.079  21
  -6   1  -7 1967.94 478.549   9
  -6   1  -7 2171.41 557.008   4
   6  -1   7 2017.37 522.023  15
  -6   1  -7 1733.30 446.347  14
   6  -1   7 2160.96 482.755  13
  -6   1  -7 2426.81 611.368  21
  -6   1  -8 515.326 272.902   9
  -6   1  -8 683.638 377.636   4
   6  -1   8 524.198 308.881  15
  -6   1  -8 342.366 216.350  14
   6  -1   8 1334.24 389.105  13
  -6   1  -8 1003.91 462.064  21
  -6   1  -9 3317.81 618.190   9
   6  -1   9 5119.07 810.722  15
   6  -1   9 5585.43 789.047  13
  -6   1  -9 6466.14 1022.58  21
  -6   1  -9 5776.89 905.042   4
   6  -1  10 6797.23 944.257  15
   6  -1  10 6196.94 904.247   3
  -6   1 -10 7100.64 1063.56  21
  -6   1 -10 7145.06 1011.01   4
  -6   1 -10 4712.20 755.477   9
  -6   1 -11 381.382 257.331   9
   6  -1  11 364.151 298.863  15
   6  -1  11-27.2051 185.801   3
  -6   1 -12 212.568 304.461   9
  -6   0  13 577.999 348.593   2
   6   0 -12 902.683 403.127   8
  -6   0  12 1126.89 420.088   2
   6   0 -11 956.593 427.069   8
  -6   0  11 738.531 374.856  14
   6   0 -11 918.922 424.256  13
  -6   0  11 808.819 324.848   2
   6   0 -10-14.0263 238.238   8
  -6   0  10 976.699 430.830   4
  -6   0  10 870.521 375.551  14
   6   0 -10 571.582 334.345  13
  -6   0  10 130.102 223.986   2
   6   0  -9 193.230 194.803   8
  -6   0   9 1000.32 445.189   4
  -6   0   9 1007.23 439.901  14
  -6   0   9 1204.16 365.251   2
   6   0  -9 1452.90 471.473  13
  -6   0   9 822.409 302.304  19
   6   0  -8 166.412 226.774   8
  -6   0   8 252.053 253.446   4
  -6   0   8 281.517 299.198  14
  -6   0   8 605.693 283.272   2
   6   0  -8 251.307 222.259  13
  -6   0   8 592.328 402.889  21
  -6   0   8 217.906 246.714  19
   6   0  -7 598.444 321.003   8
  -6   0   7 57.6521 188.305   4
  -6   0   7-42.5268 256.525  14
  -6   0   7-93.9000 134.984   2
   6   0  -7 276.065 239.029  13
  -6   0   7 424.652 291.555  21
  -6   0   6 260.099 320.192   4
   6   0  -6 362.918 251.067   8
  -6   0   6 11.1131 230.803  14
  -6   0   6 401.997 251.227   2
   6   0  -6 555.359 327.918  13
  -6   0   6 647.679 360.324  21
  -6   0   5-57.6365 188.377   4
   6   0  -5-100.411 298.415   8
  -6   0   5-126.430 283.411  14
  -6   0   5 147.399 173.427   2
   6   0  -5-124.117 231.789  13
  -6   0   5 570.134 298.293  21
  -6   0   4 568.874 326.245   4
   6   0  -4 241.364 204.504   8
  -6   0   4 779.862 310.489  14
  -6   0   4 393.394 197.955   2
   6   0  -4 672.515 306.103  13
  -6   0   4 774.409 353.014  21
   6   0  -3 1209.91 395.749   8
  -6   0   3 1226.66 433.104   4
  -6   0   3 1160.09 359.106  14
  -6   0   3 974.301 307.132   2
   6   0  -3 1855.89 447.531  13
  -6   0   3 1629.24 480.042  21
  -6   0   2 453.339 324.978   4
  -6   0   2 435.545 238.930   2
  -6   0   2 1089.86 352.924  14
   6   0  -2 728.480 314.934  13
  -6   0   2 1059.17 411.474  21
  -6   0   1 3571.98 643.843   4
  -6   0   1 4047.21 634.792  14
   6   0  -1 3739.53 637.416  13
  -6   0   1 3785.71 704.753  21
  -6   0   1 3935.54 528.455   2
  -6   0   0 2381.31 553.262   4
  -6   0   0 3775.70 634.510  14
   6   0   0 4375.37 683.226  13
  -6   0   0 4060.64 710.964  21
  -6   0   0 3314.32 464.421   2
  -6   0  -1 2471.87 480.034  17
  -6   0  -1 1359.43 437.399   4
  -6   0  -1 1323.95 398.196  14
   6   0   1 2176.21 503.969  13
  -6   0  -1 1271.10 385.650  21
  -6   0  -2 2248.10 449.062  17
  -6   0  -2 1982.56 344.513   9
  -6   0  -2 1391.36 405.585   4
  -6   0  -2 2338.05 519.219  14
   6   0   2 1459.75 398.641  13
  -6   0  -2 1657.23 510.902  21
  -6   0  -3 1867.09 420.517  17
  -6   0  -3 1670.47 350.610   9
  -6   0  -3 2175.25 539.023   4
  -6   0  -3 1643.78 424.258  14
   6   0   3 2110.59 477.631  13
  -6   0  -3 921.907 346.270  21
  -6   0  -4 587.111 294.925  17
  -6   0  -4 354.348 181.167   9
  -6   0  -4 291.442 191.738   4
  -6   0  -4 541.620 271.299  14
   6   0   4 501.105 244.120  13
  -6   0  -4 336.116 265.516  21
  -6   0  -5 463.753 250.656  17
  -6   0  -5 218.821 155.286   9
  -6   0  -5 606.915 356.509   4
  -6   0  -5 348.783 265.649  14
   6   0   5-84.5697 189.520  13
  -6   0  -5 530.835 346.645  21
  -6   0  -6 225.258 214.189  17
  -6   0  -6 391.207 225.538   9
  -6   0  -6 259.903 245.168   4
   6   0   6 441.421 271.205  15
  -6   0  -6 327.085 236.648  14
   6   0   6 529.425 280.647  13
  -6   0  -6 319.172 312.366  21
  -6   0  -7 686.168 348.723  17
  -6   0  -7 405.201 233.116   9
  -6   0  -7 230.169 252.393   4
   6   0   7-53.2824 204.202  15
  -6   0  -7 430.049 231.524  14
   6   0   7 735.317 322.571  13
  -6   0  -7 37.1656 207.042  21
  -6   0  -8 251.990 219.755  17
  -6   0  -8-105.280 181.483   9
  -6   0  -8-52.6398 203.011   4
   6   0   8 185.065 190.364  15
  -6   0  -8-443.617 254.593  14
   6   0   8 214.896 211.449  13
  -6   0  -8 67.4636 224.515  21
  -6   0  -9 347.152 214.593  17
  -6   0  -9 92.2297 140.196   9
  -6   0  -9-57.3331 226.306   4
   6   0   9-9.76541 161.261  15
   6   0   9 110.922 200.070  13
  -6   0  -9 333.828 242.031  21
  -6   0 -10 587.902 308.414  17
  -6   0 -10 448.236 265.229   9
  -6   0 -10 750.839 386.301   4
   6   0  10 870.607 355.006  15
   6   0  10 740.617 335.011  13
  -6   0 -10 560.526 372.736  21
  -6   0 -11 2267.68 570.195  17
  -6   0 -11 585.076 295.682   9
  -6   0 -11 1714.82 495.821   4
   6   0  11 1267.84 431.300  15
   6   0  11 1326.96 459.640  13
  -6   0 -11 2903.27 692.520  21
   6   0  11 1570.91 470.949   3
   6   0  11 1573.16 465.129  11
  -6   0 -12 345.624 283.382  17
  -6   0 -12 221.856 213.806   9
  -6   0 -12 723.083 404.278   4
   6   0  12 617.353 343.786  15
   6   0  12 1046.37 378.670  13
  -6   0 -12 1385.59 512.123  21
   6   0  12 686.799 317.469   3
   6   0  12 841.406 370.220  11
  -6   0 -13 912.860 406.183  17
  -6   0 -13 329.110 247.032   9
   6   0  13 1144.59 428.462  15
   6   0  13 1073.30 407.898  13
   6   0  13 1105.86 395.620   3
   6   0  13 530.602 317.396  11
  -6   0 -14 465.699 319.335  17
  -6   0 -14 100.278 167.566   9
   6   0  14 134.839 207.375  15
   6   0  14 93.0323 183.397   3
  -6  -1  13 268.407 281.972   2
   6   1 -12 459.689 269.112   8
  -6  -1  12 312.515 267.774  14
  -6  -1  12 262.488 270.809   2
   6   1 -12 287.385 340.638  13
   6   1 -11 435.202 379.206   8
  -6  -1  11 437.752 316.016  14
  -6  -1  11 406.969 279.267   2
   6   1 -11 77.4774 203.026  13
   6   1 -10 1746.10 502.760   8
  -6  -1  10 1561.98 478.154  14
  -6  -1  10 1765.62 502.760   2
   6   1 -10 1724.08 506.081  13
  -6  -1   9 3511.27 659.912   4
   6   1  -9 2813.47 611.574   8
  -6  -1   9 2921.98 640.467  14
  -6  -1   9 2470.28 520.070   2
   6   1  -9 2886.28 625.075  13
  -6  -1   8 319.580 236.813   4
   6   1  -8 569.243 309.560   8
  -6  -1   8 940.694 369.147  14
  -6  -1   8 462.171 286.729   2
   6   1  -8 249.053 308.424  13
  -6  -1   8 337.334 354.603  21
  -6  -1   7 3503.09 667.900   4
   6   1  -7 2851.79 596.362   8
  -6  -1   7 3554.60 655.491  14
  -6  -1   7 3201.40 586.674   2
   6   1  -7 4359.32 739.690  13
  -6  -1   7 4845.36 828.205  21
  -6  -1   7 3303.69 514.348  19
  -6  -1   6 1414.31 421.063   4
   6   1  -6 580.451 260.538   8
  -6  -1   6 1018.34 366.544  14
  -6  -1   6 556.973 269.600   2
   6   1  -6 1279.35 426.036  13
  -6  -1   6 1370.07 458.685  21
  -6  -1   5-95.4910 185.644   4
   6   1  -5 276.699 232.743   8
  -6  -1   5 108.515 188.999  14
  -6  -1   5 212.921 167.449   2
   6   1  -5-24.3976 224.274  13
  -6  -1   5 193.852 261.354  21
  -6  -1   4 621.865 277.550   4
   6   1  -4 976.320 328.584   8
  -6  -1   4 1237.31 375.669  14
  -6  -1   4 757.711 295.334   2
   6   1  -4 859.496 331.514  13
  -6  -1   4 793.267 369.044  21
  -6  -1   3 1803.43 473.534   4
   6   1  -3 1973.13 494.574   8
  -6  -1   3 1614.10 417.635  14
  -6  -1   3 1593.96 399.214   2
   6   1  -3 1495.04 451.222  13
  -6  -1   3 2560.79 557.284  21
  -6  -1   2 2247.70 525.609   4
   6   1  -2 2880.24 562.219   8
  -6  -1   2 3497.90 538.446   2
  -6  -1   2 2311.43 469.036  14
   6   1  -2 3415.47 635.904  13
   6   1  -1 8309.93 930.515   8
  -6  -1   1 10465.0 989.268  14
   6   1  -1 10640.9 1058.17  13
  -6  -1   1 12146.7 1186.64  21
  -6  -1   1 10383.3 905.773   2
  -6  -1   1 10940.6 1035.40   4
  -6  -1   0 2.43995 203.290  17
   6   1   0 385.269 301.393   8
  -6  -1   0 333.057 282.584   4
  -6  -1   0 649.208 282.835   2
  -6  -1   0 271.676 268.913  14
   6   1   0 366.625 269.458  13
  -6  -1   0 225.402 326.336  21
  -6  -1  -1 3952.02 619.206  17
  -6  -1  -1 3778.99 621.911   4
  -6  -1  -1 3857.45 628.456  14
   6   1   1 4617.98 679.749  13
  -6  -1  -1 4789.00 725.833  21
  -6  -1  -1 4843.15 594.035   2
  -6  -1  -2 161.277 200.318  17
  -6  -1  -2 252.947 198.414   2
  -6  -1  -2 542.477 304.929   4
  -6  -1  -2 574.859 268.454  14
   6   1   2 546.659 283.869  13
  -6  -1  -2 81.9008 238.366  21
  -6  -1  -3 1895.65 449.963  17
  -6  -1  -3 2184.14 416.446   2
  -6  -1  -3 2519.51 528.649   4
  -6  -1  -3 2495.89 492.324  14
   6   1   3 2921.26 565.265  13
  -6  -1  -3 1780.29 488.797  21
  -6  -1  -4 4366.01 680.082  17
  -6  -1  -4 4960.84 687.275  14
   6   1   4 5129.10 730.829  13
  -6  -1  -4 4982.17 758.194  21
  -6  -1  -4 5993.70 795.232   4
  -6  -1  -4 3932.60 435.995   9
  -6  -1  -5 268.280 238.941  17
  -6  -1  -5 394.115 174.186   9
  -6  -1  -5 160.946 219.921   4
  -6  -1  -5 628.212 246.662  14
   6   1   5 449.021 314.793  13
  -6  -1  -5 553.705 359.213  21
  -6  -1  -6 1318.88 404.973  17
  -6  -1  -6 1342.70 301.796   9
  -6  -1  -6 1064.97 378.892   4
  -6  -1  -6 1287.08 369.389  14
   6   1   6 1615.80 452.038  13
  -6  -1  -6 1541.27 511.221  21
  -6  -1  -7 1560.84 479.923  17
  -6  -1  -7 688.342 225.497   9
  -6  -1  -7 637.066 291.948   4
   6   1   7 767.590 315.314  15
  -6  -1  -7 1064.52 393.864  14
   6   1   7 956.595 357.137  13
  -6  -1  -7 1204.52 430.758  21
  -6  -1  -8 1940.74 494.534  17
  -6  -1  -8 1234.66 315.208   9
  -6  -1  -8 1501.88 428.869   4
   6   1   8 1973.96 458.657  15
  -6  -1  -8 2266.67 509.059  14
   6   1   8 1814.09 532.388  13
  -6  -1  -8 2824.51 633.456  21
  -6  -1  -9 1456.27 427.999  17
  -6  -1  -9 446.830 222.299   9
  -6  -1  -9 1171.22 406.619   4
   6   1   9 929.877 363.002  15
  -6  -1  -9 869.594 368.547  14
   6   1   9 774.681 370.062  13
  -6  -1  -9 2164.78 545.999  21
  -6  -1 -10-24.4922 269.549  17
  -6  -1 -10 136.282 185.161   9
  -6  -1 -10 89.6571 170.653   4
   6   1  10-53.4625 157.009  15
   6   1  10 335.749 299.451  13
  -6  -1 -10-121.767 233.200  21
  -6  -1 -11 891.892 389.771  17
  -6  -1 -11 292.145 279.127   4
   6   1  11 527.881 289.423  15
   6   1  11 764.580 345.507  13
  -6  -1 -11 552.630 359.358  21
   6   1  11 588.281 334.137  11
  -6  -1 -11 379.589 244.211   9
  -6  -1 -12 1244.25 382.071  17
  -6  -1 -12 1676.29 494.208   4
   6   1  12 1341.15 390.144  15
   6   1  12 1370.29 481.607  13
  -6  -1 -12 1889.37 581.737  21
   6   1  12 1058.76 367.651   3
   6   1  12 1743.17 496.001  11
  -6  -1 -13 1777.34 563.113  17
  -6  -1 -13 1196.00 436.776   4
   6   1  13 1134.06 372.216  15
   6   1  13 927.207 392.191  13
  -6  -1 -13 1597.04 514.655  21
   6   1  13 865.550 344.691   3
   6   1  13 342.047 309.742  11
  -6  -1 -14 622.398 388.800  17
   6   1  14 561.847 382.286  13
   6   1  14 228.405 267.199  11
   6   1  15 209.584 226.894  13
  -6  -1 -15 351.569 290.154   1
   6   1  15 285.303 289.242  11
   6   1  16-134.560 202.278  13
   6   1  16 76.7604 188.809  11
  -6  -2  15 20.6100 222.450  20
  -6  -2  14-119.196 201.233  20
  -6  -2  13 125.610 191.644  14
   6   2 -13-198.305 328.138  13
  -6  -2  13 405.666 276.398  20
  -6  -2  12 502.254 327.340  14
   6   2 -12 871.764 399.599   8
  -6  -2  12 243.279 258.949   2
   6   2 -12 214.396 305.201  13
  -6  -2  12 553.357 276.159  20
  -6  -2  11 463.814 320.125  14
   6   2 -11 297.042 312.628   8
  -6  -2  11 997.778 384.737   2
   6   2 -11 581.722 372.544  13
  -6  -2  11 133.035 255.528  20
  -6  -2  10 533.922 273.878  14
   6   2 -10 256.176 252.232   8
  -6  -2  10 110.731 172.701   2
   6   2 -10-62.4611 245.631  13
  -6  -2  10 529.726 259.235  12
  -6  -2  10 389.211 244.306  20
  -6  -2   9 1233.64 410.775   4
  -6  -2   9 1395.95 445.012  14
   6   2  -9 1389.97 465.814   8
  -6  -2   9 1676.34 476.343   2
   6   2  -9 1828.76 507.805  13
  -6  -2   9 1370.42 369.771  12
  -6  -2   9 1823.48 461.058  20
  -6  -2   8 4197.64 693.870   4
  -6  -2   8 4035.96 705.053  14
   6   2  -8 4068.88 701.313   8
   6   2  -8 5402.88 813.905  13
  -6  -2   8 4118.91 605.167  12
  -6  -2   8 4313.76 716.740   2
  -6  -2   7 2620.35 532.255   4
  -6  -2   7 2774.42 585.753  14
   6   2  -7 2561.01 569.604   8
  -6  -2   7 2799.12 566.383   2
   6   2  -7 3125.79 655.109  13
  -6  -2   7 3456.76 665.890  21
  -6  -2   6 2648.99 543.440   4
  -6  -2   6 1649.80 465.099  14
   6   2  -6 2546.37 543.118   8
  -6  -2   6 2076.26 489.208   2
   6   2  -6 3044.10 589.240  13
  -6  -2   6 3286.92 666.664  21
  -6  -2   5 2460.53 532.036   4
  -6  -2   5 1947.86 474.016  14
   6   2  -5 1596.44 463.794   8
  -6  -2   5 2444.59 508.375   2
   6   2  -5 2144.78 518.604  13
  -6  -2   5 2164.21 529.646  21
  -6  -2   4 1492.32 419.889   4
   6   2  -4 1572.88 469.722   8
  -6  -2   4 999.185 380.639  14
  -6  -2   4 1455.05 402.137   2
   6   2  -4 2061.97 491.226  13
  -6  -2   4 2577.92 539.387  21
  -6  -2   3 928.082 348.411   4
   6   2  -3 844.194 333.934   8
  -6  -2   3 993.476 331.179  14
  -6  -2   3 819.953 310.413   2
   6   2  -3 986.305 350.740  13
  -6  -2   3 963.944 359.604  21
  -6  -2   2 1212.11 392.475   4
  -6  -2   2 1279.09 360.519   2
   6   2  -2 1274.05 375.666   8
  -6  -2   2 1801.04 433.973  14
   6   2  -2 1673.32 451.534  13
  -6  -2   2 2742.22 537.848  21
  -6  -2   1 929.419 339.037   4
  -6  -2   1 1722.11 398.063   2
   6   2  -1 2492.55 504.609   8
  -6  -2   1 1390.95 385.058  14
   6   2  -1 1841.21 445.620  13
  -6  -2   1 1037.35 335.268  21
   6   2   0 6066.20 729.774   8
  -6  -2   0 5411.41 702.537  14
   6   2   0 6262.48 776.163  13
  -6  -2   0 6531.78 841.810  21
  -6  -2   0 5742.34 740.989   2
  -6  -2   0 6057.69 741.157   4
  -6  -2   0 7145.96 899.421  17
  -6  -2  -1-16.9343 239.587  17
  -6  -2  -1 329.636 246.800   2
  -6  -2  -1 86.3397 196.687   4
   6   2   1 56.6198 156.625   8
  -6  -2  -1 153.140 242.377  14
   6   2   1-12.1530 199.648  13
  -6  -2  -1-259.918 253.339  21
  -6  -2  -2 712.158 322.496  17
  -6  -2  -2 102.056 191.082   2
   6   2   2 392.916 166.208   8
  -6  -2  -2 401.308 249.641   4
  -6  -2  -2 969.359 354.029  14
   6   2   2 761.216 306.173  13
  -6  -2  -2 414.945 277.400  21
  -6  -2  -3 249.793 199.668  17
  -6  -2  -3 374.931 260.460   2
  -6  -2  -3-109.915 234.517   4
  -6  -2  -3 146.375 183.461  14
   6   2   3 20.3008 208.407  13
  -6  -2  -3 227.484 234.572  21
  -6  -2  -4 798.972 331.521  17
  -6  -2  -4 1567.54 398.196   4
  -6  -2  -4 1260.79 335.759  14
   6   2   4 1963.38 483.305  13
  -6  -2  -4 2015.61 493.985  21
  -6  -2  -5 1600.49 476.420  17
  -6  -2  -5 720.050 326.493   4
  -6  -2  -5 880.711 284.955  14
   6   2   5 707.832 337.815  13
  -6  -2  -5 1061.92 389.572  21
  -6  -2  -6 3287.90 650.222  17
  -6  -2  -6 3044.36 559.835   4
  -6  -2  -6 3591.24 594.437  14
   6   2   6 3766.57 663.570  13
  -6  -2  -6 4707.83 749.196  21
  -6  -2  -7 1787.07 480.190  17
  -6  -2  -7 1684.30 436.758   4
  -6  -2  -7 2105.15 465.551  14
   6   2   7 1722.95 459.272  13
  -6  -2  -7 1900.30 539.820  21
  -6  -2  -8 2060.85 509.195  17
  -6  -2  -8 1977.79 444.070   4
   6   2   8 1404.24 371.405  15
  -6  -2  -8 1578.95 445.643  14
   6   2   8 1801.98 504.315  13
  -6  -2  -8 2414.32 579.562  21
  -6  -2  -9 3237.09 676.224  17
  -6  -2  -9 3880.63 663.160   4
   6   2   9 3639.31 575.567  15
   6   2   9 3061.81 646.521  13
  -6  -2  -9 4106.06 780.283  21
  -6  -2 -10 1882.35 505.134  17
  -6  -2 -10 995.324 378.501   4
   6   2  10 1707.35 417.721  15
   6   2  10 1175.74 435.026  13
  -6  -2 -10 575.641 234.988   1
  -6  -2 -10 972.509 314.396  12
  -6  -2 -10 1700.09 501.380  21
  -6  -2 -11 688.223 390.283  17
  -6  -2 -11 797.778 359.309   4
   6   2  11 1315.59 366.859  15
   6   2  11 1209.80 413.176  13
  -6  -2 -11 738.508 291.987   1
  -6  -2 -11 751.019 311.039  12
  -6  -2 -11 1276.51 446.247  21
   6   2  11 788.244 385.177  11
  -6  -2 -12 1993.61 531.818  17
  -6  -2 -12 1256.27 422.884   4
  -6  -2 -12 658.448 274.186   1
   6   2  12 1190.10 359.532  15
   6   2  12 1417.89 441.475  13
  -6  -2 -12 1597.33 382.403  12
  -6  -2 -12 2661.84 604.210  21
   6   2  12 1134.82 453.842  11
  -6  -2 -13 1049.40 403.845  17
  -6  -2 -13 1174.27 419.941   4
   6   2  13 1489.83 476.662  13
  -6  -2 -13 765.323 295.780  12
  -6  -2 -13 1645.65 506.298  21
  -6  -2 -13 932.364 320.032   1
   6   2  13 539.165 307.744  11
  -6  -2 -14 227.003 253.649   4
  -6  -2 -14-132.257 204.471   1
   6   2  14 795.779 355.080  13
  -6  -2 -14 430.862 347.927  21
   6   2  14 548.182 311.825  11
  -6  -2 -15 411.006 340.458  17
  -6  -2 -15 308.647 280.346   1
   6   2  15 4.61210 173.297  11
   6   2  16 471.461 358.899  11
  -6  -2 -16-297.790 252.638   1
  -6  -3  13 347.729 192.832  14
   6   3 -13-57.2412 245.154  13
  -6  -3  13 244.682 210.971  20
  -6  -3  12 913.344 396.846  14
   6   3 -12 624.376 371.840   8
  -6  -3  12 900.058 388.798   2
   6   3 -12 768.034 401.541  13
  -6  -3  12 933.806 372.434  20
  -6  -3  11 536.856 327.284  14
   6   3 -11 852.544 351.407   8
  -6  -3  11 218.643 301.653   2
   6   3 -11 772.396 377.672  13
  -6  -3  11 596.304 278.778  20
  -6  -3  10 358.396 249.870  14
   6   3 -10 301.356 241.702   8
  -6  -3  10 265.515 227.604   2
   6   3 -10 89.6342 208.144  13
  -6  -3  10 19.8158 152.694  12
  -6  -3  10 55.2930 176.186  20
  -6  -3   9 370.301 244.934   4
  -6  -3   9 333.394 267.951  14
   6   3  -9 659.951 337.991   8
  -6  -3   9-211.238 230.989   2
   6   3  -9-288.061 266.459  13
  -6  -3   9 27.2848 177.249  12
  -6  -3   9-474.095 275.502  20
  -6  -3   8 705.158 294.718   4
  -6  -3   8 810.096 322.939  14
   6   3  -8 683.015 334.474   8
  -6  -3   8 296.516 279.507   2
   6   3  -8 1043.72 389.926  13
  -6  -3   8 100.704 151.309  12
  -6  -3   8 84.6217 190.344  20
  -6  -3   7 1944.62 447.756   4
  -6  -3   7 1746.66 453.828  14
   6   3  -7 2169.39 502.781   8
  -6  -3   7 2139.96 537.500   2
   6   3  -7 2483.80 546.383  13
  -6  -3   7 1521.16 373.821  12
  -6  -3   6 1475.48 412.923   4
  -6  -3   6 1217.55 357.582  14
   6   3  -6 1177.70 366.088   8
  -6  -3   6 1221.23 388.320   2
   6   3  -6 1930.68 502.984  13
  -6  -3   6 1167.72 350.707  12
  -6  -3   6 879.347 347.105  21
  -6  -3   5 3.06955 165.561   4
  -6  -3   5-77.7360 179.797  14
   6   3  -5 379.147 237.021   8
  -6  -3   5 69.3180 171.094   2
   6   3  -5 465.532 277.723  13
  -6  -3   5 455.408 230.278  12
  -6  -3   5-7.11898 207.481  21
  -6  -3   4 658.960 263.677   4
  -6  -3   4 114.957 162.773  14
  -6  -3   4 516.823 232.641   2
   6   3  -4 132.098 204.350   8
   6   3  -4 467.316 290.375  13
  -6  -3   4 468.071 262.037  12
  -6  -3   4 522.954 269.743  21
  -6  -3   3 102.994 146.793   4
  -6  -3   3 327.835 238.212   2
  -6  -3   3 87.8055 165.119  14
   6   3  -3-261.929 230.859   8
   6   3  -3 190.278 224.938  13
  -6  -3   3 42.2603 169.176  12
  -6  -3   3 80.6864 159.773  21
  -6  -3   2 519.212 231.618   4
  -6  -3   2 43.0729 226.503   2
  -6  -3   2-172.183 300.299  14
   6   3  -2 503.363 276.497   8
   6   3  -2 239.327 229.870  13
  -6  -3   2 861.065 317.114  12
  -6  -3   2 1028.81 327.242  21
  -6  -3   1 3203.64 489.947   4
  -6  -3   1 3070.38 540.444   2
  -6  -3   1 3203.14 551.308  14
   6   3  -1 3084.48 549.267   8
   6   3  -1 3075.41 558.201  13
  -6  -3   1 3752.13 619.152  12
  -6  -3   1 4411.64 651.651  21
   6   3   0 9658.89 876.467   8
  -6  -3   0 9979.58 937.416  14
   6   3   0 9697.63 980.172  13
  -6  -3   0 11397.0 998.016  12
  -6  -3   0 9845.22 962.101  21
  -6  -3   0 10833.2 1011.02   2
  -6  -3   0 8393.14 795.639   4
  -6  -3   0 8239.52 1004.53  17
   6   3   1 7748.02 772.208   8
  -6  -3  -1 8973.83 880.700  14
   6   3   1 7887.37 883.006  13
  -6  -3  -1 8852.50 890.462  12
  -6  -3  -1 7251.18 813.021  21
  -6  -3  -1 8245.11 887.980   2
  -6  -3  -1 7762.06 778.600   4
  -6  -3  -1 6315.06 910.274  17
   6   3   2 8664.33 780.709   8
  -6  -3  -2 9841.53 953.269  14
   6   3   2 10282.2 1039.00  13
  -6  -3  -2 10900.7 979.644  12
  -6  -3  -2 9671.47 936.762  21
  -6  -3  -2 8532.02 963.262   2
  -6  -3  -2 9963.07 903.543   4
  -6  -3  -2 10704.3 1095.70  17
   6   3   3 20195.3 1175.31   8
  -6  -3  -3 26335.4 1510.33  14
   6   3   3 25279.6 1587.01  13
  -6  -3  -3 24605.3 1449.39  12
  -6  -3  -3 26482.7 1526.29  21
  -6  -3  -3 24875.8 1560.99   2
  -6  -3  -3 23277.6 1393.06   4
  -6  -3  -3 25299.8 1678.95  17
  -6  -3  -4 2794.94 596.138  17
  -6  -3  -4 2389.05 523.720   2
  -6  -3  -4 2713.12 503.916   4
   6   3   4 1797.10 349.605   8
  -6  -3  -4 2779.97 529.558  14
   6   3   4 3446.66 663.518  13
  -6  -3  -4 3080.24 550.461  12
  -6  -3  -4 2634.63 521.487  21
  -6  -3  -5-318.160 388.293  17
  -6  -3  -5 342.514 191.125   4
  -6  -3  -5 373.691 234.965  14
   6   3   5 48.5278 193.963  13
  -6  -3  -5 359.872 256.555  12
  -6  -3  -5 216.569 111.932   1
  -6  -3  -5-277.142 267.086  21
  -6  -3  -6 1081.93 431.316  17
  -6  -3  -6 460.839 245.036   4
  -6  -3  -6 237.556 226.383  14
   6   3   6 379.868 267.271  13
  -6  -3  -6 473.514 293.750  12
  -6  -3  -6 441.433 306.197  21
  -6  -3  -6 424.035 168.765   1
  -6  -3  -7 251.905 271.463  17
  -6  -3  -7 270.762 207.031   4
  -6  -3  -7 392.387 170.457   1
  -6  -3  -7 403.250 294.330  14
   6   3   7 672.281 305.984  13
  -6  -3  -7 317.571 280.023  12
  -6  -3  -7 358.628 321.713  21
  -6  -3  -8 2152.50 520.492  17
  -6  -3  -8 2546.00 509.035   4
  -6  -3  -8 1732.36 342.253   1
  -6  -3  -8 2298.31 511.213  14
   6   3   8 1795.20 492.088  13
  -6  -3  -8 1731.87 397.984  12
  -6  -3  -8 2177.55 512.236  21
  -6  -3  -9 1029.34 439.374  17
  -6  -3  -9 1158.17 371.382   4
   6   3   9 1348.15 348.183  15
  -6  -3  -9 986.543 275.547   1
   6   3   9 1572.18 477.967  13
  -6  -3  -9 1613.65 404.342  12
  -6  -3  -9 1133.30 376.099  21
  -6  -3 -10 1705.17 522.415  17
  -6  -3 -10 1305.12 416.413   4
   6   3  10 1109.42 315.297  15
  -6  -3 -10 1256.71 341.507   1
   6   3  10 1842.79 525.448  13
  -6  -3 -10 1148.36 334.048  12
  -6  -3 -10 967.511 390.195  21
   6   3  10 1198.49 392.521  11
   6   3  11 7173.67 935.093  13
  -6  -3 -11 4448.32 631.571   1
  -6  -3 -11 4652.65 647.667  12
  -6  -3 -11 7021.99 925.114  21
   6   3  11 5527.92 787.404  19
   6   3  11 4696.10 777.556  11
  -6  -3 -11 4677.32 751.790   4
  -6  -3 -11 5891.52 884.200  17
  -6  -3 -12 569.004 300.746  17
  -6  -3 -12-151.753 272.042   4
  -6  -3 -12 9.19795 191.525   1
  -6  -3 -12 341.882 197.886  12
  -6  -3 -12 635.886 387.914  21
   6   3  12-422.621 281.580  11
   6   3  12 678.873 309.883  19
  -6  -3 -13 1172.71 417.135  17
  -6  -3 -13 447.990 300.905   4
  -6  -3 -13 381.165 253.679   1
  -6  -3 -13 389.760 213.966  12
  -6  -3 -13 389.377 281.498  21
   6   3  13 431.714 312.912  11
   6   3  13 978.036 377.646  19
  -6  -3 -14-390.942 348.098  17
  -6  -3 -14 104.177 203.581   4
  -6  -3 -14 336.919 287.943   1
  -6  -3 -14-167.930 265.466  21
   6   3  14-137.834 223.749  11
   6   3  14-340.610 301.414  19
  -6  -3 -15-194.264 259.377  17
  -6  -3 -15 76.8801 202.752   4
  -6  -3 -15-123.279 265.226   1
  -6  -3 -15-344.684 317.473  21
   6   3  15 404.488 328.056  11
   6   3  15 201.733 288.741  19
  -6  -3 -16 887.505 356.473   1
   6   3  16 574.956 364.842  11
  -6  -3 -17 365.746 329.382   1
  -6  -4  14 473.869 311.665  14
  -6  -4  13 432.576 278.753  14
   6   4 -13 60.6367 202.810  13
  -6  -4  12 1228.88 438.581  14
   6   4 -12 310.769 299.885  13
  -6  -4  12 741.719 411.951  20
  -6  -4  11 1444.45 455.930  14
   6   4 -11 1659.55 503.190   8
  -6  -4  11 2012.16 576.971   2
   6   4 -11 2051.34 549.786  13
  -6  -4  11 1262.57 455.216  20
  -6  -4  10-8.14299 187.599  14
   6   4 -10 466.073 316.136   8
  -6  -4  10 324.748 267.087   2
   6   4 -10-168.833 250.561  13
  -6  -4  10 239.167 222.083  12
  -6  -4   9-154.342 192.074  14
   6   4  -9-252.255 261.141   8
  -6  -4   9 438.683 295.252   2
   6   4  -9 243.229 247.258  13
  -6  -4   9-19.9830 164.827  12
  -6  -4   9-44.4352 230.654  20
  -6  -4   8-29.7917 126.950   4
  -6  -4   8-164.973 217.191  14
   6   4  -8 50.8534 238.779   8
  -6  -4   8 235.571 244.263   2
   6   4  -8 37.0598 187.072  13
  -6  -4   8 337.646 218.854  12
  -6  -4   8-56.4007 188.053  20
  -6  -4   7 318.771 191.051   4
  -6  -4   7 67.5920 160.756  14
  -6  -4   7 508.634 240.858   2
   6   4  -7-67.3904 209.738   8
   6   4  -7 491.426 316.081  13
  -6  -4   7 395.837 289.023  12
  -6  -4   7 429.667 254.285  20
  -6  -4   6 848.055 288.581   4
  -6  -4   6 571.979 235.042  14
  -6  -4   6 677.830 280.830   2
   6   4  -6 693.612 312.054   8
   6   4  -6 493.406 274.502  13
  -6  -4   6 825.661 302.176  12
  -6  -4   5 211.936 177.128   4
  -6  -4   5 42.7785 218.642  14
  -6  -4   5-207.794 295.762   2
   6   4  -5-174.274 257.014   8
   6   4  -5 369.341 270.846  13
  -6  -4   5 257.006 192.335  12
  -6  -4   4 289.666 188.680   4
  -6  -4   4-47.2538 191.322   2
  -6  -4   4 139.117 208.285  14
   6   4  -4 360.751 248.242   8
   6   4  -4 68.3499 171.399  13
  -6  -4   4 423.372 265.844  12
  -6  -4   4 178.818 218.658  21
  -6  -4   3 71.7945 123.038   4
  -6  -4   3 1.99436 177.134   2
  -6  -4   3-52.8969 172.124  14
   6   4  -3 111.955 210.992   8
   6   4  -3-145.459 169.930  13
  -6  -4   3 216.754 206.069  12
  -6  -4   3 120.536 173.837  21
  -6  -4   2-40.1910 156.920   4
  -6  -4   2 154.315 180.244   2
  -6  -4   2 117.430 184.658  14
   6   4  -2 40.8124 202.293   8
   6   4  -2 71.6745 189.312  13
  -6  -4   2 274.592 226.004  12
  -6  -4   2 222.954 174.205  21
   6   4  -2 220.028 124.345  18
  -6  -4   1 577.138 192.572   4
  -6  -4   1 1353.38 417.040   2
  -6  -4   1 1140.45 334.790  14
   6   4  -1 1078.50 325.445   8
   6   4  -1 1810.81 469.483  13
  -6  -4   1 1793.33 409.520  12
   6   4  -1 448.649 139.353   6
  -6  -4   1 790.836 292.321  21
   6   4  -1 1134.66 237.029  18
   6   4   0 7872.92 765.735   8
  -6  -4   0 8894.86 874.241  14
   6   4   0 8986.22 920.992  13
   6   4   0 10622.9 961.480   7
  -6  -4   0 9037.46 919.340  12
   6   4   0 7685.73 632.241   6
  -6  -4   0 9584.01 882.474  21
  -6  -4   0 9462.24 971.364   2
   6   4   0 8185.70 694.504  18
  -6  -4   0 8095.18 739.130   4
  -6  -4   0 8546.58 968.899  17
   6   4   1 16758.3 1075.15   8
  -6  -4  -1 17768.1 1247.46  14
   6   4   1 17128.8 1296.27  13
   6   4   1 18661.7 1319.33   7
  -6  -4  -1 17577.8 1254.33  12
   6   4   1 16628.5 925.327   6
  -6  -4  -1 15919.6 1126.52  21
  -6  -4  -1 17595.2 1334.86   2
   6   4   1 15578.7 999.737  18
  -6  -4  -1 16855.3 1089.22   4
  -6  -4  -1 17207.3 1396.77  17
   6   4   2 12999.5 939.278   8
  -6  -4  -2 14933.8 1162.83  14
   6   4   2 15467.1 1253.83  13
   6   4   2 15528.5 1173.05   7
  -6  -4  -2 16666.6 1221.23  12
   6   4   2 14742.8 883.380   6
  -6  -4  -2 14379.6 1068.06  21
  -6  -4  -2 13002.4 1219.73   2
  -6  -4  -2 14453.8 1016.23   4
  -6  -4  -2 17408.8 1390.11  17
   6   4   3 33388.4 1463.19   8
  -6  -4  -3 42958.0 1934.58  14
   6   4   3 39551.2 2039.71  13
   6   4   3 41704.0 1927.87   7
  -6  -4  -3 39289.3 1885.39  12
  -6  -4  -3 40106.2 1829.98  21
  -6  -4  -3 39255.2 2026.53   2
  -6  -4  -3 40102.4 1734.64   4
  -6  -4  -3 43965.9 2199.03  17
   6   4   4 12944.8 854.378   8
  -6  -4  -4 17284.5 1241.89  14
   6   4   4 16309.4 1324.76  13
   6   4   4 18623.6 1279.98   7
  -6  -4  -4 15524.9 1201.60  12
  -6  -4  -4 15793.2 1128.64  21
  -6  -4  -4 16481.0 1335.53   2
  -6  -4  -4 17931.0 1130.32   4
  -6  -4  -4 15387.7 1346.12  17
  -6  -4  -5-1109.76 552.526  17
  -6  -4  -5-35.7742 175.840   4
   6   4   5-43.6462 121.345   8
  -6  -4  -5 183.529 195.910  14
   6   4   5-105.623 204.722  13
   6   4   5 631.948 339.070   7
  -6  -4  -5 354.839 251.543  12
  -6  -4  -5-1582.32 392.583  21
  -6  -4  -6 36.3601 166.522   4
  -6  -4  -6-196.632 218.120  14
   6   4   6-41.6915 193.580  13
   6   4   6 271.182 178.194   7
  -6  -4  -6 299.729 227.332  12
  -6  -4  -6 84.0045 210.909  21
  -6  -4  -7 78.6746 203.106  17
  -6  -4  -7 405.558 221.088   4
  -6  -4  -7-37.3492 235.271  14
   6   4   7-30.9894 190.950  13
   6   4   7 586.099 227.381   7
  -6  -4  -7 27.7851 179.640  12
  -6  -4  -7 133.116 206.596  21
  -6  -4  -7 423.209 196.600   1
  -6  -4  -8 910.489 353.938  17
  -6  -4  -8 1240.39 297.184   1
  -6  -4  -8 1316.76 343.386   4
   6   4   8 1005.08 345.729  13
   6   4   8 1409.52 380.376   7
  -6  -4  -8 1113.61 364.090  12
  -6  -4  -8 1366.61 378.323  21
   6   4   8 1168.88 324.526  19
  -6  -4  -9 697.460 368.320  17
  -6  -4  -9 45.3721 164.982   4
  -6  -4  -9 286.052 194.233   1
   6   4   9 779.871 365.170  13
   6   4   9 775.737 294.302   7
  -6  -4  -9 319.144 249.572  12
  -6  -4  -9 436.789 265.014  21
   6   4   9 510.640 307.297  11
   6   4   9 288.104 197.493  19
  -6  -4 -10 2972.84 662.793  17
  -6  -4 -10 2898.87 536.478   4
  -6  -4 -10 2537.08 454.403   1
   6   4  10 3204.63 558.700   7
  -6  -4 -10 2400.76 483.389  12
  -6  -4 -10 3953.53 656.303  21
   6   4  10 2984.09 607.364  11
   6   4  10 2236.60 475.222  19
  -6  -4 -11 3530.24 702.036  17
  -6  -4 -11 4053.37 656.688   4
  -6  -4 -11 3319.49 529.215   1
   6   4  11 3213.57 567.672   7
  -6  -4 -11 3036.03 557.633  12
  -6  -4 -11 4443.77 716.250  21
   6   4  11 3843.02 699.471  11
   6   4  11 3395.82 614.451  19
  -6  -4 -12 1073.38 446.958  17
  -6  -4 -12 1727.97 436.943   4
  -6  -4 -12 1022.91 318.618   1
   6   4  12 929.909 371.144   7
  -6  -4 -12 1221.25 410.153  12
  -6  -4 -12 825.558 346.413  21
   6   4  12 1045.89 406.227  11
   6   4  12 771.775 335.365  19
  -6  -4 -13 636.374 359.802  17
  -6  -4 -13 831.119 358.514   4
  -6  -4 -13 1115.82 352.495   1
   6   4  13 487.780 257.280   7
  -6  -4 -13 1298.75 394.002  12
  -6  -4 -13 908.634 329.879  21
   6   4  13 328.867 254.990  11
   6   4  13 847.905 354.772  19
  -6  -4 -14 111.600 319.535  17
  -6  -4 -14 145.485 213.623   4
  -6  -4 -14-103.074 204.555   1
   6   4  14 248.825 216.502   7
  -6  -4 -14-40.2126 201.190  21
   6   4  14-395.473 287.419  11
   6   4  14-56.1126 170.209  19
  -6  -4 -15 528.437 381.872  17
  -6  -4 -15 394.070 307.285   4
  -6  -4 -15 374.987 247.591   1
   6   4  15 11.9549 156.841   7
  -6  -4 -15 139.643 216.924  21
   6   4  15 53.7436 200.249  11
   6   4  15 531.796 284.488  19
  -6  -4 -16 2156.99 583.672   4
  -6  -4 -16 1723.35 487.244   1
  -6  -4 -16 3696.01 729.781  21
   6   4  16 3205.22 711.428  19
  -6  -4 -17 998.612 400.218   1
  -6  -5  10 1386.85 405.025  14
  -6  -5  10 1816.82 538.416   2
   6   5 -10 1343.02 435.444   8
   6   5 -10 1431.11 457.588  13
  -6  -5  10 1190.17 475.986  20
  -6  -5   9-144.464 193.909  14
  -6  -5   9 58.1407 251.190   2
   6   5  -9 116.433 234.737   8
   6   5  -9 16.8503 179.919  13
  -6  -5   9 291.967 209.442  12
  -6  -5   9 41.4517 247.064  20
  -6  -5   8 1055.58 339.783  14
  -6  -5   8 1069.46 406.194   2
   6   5  -8 1205.93 400.345   8
   6   5  -8 941.630 363.746  13
  -6  -5   8 795.036 321.338  12
  -6  -5   8 863.213 409.929  20
   6   5  -7 4516.31 712.818   8
  -6  -5   7 4372.47 635.558  14
  -6  -5   7 4330.35 777.348   2
   6   5  -7 4646.72 724.709  13
  -6  -5   7 4331.02 670.213  12
  -6  -5   6 4210.04 641.725  14
  -6  -5   6 2266.48 557.494   2
   6   5  -6 2977.51 564.564   8
   6   5  -6 3685.82 649.791  13
  -6  -5   6 3388.54 581.278  12
  -6  -5   5 220.703 316.221   2
  -6  -5   5 566.768 310.271  14
   6   5  -5 316.529 270.899   8
   6   5  -5 423.475 260.709  13
  -6  -5   5 487.335 283.358  12
  -6  -5   4 260.073 257.094   2
  -6  -5   4 566.529 308.481  14
   6   5  -4 193.284 155.122   8
   6   5  -4 1080.26 361.160  13
  -6  -5   4 654.986 286.847  12
  -6  -5   3 1478.26 485.519   2
  -6  -5   3 1257.15 321.204  14
   6   5  -3 1319.37 355.599   8
   6   5  -3 1953.97 485.446  13
   6   5  -3 1517.27 388.189   7
  -6  -5   3 1522.18 400.717  12
  -6  -5   2 8.80838 193.116   2
  -6  -5   2 526.629 260.728  14
   6   5  -2 475.305 231.576   8
   6   5  -2 269.200 222.276  13
   6   5  -2 490.574 263.866   7
  -6  -5   2 311.599 273.586  12
   6   5  -2 216.069 171.377   6
  -6  -5   2 576.317 275.457  21
   6   5  -2 920.565 267.495  18
  -6  -5   1 384.798 179.831   4
  -6  -5   1 465.608 292.811   2
  -6  -5   1 43.2218 146.915  14
   6   5  -1 364.392 232.524   8
   6   5  -1 1.60119 191.983  13
   6   5  -1 148.181 161.928   7
  -6  -5   1 363.114 257.919  12
   6   5  -1 128.035 158.216   6
  -6  -5   1 225.199 138.566  21
   6   5  -1 399.882 198.369  18
  -6  -5   0 418.889 204.539   4
  -6  -5   0 768.690 326.878   2
  -6  -5   0 550.634 249.980  14
   6   5   0 284.350 156.834   8
   6   5   0 677.910 331.068  13
   6   5   0 684.375 301.806   7
  -6  -5   0 354.966 259.306  12
   6   5   0 583.159 247.984   6
  -6  -5   0 317.946 215.165  21
   6   5   0 719.586 269.313  18
  -6  -5  -1 1812.43 484.257  17
  -6  -5  -1 1732.30 345.044   4
  -6  -5  -1 1724.37 449.590   2
  -6  -5  -1 1392.91 373.586  14
   6   5   1 1379.88 305.126   8
   6   5   1 1927.09 466.354  13
   6   5   1 1577.92 419.492   7
  -6  -5  -1 1681.63 403.704  12
   6   5   1 1537.65 350.779   6
  -6  -5  -1 2094.45 395.306  21
   6   5   1 2228.66 420.970  18
  -6  -5  -2 282.697 238.361  17
  -6  -5  -2 311.573 180.760   4
  -6  -5  -2 283.200 252.307   2
  -6  -5  -2 335.984 180.778  14
   6   5   2-96.0979 146.911   8
   6   5   2 360.930 275.164  13
   6   5   2 447.833 208.776   7
  -6  -5  -2-413.810 271.758  12
   6   5   2 268.481 195.258   6
  -6  -5  -2 390.685 214.511  21
   6   5   2 563.928 231.715  18
  -6  -5  -3 533.169 297.352  17
  -6  -5  -3 259.495 168.689   4
  -6  -5  -3 612.495 325.953   2
  -6  -5  -3 31.1910 167.099  14
   6   5   3 23.2677 131.824   8
   6   5   3 375.002 332.081  13
   6   5   3 589.159 266.288   7
  -6  -5  -3 11.3229 192.836  12
   6   5   3 325.684 192.331   6
  -6  -5  -3 312.364 163.029  21
   6   5   3 46.5442 178.631  18
  -6  -5  -4 163.868 260.129  17
  -6  -5  -4 718.599 216.503   4
  -6  -5  -4 733.730 298.884  14
   6   5   4 391.861 185.705   8
   6   5   4 334.336 304.811  13
   6   5   4 893.908 321.631   7
  -6  -5  -4 804.862 263.537  12
  -6  -5  -4 900.668 273.827  21
   6   5   4 931.439 293.828   6
  -6  -5  -4 801.338 355.165   2
   6   5   4 770.717 269.590  18
  -6  -5  -5 149.314 199.235  17
  -6  -5  -5 115.183 156.621   4
  -6  -5  -5-69.4238 181.512  14
   6   5   5 275.855 264.722  13
   6   5   5 509.327 247.481   7
  -6  -5  -5 192.375 243.492  12
  -6  -5  -5 372.603 173.655  21
   6   5   5 407.091 208.067  18
  -6  -5  -6 203.790 236.660  17
  -6  -5  -6-84.7140 190.186   4
  -6  -5  -6 96.0687 176.165  14
   6   5   6 527.130 288.777  13
   6   5   6 312.392 258.914   7
  -6  -5  -6 231.642 199.786  12
  -6  -5  -6 399.364 212.578  21
   6   5   6 462.053 264.199  18
  -6  -5  -7 241.131 222.691  17
  -6  -5  -7 287.924 206.926   4
   6   5   7 860.256 348.000  13
   6   5   7 894.690 325.000   7
  -6  -5  -7 186.614 213.549  12
  -6  -5  -7 555.182 231.152  21
   6   5   7 521.784 241.208  19
   6   5   7 315.551 182.078  18
  -6  -5  -8 363.279 292.538  17
  -6  -5  -8 207.767 195.721   4
   6   5   8-7.57122 205.799  13
   6   5   8 813.831 318.855   7
  -6  -5  -8 579.193 290.284  12
  -6  -5  -8 424.052 254.400  21
   6   5   8 79.2966 219.070  11
   6   5   8 181.525 168.892  19
  -6  -5  -9 2158.82 513.735  17
  -6  -5  -9 2694.89 474.093   4
   6   5   9 2854.24 576.964  13
   6   5   9 1917.41 438.690   7
  -6  -5  -9 1406.52 346.289   1
  -6  -5  -9 1897.22 497.060  12
  -6  -5  -9 2220.38 451.727  21
   6   5   9 2370.40 551.477  11
   6   5   9 1322.93 386.480  19
  -6  -5 -10 1152.20 430.810  17
  -6  -5 -10 1076.39 345.433   4
   6   5  10 1357.08 356.202   7
  -6  -5 -10 623.546 345.649  12
  -6  -5 -10 959.918 290.665   1
  -6  -5 -10 1114.66 351.839  21
   6   5  10 568.468 296.743  11
   6   5  10 598.820 273.555  19
  -6  -5 -11 1859.61 546.047  17
  -6  -5 -11 1656.70 408.657   4
   6   5  11 2579.19 522.984   7
  -6  -5 -11 2322.59 499.824  12
  -6  -5 -11 2355.28 497.585  21
  -6  -5 -11 1791.34 406.101   1
   6   5  11 1805.26 515.161  11
   6   5  11 1311.49 388.313  19
  -6  -5 -12 2807.84 702.437  17
  -6  -5 -12 2852.31 552.895   4
   6   5  12 3266.07 602.532   7
  -6  -5 -12 3468.90 610.400  12
  -6  -5 -12 2988.83 574.435  21
   6   5  12 2364.56 629.594  11
  -6  -5 -12 2782.53 524.369   1
   6   5  12 2713.17 563.088  19
  -6  -5 -13 1178.88 471.863  17
  -6  -5 -13 1498.56 448.640   4
   6   5  13 505.670 337.870   7
  -6  -5 -13 1340.71 412.985  12
  -6  -5 -13 1167.16 366.512  21
   6   5  13 1334.94 491.151  11
  -6  -5 -13 927.636 323.040   1
   6   5  13 1466.53 421.030  19
  -6  -5 -14 389.381 262.606   4
  -6  -5 -14 801.464 343.050  17
   6   5  14 669.885 309.525   7
  -6  -5 -14 677.028 313.533  12
  -6  -5 -14 307.322 236.498  21
   6   5  14 280.652 258.245  11
  -6  -5 -14 297.995 258.487   1
   6   5  14 763.130 315.041  19
  -6  -5 -15 538.548 315.724   4
   6   5  15 317.485 274.700   7
  -6  -5 -15 291.738 293.668  21
  -6  -5 -15 172.696 181.048   1
   6   5  15 42.3658 208.504  19
  -6  -5 -16 236.824 294.515   4
   6   5  16 301.040 248.408   7
  -6  -5 -16 898.555 378.983  21
   6   5  16-10.5267 236.009  19
  -6  -5 -16 563.263 290.575   1
  -6  -5 -17-231.443 227.918  21
  -6  -5 -17 96.6997 228.281   1
   6   6  -9 556.152 317.240   8
  -6  -6   8 2793.48 677.209   2
   6   6  -8 1558.56 447.001   8
  -6  -6   8 2552.74 564.241  12
  -6  -6   8 2581.88 676.666  20
  -6  -6   7 2810.27 636.715   2
   6   6  -7 1728.88 466.833   8
  -6  -6   7 1796.99 479.099  12
  -6  -6   6 1053.45 418.782   2
  -6  -6   6 1114.46 343.164  14
   6   6  -6 1019.61 355.606   8
   6   6  -6 1582.22 415.353  13
  -6  -6   6 688.807 341.643  12
  -6  -6   5 1571.30 498.789   2
  -6  -6   5 993.317 321.129  14
   6   6  -5 731.021 295.121   8
   6   6  -5 952.537 380.466  13
   6   6  -5 996.825 331.052   7
  -6  -6   5 941.692 373.908  12
  -6  -6   4 1239.94 448.116   2
  -6  -6   4 1797.12 404.406  14
   6   6  -4 1065.70 333.565   8
   6   6  -4 1045.89 370.767  13
   6   6  -4 1029.96 329.366   7
  -6  -6   4 1086.24 372.879  12
  -6  -6   3 592.598 356.600   2
  -6  -6   3-165.033 242.919  14
   6   6  -3 83.3503 159.960   8
   6   6  -3 28.3923 168.929  13
   6   6  -3-41.8347 166.738   7
  -6  -6   3-275.263 256.883  12
   6   6  -3 105.949 175.609  18
  -6  -6   2 386.643 284.852   2
  -6  -6   2 882.182 316.124  14
   6   6  -2 156.607 184.383   8
   6   6  -2 312.562 203.512  13
   6   6  -2 88.1756 190.519   7
  -6  -6   2 597.230 290.193  12
   6   6  -2 254.211 210.055   6
   6   6  -2 220.901 179.556  18
  -6  -6   1 513.591 328.276   2
  -6  -6   1 422.131 249.570  14
   6   6  -1 471.077 219.122   8
   6   6  -1 1038.73 342.715  13
   6   6  -1 634.939 217.522   7
  -6  -6   1 1061.64 408.709  12
   6   6  -1 374.725 220.987   6
   6   6  -1 1253.45 347.784  18
  -6  -6   0 1231.13 446.622   2
  -6  -6   0 1373.47 369.606  14
   6   6   0 1278.81 311.853   8
   6   6   0 820.017 320.632  13
   6   6   0 1386.80 382.662   7
  -6  -6   0 1603.97 432.594  12
   6   6   0 1133.58 341.111   6
   6   6   0 1318.70 356.613  18
  -6  -6  -1 4525.96 757.818   2
   6   6   1 4456.48 543.506   8
  -6  -6  -1 4851.09 668.950  14
   6   6   1 5175.55 730.431  13
   6   6   1 4399.36 639.177   7
   6   6   1 4277.26 647.763   6
  -6  -6  -1 4757.06 719.211  12
   6   6   1 4345.88 641.356  18
  -6  -6  -2 79.5794 228.815  17
  -6  -6  -2-237.772 284.158   2
  -6  -6  -2 276.237 219.741  14
   6   6   2 508.729 226.865   8
   6   6   2 227.891 164.017  13
   6   6   2 264.921 200.892   7
  -6  -6  -2 395.369 291.486  12
   6   6   2 225.926 223.801   6
   6   6   2 184.411 178.089  18
  -6  -6  -3-210.030 311.531  17
  -6  -6  -3 504.261 371.187   2
  -6  -6  -3 389.126 236.464  14
   6   6   3 140.172 200.743  13
   6   6   3 517.987 240.248   7
  -6  -6  -3 279.471 238.431  12
   6   6   3 552.216 245.287   6
   6   6   3 82.5862 151.901  18
  -6  -6  -4 126.850 259.557  17
  -6  -6  -4 249.954 168.249  14
   6   6   4 479.002 263.039  13
   6   6   4 379.073 241.114   7
  -6  -6  -4 895.692 316.268  12
   6   6   4 135.177 143.613   6
   6   6   4 498.310 270.971  18
  -6  -6  -5 357.867 361.071  17
   6   6   5 118.160 199.057  13
   6   6   5 758.482 304.897   7
  -6  -6  -5 116.902 213.191  12
   6   6   5 248.472 179.188   6
   6   6   5 702.073 301.305  18
  -6  -6  -6 2018.94 555.818  17
   6   6   6 1521.70 429.939  13
   6   6   6 2706.29 510.885   7
  -6  -6  -6 2209.42 502.482  12
   6   6   6 1830.93 444.341   6
   6   6   6 1543.48 445.701  11
   6   6   6 1620.44 420.399  18
  -6  -6  -7 241.542 289.101  17
   6   6   7 10.9448 181.836  13
   6   6   7 15.7953 192.167   7
  -6  -6  -7-463.726 282.014  12
   6   6   7-172.533 204.818  11
   6   6   7 383.943 256.455  18
  -6  -6  -8 390.322 298.855  17
  -6  -6  -8 273.518 164.846   4
   6   6   8 506.436 313.850  13
   6   6   8 912.465 330.281   7
  -6  -6  -8 109.346 206.339  12
   6   6   8-137.576 260.642  11
   6   6   8 427.956 261.714  18
  -6  -6  -9 108.305 151.568   4
  -6  -6  -9 308.301 320.276  17
   6   6   9 285.243 250.624   7
  -6  -6  -9 179.995 225.980  12
   6   6   9 264.400 228.509  11
   6   6   9 91.8347 193.302  18
  -6  -6 -10 1774.84 397.848   4
  -6  -6 -10 2804.45 655.363  17
   6   6  10 2704.03 572.838   7
  -6  -6 -10 1972.18 512.857  12
   6   6  10 1941.51 567.054  11
   6   6  10 2439.78 567.567  18
  -6  -6 -11 516.556 250.564   4
  -6  -6 -11 292.252 250.516  17
   6   6  11 827.496 326.558   7
  -6  -6 -11 1006.32 395.433  12
   6   6  11 891.119 388.056  11
   6   6  11 924.676 318.366  19
  -6  -6 -12 85.8582 184.382   4
  -6  -6 -12 542.461 367.049  17
  -6  -6 -12 472.816 250.496   1
   6   6  12 1005.61 369.463   7
  -6  -6 -12 387.371 284.259  12
   6   6  12 200.926 295.338  11
   6   6  12 147.292 204.515  19
  -6  -6 -13 1073.60 400.940   4
  -6  -6 -13 674.781 365.488  17
  -6  -6 -13 986.969 341.171   1
   6   6  13 465.857 253.310   7
  -6  -6 -13 220.270 260.975  12
   6   6  13 454.920 328.668  11
   6   6  13 425.235 245.116  19
  -6  -6 -14 796.012 363.785   4
  -6  -6 -14 424.491 277.933  17
  -6  -6 -14 408.448 230.946   1
   6   6  14 653.837 307.281   7
  -6  -6 -14 566.885 292.023  12
   6   6  14 685.727 395.381  11
   6   6  14 581.150 277.730  19
   6   6  15 1732.19 467.271   7
  -6  -6 -15 1956.33 527.081   1
  -6  -6 -15 2094.81 536.621   4
   6   6  15 1810.11 481.632  19
   6   6  16 1004.78 392.734   7
  -6  -6 -16 719.626 351.149   1
   6   6  16 1476.57 480.328  19
   6   6  17 369.698 328.205   7
  -6  -7   8 296.181 277.982  12
   6   7  -7 3252.53 635.916   8
  -6  -7   7 2675.49 626.925  12
  -6  -7   6 2445.32 686.017   2
   6   7  -6 1511.19 443.273   8
  -6  -7   6 1336.21 441.787  12
  -6  -7   5 203.987 289.415   2
   6   7  -5-178.716 203.389   8
   6   7  -5 16.1007 171.662   7
  -6  -7   5-182.345 228.267  12
  -6  -7   4 510.464 257.635   2
   6   7  -4 1108.57 368.530   8
   6   7  -4 826.673 314.031   7
  -6  -7   4 893.845 350.944  12
  -6  -7   3-111.980 251.758   2
   6   7  -3 170.917 164.687   8
   6   7  -3 319.282 228.086   7
  -6  -7   3-110.531 209.227  12
   6   7  -3-121.994 158.017  18
  -6  -7   2 1048.36 453.898   2
   6   7  -2 1107.26 345.941   8
   6   7  -2 1341.33 381.357   7
   6   7  -2 561.665 280.833   6
  -6  -7   2 1278.66 447.855  12
   6   7  -2 1158.76 382.363  18
  -6  -7   1 486.469 377.258   2
  -6  -7   1 243.471 199.631  14
   6   7  -1 494.911 261.814   8
   6   7  -1 591.283 303.040  13
   6   7  -1 449.540 257.236   7
  -6  -7   1-75.4222 288.746  12
   6   7  -1 214.224 192.752   6
   6   7  -1 512.678 235.499  18
  -6  -7   0-192.014 243.747   2
  -6  -7   0 109.424 173.018  14
   6   7   0 82.0667 151.118   8
   6   7   0 427.943 289.177  13
   6   7   0-109.249 183.868   7
  -6  -7   0 275.225 277.083  12
   6   7   0-326.378 291.896   6
   6   7   0 119.889 171.595  18
  -6  -7  -1 2185.62 576.499   2
  -6  -7  -1 1339.14 367.293  14
   6   7   1 1739.52 471.361  13
   6   7   1 1309.84 375.486   7
  -6  -7  -1 1475.48 480.415  12
   6   7   1 1876.78 477.623   6
   6   7   1 1576.94 436.233  18
  -6  -7  -2 2691.39 667.840   2
  -6  -7  -2 3019.89 552.273  14
   6   7   2 2858.00 575.621  13
   6   7   2 2707.05 537.488   7
  -6  -7  -2 2982.44 624.313  12
   6   7   2 3424.50 682.803   6
   6   7   2 3808.34 648.034  18
  -6  -7  -3 2019.01 538.427  17
   6   7   3 848.338 295.226  13
   6   7   3 1138.98 382.601   7
  -6  -7  -3 1639.94 508.036  12
   6   7   3 901.897 394.363   6
   6   7   3 451.267 236.152  11
   6   7   3 1344.62 395.784  18
  -6  -7  -4 356.075 311.262  17
   6   7   4 517.261 280.902  13
   6   7   4 1057.95 339.984   7
  -6  -7  -4 933.368 362.355  12
   6   7   4 162.713 186.693   6
   6   7   4 471.238 255.644  11
   6   7   4 1143.11 392.012  18
  -6  -7  -5 991.732 456.585  17
   6   7   5 755.959 325.251  13
   6   7   5 1229.61 373.547   7
  -6  -7  -5 850.184 304.673  12
   6   7   5 535.073 316.398   6
   6   7   5 900.972 339.434  11
   6   7   5 994.221 358.576  18
  -6  -7  -6 1299.38 447.107  17
   6   7   6 1956.62 505.793  13
   6   7   6 1129.41 376.995   7
  -6  -7  -6 840.328 373.749  12
   6   7   6 1497.23 427.644   6
   6   7   6 767.032 342.051  11
   6   7   6 1315.69 405.990  18
  -6  -7  -7 430.810 308.531  17
   6   7   7 96.9655 171.000  13
   6   7   7 317.632 223.315   7
  -6  -7  -7 69.5108 195.604  12
   6   7   7 110.907 167.994   6
   6   7   7 72.3332 184.312  11
   6   7   7 575.213 297.453  18
  -6  -7  -8 426.172 307.454  17
   6   7   8-155.791 182.237  13
   6   7   8 17.6340 193.552   7
  -6  -7  -8 255.130 243.663  12
   6   7   8-78.9488 194.322   6
   6   7   8 97.8870 177.295  11
   6   7   8 343.053 234.172  18
  -6  -7  -9 93.1179 232.499  17
   6   7   9 88.5881 216.544  13
   6   7   9 139.757 168.736   7
  -6  -7  -9-84.9786 183.451  12
   6   7   9-43.0850 265.041  11
   6   7   9 456.508 283.120  18
  -6  -7 -10 178.538 296.838  17
   6   7  10 596.942 321.075   7
  -6  -7 -10-94.4751 238.705  12
   6   7  10-77.8545 190.417  11
   6   7  10 542.630 297.203  18
  -6  -7 -11 291.040 337.467  17
   6   7  11 237.528 250.049   7
  -6  -7 -11-350.199 271.838  12
   6   7  11 181.663 223.673  11
   6   7  11-50.5522 250.333  18
  -6  -7 -12 837.672 393.464  17
   6   7  12 204.659 234.952   7
  -6  -7 -12 227.710 226.569  12
   6   7  12 262.053 239.168  11
   6   7  12 34.2686 229.502  18
  -6  -7 -13 1112.89 470.971  17
   6   7  13 477.255 294.224   7
  -6  -7 -13 1085.95 443.841  12
  -6  -7 -14 761.015 372.469  12
   6   8  -5 1779.27 496.551   8
   6   8  -4 402.647 251.215   8
   6   8  -3-307.719 227.409   8
   6   8  -3 16.8903 146.918   7
   6   8  -3-53.1495 185.366   6
  -6  -8   3 218.106 273.748  12
  -6  -8   2 532.323 397.527   2
   6   8  -2 419.468 236.625   7
   6   8  -2 761.457 405.129   6
  -6  -8   2 270.217 325.849  12
   6   8  -2 370.665 281.962  18
  -6  -8   1 414.380 312.248   2
   6   8  -1 84.3485 157.922   7
   6   8  -1 24.8251 237.777   6
  -6  -8   1-15.1128 181.538  12
   6   8  -1 129.173 227.605  18
  -6  -8   0 628.018 350.158   2
   6   8   0 331.375 237.036   7
  -6  -8   0-351.370 279.170  12
   6   8   0-199.028 265.750   6
   6   8   0 416.864 326.750  18
   6   8   1 669.221 323.870   7
  -6  -8  -1 84.4960 207.335  12
   6   8   1 665.292 338.703   6
  -6  -8  -1 681.273 335.958   2
   6   8   1-66.0749 257.085  18
   6   8   2 1759.31 448.057   7
  -6  -8  -2 2995.58 689.059  12
   6   8   2 2523.68 598.714   6
   6   8   2 2276.13 553.281  18
   6   8   3 760.079 314.660   7
  -6  -8  -3 1054.24 419.868  12
   6   8   3 1130.39 422.432   6
   6   8   3 1372.58 474.469  18
   6   8   4 319.164 226.358  13
   6   8   4 1101.56 409.724   7
  -6  -8  -4 1152.01 477.763  12
   6   8   4-186.613 203.442   6
   6   8   4 654.318 332.293  18
  -6  -8  -5 3324.44 730.382  17
   6   8   5 1991.81 452.251  13
  -6  -8  -5 3791.67 722.884  12
   6   8   5 3439.20 723.838   6
   6   8   5 2160.35 498.555  11
   6   8   5 3121.91 633.520  18
  -6  -8  -6 820.263 441.919  17
   6   8   6 509.013 293.952  13
  -6  -8  -6 1167.53 452.154  12
   6   8   6 1369.35 494.472   6
   6   8   6 769.299 311.823  11
   6   8   6 1110.46 449.256  18
  -6  -8  -7 730.827 348.713  17
   6   8   7 53.6348 209.787  13
  -6  -8  -7 220.157 248.643  12
   6   8   7 638.967 352.066   6
   6   8   7 2.93104 169.892  11
   6   8   7 159.700 183.000  18
  -6  -8  -8 236.697 275.016  17
   6   8   8 421.898 259.355  13
  -6  -8  -8 192.465 377.554  12
   6   8   8-29.6068 169.966   6
   6   8   8-212.431 264.510  11
   6   8   8 174.777 238.089  18
  -6  -8  -9 194.831 296.874  17
   6   8   9 25.8597 192.606  13
  -6  -8  -9 280.891 311.209  12
   6   8   9 348.016 278.633   6
   6   8   9 650.249 322.876  11
   6   8   9-212.165 252.794  18
  -6  -8 -10 1086.29 477.887  12
   6   8  10 1106.82 402.420  11
  -6  -8 -11-156.130 245.458  17
  -6  -8 -11 378.897 367.464  12
   6   8  11 207.077 281.787  11
  -6  -8 -12 676.524 491.227  17
  -6  -8 -12 670.029 403.293  12
  -6  -9  -7 490.958 396.653  17
  -6  -9  -8 380.352 365.148  17
  -6  -9  -9 803.311 448.510  17
  -7   2   4 673.222 337.289  14
   7  -2  -4 851.324 409.085  13
  -7   2   3 1030.38 457.828  14
   7  -2  -3 2097.73 585.242  13
  -7   2   2 1778.02 524.559  14
   7  -2  -2 937.904 400.076  13
  -7   2   1 403.019 291.478  14
   7  -2  -1 103.330 231.241  13
  -7   2   0-53.3444 163.805  14
   7  -2   0 417.815 306.002  13
   7  -2   1 346.365 285.514  13
  -7   1   6 345.254 271.152  14
   7  -1  -6 181.282 266.365  13
  -7   1   5 87.6149 224.536  14
   7  -1  -5-20.8420 246.416  13
  -7   1   4-5.63920 312.015   4
  -7   1   4 441.724 314.082  14
   7  -1  -4 27.3106 234.180  13
  -7   1   4-281.422 234.837  21
  -7   1   3 267.717 297.467   4
  -7   1   3 636.288 356.650  14
   7  -1  -3 371.025 292.692  13
  -7   1   3-33.3676 264.163  21
  -7   1   2 1100.44 464.423   4
  -7   1   2 847.608 381.849  14
   7  -1  -2 823.495 391.273  13
  -7   1   2 1296.65 509.527  21
  -7   1   1 1541.04 549.952   4
  -7   1   1 2039.84 536.232  14
   7  -1  -1 2610.49 596.659  13
  -7   1   1 2153.21 648.536  21
  -7   1   0 784.685 408.632   4
  -7   1   0 647.920 347.636  14
   7  -1   0 554.465 325.896  13
  -7   1   0 203.554 327.160  21
  -7   1  -1 1724.00 564.980   4
  -7   1  -1 1040.00 388.029  14
   7  -1   1 836.718 376.052  13
  -7   1  -1 1899.13 609.248  21
  -7   1  -2 3154.51 709.714   4
  -7   1  -2 1923.15 491.284  14
   7  -1   2 2100.29 529.174  13
  -7   1  -2 2146.45 626.346  21
  -7   1  -3 276.837 226.297   4
   7  -1   3 1276.87 466.191  15
  -7   1  -3 874.143 332.752  14
   7  -1   3 1129.48 439.061  13
  -7   1  -3 888.073 431.541  21
   7  -1   4 986.693 452.653  15
  -7   1  -4 752.767 312.382  14
   7  -1   4 343.083 258.284  13
  -7   1  -4 421.911 357.931  21
  -7   1  -5 631.627 288.206  14
   7  -1   5-33.5649 190.307  13
  -7   1  -6-121.618 248.437  14
   7  -1   6 719.693 342.268  13
  -7   0  11-195.085 288.911   2
  -7   0  10 75.0833 176.598   2
  -7   0   9 264.248 255.161   2
  -7   0   8 533.049 281.619   2
  -7   0   7 974.959 426.353   4
   7   0  -7-83.4258 206.422   8
  -7   0   7 524.402 324.819  14
   7   0  -7 468.323 328.037  13
  -7   0   7 781.863 426.818  21
  -7   0   6 380.134 329.906   4
   7   0  -6 42.8052 226.235   8
  -7   0   6-21.1524 211.704  14
   7   0  -6 130.465 230.510  13
  -7   0   6 87.4485 279.642  21
   7   0  -5-195.407 248.324   8
  -7   0   5 148.532 300.263   4
  -7   0   5-302.870 323.408  14
   7   0  -5 421.679 358.863  13
  -7   0   5-357.385 296.798  21
  -7   0   4 54.1024 204.665   4
  -7   0   4 25.5205 208.143  14
   7   0  -4 467.561 366.910  13
  -7   0   4 395.153 295.731  21
  -7   0   3 88.3082 271.800   4
  -7   0   3 239.071 227.611  14
   7   0  -3 227.494 275.228  13
  -7   0   3-282.139 263.008  21
  -7   0   2 1068.52 431.100   4
  -7   0   2 496.319 290.786  14
   7   0  -2 341.940 279.297  13
  -7   0   2 1185.19 472.791  21
  -7   0   1 260.714 297.335   4
  -7   0   1 423.702 306.304  14
   7   0  -1 265.121 230.880  13
  -7   0   1 289.849 297.858  21
  -7   0   0 974.902 423.142   4
  -7   0   0 556.947 324.638  14
   7   0   0 504.232 302.652  13
  -7   0   0 977.863 467.801  21
  -7   0  -1 342.150 280.309   4
  -7   0  -1 421.913 272.121  14
   7   0   1 452.729 325.725  13
  -7   0  -1 537.392 352.403  21
  -7   0  -2 431.309 317.211   4
  -7   0  -2 604.128 341.030  14
   7   0   2 60.1797 264.648  13
  -7   0  -2 420.291 347.345  21
  -7   0  -3 1110.32 399.251   4
  -7   0  -3 948.243 339.035  14
   7   0   3 1070.94 401.492  13
  -7   0  -3 955.561 452.789  21
  -7   0  -4 345.596 267.840   4
  -7   0  -4-19.4903 183.371  14
   7   0   4 191.094 221.931  13
  -7   0  -4-92.4978 335.174  21
  -7   0  -5-0.38740 211.291   4
   7   0   5 409.715 279.849  15
  -7   0  -5-57.6243 198.653  14
   7   0   5 562.473 340.446  13
  -7   0  -5-5.83436 239.351  21
  -7   0  -6 230.064 273.095   4
   7   0   6-8.41974 190.184  15
  -7   0  -6 199.450 198.805  14
   7   0   6 427.475 293.346  13
  -7   0  -6-24.9866 232.424  21
  -7   0  -7 315.175 306.854   4
   7   0   7 42.6620 248.842  15
  -7   0  -7 263.013 208.551  14
   7   0   7 199.314 188.041  13
  -7   0  -7 160.982 275.778  21
   7   0   8 673.763 372.779  15
  -7   0  -8 495.294 339.960  14
   7   0   8 424.777 285.107  13
   7   0   9 1830.53 550.266  15
   7   0   9 2030.07 552.216  13
   7   0  10 173.962 244.609  15
   7   0  10 614.001 362.705  13
   7   0  11 294.431 250.781  13
   7   0  11 261.895 264.678  11
  -7  -1  10 248.376 296.784   4
  -7  -1  10 98.3802 207.408   2
  -7  -1   9 57.6885 249.036   4
   7   1  -9 297.324 287.523   8
  -7  -1   9 56.0116 196.997   2
  -7  -1   8 1777.86 544.811   4
   7   1  -8 1866.29 545.695   8
  -7  -1   8 1647.82 480.444  14
  -7  -1   8 1440.05 446.977   2
   7   1  -8 1483.28 549.542  13
  -7  -1   8 2031.66 614.286  21
  -7  -1   7 896.028 427.289   4
   7   1  -7 858.062 392.177   8
  -7  -1   7 1333.86 445.021  14
  -7  -1   7 943.483 343.155   2
   7   1  -7 1335.81 479.102  13
  -7  -1   7 2349.70 628.164  21
  -7  -1   6 64.7251 235.371   4
   7   1  -6 586.526 336.885   8
  -7  -1   6 137.178 186.861  14
  -7  -1   6 252.246 179.446   2
   7   1  -6 677.048 377.181  13
  -7  -1   6 771.292 436.360  21
  -7  -1   5 764.824 353.501   4
   7   1  -5 1146.14 446.873   8
  -7  -1   5 566.128 257.642  14
  -7  -1   5 1492.35 437.526   2
   7   1  -5 715.820 339.254  13
  -7  -1   5 987.209 426.720  21
  -7  -1   4 475.811 340.366   4
   7   1  -4 859.110 363.487   8
  -7  -1   4 359.449 265.990   2
  -7  -1   4 1033.74 375.177  14
   7   1  -4 1224.39 380.666  13
  -7  -1   4 188.232 321.870  21
  -7  -1   3 843.821 368.107   4
  -7  -1   3 682.257 304.012   2
   7   1  -3 1153.46 409.522   8
  -7  -1   3 953.936 350.415  14
   7   1  -3 1935.85 535.146  13
  -7  -1   3 1640.92 548.116  21
   7   1  -2 1737.56 460.585   8
  -7  -1   2 2106.67 535.346   4
  -7  -1   2 1471.93 405.751   2
  -7  -1   2 2665.12 586.442  14
   7   1  -2 1700.83 503.299  13
  -7  -1   2 2127.57 588.389  21
  -7  -1   1 100.716 212.771   4
  -7  -1   1 291.956 240.116   2
  -7  -1   1 671.050 351.685  14
   7   1  -1 351.016 288.638  13
  -7  -1   1 501.808 356.667  21
  -7  -1   0 1258.91 376.065   2
  -7  -1   0 1009.40 369.067   4
  -7  -1   0 944.182 358.003  14
   7   1   0 1745.32 475.136  13
  -7  -1   0 1262.16 479.702  21
  -7  -1  -1 228.229 268.961  17
  -7  -1  -1-25.9484 227.132   4
  -7  -1  -1 140.764 250.713  14
   7   1   1 218.867 266.134  13
  -7  -1  -1-32.0132 221.267  21
  -7  -1  -2 899.421 380.476  17
  -7  -1  -2 963.221 411.271   4
  -7  -1  -2 1798.44 488.939  14
   7   1   2 1425.66 474.251  13
  -7  -1  -2 1541.83 536.242  21
  -7  -1  -3 74.1547 211.298  17
  -7  -1  -3 383.121 317.673   4
  -7  -1  -3 234.360 218.901  14
   7   1   3 1011.44 439.374  13
  -7  -1  -3 392.036 302.797  21
  -7  -1  -4 255.513 209.212  17
  -7  -1  -4 750.658 373.056   4
  -7  -1  -4 820.374 342.997  14
   7   1   4 943.938 343.701  13
  -7  -1  -4 624.730 341.322  21
  -7  -1  -5 455.090 293.202  17
  -7  -1  -5 1045.80 438.545   4
  -7  -1  -5 649.580 285.055  14
   7   1   5 815.752 360.068  13
  -7  -1  -5 448.644 294.026  21
  -7  -1  -6 711.840 385.391  17
  -7  -1  -6 130.531 251.287   4
  -7  -1  -6 526.335 358.180  14
   7   1   6 430.348 312.745  13
  -7  -1  -6 511.074 280.346  21
  -7  -1  -7 1893.16 531.534  17
  -7  -1  -7 835.738 388.807   4
   7   1   7 1749.93 483.571  15
  -7  -1  -7 1557.90 484.443  14
   7   1   7 1481.42 465.006  13
  -7  -1  -7 1204.10 507.145  21
  -7  -1  -8 905.322 384.633  17
  -7  -1  -8 477.755 292.253   4
   7   1   8 236.156 217.350  15
  -7  -1  -8 364.578 346.206  14
   7   1   8 807.445 387.735  13
  -7  -1  -8 908.800 413.417  21
  -7  -1  -9-38.8652 251.796  17
  -7  -1  -9 619.309 349.112   4
   7   1   9 141.332 205.298  15
  -7  -1  -9 244.037 288.635  14
   7   1   9 121.647 282.612  13
  -7  -1  -9 602.299 346.618  21
  -7  -1 -10 1119.82 472.266  17
  -7  -1 -10 1063.94 442.820   4
   7   1  10 727.642 332.304  15
   7   1  10 919.958 412.561  13
  -7  -1 -10 389.136 345.917  21
  -7  -1 -11-436.172 309.134  17
   7   1  11-224.421 225.836  15
   7   1  11 209.318 275.475  13
  -7  -1 -12 40.4573 240.289  17
   7   1  12 11.7298 166.359  15
   7   1  12 173.511 189.565  13
   7   1  12 171.782 281.926  11
   7   1  13-59.8298 244.545  13
   7   1  13 386.446 326.700  11
  -7  -2  11 633.975 391.862   4
  -7  -2  10 763.958 369.382   4
  -7  -2  10 1173.72 422.923   2
  -7  -2  10 940.953 353.708  12
  -7  -2   9 571.646 308.377   4
   7   2  -9 646.246 415.979   8
  -7  -2   9 579.432 338.411  14
  -7  -2   9 634.006 344.068   2
   7   2  -9 1343.55 520.058  13
  -7  -2   9 282.654 290.556  12
  -7  -2   8 1436.20 454.377   4
   7   2  -8 871.332 394.422   8
  -7  -2   8 1022.63 412.918  14
  -7  -2   8 1481.82 466.873   2
   7   2  -8 1517.64 547.276  13
  -7  -2   8 1469.70 447.474  12
  -7  -2   7-145.078 226.537   4
   7   2  -7 315.343 264.184   8
  -7  -2   7 60.0155 238.745  14
  -7  -2   7-352.602 316.771   2
   7   2  -7 333.287 290.818  13
  -7  -2   7 9.42952 227.931  21
  -7  -2   6 274.697 238.000   4
   7   2  -6 4.16637 222.349   8
  -7  -2   6-40.4854 215.119  14
  -7  -2   6 366.652 261.093   2
   7   2  -6 10.6132 218.934  13
  -7  -2   6 45.9667 214.915  21
  -7  -2   5 1250.31 413.549   4
   7   2  -5 329.569 285.931   8
  -7  -2   5 625.967 317.566  14
  -7  -2   5 960.127 403.205   2
   7   2  -5 561.415 304.749  13
  -7  -2   5 1288.44 491.605  21
  -7  -2   4 416.716 300.726   4
   7   2  -4 434.989 266.220   8
  -7  -2   4 415.949 253.046   2
  -7  -2   4 403.393 266.382  14
   7   2  -4-35.0978 211.747  13
  -7  -2   4 362.894 303.491  21
  -7  -2   3 1404.30 435.852   4
  -7  -2   3 1165.23 405.356   2
   7   2  -3 1306.73 424.749   8
  -7  -2   3 1163.09 413.033  14
   7   2  -3 1205.50 429.923  13
  -7  -2   3 1951.48 535.790  21
  -7  -2   2 3291.20 601.090   4
  -7  -2   2 3810.95 646.564   2
   7   2  -2 2511.94 548.333   8
  -7  -2   2 4303.96 726.426  14
   7   2  -2 3343.29 684.677  13
  -7  -2   2 4820.29 785.700  21
  -7  -2   1 752.934 349.790   4
  -7  -2   1 1269.53 426.954   2
   7   2  -1 494.489 268.191   8
  -7  -2   1 582.732 341.518  14
   7   2  -1 310.096 279.538  13
  -7  -2   1 625.332 407.567  21
  -7  -2   0 1047.70 342.382   2
  -7  -2   0 924.370 358.960   4
   7   2   0 1355.17 423.626   8
  -7  -2   0 813.138 331.078  14
   7   2   0 1452.24 465.189  13
  -7  -2   0 1402.80 469.724  21
  -7  -2  -1 241.706 283.613  17
  -7  -2  -1 465.828 256.052   2
   7   2   1 213.369 232.172   8
  -7  -2  -1-55.8504 182.833   4
  -7  -2  -1 330.585 279.953  14
   7   2   1 251.203 221.183  13
  -7  -2  -1-281.718 310.397  21
  -7  -2  -2 113.289 197.889  17
  -7  -2  -2 489.142 302.796   2
  -7  -2  -2 75.1657 238.088   4
  -7  -2  -2 192.445 231.006  14
   7   2   2 365.512 287.851  13
  -7  -2  -2 93.3162 195.535  21
  -7  -2  -3-186.809 237.416  17
  -7  -2  -3 7.76908 163.104   2
  -7  -2  -3-362.021 325.534   4
  -7  -2  -3-235.317 262.873  14
   7   2   3-63.8895 191.021  13
  -7  -2  -3 87.8543 250.891  21
  -7  -2  -4 152.612 240.795  17
  -7  -2  -4 977.447 379.529   4
  -7  -2  -4 432.912 304.284  14
   7   2   4 289.396 253.749  13
  -7  -2  -4 149.788 225.643  21
  -7  -2  -5 1851.10 501.941  17
  -7  -2  -5 1576.53 507.637   4
  -7  -2  -5 1203.39 388.414  14
   7   2   5 2142.33 560.075  13
  -7  -2  -5 1606.48 518.811  21
  -7  -2  -6 343.096 301.670  17
  -7  -2  -6 466.399 291.098   4
  -7  -2  -6 321.972 173.523  14
  -7  -2  -6 532.176 307.696  21
  -7  -2  -7 1607.06 488.465  17
  -7  -2  -7 857.707 370.959   4
  -7  -2  -7 1446.21 457.768  14
   7   2   7 783.768 356.722  13
  -7  -2  -7 597.769 338.825  21
  -7  -2  -8 342.499 282.340  17
  -7  -2  -8 1042.36 385.590   4
   7   2   8 681.416 302.575  15
  -7  -2  -8 645.697 355.071  14
   7   2   8 1817.63 551.635  13
  -7  -2  -8 904.896 416.599  21
  -7  -2  -9-274.933 315.365  17
  -7  -2  -9 211.974 214.813   4
   7   2   9-120.006 199.045  15
  -7  -2  -9-21.9081 205.940  14
   7   2   9-254.633 256.459  13
  -7  -2  -9 365.858 399.900  21
  -7  -2 -10 33.6300 275.743  17
  -7  -2 -10 643.872 314.087   4
   7   2  10 248.414 223.636  15
   7   2  10-163.935 251.069  13
  -7  -2 -10 206.509 179.669  12
  -7  -2 -10 168.428 339.365  21
  -7  -2 -11 356.188 374.037  17
  -7  -2 -11 327.660 297.158   4
   7   2  11 309.673 245.091  15
   7   2  11 604.587 335.327  13
  -7  -2 -11 175.100 157.813  12
  -7  -2 -11 782.583 402.606  21
   7   2  11 344.384 301.116  11
  -7  -2 -12 108.757 278.479  17
   7   2  12 387.327 313.089  13
  -7  -2 -12 30.6770 160.773  12
   7   2  12 141.552 240.087  11
   7   2  13 179.468 286.661  13
   7   2  13-543.478 334.323  11
  -7  -3  12 1242.06 479.535  20
  -7  -3  11 1793.70 526.968   4
  -7  -3  10 1310.53 432.538   4
  -7  -3  10 1046.55 420.052  14
   7   3 -10 851.845 408.692  13
  -7  -3  10 707.031 328.283  12
  -7  -3   9 1398.15 455.420   4
  -7  -3   9 1785.34 495.785  14
   7   3  -9 1021.37 438.484   8
  -7  -3   9 1487.36 498.222   2
   7   3  -9 1611.71 558.017  13
  -7  -3   9 881.642 318.509  12
  -7  -3   8 112.208 195.867   4
  -7  -3   8 139.201 178.685  14
   7   3  -8-322.909 341.987   8
  -7  -3   8 495.500 302.661   2
   7   3  -8 383.578 345.345  13
  -7  -3   8 216.020 226.275  12
  -7  -3   7 511.681 296.623   4
  -7  -3   7 797.199 303.872  14
   7   3  -7 212.083 202.413   8
  -7  -3   7 514.543 290.982   2
   7   3  -7 464.041 346.564  13
  -7  -3   7 506.294 300.507  12
  -7  -3   6 1290.48 419.252   4
  -7  -3   6 779.952 296.436  14
   7   3  -6 328.309 307.799   8
  -7  -3   6 736.744 333.334   2
   7   3  -6 923.556 442.254  13
  -7  -3   6 1263.71 396.215  12
  -7  -3   6 932.020 365.958  21
  -7  -3   5 819.913 320.700   4
  -7  -3   5 607.532 334.198   2
  -7  -3   5 776.601 341.487  14
   7   3  -5 1101.94 377.390   8
   7   3  -5 974.032 397.133  13
  -7  -3   5 900.178 391.827  12
  -7  -3   5 1340.50 502.835  21
  -7  -3   4 507.659 287.529   4
  -7  -3   4 358.461 282.978   2
  -7  -3   4 294.132 227.253  14
   7   3  -4 745.564 386.362   8
   7   3  -4 324.338 215.580  13
  -7  -3   4 635.298 296.881  12
  -7  -3   4 546.985 379.925  21
  -7  -3   3 1954.29 459.414   4
  -7  -3   3 2079.09 505.905   2
  -7  -3   3 2320.04 525.578  14
   7   3  -3 1988.29 502.322   8
   7   3  -3 2876.12 652.154  13
  -7  -3   3 1823.29 476.829  12
  -7  -3   3 2279.37 564.065  21
  -7  -3   2 1146.98 346.365   4
  -7  -3   2 618.567 264.644   2
  -7  -3   2 963.874 384.244  14
   7   3  -2 735.473 329.572   8
   7   3  -2 494.965 288.604  13
  -7  -3   2 1302.49 401.656  12
  -7  -3   2 782.558 352.357  21
  -7  -3   1 259.404 192.234   4
  -7  -3   1 2.09738 259.949   2
   7   3  -1-54.9126 178.863   8
  -7  -3   1 147.339 180.254  14
   7   3  -1-69.3528 201.807  13
  -7  -3   1-296.531 267.717  12
  -7  -3   1 195.515 204.357  21
  -7  -3   0 573.877 237.366   2
  -7  -3   0 880.784 287.441   4
   7   3   0 859.027 331.367   8
  -7  -3   0 290.996 298.102  14
   7   3   0 558.251 338.590  13
  -7  -3   0 172.512 260.208  12
  -7  -3   0 711.863 328.644  21
  -7  -3  -1 277.000 327.682  17
  -7  -3  -1 14.2388 164.917   2
  -7  -3  -1 346.097 242.111   4
   7   3   1 292.182 249.944   8
  -7  -3  -1 210.346 234.627  14
   7   3   1 336.694 265.511  13
  -7  -3  -1 30.3746 168.861  12
  -7  -3  -1 100.695 191.181  21
  -7  -3  -2 85.3555 300.201  17
  -7  -3  -2 416.792 250.304   2
  -7  -3  -2-9.34175 186.453   4
   7   3   2 226.505 184.117   8
  -7  -3  -2 100.207 181.235  14
   7   3   2 859.996 390.541  13
  -7  -3  -2 446.403 254.959  12
  -7  -3  -2 28.3356 271.603  21
  -7  -3  -3 423.074 307.404  17
  -7  -3  -3 253.874 168.049   2
  -7  -3  -3 73.4873 160.157   4
  -7  -3  -3 293.327 226.518  14
   7   3   3 319.144 210.379  13
  -7  -3  -3 512.986 266.749  12
  -7  -3  -3 18.2264 188.606  21
  -7  -3  -4 259.156 205.173  17
  -7  -3  -4-64.6434 181.342   4
  -7  -3  -4-99.0410 184.642  14
   7   3   4 156.913 287.987  13
  -7  -3  -4-16.7485 208.575  12
  -7  -3  -4-148.774 231.250  21
  -7  -3  -5 10.9909 227.029  17
  -7  -3  -5-126.790 193.072   4
  -7  -3  -5-53.9653 203.437  14
   7   3   5 102.470 218.242  13
  -7  -3  -5-1.36197 170.542  12
  -7  -3  -5-102.472 251.505  21
  -7  -3  -6 903.485 435.313  17
  -7  -3  -6 1085.18 362.865   4
  -7  -3  -6 1511.83 434.369  14
   7   3   6 914.009 397.337  13
  -7  -3  -6 901.627 329.903  12
  -7  -3  -6 894.583 332.242  21
  -7  -3  -7 2147.78 620.079  17
  -7  -3  -7 1743.27 433.810   4
  -7  -3  -7 1839.27 514.590  14
   7   3   7 2001.90 551.086  13
  -7  -3  -7 1550.82 406.278  12
  -7  -3  -7 1372.00 441.451  21
  -7  -3  -8 632.090 353.883  17
  -7  -3  -8 74.6849 175.892   4
  -7  -3  -8 60.9995 193.608  14
   7   3   8 396.864 335.412  13
  -7  -3  -8 192.059 168.397  12
  -7  -3  -8 159.832 260.482  21
  -7  -3  -9 776.046 379.165  17
  -7  -3  -9 257.890 187.578   4
   7   3   9 761.601 308.448  15
  -7  -3  -9 164.195 226.199  14
   7   3   9 10.3586 231.797  13
  -7  -3  -9 571.292 289.174  12
  -7  -3  -9 733.777 392.252  21
  -7  -3 -10 616.130 396.664  17
  -7  -3 -10 483.936 309.994   4
   7   3  10 150.362 224.024  13
  -7  -3 -10 307.100 161.469  12
  -7  -3 -10 782.580 412.451  21
  -7  -3 -11-217.037 223.507  17
  -7  -3 -11 530.399 317.288   4
   7   3  11 335.868 337.476  13
  -7  -3 -11-17.7042 156.975  12
  -7  -3 -11 311.489 300.484  21
   7   3  11-248.259 300.042  11
  -7  -3 -12 706.215 416.025  17
  -7  -3 -12 605.119 373.493   4
   7   3  12 1103.81 453.341  13
  -7  -3 -12 1055.72 363.657  12
  -7  -3 -12 259.198 301.754  21
   7   3  12 558.617 391.410  11
   7   3  13 912.108 442.774  13
  -7  -3 -13 926.030 344.181  12
  -7  -3 -13 367.811 307.267  21
   7   3  13 1127.06 508.738  11
  -7  -4  10 1409.85 464.620  14
   7   4 -10 1207.33 477.251  13
  -7  -4   9-297.604 240.726  14
   7   4  -9 361.204 334.962   8
   7   4  -9 91.7189 227.220  13
  -7  -4   9-195.094 207.615  12
  -7  -4   8 407.196 243.910  14
  -7  -4   8 50.1316 246.997   2
   7   4  -8 404.055 304.951   8
   7   4  -8-19.6875 190.131  13
  -7  -4   8-214.148 209.615  12
  -7  -4   7-11.5914 211.225  14
  -7  -4   7 87.9947 174.496   2
   7   4  -7-69.8864 225.623   8
   7   4  -7-39.0719 187.404  13
  -7  -4   7 93.3249 235.291  12
  -7  -4   6 576.676 283.889   4
  -7  -4   6 190.098 265.005   2
  -7  -4   6 488.753 314.009  14
   7   4  -6-123.772 202.737   8
   7   4  -6 664.023 319.986  13
  -7  -4   6 561.804 274.945  12
  -7  -4   5 476.711 233.114   4
  -7  -4   5 1321.26 452.805   2
  -7  -4   5 153.698 180.932  14
   7   4  -5 976.763 367.601   8
   7   4  -5 1612.39 491.776  13
  -7  -4   5 380.358 254.580  12
  -7  -4   5 246.624 182.363  21
  -7  -4   4-125.735 169.223   4
  -7  -4   4 196.746 187.882   2
  -7  -4   4 87.1625 173.136  14
   7   4  -4 59.9645 212.765   8
   7   4  -4 318.043 277.207  13
  -7  -4   4 364.935 299.239  12
  -7  -4   4 110.817 220.004  21
  -7  -4   3 58.1203 169.325   4
  -7  -4   3 84.1180 176.607   2
  -7  -4   3 338.676 220.643  14
   7   4  -3 598.959 258.952   8
   7   4  -3-201.409 207.724  13
  -7  -4   3 208.981 248.017  12
  -7  -4   3 316.335 214.442  21
  -7  -4   2 33.0816 145.903   4
  -7  -4   2-20.2792 199.591   2
  -7  -4   2 179.693 202.631  14
   7   4  -2-38.3666 159.209   8
   7   4  -2 93.3190 218.824  13
  -7  -4   2 294.813 243.186  12
  -7  -4   2-151.508 242.383  21
  -7  -4   1 969.769 312.747   4
  -7  -4   1 983.914 384.523   2
  -7  -4   1 489.148 266.003  14
   7   4  -1 884.416 341.876   8
   7   4  -1 1169.04 408.580  13
  -7  -4   1 1380.74 392.970  12
  -7  -4   1 1719.12 448.662  21
  -7  -4   0 1753.91 388.669   4
  -7  -4   0 1535.90 476.703   2
  -7  -4   0 2091.89 502.299  14
   7   4   0 1474.91 387.210   8
   7   4   0 1679.20 482.224  13
  -7  -4   0 2670.59 555.909  12
  -7  -4   0 2043.07 466.409  21
  -7  -4  -1 621.398 312.930  17
  -7  -4  -1 359.425 343.516   2
  -7  -4  -1 435.301 227.498   4
  -7  -4  -1 284.107 256.256  14
   7   4   1 828.172 295.961   8
   7   4   1 616.001 324.915  13
  -7  -4  -1 687.095 394.333  12
  -7  -4  -1 453.505 247.049  21
  -7  -4  -2 280.411 248.663  17
  -7  -4  -2 451.131 298.421   2
  -7  -4  -2 984.162 328.561   4
  -7  -4  -2 1220.01 435.181  14
   7   4   2 465.705 243.967   8
   7   4   2 585.488 354.185  13
  -7  -4  -2 998.509 400.225  12
  -7  -4  -2 1331.30 398.462  21
  -7  -4  -3 716.298 425.112  17
  -7  -4  -3 578.218 353.354   2
  -7  -4  -3 196.365 218.296   4
   7   4   3 43.9684 196.144   8
  -7  -4  -3 883.403 381.866  14
   7   4   3 58.1003 276.547  13
  -7  -4  -3 819.730 364.704  12
  -7  -4  -3 406.541 286.098  21
  -7  -4  -4 6505.54 843.625  14
   7   4   4 6655.73 924.673  13
  -7  -4  -4 7307.71 855.778  12
  -7  -4  -4 7897.98 926.452  21
  -7  -4  -4 6453.54 922.287   2
  -7  -4  -4 6295.08 752.038   4
  -7  -4  -4 8305.83 1063.83  17
  -7  -4  -5 2831.41 649.720  17
  -7  -4  -5 1622.43 399.164   4
  -7  -4  -5 2229.06 532.680  14
   7   4   5 2481.00 601.992  13
  -7  -4  -5 2116.74 519.750  12
  -7  -4  -5 2390.43 527.882  21
  -7  -4  -6 881.959 461.792  17
  -7  -4  -6 217.712 190.161   4
  -7  -4  -6 156.989 238.150  14
   7   4   6 329.099 244.538  13
  -7  -4  -6 1237.30 410.437  12
  -7  -4  -6 104.097 203.640  21
  -7  -4  -7 162.576 226.805  17
  -7  -4  -7 501.955 262.796   4
  -7  -4  -7-10.8377 207.608  14
   7   4   7 898.204 406.090  13
  -7  -4  -7 344.024 229.636  12
  -7  -4  -7 426.054 277.920  21
  -7  -4  -8 545.058 374.610  17
  -7  -4  -8 758.550 298.663   4
  -7  -4  -8 155.972 236.388  14
   7   4   8 753.286 296.544  13
  -7  -4  -8 242.077 246.834  12
  -7  -4  -8 144.435 258.518  21
  -7  -4  -9 370.995 338.517  17
  -7  -4  -9 116.965 207.167   4
   7   4   9 18.6292 236.207  13
  -7  -4  -9 949.529 336.347  12
  -7  -4  -9 141.480 249.153  21
  -7  -4 -10 3493.90 754.607  17
  -7  -4 -10 2684.25 575.140   4
   7   4  10 2886.42 644.214  13
  -7  -4 -10 2152.28 479.697  12
  -7  -4 -10 3037.62 665.450  21
   7   4  10 3135.28 669.302  11
  -7  -4 -11 1528.06 545.638  17
  -7  -4 -11 1435.44 454.476   4
   7   4  11 740.030 453.883  13
  -7  -4 -11 950.171 363.370  12
  -7  -4 -11 924.708 377.168  21
   7   4  11 961.025 406.047  11
  -7  -4 -12 57.8504 262.132  17
  -7  -4 -12 396.998 325.023   4
   7   4  12-8.36835 223.966  13
  -7  -4 -12 108.388 210.761  12
  -7  -4 -12 170.986 223.277  21
   7   4  12 172.667 198.854  11
  -7  -4 -13-301.033 246.359   4
  -7  -4 -13 285.152 218.122  12
  -7  -4 -14 258.448 291.053  21
   7   4  14-231.321 309.057  19
  -7  -5  10 872.362 382.849  14
   7   5 -10 396.212 353.401  13
  -7  -5   9 264.879 236.445  14
   7   5  -9-341.879 284.618  13
  -7  -5   9 413.063 295.991  12
  -7  -5   8 146.314 192.404  14
   7   5  -8 71.8666 232.798   8
   7   5  -8 299.304 285.864  13
  -7  -5   8 107.965 198.033  12
  -7  -5   7 276.120 210.053   2
  -7  -5   7 33.2299 186.943  14
   7   5  -7 280.887 261.091   8
   7   5  -7 383.879 300.643  13
  -7  -5   7 135.465 168.817  12
  -7  -5   6 423.231 301.156   2
  -7  -5   6 414.181 258.237  14
   7   5  -6 732.915 303.184   8
   7   5  -6 75.9649 200.101  13
  -7  -5   6 621.075 289.780  12
  -7  -5   5 1047.35 430.242   2
  -7  -5   5 925.208 364.333  14
   7   5  -5 882.506 374.509   8
   7   5  -5 1280.25 456.082  13
  -7  -5   5 927.397 401.828  12
  -7  -5   4 915.169 468.997   2
  -7  -5   4 433.018 282.641  14
   7   5  -4 745.481 334.596   8
   7   5  -4 807.293 341.095  13
  -7  -5   4 972.035 385.443  12
  -7  -5   3 891.004 371.379   2
  -7  -5   3 1047.35 377.688  14
   7   5  -3 630.601 269.770   8
   7   5  -3 782.728 392.158  13
  -7  -5   3 1471.55 452.861  12
  -7  -5   3 964.529 343.034  21
  -7  -5   2 792.971 399.802   2
  -7  -5   2 976.902 361.840  14
   7   5  -2 789.541 306.325   8
   7   5  -2 1063.22 409.940  13
  -7  -5   2 1365.12 436.760  12
  -7  -5   2 1858.69 451.536  21
  -7  -5   1 555.334 339.811   2
  -7  -5   1 335.364 248.687  14
   7   5  -1 97.9011 155.836   8
   7   5  -1 268.033 265.578  13
  -7  -5   1 368.866 285.015  12
  -7  -5   1-240.146 214.040  21
  -7  -5   0 93.2522 193.571   2
  -7  -5   0 810.441 334.105  14
   7   5   0 771.911 283.096   8
   7   5   0 711.437 338.490  13
  -7  -5   0 776.750 344.316  12
  -7  -5   0 695.312 250.450  21
  -7  -5  -1 484.861 216.287   4
  -7  -5  -1 1386.36 474.100   2
  -7  -5  -1 873.746 323.049  14
   7   5   1 434.264 232.376   8
   7   5   1 1253.86 426.444  13
   7   5   1 1657.94 445.614   7
  -7  -5  -1 876.449 357.970  12
  -7  -5  -1 1135.35 337.225  21
  -7  -5  -2-55.1809 283.897  17
  -7  -5  -2-270.261 175.862   4
  -7  -5  -2 158.147 250.290   2
  -7  -5  -2 312.668 306.801  14
   7   5   2 143.266 140.101   8
   7   5   2 314.646 290.635  13
   7   5   2 652.813 343.672   7
  -7  -5  -2 171.052 201.902  12
  -7  -5  -2 51.7831 190.263  21
  -7  -5  -3 201.711 271.099  17
  -7  -5  -3 1068.67 405.898   2
  -7  -5  -3 741.688 262.947   4
  -7  -5  -3 722.480 323.114  14
   7   5   3 806.383 362.908  13
   7   5   3 1300.38 410.875   7
  -7  -5  -3 198.721 229.479  12
  -7  -5  -3 1249.24 400.277  21
  -7  -5  -4 1700.84 529.552  17
  -7  -5  -4 1697.42 375.023   4
  -7  -5  -4 1976.31 505.678  14
   7   5   4 991.811 395.021  13
   7   5   4 1870.49 459.227   7
  -7  -5  -4 1222.70 443.551  12
  -7  -5  -4 1480.24 386.913  21
  -7  -5  -4 1186.26 491.021   2
  -7  -5  -5 632.768 305.779  17
  -7  -5  -5 611.472 256.027   4
  -7  -5  -5 414.903 219.855  14
   7   5   5 243.344 217.390  13
   7   5   5 780.371 331.345   7
  -7  -5  -5 1269.74 401.335  12
  -7  -5  -5 83.4554 188.299  21
  -7  -5  -6-64.8312 224.156  17
  -7  -5  -6 346.080 243.398   4
  -7  -5  -6 290.628 258.981  14
   7   5   6 234.807 266.192  13
   7   5   6 127.425 302.226   7
  -7  -5  -6 536.099 347.425  12
  -7  -5  -6 38.0495 154.686  21
  -7  -5  -7 1162.45 476.456  17
  -7  -5  -7 875.834 335.637   4
  -7  -5  -7 822.464 347.670  14
   7   5   7 1249.72 501.561  13
   7   5   7 747.103 318.847   7
  -7  -5  -7 448.077 289.024  12
  -7  -5  -7 646.087 307.682  21
  -7  -5  -8 3092.80 684.665  17
  -7  -5  -8 1532.80 410.521   4
   7   5   8 2497.69 624.066  13
   7   5   8 2235.55 525.147   7
  -7  -5  -8 1900.19 490.444  12
  -7  -5  -8 2467.27 536.557  21
  -7  -5  -9-204.748 297.791  17
  -7  -5  -9-128.858 170.615   4
   7   5   9-1.45489 203.615  13
   7   5   9 445.238 316.203   7
  -7  -5  -9 53.3660 192.181  12
  -7  -5  -9-92.1473 223.980  21
   7   5   9 3.27106 172.945  11
  -7  -5 -10 964.143 412.266  17
  -7  -5 -10 404.229 262.647   4
   7   5  10 636.591 354.187  13
   7   5  10 978.708 376.648   7
  -7  -5 -10 543.131 273.408  12
  -7  -5 -10 447.639 283.903  21
   7   5  10 1136.57 460.828  11
  -7  -5 -11 1242.09 476.829  17
  -7  -5 -11 787.134 321.360   4
   7   5  11 1738.17 546.066  13
   7   5  11 1557.83 464.090   7
  -7  -5 -11 703.075 368.156  12
  -7  -5 -11 1430.22 480.958  21
   7   5  11 1300.15 462.146  11
  -7  -5 -12 64.1430 282.373  17
  -7  -5 -12 767.629 320.653   4
   7   5  12 401.909 308.514  13
   7   5  12 192.057 270.847   7
  -7  -5 -12 493.335 364.562  12
  -7  -5 -12 478.592 292.231  21
   7   5  12 464.476 312.313  11
   7   5  12 372.598 238.054  19
  -7  -5 -13 360.530 259.321   4
   7   5  13 287.735 234.584   7
  -7  -5 -13 539.741 320.664  12
  -7  -5 -13-97.5889 214.310  21
   7   5  13 536.062 327.300  19
  -7  -5 -14 359.087 307.376   4
   7   5  14 707.640 347.293   7
  -7  -5 -14 328.292 275.392  21
   7   5  14 541.494 291.761  19
   7   5  15 127.498 219.083   7
  -7  -5 -15-107.792 318.548  21
   7   5  15 669.323 366.068  19
  -7  -6   8 258.405 305.095  12
  -7  -6   7 164.009 194.646  14
   7   6  -7 235.786 298.923   8
   7   6  -7 568.870 338.710  13
  -7  -6   7 492.361 259.748  12
  -7  -6   6 229.118 220.715  14
   7   6  -6 323.387 289.994   8
   7   6  -6 525.385 315.876  13
  -7  -6   6 447.504 332.892  12
  -7  -6   5 607.378 348.494   2
  -7  -6   5 341.470 279.988  14
   7   6  -5 132.804 220.055   8
   7   6  -5 534.903 324.280  13
  -7  -6   5 316.064 321.716  12
  -7  -6   4 207.127 265.737   2
  -7  -6   4 173.587 197.082  14
   7   6  -4 238.328 274.047   8
   7   6  -4 161.536 261.584  13
  -7  -6   4-87.3984 188.144  12
  -7  -6   3 800.049 410.186   2
  -7  -6   3-71.8488 195.958  14
   7   6  -3 240.188 256.187   8
   7   6  -3 145.122 263.045  13
  -7  -6   3-578.111 321.285  12
  -7  -6   2 96.0657 296.924   2
  -7  -6   2 275.690 259.546  14
   7   6  -2 380.000 266.489   8
   7   6  -2 437.831 279.479  13
   7   6  -2 230.707 205.843   7
  -7  -6   2-64.8964 199.900  12
  -7  -6   1 633.471 337.968   2
  -7  -6   1 529.008 291.697  14
   7   6  -1 838.461 323.740   8
   7   6  -1 385.160 235.714  13
   7   6  -1 402.976 221.614   7
  -7  -6   1 1453.91 452.228  12
  -7  -6   0 1308.46 496.443   2
  -7  -6   0 1911.64 482.480  14
   7   6   0 1234.34 348.007   8
   7   6   0 1717.10 505.989  13
   7   6   0 1989.67 504.011   7
  -7  -6   0 1446.67 472.722  12
  -7  -6  -1 435.125 275.371   2
  -7  -6  -1 691.386 327.771  14
   7   6   1 830.216 340.392  13
   7   6   1 500.908 303.810   7
  -7  -6  -1 72.2468 260.659  12
   7   6   1 703.462 279.258  18
  -7  -6  -2 805.503 425.098  17
  -7  -6  -2 497.724 249.864   2
  -7  -6  -2 483.685 285.295  14
   7   6   2 728.675 348.357  13
   7   6   2 601.779 310.850   7
  -7  -6  -2 531.631 319.814  12
   7   6   2 362.171 211.173  18
  -7  -6  -3 389.808 385.906  17
  -7  -6  -3-43.9309 216.697   2
  -7  -6  -3-87.4181 221.010  14
   7   6   3 451.834 301.458  13
   7   6   3 87.9039 180.326   7
  -7  -6  -3-81.6735 204.828  12
   7   6   3-207.638 251.482  18
  -7  -6  -4-127.056 329.946  17
  -7  -6  -4 307.537 255.760  14
   7   6   4-140.840 189.999  13
   7   6   4 258.076 333.169   7
  -7  -6  -4-301.921 277.971  12
   7   6   4 63.7189 202.056  18
  -7  -6  -5 95.7468 247.129  17
  -7  -6  -5-0.33081 210.793  14
   7   6   5-545.175 318.382  13
   7   6   5 224.844 220.411   7
  -7  -6  -5-207.202 291.174  12
   7   6   5-53.4093 244.773  18
  -7  -6  -6 823.230 393.652  17
  -7  -6  -6 551.202 327.127  14
   7   6   6 604.683 310.614  13
   7   6   6 797.513 358.331   7
  -7  -6  -6 194.445 240.610  12
   7   6   6 758.205 334.156  18
  -7  -6  -7 227.153 233.738  17
   7   6   7 500.848 369.072  13
   7   6   7 672.433 326.619   7
  -7  -6  -7 197.847 241.518  12
   7   6   7 236.598 223.955  11
  -7  -6  -8-252.706 284.428  17
   7   6   8 113.929 232.662  13
   7   6   8 293.586 267.358   7
  -7  -6  -8 413.100 222.844  12
   7   6   8-151.143 213.545  11
  -7  -6  -9 602.129 369.128  17
   7   6   9 132.088 196.295  13
   7   6   9 369.398 276.756   7
  -7  -6  -9-45.1550 183.710  12
   7   6   9 323.341 260.090  11
  -7  -6 -10 423.996 340.986  17
   7   6  10 288.960 327.332  13
   7   6  10 509.341 314.928   7
  -7  -6 -10 308.429 222.705  12
   7   6  10-55.3754 270.524  11
  -7  -6 -11 162.815 225.903  17
   7   6  11 396.884 357.202  13
   7   6  11-475.505 284.799   7
  -7  -6 -11 114.767 304.289  12
   7   6  11 162.874 203.396  11
  -7  -6 -12 111.374 197.723   4
   7   6  12 155.353 288.169   7
  -7  -6 -12 504.987 311.844  12
  -7  -6 -13 70.5658 174.267   4
  -7  -6 -13-562.468 317.904  12
  -7  -6 -14 0.35489 194.372   4
  -7  -6 -14-730.127 352.031  12
   7   7  -5 473.775 294.398   8
   7   7  -4 52.2956 167.241   8
   7   7  -4 151.367 251.487   7
  -7  -7   4 646.374 382.184  12
   7   7  -3 821.339 310.966   8
   7   7  -3 921.153 299.073   7
  -7  -7   3 800.909 356.566  12
  -7  -7   2 204.904 209.731  14
   7   7  -2-0.33690 251.685  13
   7   7  -2-308.773 236.158   7
  -7  -7   2 30.9782 256.147  12
  -7  -7   1 607.272 345.932   2
  -7  -7   1 184.576 209.890  14
   7   7  -1 34.8156 250.308  13
   7   7  -1-8.26505 163.967   7
  -7  -7   1-113.969 232.146  12
  -7  -7   0 2377.91 650.536   2
  -7  -7   0 2669.89 557.004  14
   7   7   0 2022.02 520.195  13
   7   7   0 1880.45 481.410   7
  -7  -7   0 2068.06 568.083  12
  -7  -7  -1-42.0862 262.644   2
  -7  -7  -1 113.669 244.319  14
   7   7   1 72.9301 221.914  13
   7   7   1 423.051 304.073   7
  -7  -7  -1 364.148 349.967  12
   7   7   1 352.687 234.329  18
  -7  -7  -2 1026.49 430.765   2
  -7  -7  -2 627.557 324.613  14
   7   7   2 163.661 234.512  13
   7   7   2 275.791 205.256   7
  -7  -7  -2 928.482 372.871  12
   7   7   2 743.010 318.443  18
  -7  -7  -3 309.542 248.264  14
   7   7   3 221.417 298.402  13
   7   7   3 485.899 318.674   7
  -7  -7  -3 645.783 343.489  12
   7   7   3 341.149 263.219  18
  -7  -7  -4 780.530 421.645  17
  -7  -7  -4-206.059 182.854  14
   7   7   4-274.958 250.537  13
   7   7   4 246.359 232.651   7
  -7  -7  -4 165.166 272.768  12
   7   7   4 27.3024 147.742   6
   7   7   4-11.0052 249.520  18
  -7  -7  -5 442.925 323.134  17
   7   7   5 419.563 262.437  13
   7   7   5 702.720 308.661   7
  -7  -7  -5 231.645 259.430  12
   7   7   5 591.597 266.380   6
   7   7   5 474.910 295.198  11
   7   7   5 654.370 334.957  18
  -7  -7  -6 470.751 317.371  17
   7   7   6 388.626 233.592  13
   7   7   6 25.0875 176.734   7
  -7  -7  -6 313.053 293.305  12
   7   7   6 137.305 160.186   6
   7   7   6 225.849 306.362  11
   7   7   6 33.9864 149.771  18
  -7  -7  -7 627.909 383.939  17
   7   7   7 403.576 270.524  13
   7   7   7 330.646 226.641   7
  -7  -7  -7 114.084 272.280  12
   7   7   7 361.030 230.268  11
   7   7   7 294.151 204.858  18
  -7  -7  -8 258.491 267.220  17
   7   7   8 280.346 262.781  13
   7   7   8 195.135 205.004   7
  -7  -7  -8 188.885 244.352  12
   7   7   8 478.169 293.530  11
   7   7   8 236.149 234.201  18
  -7  -7  -9 875.349 482.037  17
   7   7   9 775.397 402.614  13
  -7  -7  -9-21.7968 217.191  12
   7   7   9 592.565 338.941  11
   7   7   9 880.506 405.252  18
   7   7  10 252.424 263.232  13
  -7  -7 -10 466.393 345.900  12
   7   7  10 54.8613 207.145  11
   7   7  10-4.47510 181.964  18
  -7  -7 -11-34.4649 224.583  12
  -7  -7 -12-288.204 280.213  12
  -7  -7 -13 95.4526 237.432  12
   7   8  -3-67.9684 173.822   7
   7   8   1 1393.86 449.566  18
   7   8   2 600.873 359.149   6
   7   8   2 789.579 375.002  18
   7   8   3-275.326 244.059  13
   7   8   3 37.7922 185.706   6
   7   8   3 34.0783 196.647  18
   7   8   4 274.520 251.785  13
   7   8   4 162.950 238.906   6
   7   8   4 35.7888 221.103  11
   7   8   4 89.9089 155.908  18
  -7  -8  -5 438.720 308.583  17
   7   8   5-312.877 257.128  13
   7   8   5-108.197 192.869   6
   7   8   5-0.34882 159.070  11
   7   8   5 225.567 174.684  18
   7   8   6 433.851 312.043  13
   7   8   6 288.363 251.677   6
   7   8   6 773.247 352.622  11
   7   8   6 570.681 313.692  18
   7   8   7 407.609 261.772  13
   7   8   7 391.797 296.771   6
   7   8   7 977.092 397.311  11
   7   8   8 846.787 408.566  13
   7   8   8 562.008 354.028  11
   8   0   2 868.835 429.398  13
   8   0   3 59.8722 231.883  13
   8   0   4 777.833 415.162  13
   8   0   5-169.072 252.249  13
  -8  -1   1 218.039 258.156   4
  -8  -1   1 68.2355 225.846  14
  -8  -1   0 274.323 254.091   4
  -8  -1   0 525.620 335.665  14
   8   1   0 13.1804 267.388  13
  -8  -1  -1 1301.05 489.659   4
  -8  -1  -1 1012.83 414.567  14
   8   1   1 636.254 333.282  13
  -8  -1  -2 328.411 285.723  14
   8   1   2 150.589 284.507  13
  -8  -1  -3 242.568 257.874  17
  -8  -1  -3 77.2732 183.763  14
   8   1   3-11.4176 237.120  13
  -8  -1  -4-75.3546 204.526  17
  -8  -1  -4 447.240 306.937  14
   8   1   4-61.1783 201.226  13
  -8  -1  -5 97.0121 189.528  17
  -8  -1  -5 283.299 278.955  14
   8   1   5 381.336 250.142  13
  -8  -1  -6-225.349 246.897  17
  -8  -1  -6 197.172 257.125  14
   8   1   6 123.971 196.786  13
  -8  -1  -7 623.717 377.109  17
   8   1   7 505.810 317.711  13
  -8  -2   7 64.7936 208.921   2
  -8  -2   6 643.026 334.780   4
  -8  -2   6 1544.33 506.533   2
  -8  -2   5 457.787 346.775   4
  -8  -2   5 706.135 377.509   2
   8   2  -5 491.093 311.144   8
  -8  -2   4 62.8415 231.349   4
  -8  -2   4 558.898 330.036   2
   8   2  -4 353.792 222.596   8
  -8  -2   4-3.65955 304.609  21
  -8  -2   3 73.5162 257.571   4
  -8  -2   3 402.280 268.182   2
   8   2  -3 514.057 291.029   8
  -8  -2   3 713.439 373.178  14
   8   2  -3 461.775 333.146  13
  -8  -2   3 703.004 394.713  21
  -8  -2   2 570.732 310.976   2
  -8  -2   2 85.3966 220.676   4
   8   2  -2-326.003 266.995   8
  -8  -2   2 429.108 309.692  14
   8   2  -2 366.871 308.971  13
  -8  -2   2-655.159 370.831  21
   8   2  -1 1047.65 436.825   8
  -8  -2   1 1007.83 392.274   4
  -8  -2   1 1655.46 497.694  14
   8   2  -1 2092.09 638.986  13
  -8  -2   1 2297.10 629.582  21
  -8  -2   0 1311.36 453.012   4
  -8  -2   0 1144.90 462.344  14
   8   2   0 1872.14 512.577  13
  -8  -2   0 2719.39 696.649  21
  -8  -2  -1 88.1009 191.272   4
  -8  -2  -1 168.047 278.525  14
   8   2   1 417.359 321.869  13
  -8  -2  -2-368.355 292.512  17
  -8  -2  -2-343.802 294.949   4
  -8  -2  -2 41.8390 215.379  14
   8   2   2 70.6655 232.558  13
  -8  -2  -2 111.467 241.381  21
  -8  -2  -3 553.256 365.663  17
  -8  -2  -3 543.324 328.045   4
  -8  -2  -3 674.663 358.337  14
   8   2   3 492.082 307.737  13
  -8  -2  -3 271.739 244.969  21
  -8  -2  -4 520.997 363.247  17
  -8  -2  -4 429.074 383.667   4
  -8  -2  -4 330.859 304.942  14
   8   2   4 960.032 411.829  13
  -8  -2  -4 766.123 423.405  21
  -8  -2  -5 395.278 393.803  17
  -8  -2  -5-80.3756 256.759   4
  -8  -2  -5 395.096 304.904  14
   8   2   5 529.775 335.335  13
  -8  -2  -5 785.694 426.242  21
  -8  -2  -6-32.7914 237.707  17
  -8  -2  -6 43.3725 199.777   4
  -8  -2  -6 201.723 197.312  14
   8   2   6 55.2641 239.485  13
  -8  -2  -6 173.511 342.129  21
  -8  -2  -7 488.413 346.742  17
  -8  -2  -7 198.605 295.547  14
   8   2   7 320.896 336.169  13
  -8  -2  -8 721.901 397.763  17
   8   2   8 252.998 252.542  15
  -8  -2  -9 545.414 352.017  17
   8   2   9-50.3292 188.694  15
  -8  -2  -9-9.23628 278.317  12
   8   2  10 443.289 299.996  15
  -8  -3   8 1805.23 540.911   4
  -8  -3   7 351.627 253.062   4
  -8  -3   7 985.851 432.180  12
  -8  -3   6 366.621 259.772   4
  -8  -3   6 599.236 327.185   2
  -8  -3   6 1081.97 455.787  12
  -8  -3   6 992.731 473.825  21
  -8  -3   5 373.339 241.081   4
  -8  -3   5-92.5759 270.214   2
   8   3  -5 432.895 344.875   8
  -8  -3   5 410.188 401.208  12
  -8  -3   5 589.028 376.834  21
  -8  -3   4 779.222 342.689   4
  -8  -3   4 577.072 320.409   2
   8   3  -4 1155.89 416.099   8
  -8  -3   4 742.032 380.416  14
   8   3  -4 1004.58 481.010  13
  -8  -3   4 585.507 378.468  12
  -8  -3   4 565.993 376.045  21
  -8  -3   3 319.316 265.808   4
  -8  -3   3 185.776 270.550   2
   8   3  -3 451.809 301.756   8
  -8  -3   3 726.518 381.849  14
   8   3  -3 840.404 413.472  13
  -8  -3   3 1338.35 430.410  12
  -8  -3   3 1039.51 448.266  21
  -8  -3   2 796.061 343.326   4
  -8  -3   2 642.952 390.753   2
   8   3  -2 790.539 312.702   8
  -8  -3   2 296.009 307.097  14
   8   3  -2 474.040 410.552  13
  -8  -3   2 459.188 313.961  12
  -8  -3   2 1313.64 451.323  21
  -8  -3   1 825.945 371.110   2
  -8  -3   1 389.943 281.679   4
   8   3  -1 963.738 393.014   8
  -8  -3   1 420.726 269.774  14
   8   3  -1 733.019 395.469  13
  -8  -3   1 1183.88 446.048  12
  -8  -3   1 719.301 377.379  21
  -8  -3   0 228.299 286.415   2
  -8  -3   0 372.923 266.571   4
   8   3   0 438.761 314.392   8
  -8  -3   0-11.8861 191.854  14
   8   3   0 23.5477 235.756  13
  -8  -3   0 386.600 208.196  12
  -8  -3   0 653.571 409.314  21
  -8  -3  -1 945.233 367.632   2
  -8  -3  -1 204.290 244.618   4
   8   3   1 306.327 259.946   8
  -8  -3  -1 952.691 379.644  14
   8   3   1 171.096 183.876  13
  -8  -3  -1-142.002 278.675  12
  -8  -3  -1 757.137 420.983  21
  -8  -3  -2 658.254 420.289  17
  -8  -3  -2 552.484 345.232   2
  -8  -3  -2 393.893 252.146   4
  -8  -3  -2 1199.60 446.900  14
   8   3   2 420.292 387.478  13
  -8  -3  -2 389.587 268.312  12
  -8  -3  -2 835.690 428.851  21
  -8  -3  -3 164.707 366.797  17
  -8  -3  -3-169.230 247.971   4
  -8  -3  -3 565.487 317.038  14
   8   3   3 305.769 340.823  13
  -8  -3  -3-35.3461 245.305  12
  -8  -3  -3-64.9490 261.862  21
  -8  -3  -3-170.874 223.569   2
  -8  -3  -4 559.250 319.885  17
  -8  -3  -4 701.891 330.271   4
  -8  -3  -4 148.224 212.458  14
   8   3   4 649.550 340.620  13
  -8  -3  -4 415.382 264.644  12
  -8  -3  -4 777.511 426.985  21
  -8  -3  -5 208.481 261.287  17
  -8  -3  -5-82.2615 209.986   4
  -8  -3  -5-220.886 276.585  14
   8   3   5-56.8531 192.655  13
  -8  -3  -5-41.2520 264.404  12
  -8  -3  -5-334.076 295.189  21
  -8  -3  -6 309.496 317.931  17
  -8  -3  -6 300.972 244.157   4
  -8  -3  -6 93.0180 178.151  14
   8   3   6 310.998 319.121  13
  -8  -3  -6 337.311 250.205  12
  -8  -3  -6 35.3689 233.101  21
  -8  -3  -7 348.678 318.825  17
  -8  -3  -7 443.611 323.560   4
  -8  -3  -7 245.338 239.799  14
   8   3   7 286.715 268.918  13
  -8  -3  -7 115.930 243.342  12
  -8  -3  -7 289.054 294.580  21
  -8  -3  -8 707.262 372.921  17
  -8  -3  -8 14.3181 204.815   4
   8   3   8 495.820 381.618  13
  -8  -3  -8 427.491 282.825  12
  -8  -3  -8 574.471 383.196  21
  -8  -3  -9 354.917 308.840  17
  -8  -3  -9 424.011 270.215  12
  -8  -3 -10 735.893 374.283  12
  -8  -3 -11 743.923 336.954  12
  -8  -3 -12-14.5402 222.375  12
   8   4  -6 563.355 381.584   8
  -8  -4   6 301.182 314.493  12
  -8  -4   5 135.664 232.567   2
   8   4  -5 198.391 340.478   8
  -8  -4   5 512.093 329.031  12
  -8  -4   4 260.434 192.397   4
  -8  -4   4-107.947 202.349   2
  -8  -4   4-22.3808 187.210  14
   8   4  -4 321.063 290.744   8
   8   4  -4 715.952 374.356  13
  -8  -4   4 124.744 282.688  12
  -8  -4   4 150.740 226.487  21
  -8  -4   3 114.746 152.082   4
  -8  -4   3 467.072 326.092   2
  -8  -4   3 35.5365 218.425  14
   8   4  -3 400.923 271.170   8
   8   4  -3 364.570 274.293  13
  -8  -4   3 573.978 254.341  12
  -8  -4   3-255.077 232.474  21
  -8  -4   2 861.563 327.982   4
  -8  -4   2 662.673 390.830   2
  -8  -4   2 442.749 330.035  14
   8   4  -2 639.072 336.136   8
   8   4  -2 739.309 371.284  13
  -8  -4   2 962.645 422.605  12
  -8  -4   2 316.235 298.386  21
  -8  -4   1-108.353 184.648   4
  -8  -4   1 366.536 335.249   2
  -8  -4   1-93.9768 227.187  14
   8   4  -1 191.223 275.334   8
   8   4  -1 96.4678 272.957  13
  -8  -4   1 126.933 179.297  12
  -8  -4   1 417.616 296.606  21
  -8  -4   0 610.018 339.580   2
  -8  -4   0 995.474 386.114   4
   8   4   0 1064.52 356.206   8
  -8  -4   0 477.127 310.864  14
   8   4   0 824.069 374.995  13
  -8  -4   0 1043.60 397.915  12
  -8  -4   0 1324.96 437.789  21
  -8  -4  -1 1435.79 485.953   2
  -8  -4  -1 1165.78 380.543   4
   8   4   1 1045.56 377.695   8
  -8  -4  -1 487.655 293.460  14
   8   4   1 1180.00 448.336  13
  -8  -4  -1 945.721 377.355  12
  -8  -4  -1 1069.93 418.302  21
  -8  -4  -2 4350.64 861.330  17
  -8  -4  -2 3353.10 664.775   2
  -8  -4  -2 2963.37 586.919   4
  -8  -4  -2 3880.26 725.219  14
   8   4   2 3760.43 739.107  13
  -8  -4  -2 3576.59 693.073  12
  -8  -4  -2 3261.79 671.367  21
  -8  -4  -3 5221.03 924.849  17
  -8  -4  -3 3881.44 773.506   2
  -8  -4  -3 3907.62 678.400   4
  -8  -4  -3 4120.58 733.498  14
   8   4   3 5779.54 927.798  13
  -8  -4  -3 5052.94 805.601  12
  -8  -4  -3 4978.55 827.358  21
  -8  -4  -4 1459.73 559.328  17
  -8  -4  -4 1398.51 405.158   4
  -8  -4  -4 1441.66 441.512  14
   8   4   4 2088.34 592.260  13
  -8  -4  -4 1649.12 493.813  12
  -8  -4  -4 1669.54 566.468  21
  -8  -4  -5 39.8503 253.801  17
  -8  -4  -5 222.622 226.728   4
  -8  -4  -5 211.150 317.851  14
   8   4   5-166.677 254.840  13
  -8  -4  -5-29.2246 256.098  12
  -8  -4  -5 82.1588 239.671  21
  -8  -4  -6-169.550 296.908  17
  -8  -4  -6 498.111 282.031   4
  -8  -4  -6 660.435 335.178  14
   8   4   6 1047.21 470.583  13
  -8  -4  -6 17.6825 182.991  12
  -8  -4  -6 868.848 382.055  21
  -8  -4  -7-257.488 270.606  17
  -8  -4  -7 548.296 274.359   4
  -8  -4  -7 133.435 267.856  14
   8   4   7 583.235 333.763  13
  -8  -4  -7 207.175 218.485  12
  -8  -4  -7-3.22870 214.549  21
  -8  -4  -8 348.786 261.167   4
  -8  -4  -8 182.478 207.665  12
  -8  -4  -8-128.295 230.259  21
  -8  -4  -9 262.099 210.655   4
  -8  -4  -9 446.055 280.603  12
  -8  -4  -9 236.980 222.963  21
  -8  -4 -10-104.313 196.687   4
  -8  -4 -10 233.213 248.105  12
  -8  -4 -11 754.882 392.960  12
  -8  -4 -12-0.35898 196.372  12
   8   5  -5 987.260 423.865   8
  -8  -5   4 88.2944 230.242  14
   8   5  -4-19.8927 213.281   8
   8   5  -4 482.264 331.698  13
  -8  -5   4-153.435 217.720  12
  -8  -5   3-114.679 215.048   2
  -8  -5   3 106.325 198.482  14
   8   5  -3 2.83639 211.679   8
   8   5  -3 226.458 314.449  13
  -8  -5   3 93.0274 202.294  12
  -8  -5   3 687.090 341.761  21
  -8  -5   2 239.422 266.434   2
  -8  -5   2-282.345 248.979  14
   8   5  -2 101.855 173.900   8
   8   5  -2-58.4944 254.364  13
  -8  -5   2 205.509 351.984  12
  -8  -5   2-264.745 269.363  21
  -8  -5   1-524.830 369.462   2
  -8  -5   1-129.774 218.358  14
   8   5  -1 204.372 245.828   8
   8   5  -1 36.1179 201.873  13
  -8  -5   1 251.680 272.165  21
  -8  -5   0 1006.79 468.116   2
  -8  -5   0 345.261 281.047  14
   8   5   0 318.652 264.170  13
  -8  -5   0-14.3572 258.187  12
  -8  -5   0-79.0480 259.297  21
  -8  -5  -1 1067.56 422.066   2
  -8  -5  -1 534.197 333.075  14
   8   5   1 1015.20 488.327  13
  -8  -5  -1 781.100 283.198  12
  -8  -5  -1 328.474 306.970  21
  -8  -5  -2 4485.13 905.067  17
  -8  -5  -2 2720.37 708.093   2
  -8  -5  -2 2683.50 620.199  14
   8   5   2 2519.87 665.344  13
  -8  -5  -2 3130.67 690.522  12
  -8  -5  -2 2459.18 570.725  21
  -8  -5  -3 8372.19 1036.22  14
   8   5   3 9055.40 1156.30  13
  -8  -5  -3 8604.70 1090.31  12
  -8  -5  -3 10164.7 1072.13  21
  -8  -5  -3 8743.38 1205.15   2
  -8  -5  -3 11081.4 1357.92  17
  -8  -5  -4 3699.65 815.521  17
  -8  -5  -4 3048.44 560.439   4
  -8  -5  -4 2554.80 618.485  14
   8   5   4 4170.52 807.066  13
  -8  -5  -4 3506.68 729.923  12
  -8  -5  -4 4998.71 794.233  21
  -8  -5  -5 161.150 299.732  17
  -8  -5  -5-544.269 267.513   4
  -8  -5  -5 5.84145 207.383  14
   8   5   5 68.7676 275.970  13
  -8  -5  -5 515.124 314.498  12
  -8  -5  -5 450.529 297.833  21
  -8  -5  -6-59.7458 265.090  17
  -8  -5  -6 765.211 311.022   4
  -8  -5  -6-237.855 280.539  14
   8   5   6 171.599 251.561  13
  -8  -5  -6 24.5391 207.216  12
  -8  -5  -6-249.305 267.141  21
  -8  -5  -7-407.897 377.384  17
  -8  -5  -7-251.667 217.709   4
  -8  -5  -7-230.985 281.754  14
   8   5   7-0.42448 209.979  13
  -8  -5  -7 260.339 256.966  12
  -8  -5  -7-346.077 302.047  21
  -8  -5  -8 346.162 275.020   4
  -8  -5  -8 388.024 262.266  12
  -8  -5  -8 176.347 196.495  21
  -8  -5  -9-83.5498 171.974   4
  -8  -5  -9 294.669 317.120  12
  -8  -5  -9-353.820 284.649  21
  -8  -5 -10 100.611 183.319   4
  -8  -5 -10 292.366 301.457  12
  -8  -5 -10-263.010 270.721  21
  -8  -5 -11 1346.04 464.192   4
  -8  -5 -11 642.506 372.041  12
  -8  -5 -11 1009.74 442.195  21
  -8  -5 -12 326.757 332.044  21
  -8  -6   4-189.382 217.362  14
   8   6  -4 16.6902 236.456   8
  -8  -6   3 131.547 191.751  14
   8   6  -3 388.884 293.015   8
   8   6  -3 245.702 292.286  13
  -8  -6   2 226.419 282.015  14
   8   6  -2 305.848 290.464  13
  -8  -6   1 1034.37 387.272  14
   8   6  -1 255.187 340.439  13
  -8  -6   0 314.146 236.643  14
   8   6   0 205.281 278.702  13
  -8  -6  -1 668.336 401.837   2
  -8  -6  -1 1030.78 403.149  14
   8   6   1 883.478 431.377  13
  -8  -6  -2 462.465 375.503   2
  -8  -6  -2-4.94217 222.295  14
   8   6   2-251.889 260.658  13
  -8  -6  -3 1685.58 523.967  14
   8   6   3 1667.10 549.228  13
  -8  -6  -3 1578.03 605.743   2
  -8  -6  -4 1462.83 493.623  14
   8   6   4 1382.41 516.799  13
  -8  -6  -5 463.866 313.180  14
   8   6   5 791.834 408.944  13
  -8  -7   2 103.180 194.686  14
   8   7  -2-382.506 300.798  13
  -8  -7   1 171.273 236.540  14
   8   7  -1-33.0448 188.548  13
  -8  -7   0 268.441 278.113  14
   8   7   0-527.267 322.171  13
  -8  -7  -1 557.814 319.178  14
   8   7   1 839.199 411.041  13
  -8  -7  -2-467.882 300.432  14
   8   7   2 366.475 313.791  13
  -8  -7  -3-334.409 276.990  14
   8   7   3 373.102 353.302  13
  -8  -7  -4 549.295 374.353  14
  -9  -4   1 540.943 332.997   4
  -9  -4   0 6.00164 199.019   4
  -9  -4  -1 502.342 343.488   2
  -9  -4  -1 311.386 291.196   4
  -9  -4  -2 87.3618 221.025   2
  -9  -4  -2 15.4279 204.149   4
  -9  -4  -3 290.009 311.071   4
  -9  -5  -1-265.896 260.671  21
  -9  -5  -2 1017.16 412.971  21
  -9  -5  -3 469.201 372.367  21
  -9  -5  -4 371.599 325.377  21
  -9  -5  -5 1968.13 565.702  21
  -9  -5  -6-24.8876 215.566  21
   0   0   0    0.00    0.00   0
TITL exp_3274 in P-1
REM P-1 (#2 in standard setting)
CELL 0.71073   6.676586   7.129241  16.099491  78.4227  84.6635  65.4604
ZERR    3.00   0.000358   0.000356   0.000959   0.0049   0.0047   0.0051
LATT  1
SFAC C H N O
UNIT 33.00 30.00 3.00 3.00
TREF
HKLF 4
END
;
_shelx_hkl_checksum              23259
_shelx_res_file
;
TITL exp_3274 in P 1
REM P-1 (#2 in standard setting)
CELL 0.71073   6.676586   7.129241  16.099491  78.4227  84.6635  65.4604
ZERR    1.00   0.000358   0.000356   0.000959   0.0049   0.0047   0.0051
LATT  -1
SFAC C H O
UNIT 30 44 6
HTAB
L.S. 20
BOND $H
FMAP 2
PLAN 20
ACTA 52
DFIX 0.85 0.01 O1a H1Oa O1B H1ob
DFIX -2.2 0.01 H11A H1oA H11B H1oB
REM Instructions for potential hydrogen bonds
EQIV $1 x+1, y-1, z
HTAB C11A O1B_$1
EQIV $2 x, y+1, z
HTAB C11B O1A_$2
HTAB O1B O2A
EQIV $3 x+1, y-2, z
HTAB O1A O2B_$3
WGHT    0.065700    0.027800
FVAR      12.97859
C1A   1    0.842078   -0.190270    0.247380    11.00000    0.08353    0.03565 =
         0.06015   -0.01658    0.00255   -0.02224
AFIX  23
H1AA  2    0.969785   -0.313177    0.270504    11.00000   -1.20000
H1AB  2    0.711556   -0.212562    0.268822    11.00000   -1.20000
AFIX   0
C2A   1    0.849051   -0.163890    0.151205    11.00000    0.10604    0.04777 =
         0.06143   -0.02507   -0.00001   -0.03081
AFIX  23
H2AA  2    0.982916   -0.148280    0.129668    11.00000   -1.20000
H2AB  2    0.850431   -0.287922    0.134615    11.00000   -1.20000
AFIX   0
C3A   1    0.651429    0.026317    0.113281    11.00000    0.08784    0.07483 =
         0.06225   -0.02097   -0.00813   -0.04139
AFIX  23
H3AA  2    0.519234    0.004716    0.132416    11.00000   -1.20000
H3AB  2    0.659846    0.038846    0.052067    11.00000   -1.20000
AFIX   0
C4A   1    0.630754    0.233358    0.136064    11.00000    0.06833    0.04918 =
         0.05198   -0.00588   -0.00488   -0.01886
C5A   1    0.645049    0.201833    0.233839    11.00000    0.04923    0.03427 =
         0.05171   -0.00721    0.00210   -0.01717
AFIX  13
H5AA  2    0.512759    0.179879    0.255306    11.00000   -1.20000
AFIX   0
C6A   1    0.624628    0.396140    0.267816    11.00000    0.07280    0.02778 =
         0.05784   -0.00598    0.00423   -0.01517
AFIX  23
H6AA  2    0.762312    0.412878    0.257926    11.00000   -1.20000
H6AB  2    0.510325    0.519826    0.237084    11.00000   -1.20000
AFIX   0
C7A   1    0.569717    0.378268    0.361738    11.00000    0.06675    0.02563 =
         0.06422   -0.01068    0.00192   -0.01447
AFIX  23
H7AA  2    0.612817    0.470807    0.385329    11.00000   -1.20000
H7AB  2    0.411926    0.422462    0.369682    11.00000   -1.20000
AFIX   0
C8A   1    0.683082    0.162298    0.407013    11.00000    0.04400    0.03275 =
         0.05162   -0.01304    0.00304   -0.01730
C9A   1    0.798399   -0.006896    0.371358    11.00000    0.05114    0.03220 =
         0.05227   -0.01045    0.00051   -0.01268
C10A  1    0.839281    0.002813    0.277299    11.00000    0.04712    0.02783 =
         0.04914   -0.01011    0.00124   -0.01218
C11A  1    0.896103   -0.195888    0.439733    11.00000    0.04112    0.03338 =
         0.04935   -0.01300   -0.00087   -0.00808
AFIX  13
H11A  2    1.057201   -0.252665    0.436033    11.00000   -1.20000
AFIX   0
C12A  1    0.698988    0.096302    0.498444    11.00000    0.03843    0.03349 =
         0.05856   -0.01548    0.00009   -0.01388
C13A  1    0.804459    0.302344    0.086979    11.00000    0.10594    0.06474 =
         0.05802   -0.00617    0.00857   -0.04202
AFIX 137
H13A  2    0.948226    0.191833    0.098180    11.00000   -1.50000
H13B  2    0.797783    0.425576    0.104745    11.00000   -1.50000
H13C  2    0.775946    0.332746    0.027331    11.00000   -1.50000
AFIX   0
C14A  1    0.401215    0.400701    0.107434    11.00000    0.09160    0.08888 =
         0.07487    0.00272   -0.02540   -0.00822
AFIX 137
H14A  2    0.391490    0.536512    0.111888    11.00000   -1.50000
H14B  2    0.290364    0.371145    0.142952    11.00000   -1.50000
H14C  2    0.378846    0.398660    0.049632    11.00000   -1.50000
AFIX   0
C15A  1    1.068866    0.006216    0.262754    11.00000    0.05569    0.06852 =
         0.06789   -0.01504    0.00524   -0.02494
AFIX 137
H15A  2    1.171018   -0.105944    0.301618    11.00000   -1.50000
H15B  2    1.061922    0.137748    0.271938    11.00000   -1.50000
H15C  2    1.116918   -0.011033    0.205629    11.00000   -1.50000
AFIX   0
O1A   3    0.824976   -0.351623    0.439214    11.00000    0.05781    0.02684 =
         0.06366   -0.00965   -0.00785   -0.01044
O2A   3    0.623981    0.198799    0.554989    11.00000    0.06311    0.04556 =
         0.05838   -0.02647    0.00545   -0.01288
O3A   3    0.820515   -0.113008    0.518277    11.00000    0.04872    0.03701 =
         0.05050   -0.01432   -0.00310   -0.00824
C1B   1    0.508748    0.637348    0.750995    11.00000    0.05679    0.03740 =
         0.05267   -0.00607   -0.00434   -0.00156
AFIX  23
H1BA  2    0.526498    0.512747    0.730130    11.00000   -1.20000
H1BB  2    0.623409    0.680965    0.725319    11.00000   -1.20000
AFIX   0
C2B   1    0.534997    0.584706    0.847109    11.00000    0.07107    0.04565 =
         0.05807   -0.00384   -0.01315    0.00307
AFIX  23
H2BA  2    0.680485    0.476188    0.861396    11.00000   -1.20000
H2BB  2    0.427209    0.531530    0.872787    11.00000   -1.20000
AFIX   0
C3B   1    0.503725    0.778799    0.882294    11.00000    0.08005    0.05966 =
         0.05067   -0.00462   -0.01735   -0.01840
AFIX  23
H3BA  2    0.618806    0.824648    0.859365    11.00000   -1.20000
H3BB  2    0.520228    0.741126    0.943376    11.00000   -1.20000
AFIX   0
C4B   1    0.278481    0.962396    0.861588    11.00000    0.07028    0.03901 =
         0.04613   -0.00733   -0.00712   -0.01771
C5B   1    0.246172    1.006342    0.764005    11.00000    0.04866    0.03166 =
         0.04411   -0.00683   -0.00219   -0.01627
AFIX  13
H5BA  2    0.363687    1.049655    0.739615    11.00000   -1.20000
AFIX   0
C6B   1    0.032092    1.191428    0.731540    11.00000    0.05536    0.03093 =
         0.05624   -0.01448   -0.00118   -0.00870
AFIX  23
H6BA  2   -0.089708    1.149219    0.744053    11.00000   -1.20000
H6BB  2    0.004804    1.305905    0.761045    11.00000   -1.20000
AFIX   0
C7B   1    0.042617    1.267469    0.635968    11.00000    0.05540    0.02553 =
         0.05438   -0.01068   -0.00528   -0.00840
AFIX  23
H7BA  2   -0.105400    1.340795    0.613619    11.00000   -1.20000
H7BB  2    0.113455    1.364519    0.625270    11.00000   -1.20000
AFIX   0
C8B   1    0.168464    1.086227    0.592505    11.00000    0.03957    0.02926 =
         0.04762   -0.00793   -0.00156   -0.01498
C9B   1    0.275676    0.887678    0.629969    11.00000    0.03517    0.02894 =
         0.04709   -0.00902    0.00146   -0.01253
C10B  1    0.282819    0.812346    0.724413    11.00000    0.04017    0.02587 =
         0.04671   -0.00644    0.00110   -0.00915
C11B  1    0.388772    0.754816    0.564206    11.00000    0.03717    0.02904 =
         0.04599   -0.00623   -0.00062   -0.00674
AFIX  13
H11B  2    0.548805    0.697751    0.570618    11.00000   -1.20000
AFIX   0
C12B  1    0.198866    1.096714    0.501016    11.00000    0.03626    0.03089 =
         0.04840   -0.00881   -0.00026   -0.01076
C13B  1    0.095277    0.920333    0.915095    11.00000    0.09135    0.06710 =
         0.05156   -0.01558    0.01323   -0.02321
AFIX 137
H13D  2    0.099891    0.787694    0.908533    11.00000   -1.50000
H13E  2   -0.044807    1.029340    0.896729    11.00000   -1.50000
H13F  2    0.115607    0.917527    0.973654    11.00000   -1.50000
AFIX   0
C14B  1    0.290668    1.156055    0.886382    11.00000    0.13643    0.05811 =
         0.06640   -0.01474   -0.03401   -0.03547
AFIX 137
H14D  2    0.149972    1.272546    0.877638    11.00000   -1.50000
H14E  2    0.399961    1.190769    0.851887    11.00000   -1.50000
H14F  2    0.329635    1.125040    0.945010    11.00000   -1.50000
AFIX   0
C15B  1    0.102461    0.727013    0.744810    11.00000    0.07066    0.04413 =
         0.06042   -0.01215    0.00832   -0.03213
AFIX 137
H15D  2    0.124730    0.624938    0.710111    11.00000   -1.50000
H15E  2   -0.039597    0.840245    0.733482    11.00000   -1.50000
H15F  2    0.110081    0.662784    0.803522    11.00000   -1.50000
AFIX   0
O1B   3    0.322755    0.594619    0.565639    11.00000    0.05683    0.02802 =
         0.06443   -0.01568    0.00485   -0.01229
O2B   3    0.131892    1.247617    0.443980    11.00000    0.06299    0.03434 =
         0.05128    0.00043   -0.00616   -0.01127
O3B   3    0.323117    0.903330    0.483635    11.00000    0.05268    0.03262 =
         0.04428   -0.00788    0.00078   -0.00827
H1OB  2    0.415123    0.481397    0.548797    11.00000    0.10334
H1OA  2    0.909253   -0.480193    0.453394    11.00000    0.11941
HKLF 4
REM  exp_3274 in P 1
REM R1 =  0.0486 for    4929 Fo > 4sig(Fo)  and  0.0680 for all    6463 data
REM    339 parameters refined using      7 restraints
END
WGHT      0.0639      0.0260
REM Instructions for potential hydrogen bonds
HTAB C11A O1B_$1
HTAB C11B O1A_$2
HTAB O1B O2A
HTAB O1A O2B_$3
REM Highest difference peak  0.238,  deepest hole -0.167,  1-sigma level  0.033
Q1    1   0.6854 -0.0149  0.3668  11.00000  0.05    0.24
Q2    1   0.2809  0.8401  0.6810  11.00000  0.05    0.21
Q3    1   0.2383  0.9876  0.8139  11.00000  0.05    0.17
Q4    1   0.8393 -0.0208  0.3182  11.00000  0.05    0.16
Q5    1   0.5545  0.7210  0.5458  11.00000  0.05    0.16
Q6    1   0.6579  0.2073  0.1859  11.00000  0.05    0.15
Q7    1   0.3353  0.9314  0.4031  11.00000  0.05    0.13
Q8    1   0.7515  0.0995  0.2600  11.00000  0.05    0.13
Q9    1   0.6013 -0.1144  0.3698  11.00000  0.05    0.13
Q10   1   0.6465  0.3030  0.2517  11.00000  0.05    0.13
Q11   1   0.5613  0.3665  0.6263  11.00000  0.05    0.12
Q12   1   0.5733  0.5408  0.4832  11.00000  0.05    0.12
Q13   1   0.3104  0.9946  0.6141  11.00000  0.05    0.12
Q14   1   0.8095 -0.1436  0.5936  11.00000  0.05    0.12
Q15   1   0.4795  0.4992  0.6553  11.00000  0.05    0.12
Q16   1   0.0454  0.6687  0.6478  11.00000  0.05    0.11
Q17   1   0.0883  1.0902  0.5400  11.00000  0.05    0.11
Q18   1   0.4788  0.6186  0.8113  11.00000  0.05    0.11
Q19   1   0.1350  1.2948  0.3292  11.00000  0.05    0.11
Q20   1   0.6656 -0.2611  0.3972  11.00000  0.05    0.11
;
_shelx_res_checksum              87104
_shelxl_version_number           2014/6
#END Tags that were not found in dictionaries
loop_
_space_group_symop_operation_xyz
'x, y, z'
loop_
_atom_site_type_symbol
_atom_site_label
_atom_site_fract_x
_atom_site_fract_y
_atom_site_fract_z
_atom_site_U_iso_or_equiv
_atom_site_adp_type
_atom_site_calc_flag
_atom_site_occupancy
C C1A 0.8421(7) -0.1903(5) 0.2474(2) 0.0595(9) Uani d 1
H H1AA 0.9698 -0.3132 0.2705 0.071 Uiso calc 1
H H1AB 0.7116 -0.2126 0.2688 0.071 Uiso calc 1
C C2A 0.8491(8) -0.1639(5) 0.1512(2) 0.0696(11) Uani d 1
H H2AA 0.9829 -0.1483 0.1297 0.084 Uiso calc 1
H H2AB 0.8504 -0.2879 0.1346 0.084 Uiso calc 1
C C3A 0.6514(8) 0.0263(6) 0.1133(3) 0.0703(10) Uani d 1
H H3AA 0.5192 0.0047 0.1324 0.084 Uiso calc 1
H H3AB 0.6598 0.0388 0.0521 0.084 Uiso calc 1
C C4A 0.6308(6) 0.2334(5) 0.1361(2) 0.0584(9) Uani d 1
C C5A 0.6450(5) 0.2018(4) 0.2338(2) 0.0453(7) Uani d 1
H H5AA 0.5128 0.1799 0.2553 0.054 Uiso calc 1
C C6A 0.6246(6) 0.3961(4) 0.2678(2) 0.0552(8) Uani d 1
H H6AA 0.7623 0.4129 0.2579 0.066 Uiso calc 1
H H6AB 0.5103 0.5198 0.2371 0.066 Uiso calc 1
C C7A 0.5697(6) 0.3783(4) 0.3617(2) 0.0534(8) Uani d 1
H H7AA 0.6128 0.4708 0.3853 0.064 Uiso calc 1
H H7AB 0.4119 0.4225 0.3697 0.064 Uiso calc 1
C C8A 0.6831(5) 0.1623(4) 0.40701(19) 0.0416(7) Uani d 1
C C9A 0.7984(5) -0.0069(4) 0.3714(2) 0.0463(7) Uani d 1
C C10A 0.8393(5) 0.0028(4) 0.2773(2) 0.0420(7) Uani d 1
C C11A 0.8961(5) -0.1959(4) 0.43973(19) 0.0428(6) Uani d 1
H H11A 1.0572 -0.2527 0.4360 0.051 Uiso calc 1
C C12A 0.6990(5) 0.0963(4) 0.4984(2) 0.0427(7) Uani d 1
C C13A 0.8045(8) 0.3023(6) 0.0870(3) 0.0751(11) Uani d 1
H H13A 0.9482 0.1918 0.0982 0.113 Uiso calc 1
H H13B 0.7978 0.4256 0.1047 0.113 Uiso calc 1
H H13C 0.7759 0.3327 0.0273 0.113 Uiso calc 1
C C14A 0.4012(8) 0.4007(8) 0.1074(3) 0.0957(15) Uani d 1
H H14A 0.3915 0.5365 0.1119 0.144 Uiso calc 1
H H14B 0.2904 0.3711 0.1430 0.144 Uiso calc 1
H H14C 0.3788 0.3987 0.0496 0.144 Uiso calc 1
C C15A 1.0689(6) 0.0062(6) 0.2628(3) 0.0641(9) Uani d 1
H H15A 1.1710 -0.1059 0.3016 0.096 Uiso calc 1
H H15B 1.0619 0.1377 0.2719 0.096 Uiso calc 1
H H15C 1.1169 -0.0110 0.2056 0.096 Uiso calc 1
O O1A 0.8250(4) -0.3516(3) 0.43921(15) 0.0510(5) Uani d 1
O O2A 0.6240(4) 0.1988(3) 0.55499(15) 0.0566(6) Uani d 1
O O3A 0.8205(3) -0.1130(3) 0.51828(14) 0.0474(5) Uani d 1
C C1B 0.5087(6) 0.6373(5) 0.7510(2) 0.0550(8) Uani d 1
H H1BA 0.5265 0.5127 0.7301 0.066 Uiso calc 1
H H1BB 0.6234 0.6810 0.7253 0.066 Uiso calc 1
C C2B 0.5350(7) 0.5847(6) 0.8471(2) 0.0673(10) Uani d 1
H H2BA 0.6805 0.4762 0.8614 0.081 Uiso calc 1
H H2BB 0.4272 0.5315 0.8728 0.081 Uiso calc 1
C C3B 0.5037(7) 0.7788(6) 0.8823(2) 0.0665(10) Uani d 1
H H3BA 0.6188 0.8246 0.8594 0.080 Uiso calc 1
H H3BB 0.5202 0.7411 0.9434 0.080 Uiso calc 1
C C4B 0.2785(6) 0.9624(5) 0.8616(2) 0.0529(8) Uani d 1
C C5B 0.2462(5) 1.0063(4) 0.76401(19) 0.0414(6) Uani d 1
H H5BA 0.3637 1.0497 0.7396 0.050 Uiso calc 1
C C6B 0.0321(5) 1.1914(4) 0.7315(2) 0.0495(7) Uani d 1
H H6BA -0.0897 1.1492 0.7441 0.059 Uiso calc 1
H H6BB 0.0048 1.3059 0.7610 0.059 Uiso calc 1
C C7B 0.0426(5) 1.2675(4) 0.6360(2) 0.0470(7) Uani d 1
H H7BA -0.1054 1.3408 0.6136 0.056 Uiso calc 1
H H7BB 0.1135 1.3645 0.6253 0.056 Uiso calc 1
C C8B 0.1685(4) 1.0862(4) 0.59250(18) 0.0382(6) Uani d 1
C C9B 0.2757(4) 0.8877(4) 0.62997(18) 0.0370(6) Uani d 1
C C10B 0.2828(5) 0.8123(4) 0.72441(19) 0.0392(6) Uani d 1
C C11B 0.3888(5) 0.7548(4) 0.56421(19) 0.0398(6) Uani d 1
H H11B 0.5488 0.6978 0.5706 0.048 Uiso calc 1
C C12B 0.1989(4) 1.0967(4) 0.50102(19) 0.0393(6) Uani d 1
C C13B 0.0953(7) 0.9203(7) 0.9151(3) 0.0733(11) Uani d 1
H H13D 0.0999 0.7877 0.9085 0.110 Uiso calc 1
H H13E -0.0448 1.0293 0.8967 0.110 Uiso calc 1
H H13F 0.1156 0.9175 0.9737 0.110 Uiso calc 1
C C14B 0.2907(9) 1.1561(6) 0.8864(3) 0.0855(15) Uani d 1
H H14D 0.1500 1.2725 0.8776 0.128 Uiso calc 1
H H14E 0.4000 1.1908 0.8519 0.128 Uiso calc 1
H H14F 0.3296 1.1250 0.9450 0.128 Uiso calc 1
C C15B 0.1025(6) 0.7270(5) 0.7448(2) 0.0556(8) Uani d 1
H H15D 0.1247 0.6249 0.7101 0.083 Uiso calc 1
H H15E -0.0396 0.8402 0.7335 0.083 Uiso calc 1
H H15F 0.1101 0.6628 0.8035 0.083 Uiso calc 1
O O1B 0.3228(4) 0.5946(3) 0.56564(15) 0.0507(5) Uani d 1
O O2B 0.1319(4) 1.2476(3) 0.44398(14) 0.0533(6) Uani d 1
O O3B 0.3231(3) 0.9033(3) 0.48363(13) 0.0462(5) Uani d 1
H H1OB 0.415(3) 0.481(4) 0.549(3) 0.103(16) Uiso d 1
H H1OA 0.909(3) -0.480(2) 0.453(3) 0.119(19) Uiso d 1
loop_
_atom_site_aniso_label
_atom_site_aniso_U_11
_atom_site_aniso_U_22
_atom_site_aniso_U_33
_atom_site_aniso_U_12
_atom_site_aniso_U_13
_atom_site_aniso_U_23
C1A 0.084(3) 0.0356(16) 0.060(2) -0.0222(17) 0.0026(17) -0.0166(14)
C2A 0.106(3) 0.0478(19) 0.061(2) -0.031(2) 0.000(2) -0.0251(17)
C3A 0.088(3) 0.075(2) 0.062(2) -0.041(2) -0.008(2) -0.0210(19)
C4A 0.068(2) 0.0492(18) 0.052(2) -0.0189(16) -0.0049(16) -0.0059(15)
C5A 0.0492(17) 0.0343(14) 0.0517(18) -0.0172(13) 0.0021(13) -0.0072(12)
C6A 0.073(2) 0.0278(14) 0.058(2) -0.0152(14) 0.0042(16) -0.0060(13)
C7A 0.067(2) 0.0256(13) 0.064(2) -0.0145(13) 0.0019(16) -0.0107(13)
C8A 0.0440(16) 0.0327(13) 0.0516(18) -0.0173(12) 0.0030(13) -0.0130(12)
C9A 0.0511(18) 0.0322(14) 0.0523(18) -0.0127(13) 0.0005(14) -0.0105(12)
C10A 0.0471(16) 0.0278(12) 0.0491(17) -0.0122(11) 0.0012(13) -0.0101(11)
C11A 0.0411(15) 0.0334(14) 0.0493(17) -0.0081(12) -0.0009(12) -0.0130(12)
C12A 0.0384(15) 0.0335(14) 0.0586(18) -0.0139(12) 0.0001(13) -0.0155(13)
C13A 0.106(3) 0.065(2) 0.058(2) -0.042(2) 0.009(2) -0.0062(18)
C14A 0.092(3) 0.089(3) 0.075(3) -0.008(3) -0.025(3) 0.003(2)
C15A 0.056(2) 0.069(2) 0.068(2) -0.0249(18) 0.0052(17) -0.0150(19)
O1A 0.0578(13) 0.0268(10) 0.0637(14) -0.0104(9) -0.0078(11) -0.0096(9)
O2A 0.0631(15) 0.0456(12) 0.0584(14) -0.0129(11) 0.0055(11) -0.0265(11)
O3A 0.0487(12) 0.0370(11) 0.0505(13) -0.0082(9) -0.0031(9) -0.0143(9)
C1B 0.057(2) 0.0374(16) 0.0527(19) -0.0016(14) -0.0043(15) -0.0061(13)
C2B 0.071(2) 0.0456(18) 0.058(2) 0.0031(16) -0.0132(18) -0.0038(15)
C3B 0.080(3) 0.060(2) 0.051(2) -0.0184(19) -0.0173(18) -0.0046(16)
C4B 0.070(2) 0.0390(16) 0.0461(18) -0.0177(15) -0.0071(15) -0.0073(13)
C5B 0.0487(16) 0.0317(13) 0.0441(16) -0.0163(12) -0.0022(13) -0.0068(11)
C6B 0.0554(19) 0.0309(14) 0.0562(19) -0.0087(13) -0.0012(14) -0.0145(13)
C7B 0.0554(18) 0.0255(13) 0.0544(18) -0.0084(12) -0.0053(14) -0.0107(12)
C8B 0.0396(15) 0.0293(13) 0.0476(16) -0.0150(11) -0.0016(12) -0.0079(11)
C9B 0.0352(14) 0.0289(13) 0.0471(16) -0.0125(11) 0.0015(11) -0.0090(11)
C10B 0.0402(15) 0.0259(12) 0.0467(16) -0.0092(11) 0.0011(12) -0.0064(11)
C11B 0.0372(14) 0.0290(12) 0.0460(16) -0.0067(11) -0.0006(12) -0.0062(11)
C12B 0.0363(15) 0.0309(13) 0.0484(16) -0.0108(11) -0.0003(12) -0.0088(12)
C13B 0.091(3) 0.067(2) 0.052(2) -0.023(2) 0.0132(19) -0.0156(17)
C14B 0.136(4) 0.058(2) 0.066(3) -0.035(3) -0.034(3) -0.0147(19)
C15B 0.071(2) 0.0441(17) 0.060(2) -0.0321(16) 0.0083(16) -0.0122(14)
O1B 0.0568(13) 0.0280(10) 0.0644(14) -0.0123(9) 0.0048(10) -0.0157(9)
O2B 0.0630(15) 0.0343(11) 0.0513(13) -0.0113(10) -0.0062(10) 0.0004(9)
O3B 0.0527(12) 0.0326(10) 0.0443(12) -0.0083(9) 0.0008(9) -0.0079(8)
loop_
_atom_type_symbol
_atom_type_description
_atom_type_scat_dispersion_real
_atom_type_scat_dispersion_imag
_atom_type_scat_source
C C 0.0033 0.0016 'International Tables Vol C Tables 4.2.6.8 and 6.1.1.4'
H H 0.0000 0.0000 'International Tables Vol C Tables 4.2.6.8 and 6.1.1.4'
O O 0.0106 0.0060 'International Tables Vol C Tables 4.2.6.8 and 6.1.1.4'
loop_
_geom_angle_atom_site_label_1
_geom_angle_atom_site_label_2
_geom_angle_atom_site_label_3
_geom_angle
C2A C1A C10A 111.7(3)
C2A C1A H1AA 109.3
C10A C1A H1AA 109.3
C2A C1A H1AB 109.3
C10A C1A H1AB 109.3
H1AA C1A H1AB 107.9
C3A C2A C1A 110.5(3)
C3A C2A H2AA 109.5
C1A C2A H2AA 109.5
C3A C2A H2AB 109.5
C1A C2A H2AB 109.5
H2AA C2A H2AB 108.1
C2A C3A C4A 114.2(3)
C2A C3A H3AA 108.7
C4A C3A H3AA 108.7
C2A C3A H3AB 108.7
C4A C3A H3AB 108.7
H3AA C3A H3AB 107.6
C13A C4A C3A 110.0(3)
C13A C4A C14A 108.1(3)
C3A C4A C14A 107.2(4)
C13A C4A C5A 114.3(3)
C3A C4A C5A 108.0(3)
C14A C4A C5A 109.1(3)
C6A C5A C4A 114.8(2)
C6A C5A C10A 110.4(2)
C4A C5A C10A 116.6(2)
C6A C5A H5AA 104.5
C4A C5A H5AA 104.5
C10A C5A H5AA 104.5
C7A C6A C5A 111.8(2)
C7A C6A H6AA 109.3
C5A C6A H6AA 109.3
C7A C6A H6AB 109.3
C5A C6A H6AB 109.3
H6AA C6A H6AB 107.9
C8A C7A C6A 111.4(3)
C8A C7A H7AA 109.4
C6A C7A H7AA 109.4
C8A C7A H7AB 109.4
C6A C7A H7AB 109.4
H7AA C7A H7AB 108.0
C9A C8A C12A 108.0(3)
C9A C8A C7A 126.1(3)
C12A C8A C7A 125.8(3)
C8A C9A C11A 109.4(3)
C8A C9A C10A 123.5(3)
C11A C9A C10A 126.8(3)
C9A C10A C1A 112.3(2)
C9A C10A C15A 104.7(3)
C1A C10A C15A 109.1(3)
C9A C10A C5A 106.1(2)
C1A C10A C5A 108.9(2)
C15A C10A C5A 115.7(3)
O1A C11A O3A 108.8(2)
O1A C11A C9A 114.2(2)
O3A C11A C9A 103.8(2)
O1A C11A H11A 110.0
O3A C11A H11A 110.0
C9A C11A H11A 110.0
O2A C12A O3A 119.7(3)
O2A C12A C8A 130.1(3)
O3A C12A C8A 110.1(2)
C4A C13A H13A 109.5
C4A C13A H13B 109.5
H13A C13A H13B 109.5
C4A C13A H13C 109.5
H13A C13A H13C 109.5
H13B C13A H13C 109.5
C4A C14A H14A 109.5
C4A C14A H14B 109.5
H14A C14A H14B 109.5
C4A C14A H14C 109.5
H14A C14A H14C 109.5
H14B C14A H14C 109.5
C10A C15A H15A 109.5
C10A C15A H15B 109.5
H15A C15A H15B 109.5
C10A C15A H15C 109.5
H15A C15A H15C 109.5
H15B C15A H15C 109.5
C11A O1A H1OA 121.4(14)
C12A O3A C11A 108.7(2)
C2B C1B C10B 111.9(3)
C2B C1B H1BA 109.2
C10B C1B H1BA 109.2
C2B C1B H1BB 109.2
C10B C1B H1BB 109.2
H1BA C1B H1BB 107.9
C1B C2B C3B 110.6(3)
C1B C2B H2BA 109.5
C3B C2B H2BA 109.5
C1B C2B H2BB 109.5
C3B C2B H2BB 109.5
H2BA C2B H2BB 108.1
C2B C3B C4B 113.6(3)
C2B C3B H3BA 108.8
C4B C3B H3BA 108.8
C2B C3B H3BB 108.8
C4B C3B H3BB 108.8
H3BA C3B H3BB 107.7
C13B C4B C3B 111.1(3)
C13B C4B C14B 107.4(3)
C3B C4B C14B 106.8(3)
C13B C4B C5B 115.0(3)
C3B C4B C5B 107.9(3)
C14B C4B C5B 108.3(3)
C6B C5B C10B 110.5(2)
C6B C5B C4B 115.0(3)
C10B C5B C4B 115.5(2)
C6B C5B H5BA 104.8
C10B C5B H5BA 104.8
C4B C5B H5BA 104.8
C7B C6B C5B 111.8(3)
C7B C6B H6BA 109.3
C5B C6B H6BA 109.3
C7B C6B H6BB 109.3
C5B C6B H6BB 109.3
H6BA C6B H6BB 107.9
C8B C7B C6B 110.1(2)
C8B C7B H7BA 109.6
C6B C7B H7BA 109.6
C8B C7B H7BB 109.6
C6B C7B H7BB 109.6
H7BA C7B H7BB 108.1
C9B C8B C12B 108.1(2)
C9B C8B C7B 126.2(3)
C12B C8B C7B 125.6(2)
C8B C9B C11B 109.7(3)
C8B C9B C10B 124.3(3)
C11B C9B C10B 125.9(2)
C9B C10B C1B 110.8(2)
C9B C10B C15B 105.9(2)
C1B C10B C15B 110.0(3)
C9B C10B C5B 105.3(2)
C1B C10B C5B 109.3(2)
C15B C10B C5B 115.5(2)
O1B C11B O3B 109.5(2)
O1B C11B C9B 113.4(2)
O3B C11B C9B 103.6(2)
O1B C11B H11B 110.1
O3B C11B H11B 110.1
C9B C11B H11B 110.1
O2B C12B O3B 120.5(3)
O2B C12B C8B 129.6(3)
O3B C12B C8B 109.9(2)
C4B C13B H13D 109.5
C4B C13B H13E 109.5
H13D C13B H13E 109.5
C4B C13B H13F 109.5
H13D C13B H13F 109.5
H13E C13B H13F 109.5
C4B C14B H14D 109.5
C4B C14B H14E 109.5
H14D C14B H14E 109.5
C4B C14B H14F 109.5
H14D C14B H14F 109.5
H14E C14B H14F 109.5
C10B C15B H15D 109.5
C10B C15B H15E 109.5
H15D C15B H15E 109.5
C10B C15B H15F 109.5
H15D C15B H15F 109.5
H15E C15B H15F 109.5
C11B O1B H1OB 118.5(14)
C12B O3B C11B 108.6(2)
loop_
_geom_bond_atom_site_label_1
_geom_bond_atom_site_label_2
_geom_bond_distance
C1A C2A 1.521(5)
C1A C10A 1.540(4)
C1A H1AA 0.9700
C1A H1AB 0.9700
C2A C3A 1.511(6)
C2A H2AA 0.9700
C2A H2AB 0.9700
C3A C4A 1.540(5)
C3A H3AA 0.9700
C3A H3AB 0.9700
C4A C13A 1.536(6)
C4A C14A 1.542(6)
C4A C5A 1.551(5)
C5A C6A 1.540(4)
C5A C10A 1.558(4)
C5A H5AA 0.9800
C6A C7A 1.515(5)
C6A H6AA 0.9700
C6A H6AB 0.9700
C7A C8A 1.469(4)
C7A H7AA 0.9700
C7A H7AB 0.9700
C8A C9A 1.342(4)
C8A C12A 1.452(4)
C9A C11A 1.504(4)
C9A C10A 1.506(4)
C10A C15A 1.538(5)
C11A O1A 1.379(3)
C11A O3A 1.462(4)
C11A H11A 0.9800
C12A O2A 1.221(4)
C12A O3A 1.356(3)
C13A H13A 0.9600
C13A H13B 0.9600
C13A H13C 0.9600
C14A H14A 0.9600
C14A H14B 0.9600
C14A H14C 0.9600
C15A H15A 0.9600
C15A H15B 0.9600
C15A H15C 0.9600
O1A H1OA 0.849(14)
C1B C2B 1.526(5)
C1B C10B 1.535(4)
C1B H1BA 0.9700
C1B H1BB 0.9700
C2B C3B 1.527(5)
C2B H2BA 0.9700
C2B H2BB 0.9700
C3B C4B 1.539(5)
C3B H3BA 0.9700
C3B H3BB 0.9700
C4B C13B 1.527(6)
C4B C14B 1.547(5)
C4B C5B 1.556(4)
C5B C6B 1.534(4)
C5B C10B 1.557(4)
C5B H5BA 0.9800
C6B C7B 1.531(5)
C6B H6BA 0.9700
C6B H6BB 0.9700
C7B C8B 1.489(4)
C7B H7BA 0.9700
C7B H7BB 0.9700
C8B C9B 1.333(4)
C8B C12B 1.459(4)
C9B C11B 1.499(4)
C9B C10B 1.506(4)
C10B C15B 1.544(4)
C11B O1B 1.380(3)
C11B O3B 1.471(4)
C11B H11B 0.9800
C12B O2B 1.217(3)
C12B O3B 1.352(3)
C13B H13D 0.9600
C13B H13E 0.9600
C13B H13F 0.9600
C14B H14D 0.9600
C14B H14E 0.9600
C14B H14F 0.9600
C15B H15D 0.9600
C15B H15E 0.9600
C15B H15F 0.9600
O1B H1OB 0.865(14)
loop_
_geom_hbond_atom_site_label_D
_geom_hbond_atom_site_label_H
_geom_hbond_atom_site_label_A
_geom_hbond_site_symmetry_A
_geom_hbond_distance_DH
_geom_hbond_distance_HA
_geom_hbond_distance_DA
_geom_hbond_angle_DHA
O1B H1OB O2A . 0.865(14) 1.90(3) 2.730(3) 160(4)
O1A H1OA O2B 1_635 0.849(14) 1.918(17) 2.729(3) 160(4)
