#------------------------------------------------------------------------------
#$Date: 2015-05-17 04:27:00 +0300 (Sun, 17 May 2015) $
#$Revision: 136664 $
#$URL: svn://www.crystallography.net/cod/cif/2/01/99/2019955.cif $
#------------------------------------------------------------------------------
#
# This file is available in the Crystallography Open Database (COD),
# http://www.crystallography.net/. The original data for this entry
# were provided by IUCr Journals, http://journals.iucr.org/.
#
# The file may be used within the scientific community so long as
# proper attribution is given to the journal article from which the
# data were obtained.
#
data_2019955
loop_
_publ_author_name
'Huang, Qiu-Ying'
'Su, Ming-Yang'
'Meng, Xiang-Ru'
_publ_section_title
;
 A two-dimensional layered Cd^II^ coordination polymer with a
 three-dimensional supramolecular architecture incorporating mixed
 multidentate <i>N</i>- and <i>O</i>-donor ligands
;
_journal_issue                   6
_journal_name_full               'Acta Crystallographica Section C'
_journal_page_first
;
;
_journal_paper_doi               10.1107/S2053229615009043
_journal_volume                  71
_journal_year                    2015
_chemical_formula_iupac          '[Cd (C4 H4 O4) (C9 H8 N6)]'
_chemical_formula_moiety         'C13 H12 Cd N6 O4'
_chemical_formula_sum            'C13 H12 Cd N6 O4'
_chemical_formula_weight         428.69
_chemical_name_systematic
Poly[bis{\m~2~-1-[(1<i>H</i>-benzimidazolyl)methyl]-1<i>H</i>-tetrazole-\k^2^<i>N</i>^3^:<i>N</i>^4^}(\m~4~-butanedioato-\k^4^<i>O</i>^1^:<i>O</i>^1'^:<i>O</i>^4^:<i>O</i>^4'^)(\m~2~-butanedioato-\k^2^<i>O</i>^1^:<i>O</i>^4^)dicadmium]
_space_group_crystal_system      triclinic
_space_group_IT_number           2
_space_group_name_Hall           '-P 1'
_space_group_name_H-M_alt        'P -1'
_symmetry_space_group_name_Hall  '-P 1'
_symmetry_space_group_name_H-M   'P -1'
_atom_sites_solution_hydrogens   geom
_audit_creation_method           SHELXL-2014/7
_cell_angle_alpha                90.50(3)
_cell_angle_beta                 103.76(3)
_cell_angle_gamma                101.40(3)
_cell_formula_units_Z            2
_cell_length_a                   7.9867(16)
_cell_length_b                   8.3516(17)
_cell_length_c                   11.604(2)
_cell_measurement_reflns_used    2613
_cell_measurement_temperature    293(2)
_cell_measurement_theta_max      27.8366
_cell_measurement_theta_min      1.8107
_cell_volume                     735.7(3)
_computing_cell_refinement
;
CrystalClear (Rigaku/MSC, 2004)
;
_computing_data_collection
;
CrystalClear (Rigaku/MSC, 2004)
;
_computing_data_reduction
;
CrystalClear (Rigaku/MSC, 2004)
;
_computing_molecular_graphics
;
DIAMOND (Brandenburg & Putz, 2005)
;
_computing_publication_material
;
publCIF (Westrip, 2010)
;
_computing_structure_refinement
;
SHELXL2014 (Sheldrick, 2015)
;
_computing_structure_solution
;
SHELXS97 (Sheldrick, 2008)
;
_diffrn_ambient_temperature      293(2)
_diffrn_detector_area_resol_mean 28.5714
_diffrn_measured_fraction_theta_full 0.995
_diffrn_measured_fraction_theta_max 0.989
_diffrn_measurement_device_type  'Rigaku Saturn'
_diffrn_measurement_method       \w
_diffrn_radiation_monochromator  graphite
_diffrn_radiation_source         'fine-focus sealed tube'
_diffrn_radiation_type           MoK\a
_diffrn_radiation_wavelength     0.71073
_diffrn_reflns_av_R_equivalents  0.0201
_diffrn_reflns_limit_h_max       10
_diffrn_reflns_limit_h_min       -10
_diffrn_reflns_limit_k_max       10
_diffrn_reflns_limit_k_min       -10
_diffrn_reflns_limit_l_max       15
_diffrn_reflns_limit_l_min       -15
_diffrn_reflns_number            9080
_diffrn_reflns_theta_full        25.242
_diffrn_reflns_theta_max         27.881
_diffrn_reflns_theta_min         1.810
_exptl_absorpt_coefficient_mu    1.518
_exptl_absorpt_correction_T_max  0.8271
_exptl_absorpt_correction_T_min  0.7717
_exptl_absorpt_correction_type   multi-scan
_exptl_absorpt_process_details
;
(CrystalClear; Rigaku/MSC, 2004)
;
_exptl_crystal_colour            colourless
_exptl_crystal_density_diffrn    1.935
_exptl_crystal_description       prism
_exptl_crystal_F_000             424
_exptl_crystal_size_max          0.180
_exptl_crystal_size_mid          0.160
_exptl_crystal_size_min          0.130
_refine_diff_density_max         0.782
_refine_diff_density_min         -0.418
_refine_ls_extinction_method     none
_refine_ls_goodness_of_fit_ref   1.087
_refine_ls_hydrogen_treatment    constr
_refine_ls_matrix_type           full
_refine_ls_number_parameters     217
_refine_ls_number_reflns         3480
_refine_ls_number_restraints     0
_refine_ls_restrained_S_all      1.087
_refine_ls_R_factor_all          0.0249
_refine_ls_R_factor_gt           0.0231
_refine_ls_shift/su_max          0.001
_refine_ls_shift/su_mean         0.000
_refine_ls_structure_factor_coef Fsqd
_refine_ls_weighting_details
'w=1/[\s^2^(Fo^2^)+(0.0214P)^2^+0.5546P] where P=(Fo^2^+2Fc^2^)/3'
_refine_ls_weighting_scheme      calc
_refine_ls_wR_factor_gt          0.0533
_refine_ls_wR_factor_ref         0.0543
_reflns_number_gt                3336
_reflns_number_total             3480
_reflns_threshold_expression     I>2\s(I)
_cod_data_source_file            wq3089sup1.cf
_cod_data_source_block           I
_cod_database_code               2019955
_shelx_space_group_comment
;
The symmetry employed for this shelxl refinement is uniquely defined
by the following loop, which should always be used as a source of
symmetry information in preference to the above space-group names.
They are only intended as comments.
;
_shelx_estimated_absorpt_t_min   0.772
_shelx_estimated_absorpt_t_max   0.827
_shelx_hkl_file
;
   0   0  -1  976.26   11.45
   0   0   2   15.43    0.89
   0   0   2   16.04    1.17
   0   0   2   20.35    1.38
   0   0   2   14.60    1.66
   0   0  -2   14.18    0.92
   0   0   3  927.99   11.21
   0   0   3  946.75   11.51
   0   0  -3  924.34   11.88
   0   0   3  933.42   11.88
   0   0  -3  925.51   11.55
   0   0   4 1704.58   20.12
   0   0   4 1704.62   20.34
   0   0   4 1652.85   20.80
   0   0  -4 1703.32   21.08
   0   0  -4 1693.39   20.49
   0   0   5   17.91    1.62
   0   0   5   19.27    1.58
   0   0   5   18.06    2.25
   0   0  -5   16.63    1.37
   0   0  -5   18.04    1.86
   0   0   6 2202.76   31.62
   0   0   6 2235.32   32.67
   0   0   6 2106.69   31.76
   0   0  -6 2240.33   33.19
   0   0   7  429.48    9.26
   0   0   7  456.86    9.75
   0   0   7  435.77   10.55
   0   0  -7  435.76    9.83
   0   0   8   28.23    3.48
   0   0   8   32.26    1.98
   0   0   8   34.48    3.30
   0   0  -8   26.46    2.38
   0   0   9  175.51    5.47
   0   0   9  187.29    8.13
   0   0  -9  178.68    6.41
   0   0  10 1279.44   30.48
   0   0  10 1263.11   31.62
   0   0 -10 1256.02   30.24
   0   0  11    5.07    1.68
   0   0  11    4.34    2.72
   0   0 -11    2.31    1.91
   0   0  12   79.48    6.11
   0   0 -12   90.52    5.25
   0   0  13  122.49   12.20
   0   0 -13  137.55    7.47
   0   0  14  158.09   14.64
   0   0 -14  154.36   13.08
   0  -1  14  338.70   20.32
   0   1 -14  343.52   20.20
   0  -1  13  120.95   10.78
   0   1 -13  153.20    8.09
   0  -1  12   53.34    5.59
   0  -1  12   65.94    5.57
   0   1 -12   74.64    5.67
   0  -1  11  470.35   15.32
   0  -1  11  490.51   18.47
   0   1 -11  496.16   16.36
   0  -1  10  309.56   13.80
   0  -1  10  299.67   13.83
   0   1 -10  300.71   13.32
   0  -1   9   88.78    4.18
   0  -1   9   84.31    5.45
   0   1  -9   81.23    4.17
   0  -1   8  869.89   17.24
   0  -1   8  876.18   18.70
   0   1  -8  876.80   17.59
   0  -1   7 1675.50   23.24
   0  -1   7 1629.63   24.17
   0   1  -7 1648.67   23.18
   0  -1   6  395.19    8.52
   0  -1   6  396.93   10.91
   0  -1   6  401.71    9.16
   0   1  -6  384.89    8.28
   0   1  -6  413.87    9.02
   0  -1   5 3074.62   33.73
   0  -1   5 3110.15   34.34
   0  -1   5 3097.56   34.87
   0   1  -5 3015.13   33.02
   0   1  -5 3060.68   33.76
   0  -1   4 5425.04   62.26
   0  -1   4 5323.96   61.38
   0  -1   4 5489.34   63.45
   0   1  -4 5274.65   60.92
   0   1  -4 5299.21   60.71
   0  -1   3   38.23   19.23
   0  -1   3   78.54    2.73
   0   1  -3   91.47    2.43
   0   1  -3   83.21    2.26
   0  -1   3   87.74    2.18
   0  -1   1 2649.10   30.48
   0   1  -1 2703.09   31.06
   0  -1  -1 1303.02   14.91
   0   1   1 1316.97   15.07
   0   1   1 1293.80   15.02
   0  -1  -1 1281.74   14.89
   0   1   1 1331.05   15.71
   0  -1  -1 1339.99   15.81
   0   1   2 2159.49   25.26
   0   1   2 2242.70   26.33
   0  -1  -2 2209.01   25.85
   0  -1  -3 2404.14   27.24
   0   1   3 2459.01   29.16
   0  -1  -3 2382.80   28.15
   0   1   3 2400.91   28.48
   0  -1  -3 2407.29   28.42
   0   1   4   53.70    1.91
   0   1   4   50.04    1.41
   0   1   4   51.07    2.61
   0  -1  -4   51.48    3.57
   0   1   4   51.98    2.52
   0  -1  -4   51.78    1.97
   0   1   5  947.78   10.74
   0   1   5  950.47   11.10
   0   1   5  960.38   12.92
   0   1   5  937.90   13.44
   0   1   6 2412.61   34.04
   0   1   6 2363.60   33.65
   0   1   6 2327.32   34.79
   0   1   6 2459.83   37.97
   0   1   7    5.65    1.07
   0   1   7    5.88    1.30
   0   1   7    7.84    3.22
   0   1   7   12.13    2.80
   0   1   8  298.87   10.63
   0   1   8  311.95   10.95
   0   1   8  306.17   12.22
   0  -1  -8  317.32   12.15
   0   1   9  571.97   11.13
   0   1   9  602.21   12.17
   0   1   9  614.10   16.33
   0  -1  -9  612.46   14.04
   0   1  10  403.16   16.56
   0   1  10  466.33   20.44
   0  -1 -10  417.96   18.24
   0   1  11   98.71    6.69
   0  -1 -11  108.82    5.99
   0   1  12  319.94   15.17
   0  -1 -12  337.66   15.44
   0   1  13   53.21    5.32
   0  -1 -13   45.69    3.69
   0   1  14   60.02    5.14
   0  -1 -14   65.10    4.50
   0  -2  14  112.20   10.49
   0   2 -14  104.76    9.12
   0  -2  13  111.79    7.90
   0  -2  13  136.75    8.22
   0   2 -13  133.69    7.33
   0  -2  12  347.74   16.59
   0  -2  12  428.72   19.14
   0   2 -12  393.04   17.34
   0  -2  11  259.74   11.92
   0  -2  11  281.67   12.68
   0   2 -11  278.97   11.41
   0  -2  10   19.05    3.00
   0   2 -10   13.79    1.59
   0  -2   9  550.20   15.77
   0  -2   9  527.81   15.80
   0   2  -9  535.39   15.22
   0  -2   8 2166.44   47.50
   0  -2   8 2124.97   47.12
   0   2  -8 2097.79   45.77
   0  -2   7  502.15   13.50
   0  -2   7  486.32   13.55
   0   2  -7  472.85   12.35
   0  -2   6 2580.67   38.01
   0  -2   6 2698.53   40.32
   0   2  -6 2589.11   37.23
   0   2  -6 2615.94   38.34
   0  -2   5 3355.12   37.65
   0  -2   5 3450.56   39.35
   0   2  -5 3427.26   37.41
   0  -2   5 3403.25   36.94
   0  -2   4 2909.62   32.60
   0  -2   4 3011.84   33.37
   0   2  -4 3043.30   33.48
   0   2  -4 3033.07   33.14
   0  -2   4 3021.02   32.62
   0  -2   3 2067.59   25.67
   0   2  -3 2066.80   25.05
   0  -2   3 2063.76   24.61
   0   2  -3 2105.05   25.04
   0   2  -3 2044.73   24.12
   0  -2   3 2089.79   24.49
   0   2  -2 4508.58   52.10
   0   2  -1  939.28   11.97
   0  -2   1  932.46   11.01
   0   2  -1  936.41   11.07
   0   2  -1  911.95   11.21
   0  -2   1  909.07   11.20
   0  -2   0  158.26    3.13
   0   2   0  162.03    3.18
   0  -2   0  160.26    2.32
   0  -2   0  159.21    2.16
   0   2   0  158.81    2.98
   0  -2   0  158.35    3.01
   0  -2  -1  557.34    7.34
   0   2   1  587.54    7.50
   0   2   1  573.37    7.23
   0  -2  -1  575.25    7.10
   0   2   1  573.31    8.03
   0  -2  -1  574.57    8.17
   0  -2  -2 1241.15   14.65
   0   2   2 1252.20   14.69
   0   2   2 1261.93   15.26
   0  -2  -2 1276.37   15.43
   0   2   2 1220.49   16.00
   0  -2  -2 1203.99   15.12
   0  -2  -3 1119.53   13.12
   0   2   3 1113.84   14.13
   0  -2  -3 1131.93   14.65
   0  -2  -3 1111.69   14.98
   0  -2  -4 2273.98   23.73
   0   2   4 2270.19   23.72
   0   2   4 2279.48   26.10
   0  -2  -4 2277.82   26.32
   0   2   4 2316.13   27.62
   0   2   5 1678.48   23.32
   0   2   5 1701.91   26.03
   0   2   5 1765.82   27.24
   0   2   6  927.15   12.03
   0   2   6  980.86   15.50
   0   2   6  963.01   17.56
   0   2   7 1149.54   20.35
   0   2   7 1161.31   20.53
   0   2   7 1185.70   24.37
   0   2   7 1209.37   25.06
   0   2   8 1201.99   25.67
   0   2   8 1263.22   26.88
   0   2   8 1281.41   29.70
   0   2   8 1243.21   32.29
   0   2   9   11.66    1.49
   0   2   9   11.03    0.96
   0   2   9   15.35    4.17
   0   2   9   14.56    3.84
   0   2  10   15.30    4.56
   0  -2 -10   13.15    2.96
   0   2  11  341.83   14.52
   0  -2 -11  339.93   14.33
   0   2  12   63.01    9.94
   0  -2 -12   65.31    6.42
   0   2  13    6.62    3.55
   0  -2 -13    6.02    2.17
   0   2  14  160.89    9.66
   0  -2 -14  131.18    8.76
   0  -3  14   79.30    7.34
   0  -3  14   58.86    4.65
   0  -3  13  238.13   10.60
   0  -3  13  280.72   12.85
   0  -3  12  142.69   10.33
   0  -3  12  133.94   12.86
   0   3 -12  128.23    9.32
   0  -3  11    3.77    2.55
   0  -3  11    2.85    3.67
   0   3 -11    4.23    2.29
   0  -3  10 1330.40   43.41
   0  -3  10 1382.94   45.57
   0   3 -10 1319.03   43.03
   0  -3   9  689.05   16.53
   0  -3   9  696.07   16.95
   0   3  -9  643.96   14.64
   0  -3   8   26.60    3.21
   0  -3   7  942.68   19.13
   0  -3   7  940.80   18.96
   0   3  -7  949.66   18.38
   0  -3   6 2447.07   33.80
   0  -3   6 2382.66   32.90
   0   3  -6 2428.42   32.14
   0  -3   6 2379.61   31.25
   0  -3   5  166.05    7.70
   0  -3   5  168.43    4.93
   0   3  -5  177.25    4.60
   0  -3   5  177.65    4.28
   0  -3   4 1520.94   18.99
   0  -3   4 1464.76   18.02
   0   3  -4 1519.43   17.81
   0   3  -4 1487.04   17.82
   0  -3   4 1486.56   17.01
   0  -3   3 3523.57   37.97
   0   3  -3 3572.67   38.46
   0  -3   3 3531.33   37.95
   0  -3   2 1140.12   14.30
   0   3  -2 1120.50   13.91
   0  -3   2 1099.26   12.47
   0   3  -2 1124.11   12.77
   0   3  -2 1126.76   13.15
   0  -3   2 1143.46   13.40
   0  -3   1    0.52    1.56
   0   3  -1    0.72    1.08
   0  -3   1    2.30    0.53
   0   3  -1    1.63    0.99
   0   3  -1    3.18    1.52
   0  -3   1    0.77    1.27
   0  -3   0 1080.45   14.28
   0   3   0 1103.02   14.04
   0  -3   0 1102.57   12.69
   0  -3   0 1106.71   12.79
   0   3   0 1112.17   14.09
   0  -3   0 1119.42   14.20
   0  -3  -1 1203.38   15.02
   0   3   1 1224.91   15.19
   0   3   1 1228.68   14.53
   0  -3  -1 1201.69   14.15
   0   3   1 1226.59   16.15
   0  -3  -1 1216.42   15.54
   0  -3  -2  163.37    3.27
   0   3   2  167.21    3.20
   0  -3  -2  156.37    2.79
   0   3   2  164.08    3.77
   0  -3  -2  156.17    5.97
   0  -3  -3 2562.69   27.51
   0   3   3 2559.05   27.40
   0   3   3 2476.56   27.62
   0  -3  -3 2475.51   27.79
   0   3   3 2518.24   29.16
   0  -3  -4 1737.86   24.44
   0   3   4 1729.61   24.27
   0   3   4 1752.30   26.33
   0  -3  -4 1692.06   25.92
   0   3   4 1749.19   27.21
   0   3   5  108.41    3.89
   0   3   5  102.20    6.12
   0   3   6  172.06    5.79
   0   3   6  165.53    7.72
   0   3   7  427.31   16.00
   0   3   7  398.57   16.08
   0   3   8  127.49    5.90
   0   3   8  129.60    7.40
   0   3   9  290.40   15.95
   0   3   9  279.57   15.28
   0   3  10  196.49   10.72
   0   3  10  167.12   16.15
   0   3  11  281.34   14.79
   0  -3 -11  302.14   15.13
   0   3  12   32.73    3.51
   0  -3 -12   26.98    4.60
   0   3  13  314.48   19.75
   0  -3 -13  332.59   20.34
   0  -4  14  310.01   14.08
   0  -4  14  240.43   14.98
   0  -4  13   65.84    4.50
   0  -4  13   60.56   14.60
   0  -4  12   12.69    4.38
   0  -4  12   12.64    3.04
   0  -4  11  612.16   31.67
   0  -4  11  672.81   28.48
   0   4 -11  618.56   25.19
   0  -4  10  605.36   20.06
   0  -4  10  594.42   20.02
   0   4 -10  569.36   17.82
   0  -4   9    2.43    1.55
   0  -4   9    3.42    3.00
   0   4  -9    3.09    1.53
   0  -4   8  905.31   20.65
   0  -4   8  936.62   20.91
   0   4  -8  920.69   19.75
   0  -4   7  990.86   23.56
   0  -4   7 1035.60   24.10
   0   4  -7  963.52   22.11
   0  -4   6  173.90    5.77
   0   4  -6  182.69    5.90
   0  -4   6  176.52    5.20
   0  -4   5  494.24   11.37
   0  -4   5  509.76   10.81
   0   4  -5  498.54   10.19
   0  -4   5  497.41    9.98
   0  -4   4 1265.27   19.02
   0  -4   4 1345.77   20.34
   0   4  -4 1329.18   19.91
   0   4  -4 1303.99   18.67
   0  -4   4 1328.54   18.09
   0  -4   3  248.20    6.80
   0  -4   3  233.56    5.53
   0   4  -3  250.10    5.34
   0   4  -3  254.17    6.05
   0  -4   3  228.00    5.19
   0  -4   2  131.87    4.51
   0  -4   2  127.09    3.05
   0   4  -2  128.77    2.96
   0   4  -2  134.97    3.80
   0  -4   2  126.65    4.54
   0  -4   1 1196.01   15.39
   0  -4   1 1191.59   13.00
   0  -4   1 1194.64   12.97
   0   4  -1 1173.98   15.05
   0  -4   1 1176.91   14.30
   0  -4   0 2049.12   23.75
   0  -4   0 2061.66   21.64
   0  -4   0 2031.35   21.34
   0   4   0 2082.96   24.22
   0  -4   0 2052.38   23.44
   0  -4  -1  513.63    7.61
   0   4   1  519.40    7.50
   0   4   1  539.21    6.64
   0  -4  -1  513.36    6.25
   0   4   1  529.29    8.41
   0  -4  -2 1830.59   26.89
   0   4   2 1804.70   26.38
   0   4   2 1795.35   25.95
   0  -4  -2 1809.78   25.81
   0   4   2 1765.44   27.26
   0  -4  -3 1678.15   24.45
   0   4   3 1661.22   24.29
   0   4   3 1656.76   24.50
   0  -4  -3 1643.43   24.29
   0   4   3 1660.11   26.06
   0  -4  -4   91.49    3.80
   0   4   4   84.60    2.77
   0   4   4   85.35    3.07
   0  -4  -4   79.00    4.30
   0   4   4   94.77    5.37
   0  -4  -5  130.61    3.86
   0   4   5  137.60    4.93
   0   4   5  140.88    6.46
   0   4   6  471.86   17.15
   0   4   6  444.05   19.78
   0   4   7  311.70    9.45
   0   4   7  301.27    9.83
   0   4   8  144.93    8.05
   0   4   8  134.75   10.75
   0   4   9  413.42   15.29
   0   4   9  392.54   22.24
   0   4  10   85.26    4.59
   0   4  10   82.92    7.20
   0   4  11   93.81    8.09
   0   4  11   88.57    8.01
   0   4  12  468.30   18.79
   0  -4 -12  515.73   21.19
   0   4  13  186.91   10.80
   0  -4 -13  179.34   10.37
   0  -5  13   19.30    3.25
   0  -5  13   17.98    6.03
   0  -5  12  153.29   14.01
   0  -5  12  178.34   11.08
   0  -5  11  259.80   12.42
   0  -5  11  259.50   15.38
   0  -5  10    6.98    4.75
   0  -5  10    3.49    2.48
   0   5 -10    8.84    3.77
   0  -5   9  357.76   16.94
   0  -5   9  340.14   16.01
   0   5  -9  331.21   15.96
   0  -5   8  729.96   25.68
   0  -5   8  759.22   25.44
   0   5  -8  716.43   23.37
   0  -5   7   26.35    8.01
   0  -5   7   26.10    2.69
   0   5  -7   28.51    2.74
   0  -5   6   35.22    3.44
   0  -5   6   38.08    3.37
   0   5  -6   34.55    2.68
   0  -5   5  477.72   17.61
   0  -5   5  489.09   12.32
   0   5  -5  487.64   12.13
   0  -5   5  458.12   15.78
   0  -5   4  837.56   18.26
   0  -5   4  882.11   16.73
   0   5  -4  846.52   16.01
   0   5  -4  874.47   16.73
   0  -5   4  842.50   16.18
   0  -5   3   45.16    4.35
   0  -5   3   42.90    2.10
   0   5  -3   41.79    1.61
   0   5  -3   46.48    3.76
   0  -5   3   40.21    2.60
   0  -5   2 3757.55   49.95
   0  -5   2 3604.46   45.31
   0   5  -2 3686.80   47.74
   0  -5   1 1696.95   25.42
   0  -5   1 1661.83   20.80
   0  -5   1 1636.56   20.49
   0   5  -1 1720.26   24.28
   0  -5   0    1.16    2.01
   0   5   0    2.73    1.53
   0  -5  -1  855.13   13.12
   0  -5  -1  855.32   11.11
   0  -5  -1  855.32   11.25
   0   5   1  866.66   14.27
   0  -5  -2  591.58   12.07
   0   5   2  564.42   11.31
   0   5   2  580.06   11.16
   0  -5  -2  576.42   10.88
   0   5   2  558.19   12.96
   0  -5  -3  161.05    5.09
   0   5   3  147.35    5.37
   0   5   3  149.38    4.54
   0  -5  -3  148.28    5.59
   0   5   3  150.71    9.30
   0  -5  -4  193.71    7.06
   0   5   4  165.23    6.05
   0   5   4  184.74    7.15
   0  -5  -4  177.64    6.66
   0   5   4  189.21    8.47
   0  -5  -5 1358.52   24.63
   0  -5  -5 1409.84   25.68
   0   5   5 1444.88   27.67
   0   5   5 1463.11   29.41
   0  -5  -6    1.82    0.39
   0   5   6    7.67    1.94
   0   5   6    0.52    1.89
   0   5   7   70.34    4.61
   0   5   7   80.45    7.27
   0   5   8 1070.11   32.71
   0   5   8 1008.14   33.20
   0   5   9   55.26    4.18
   0   5   9   51.11    3.82
   0   5  10   21.83    3.13
   0   5  10   24.07    8.41
   0   5  11  270.19   11.81
   0   5  11  213.57   18.55
   0   5  12   49.28   10.63
   0  -6  12  135.64   13.42
   0  -6  12  135.00   15.63
   0  -6  11    1.03    2.19
   0  -6  11    4.86    2.67
   0  -6  10   97.99    8.26
   0  -6  10  115.72    8.70
   0  -6   9  416.65   14.88
   0  -6   9  430.60   14.61
   0  -6   8  453.93   18.01
   0  -6   8  476.75   16.76
   0   6  -8  436.76   14.79
   0  -6   7   80.71    7.91
   0  -6   7   75.27    4.74
   0   6  -7   78.04    4.27
   0  -6   6 1438.08   35.61
   0  -6   6 1503.27   34.38
   0   6  -6 1527.69   35.22
   0  -6   5  170.55    7.23
   0  -6   5  188.99    6.44
   0   6  -5  179.75    5.89
   0  -6   4  103.81    5.26
   0  -6   4  113.43    3.68
   0   6  -4   98.74    3.93
   0   6  -4  103.33    3.79
   0  -6   3  524.19   17.18
   0  -6   3  521.05   11.77
   0   6  -3  519.51   11.88
   0   6  -3  532.73   13.20
   0  -6   2 1019.60   25.61
   0  -6   2  934.97   19.90
   0  -6   2  976.47   20.74
   0   6  -2 1016.80   23.08
   0  -6   1   33.95    6.29
   0   6  -1   29.79    3.12
   0  -6   0  628.73   15.46
   0   6   0  638.69   15.36
   0  -6  -1  516.74   14.20
   0   6   1  506.24   16.04
   0  -6  -2  130.61    5.94
   0   6   2  135.10    5.57
   0  -6  -2  132.44    4.74
   0   6   2  133.39    6.02
   0  -6  -3  575.53   12.80
   0   6   3  581.89   11.57
   0  -6  -3  549.00   10.59
   0   6   3  592.46   13.85
   0  -6  -4  850.78   19.41
   0   6   4  866.40   18.21
   0   6   4  837.60   19.39
   0  -6  -5   26.89    4.61
   0   6   5   23.72    4.21
   0   6   5   24.13    6.45
   0   6   6  305.92   12.56
   0   6   6  281.87   17.74
   0   6   7  214.48   10.44
   0   6   7  178.99   14.90
   0   6   8  533.37   17.77
   0   6   8  563.44   19.02
   0   6   9   52.54    4.88
   0   6   9   53.81   12.44
   0   6  10  320.85   13.27
   0   6  10  348.79   16.68
   0   6  11  154.24   13.31
   0   6  11  139.74   18.33
   0  -7  11  159.04   13.73
   0  -7  10  474.74   19.51
   0  -7   9   71.21   16.26
   0  -7   9   76.57    6.79
   0  -7   8  155.45    9.63
   0  -7   8  166.24    8.85
   0  -7   7  486.52   22.34
   0  -7   7  424.36   15.18
   0  -7   6  288.22   14.75
   0  -7   6  272.85   14.02
   0   7  -6  301.05   13.37
   0  -7   5   22.38    3.64
   0  -7   5   20.77    3.60
   0   7  -5   22.77    4.39
   0  -7   4  340.92   14.84
   0   7  -4  330.79   13.23
   0  -7   3 1097.00   28.39
   0   7  -3 1150.30   26.92
   0  -7   2   38.42    9.83
   0   7  -2   25.41    7.16
   0  -7   1  137.82    9.35
   0   7  -1  115.55    8.03
   0  -7   0  385.36   12.02
   0   7   0  399.92   13.05
   0  -7  -1   14.99    3.80
   0   7   1   11.19    4.89
   0  -7  -2  353.96   15.26
   0   7   2  361.38   15.88
   0  -7  -3 1187.46   38.61
   0   7   3 1152.40   38.61
   0  -7  -4  224.24   10.16
   0   7   4  196.66    8.73
   0   7   4  208.47   15.50
   0   7   5  177.68    9.28
   0   7   5  207.27   11.52
   0   7   6  590.43   18.67
   0   7   6  621.63   25.13
   0   7   7  104.98    9.82
   0   7   7  132.48    9.46
   0   7   8   88.38    9.20
   0   7   9  142.46   15.07
   0   7  10  112.09   11.64
   0  -8  10  160.65    9.49
   0  -8   9   65.24    5.40
   0  -8   8  292.71   14.30
   0  -8   7   72.56    6.42
   0  -8   6   14.87    3.41
   0  -8   5  968.34   30.03
   0   8  -5  972.80   28.46
   0  -8   4  242.48   11.07
   0   8  -4  244.01   10.45
   0  -8   3   39.81    4.47
   0   8  -3   38.92    3.66
   0  -8   2  420.37   15.19
   0   8  -2  383.21   18.47
   0  -8   1  269.50   13.31
   0   8  -1  292.18   14.55
   0  -8   0  155.36    8.34
   0   8   0  160.15    9.01
   0  -8  -1  987.80   29.99
   0   8   1  969.00   29.67
   0  -8  -2  395.06   14.77
   0   8   2  368.19   17.66
   0  -8  -3   17.90    2.45
   0   8   3   21.47    5.63
   0   8   4   79.09    7.45
   0   8   5  282.61   18.85
   0   8   6   38.23   10.25
   0   8   8   86.10    8.41
   0   8   9  148.54   11.44
   0  -9   8   79.14    8.54
   0  -9   7   23.77    4.05
   0  -9   6  401.51   17.10
   0  -9   5  163.21    9.02
   0  -9   4   32.88    3.43
   0  -9   3  206.28   14.88
   0   9  -3  187.99   14.73
   0  -9   2  478.59   23.46
   0   9  -2  483.39   22.66
   0  -9   1    1.74    1.40
   0   9  -1    2.90    2.63
   0  -9   0  264.25   15.50
   0   9   0  245.97   13.48
   0  -9  -1  369.83   18.81
   0   9   1  362.67   20.36
   0  -9  -2   31.56    3.49
   0   9   2   33.52    4.24
   0   9   3    2.31    2.11
   0   9   4  140.00   12.41
   0   9   5   87.09    9.58
   0   9   6    3.37    3.11
   0   9   7  136.87   12.14
   0 -10   6  181.30   11.18
   0 -10   5    1.44    2.15
   0 -10   4  134.22   12.19
   0 -10   3  223.37   14.88
   0 -10   2    2.28    1.93
   0 -10   1  164.55   18.57
   0  10  -1  176.67    9.12
   0 -10   0  147.42    9.44
   0  10   0  134.73   12.00
   0 -10  -1   78.84    4.75
   0  10   1   89.68    6.04
   0  10   2   31.59    9.10
   0  10   3  221.86   14.47
   0  10   4   74.45   12.76
  -1  10   5   18.88    5.63
  -1  10   4  107.23    9.72
  -1  10   3  225.99   14.58
  -1  10   2   14.28    5.10
   1 -10  -1  194.32   12.14
  -1  10   1  171.92    8.69
   1 -10   0   73.91    9.50
  -1  10   0   64.51   10.92
   1 -10   1    6.81    2.90
   1 -10   2  132.69    6.79
   1 -10   3  481.57   27.81
   1 -10   4   59.23    4.62
   1 -10   5   82.09    8.07
   1 -10   6  219.68   11.72
  -1   9   8  168.28   10.14
  -1   9   7   81.38   11.82
  -1   9   6   20.68    5.96
  -1   9   5  322.49   16.88
  -1   9   4   16.73    4.81
  -1   9   3    2.53    1.27
   1  -9  -2  156.27    9.95
  -1   9   2  149.47   11.54
   1  -9  -1  185.47   10.00
  -1   9   1  196.07   12.61
   1  -9   0    1.53    1.88
  -1   9   0    3.09    2.95
   1  -9   1  309.48   14.36
  -1   9  -1  263.99   13.97
   1  -9   2  382.20   20.30
  -1   9  -2  383.91   17.71
   1  -9   3   39.57    4.89
   1  -9   4  112.55   13.07
   1  -9   5  417.33   22.90
   1  -9   6   79.17    6.72
   1  -9   7   38.40    4.90
   1  -9   8  207.49   13.12
  -1   8   9  212.74   20.74
  -1   8   8    5.10    4.08
  -1   8   7    4.93    2.66
  -1   8   6  136.93   12.22
  -1   8   5  211.30   17.39
  -1   8   4  100.71    6.00
   1  -8  -3  199.15    9.82
  -1   8   3  183.21   12.18
   1  -8  -2  422.27   15.83
  -1   8   2  450.13   17.29
   1  -8  -1  189.16    9.53
  -1   8   1  186.48   11.27
   1  -8   0  445.74   15.34
  -1   8   0  417.20   16.62
   1  -8   1 1093.20   34.04
  -1   8  -1 1095.31   33.43
   1  -8   2   38.95    3.74
  -1   8  -2   40.28    8.02
   1  -8   3   41.75    4.13
  -1   8  -3   39.96    4.74
   1  -8   4  341.76   14.57
  -1   8  -4  304.04   12.77
   1  -8   5  265.47   13.59
   1  -8   6  325.80   15.30
   1  -8   7  263.67   13.41
   1  -8   8  170.68   12.77
   1  -8   9    0.57    2.75
   1  -8  10  228.11   11.65
  -1   7  11   63.86   11.53
  -1   7  11   51.18   13.56
  -1   7  10   68.84    7.40
  -1   7  10   39.44   11.52
  -1   7   9   87.71    8.23
  -1   7   9   87.51    8.47
  -1   7   8   70.75    8.93
  -1   7   8   71.47    7.98
  -1   7   7   80.93    3.93
  -1   7   7   89.53   13.22
  -1   7   6  407.04   14.98
  -1   7   6  408.28   19.50
  -1   7   5   28.57    2.21
  -1   7   5   27.08    6.77
   1  -7  -4  932.83   30.61
  -1   7   4  922.03   30.60
  -1   7   4  949.98   32.07
   1  -7  -3  909.79   22.20
  -1   7   3  882.51   20.33
  -1   7   3  954.21   25.72
   1  -7  -2    9.84    2.21
   1  -7  -2    7.57    1.94
  -1   7   2    2.45    1.85
   1  -7  -1  676.90   15.86
   1  -7  -1  651.27   13.71
  -1   7   1  677.94   15.62
   1  -7   0  389.18   12.70
   1  -7   0  376.43    9.89
  -1   7   0  394.27   11.78
   1  -7   1  142.28   11.83
   1  -7   1  145.84    8.58
  -1   7  -1  132.98    9.82
   1  -7   2  283.00    9.73
   1  -7   2  278.44    7.71
  -1   7  -2  274.00    8.50
   1  -7   3  414.21   18.11
   1  -7   3  391.22   16.10
  -1   7  -3  410.67   16.76
   1  -7   4  145.41    8.13
   1  -7   4  146.30    6.91
  -1   7  -4  129.13    6.79
   1  -7   5   78.80    5.91
   1  -7   5   78.44    5.26
  -1   7  -5   78.19    4.87
   1  -7   6  691.26   22.87
   1  -7   6  635.50   19.46
   1  -7   7  216.89   11.67
   1  -7   7  231.81   10.89
   1  -7   8    1.59    2.42
   1  -7   8    2.45    2.52
   1  -7   9  172.78   15.38
   1  -7   9  151.32    8.53
   1  -7  10  327.11   20.03
   1  -7  10  275.88   16.23
   1  -7  11   24.54   14.51
   1  -7  11   38.35    3.63
  -1   6  12   32.30    3.85
   1  -6 -12   44.11    4.85
  -1   6  11  112.99    6.16
  -1   6  10   30.59    3.06
  -1   6  10   31.46    8.16
  -1   6   9    6.76    2.80
  -1   6   9    3.38    2.56
  -1   6   8  874.00   30.63
  -1   6   8  878.67   36.62
  -1   6   7   90.18    4.99
  -1   6   7   83.97    5.65
  -1   6   6  142.98    9.20
  -1   6   6  141.54   14.77
   1  -6  -5  568.16   12.79
  -1   6   5  558.28   24.74
  -1   6   5  567.35   17.09
   1  -6  -4  412.47   10.49
   1  -6  -4  453.78   10.76
  -1   6   4  451.51   10.07
  -1   6   4  443.06   12.34
   1  -6  -3  230.39    8.78
  -1   6   3  220.23    8.63
   1  -6  -3  202.72    7.38
  -1   6   3  225.47   10.70
   1  -6  -2 1233.63   27.70
   1  -6  -2 1214.34   26.26
  -1   6   2 1270.46   29.14
   1  -6  -1  221.04    8.70
   1  -6  -1  198.81    7.02
   1  -6  -1  205.26    7.30
  -1   6   1  208.90    8.46
   1  -6   0   50.68    2.94
   1  -6   0   53.25    1.97
   1  -6   0   58.47    2.22
  -1   6   0   57.29    5.64
   1  -6   1  277.93   10.88
   1  -6   1  313.18   10.87
   1  -6   1  295.92   10.26
  -1   6  -1  289.13   11.68
   1  -6   2 1836.35   41.02
   1  -6   2 1809.84   38.80
  -1   6  -2 1834.62   39.66
   1  -6   3  242.13    9.92
   1  -6   3  266.72    9.70
  -1   6  -3  263.67    9.47
  -1   6  -3  256.02    9.58
   1  -6   3  257.08    9.23
   1  -6   4   64.62    4.23
   1  -6   4   67.69    5.96
  -1   6  -4   56.56    2.77
   1  -6   4   52.42    2.17
   1  -6   5  509.71   15.90
   1  -6   5  470.10   15.64
  -1   6  -5  509.78   13.85
   1  -6   6 1294.21   31.66
   1  -6   6 1263.66   30.20
  -1   6  -6 1186.62   26.62
   1  -6   7   53.21    5.21
   1  -6   7   64.84    4.85
  -1   6  -7   45.45    3.88
   1  -6   8 1154.31   39.04
   1  -6   8 1157.72   38.93
   1  -6   9  213.17   12.13
   1  -6   9  203.77   11.41
   1  -6  10   31.03    3.92
   1  -6  10   24.83    3.66
   1  -6  11   69.88    9.80
   1  -6  11   74.53    6.12
   1  -6  12  176.54   11.06
   1  -6  12  171.51   10.41
  -1   5  13   47.78    9.94
   1  -5 -13   72.98    6.38
  -1   5  12  152.93    7.74
   1  -5 -12  171.36    8.90
  -1   5  11  114.27    7.04
   1  -5 -11  116.09    7.47
  -1   5  10   45.92    3.65
  -1   5  10   41.80   12.10
  -1   5   9  288.00   12.48
  -1   5   9  289.07   21.19
  -1   5   8  100.02    9.26
  -1   5   8  120.56   11.45
  -1   5   7    8.27    2.62
  -1   5   7    4.95    3.38
  -1   5   6  479.76   10.90
  -1   5   6  493.51   12.73
   1  -5  -5 1626.93   34.59
   1  -5  -5 1625.20   34.65
  -1   5   5 1669.24   37.53
  -1   5   5 1729.09   41.75
   1  -5  -4   52.46    2.20
   1  -5  -4   53.93    2.61
  -1   5   4   45.80    3.17
   1  -5  -3  257.76    6.79
   1  -5  -3  257.05    7.39
  -1   5   3  257.73    8.37
   1  -5  -3  250.02    6.80
  -1   5   3  258.58    7.98
   1  -5  -2  563.51   11.40
   1  -5  -2  564.86   11.87
  -1   5   2  570.28   11.27
   1  -5  -2  562.47   10.85
  -1   5   2  611.99   16.02
   1  -5  -1   55.35    2.68
   1  -5  -1   45.14    1.93
   1  -5  -1   49.16    1.88
  -1   5   1   48.09    2.52
   1  -5   0  473.67   10.47
   1  -5   0  459.18    9.01
   1  -5   0  471.31    9.18
  -1   5   0  459.13    9.89
   1  -5   1 3761.93   49.86
   1  -5   1 3731.49   47.70
   1  -5   1 3798.16   48.34
  -1   5  -1 3807.63   48.76
   1  -5   1 3791.80   48.48
   1  -5   2 2514.45   34.58
   1  -5   2 2498.68   32.69
  -1   5  -2 2552.70   33.14
  -1   5  -2 2591.63   33.58
   1  -5   2 2504.40   32.51
   1  -5   3  172.97   12.15
   1  -5   3  204.20    6.02
  -1   5  -3  186.66    5.52
  -1   5  -3  191.70    5.66
   1  -5   3  192.56    5.34
   1  -5   4 1565.79   30.19
   1  -5   4 1531.11   28.74
  -1   5  -4 1590.31   28.47
   1  -5   4 1579.28   28.30
   1  -5   5  990.17   23.64
   1  -5   5  955.88   22.04
  -1   5  -5  972.76   21.13
   1  -5   5  971.62   21.11
   1  -5   6   45.34    4.00
   1  -5   6   44.42    3.75
  -1   5  -6   49.51    2.02
   1  -5   6   44.37    1.80
   1  -5   7  303.00   16.99
   1  -5   7  321.04   10.39
  -1   5  -7  301.32    8.41
   1  -5   8  914.80   31.11
   1  -5   8  881.34   30.65
  -1   5  -8  805.61   25.72
   1  -5   9   22.52    3.45
   1  -5   9   25.28    2.90
   1  -5  10   72.46    6.01
   1  -5  10   74.11   13.19
   1  -5  11  401.44   22.05
   1  -5  11  396.91   22.06
   1  -5  12  142.65    7.82
   1  -5  12  134.80    7.69
   1  -5  13   38.53   12.70
   1  -5  13   67.99    6.09
  -1   4  13  156.19   13.65
   1  -4 -13  165.36    7.43
  -1   4  12   56.27    4.54
   1  -4 -12   59.65    4.94
  -1   4  11   13.26    3.28
   1  -4 -11   12.68    4.17
  -1   4  10  793.56   28.81
  -1   4   9  337.04   15.41
  -1   4   9  324.35   22.84
  -1   4   8   58.51    5.22
  -1   4   8   60.89   11.26
  -1   4   7  920.29   19.41
  -1   4   7  918.52   19.82
  -1   4   6  457.53   13.10
  -1   4   6  487.18   17.93
  -1   4   5   91.60    3.66
  -1   4   5   88.75    5.46
   1  -4  -4  529.86    9.91
   1  -4  -4  544.63   10.32
  -1   4   4  525.12   10.92
  -1   4   4  535.15   12.69
   1  -4  -3  726.00   13.38
   1  -4  -3  732.84   13.78
  -1   4   3  753.46   14.96
   1  -4  -3  707.79   13.61
  -1   4   3  722.90   14.65
   1  -4  -2  215.52    5.36
   1  -4  -2  217.14    5.07
  -1   4   2  212.74    5.56
   1  -4  -2  222.57    5.23
  -1   4   2  212.70    5.56
   1  -4  -1 1692.19   19.51
   1  -4  -1 1743.91   20.36
  -1   4   1 1723.61   19.74
   1  -4  -1 1690.49   18.87
  -1   4   1 1719.21   20.31
   1  -4  -1 1699.38   19.81
   1  -4   0 6104.74   65.71
   1  -4   0 6093.41   64.30
  -1   4   0 6293.03   66.70
   1  -4   0 5923.86   62.83
   1  -4   1  655.38    9.85
   1  -4   1  650.16    8.60
  -1   4  -1  660.20    8.70
   1  -4   1  658.71    8.59
   1  -4   2    1.30    2.31
   1  -4   2    0.46    1.20
  -1   4  -2    0.20    0.95
  -1   4  -2   -0.03    0.64
   1  -4   3 3272.21   47.85
   1  -4   3 3150.27   45.02
  -1   4  -3 3242.78   46.24
  -1   4  -3 3151.91   44.09
   1  -4   3 3255.55   45.59
   1  -4   4  793.74   13.22
   1  -4   4  775.78   12.02
  -1   4  -4  806.30   10.97
   1  -4   4  768.03   10.44
   1  -4   5  317.98    9.94
   1  -4   5  282.34    9.82
  -1   4  -5  289.07    7.34
   1  -4   5  294.53    7.40
   1  -4   6  644.58   14.60
   1  -4   6  632.69   14.98
  -1   4  -6  603.37   11.97
  -1   4  -6  623.12   11.93
   1  -4   7  872.13   19.13
   1  -4   7  869.47   18.17
  -1   4  -7  834.41   15.95
  -1   4  -7  848.65   16.15
   1  -4   8  134.32    9.35
   1  -4   8  131.68    8.98
  -1   4  -8  133.96    8.25
   1  -4   9  717.27   24.62
   1  -4   9  733.73   25.34
  -1   4  -9  678.71   22.11
   1  -4  10  659.36   23.42
   1  -4  10  647.85   22.98
  -1   4 -10  595.32   19.90
   1  -4  11  123.30    8.79
   1  -4  11  130.67    8.21
   1  -4  12   30.65    4.17
   1  -4  12   31.56    4.80
   1  -4  13  331.53   17.88
   1  -4  13  379.09   20.39
  -1   3  14  136.91    8.37
   1  -3 -14  150.96    8.64
  -1   3  13  123.30    9.53
   1  -3 -13  141.17   10.49
  -1   3  12  255.81   12.86
   1  -3 -12  290.50   14.15
  -1   3  11  199.39   10.94
   1  -3 -11  212.34   10.94
  -1   3  10  125.38    7.94
   1  -3 -10  131.55    7.59
  -1   3   9   61.34    5.40
   1  -3  -9   72.54    6.87
  -1   3   8  633.83   15.15
  -1   3   8  631.39   15.40
  -1   3   7  830.76   18.03
  -1   3   7  816.37   20.44
  -1   3   6   13.49    2.32
  -1   3   6    5.45    2.73
  -1   3   5  714.64   14.35
  -1   3   5  685.00   15.06
   1  -3  -4 3106.77   32.36
   1  -3  -4 3129.76   32.61
  -1   3   4 3105.24   34.80
   1  -3  -4 3108.07   34.35
  -1   3   4 3206.51   37.04
   1  -3  -3 2129.08   22.91
   1  -3  -3 2090.77   22.47
  -1   3   3 2107.30   23.93
   1  -3  -3 2097.79   23.55
  -1   3   3 2107.73   25.25
   1  -3  -2 1360.63   15.33
   1  -3  -2 1384.10   15.80
  -1   3   2 1403.29   16.29
   1  -3  -2 1369.01   15.69
  -1   3   2 1392.04   16.52
   1  -3  -2 1353.07   17.02
   1  -3  -1 4349.20   50.14
   1  -3  -1 4315.79   49.75
   1  -3  -1 4251.95   48.78
   1  -3  -1 4368.65   50.36
   1  -3   0 4707.98   54.22
   1  -3   0 4669.90   53.98
   1  -3   0 4695.59   53.73
  -1   3   0 4632.75   53.00
   1  -3   0 4620.99   52.85
   1  -3   1   17.75    2.98
   1  -3   1   14.11    2.28
  -1   3  -1   13.72    1.04
  -1   3  -1   14.30    2.19
   1  -3   1   14.21    1.73
   1  -3   2  643.49    9.00
   1  -3   2  631.81    9.14
   1  -3   2  631.25    8.99
  -1   3  -2  648.52    8.39
  -1   3  -2  642.04    7.36
   1  -3   2  641.86    7.54
   1  -3   3 2616.31   29.89
   1  -3   3 2571.62   29.35
  -1   3  -3 2599.36   28.98
  -1   3  -3 2581.55   27.32
   1  -3   3 2575.82   27.27
   1  -3   4  139.17    4.72
   1  -3   4  134.03    4.36
  -1   3  -4  132.63    3.55
   1  -3   4  138.34    3.06
   1  -3   5 2008.16   32.38
   1  -3   5 1981.22   29.80
  -1   3  -5 1993.78   28.34
  -1   3  -5 1987.75   28.48
   1  -3   6 2688.26   37.16
   1  -3   6 2638.86   36.80
  -1   3  -6 2613.50   33.59
  -1   3  -6 2611.74   34.49
   1  -3   7    1.98    2.12
   1  -3   7   -0.64    2.58
  -1   3  -7    0.16    0.62
  -1   3  -7    2.28    1.66
   1  -3   8  123.50    6.73
   1  -3   8  145.18    5.68
  -1   3  -8  125.18    4.31
   1  -3   9 1599.93   37.71
   1  -3   9 1555.26   36.89
  -1   3  -9 1542.44   35.28
   1  -3  10   22.19    2.31
   1  -3  10   19.15    3.24
  -1   3 -10   19.24    2.18
   1  -3  11  194.83    9.86
   1  -3  11  222.00   11.69
  -1   3 -11  195.97    9.33
   1  -3  12  215.53   15.00
   1  -3  12  223.26   15.88
   1  -3  13   76.90    7.78
   1  -3  13  108.91    7.12
   1  -3  14    6.37    3.56
  -1   2  14   25.99    5.74
   1  -2 -14   22.04    3.68
  -1   2  13   16.55    3.26
   1  -2 -13   15.65    3.04
  -1   2  12  318.18   15.08
   1  -2 -12  273.95   13.21
  -1   2  11   90.02   10.32
   1  -2 -11   80.68    5.39
  -1   2  10   14.79    3.22
   1  -2 -10   12.84    3.00
  -1   2   9  278.87   10.14
   1  -2  -9  242.83    8.73
  -1   2   8 1503.70   34.27
   1  -2  -8 1511.93   34.54
  -1   2   7   49.34    3.62
   1  -2  -7   59.75    3.93
  -1   2   6 1509.31   24.79
  -1   2   6 1498.42   24.92
  -1   2   4   95.10    3.07
   1  -2  -4   99.01    2.96
  -1   2   4  103.32    3.50
   1  -2  -3 2417.01   27.46
  -1   2   3 2419.10   28.90
   1  -2  -3 2348.94   28.09
  -1   2   3 2478.82   29.81
   1  -2  -3 2337.27   28.03
  -1   2   0   22.88    1.32
   1  -2   0   21.41    1.94
   1  -2   0   25.86    2.50
   1  -2   0   22.20    1.35
  -1   2   0   22.99    1.46
   1  -2   0   21.23    1.22
  -1   2  -1  301.67    5.00
   1  -2   1  299.30    5.42
   1  -2   1  299.67    4.72
  -1   2  -1  305.56    4.66
   1  -2   1  304.35    3.89
  -1   2  -2 1088.23   14.00
   1  -2   2 1050.83   14.09
   1  -2   2 1096.84   13.92
  -1   2  -2 1094.72   13.76
   1  -2   2 1105.56   12.60
  -1   2  -3   12.98    1.63
   1  -2   3   12.54    3.51
   1  -2   3   14.43    1.78
  -1   2  -3   15.64    1.45
  -1   2  -3   13.52    1.16
  -1   2  -3   14.83    0.91
   1  -2   4 4289.95   46.88
   1  -2   4 4207.92   46.16
  -1   2  -4 4349.23   45.88
  -1   2  -4 4362.58   46.12
   1  -2   5 1365.44   21.17
   1  -2   5 1336.23   20.87
  -1   2  -5 1376.85   20.02
  -1   2  -5 1418.50   20.79
   1  -2   6   61.50    3.37
   1  -2   6   64.69    5.89
  -1   2  -6   62.45    3.43
  -1   2  -6   56.57    2.35
   1  -2   7  675.11   16.12
   1  -2   7  644.83   14.00
  -1   2  -7  655.46   13.40
  -1   2  -7  657.78   13.13
   1  -2   8  539.70   13.90
   1  -2   8  494.82   13.70
  -1   2  -8  554.32   13.44
   1  -2   9  582.94   15.58
   1  -2   9  544.08   16.92
  -1   2  -9  539.65   15.27
   1  -2  10  371.65   15.55
   1  -2  10  381.02   16.41
  -1   2 -10  350.63   14.37
   1  -2  11  218.45    9.38
   1  -2  11  216.71   10.47
  -1   2 -11  214.24    9.10
   1  -2  12   58.52    5.06
   1  -2  12   48.44    5.07
  -1   2 -12   59.78    5.07
   1  -2  13    2.25    1.82
   1  -2  13   12.31    3.71
   1  -2  14  162.98   12.81
  -1   1  14   28.36    4.36
   1  -1 -14   18.01    3.22
  -1   1  13  241.58   14.55
   1  -1 -13  229.47   13.58
  -1   1  12  318.79   15.45
   1  -1 -12  300.42   14.52
  -1   1  11    2.05    1.12
  -1   1  11    4.06    1.75
   1  -1 -11    8.43    4.11
  -1   1  10 1052.90   24.25
  -1   1  10 1099.40   28.28
   1  -1 -10 1070.65   26.36
  -1   1   9 1043.16   19.84
  -1   1   9 1099.22   20.70
  -1   1   9 1146.49   23.87
   1  -1  -9 1079.94   22.19
  -1   1   8  204.27    5.67
  -1   1   8  208.90    6.39
  -1   1   8  220.91    7.73
   1  -1  -8  215.82    7.75
  -1   1   7 1944.44   25.19
  -1   1   7 2059.64   26.93
  -1   1   7 2046.52   29.84
   1  -1  -7 1997.00   28.21
  -1   1   6 1501.34   21.65
  -1   1   6 1506.19   21.65
  -1   1   6 1476.77   23.27
   1  -1  -6 1472.81   22.93
  -1   1   5  703.65    8.28
   1  -1  -5  706.84    8.15
  -1   1   5  728.44   10.60
   1  -1  -5  714.66   10.17
  -1   1   4  774.21    9.37
   1  -1  -4  761.54    9.16
  -1   1   4  781.60   10.92
   1  -1  -4  759.00   10.41
   1  -1  -4  748.92   10.23
   1  -1  -4  767.17   10.87
   1  -1  -3 6025.49   69.24
   1  -1  -3 6148.29   65.09
  -1   1   2  634.29    7.72
   1  -1  -2  640.34    7.76
  -1   1   2  630.03    8.44
   1  -1  -2  623.88    8.31
   1  -1  -2  635.70    8.65
   1  -1  -2  627.60    8.34
  -1   1   1 1767.79   20.43
   1  -1  -1 1750.01   20.23
  -1   1   1 1747.83   20.50
   1  -1  -1 1770.33   20.79
   1  -1  -1 1785.94   20.82
   1  -1   1 2886.92   33.37
  -1   1  -1 2875.44   33.23
  -1   1  -2  495.40    7.31
   1  -1   2  491.33    6.89
   1  -1   2  487.52    7.00
  -1   1  -2  489.07    7.04
   1  -1   2  490.06    6.08
  -1   1  -2  481.42    5.91
  -1   1  -3 3481.15   40.57
   1  -1   3 3474.04   40.37
   1  -1   3 3429.18   40.30
  -1   1  -3 3581.21   41.89
  -1   1  -3 3500.66   39.99
  -1   1  -4 2692.81   29.92
   1  -1   4 2691.43   29.68
   1  -1   4 2624.78   29.72
   1  -1   4 2623.20   28.67
  -1   1  -4 2682.72   29.03
  -1   1  -5  527.12    8.20
   1  -1   5  526.58    7.95
   1  -1   5  538.35   10.14
  -1   1  -5  527.27    8.20
  -1   1  -5  534.96    7.65
   1  -1   6  701.72   13.94
   1  -1   6  670.87   15.50
  -1   1  -6  658.00   13.77
  -1   1  -6  679.89   13.37
   1  -1   7 1260.06   23.84
   1  -1   7 1271.59   25.86
  -1   1  -7 1304.34   24.53
   1  -1   8   42.59    3.21
   1  -1   8   55.14    5.20
  -1   1  -8   40.98    2.91
   1  -1   9   97.44    6.65
   1  -1   9   86.34    6.97
  -1   1  -9   93.00    6.38
   1  -1  10  126.77    8.53
   1  -1  10  141.53    8.18
  -1   1 -10  134.40    6.79
   1  -1  11  151.01    7.14
   1  -1  11  135.36   10.68
  -1   1 -11  132.25    4.97
   1  -1  12   44.99    4.00
   1  -1  12   28.01    3.99
  -1   1 -12   47.05    4.45
   1  -1  13  537.12   21.81
  -1   1 -13  483.79   18.74
   1  -1  14  143.46    8.69
  -1   0  15   34.25    4.25
  -1   0  14  350.60   21.10
   1   0 -14  400.62   23.39
  -1   0  13  225.04   16.19
   1   0 -13  215.32   15.33
  -1   0  12    4.20    2.40
  -1   0  12    8.29    3.57
   1   0 -12    5.97    3.28
  -1   0  11  549.51   17.14
  -1   0  11  547.39   18.79
   1   0 -11  561.59   18.50
  -1   0  10  552.46   15.44
  -1   0  10  538.28   17.02
   1   0 -10  544.40   16.41
  -1   0   9   80.41    3.33
  -1   0   9   75.82    4.54
   1   0  -9   84.76    4.68
  -1   0   8 1600.70   29.48
  -1   0   8 1571.92   28.74
  -1   0   8 1607.11   30.95
   1   0  -8 1581.58   30.06
  -1   0   7 2801.89   36.19
  -1   0   7 2715.26   35.32
  -1   0   7 2747.26   37.81
   1   0  -7 2704.19   36.48
  -1   0   6 1196.13   17.92
   1   0  -6 1235.82   18.33
  -1   0   6 1253.17   20.00
   1   0  -6 1203.21   18.96
  -1   0   5  294.65    4.69
   1   0  -5  290.02    4.48
  -1   0   5  299.45    5.84
   1   0  -5  299.37    5.17
   1   0  -5  290.45    5.32
  -1   0   4 2532.74   29.59
  -1   0   4 2468.82   29.67
   1   0  -4 2559.58   30.94
   1   0  -4 2510.68   30.06
  -1   0   4 2493.67   29.76
  -1   0   3   44.51    1.84
   1   0  -3   41.59    1.64
  -1   0   3   43.62    2.20
   1   0  -3   36.88    1.72
   1   0  -3   42.38    2.15
  -1   0   3   39.60    1.80
  -1   0   2  272.53    4.03
   1   0  -2  274.79    4.00
  -1   0   2  282.59    4.38
   1   0  -2  271.07    4.17
   1   0  -2  283.81    4.44
  -1   0   2  285.80    4.42
  -1   0  -1  497.67    6.54
   1   0   1  497.01    6.49
   1   0   1  492.18    6.53
  -1   0  -1  491.52    6.50
   1   0   1  502.07    6.41
  -1   0  -1  499.79    6.56
  -1   0  -2 9999.98  104.46
  -1   0  -3 3238.24   37.53
   1   0   3 3229.57   37.33
   1   0   3 3272.73   38.56
  -1   0  -3 3232.76   38.05
   1   0   3 3242.68   37.69
  -1   0  -3 3279.71   37.95
  -1   0  -4    5.51    1.61
   1   0   4    5.11    1.84
   1   0   4    5.38    1.49
  -1   0  -4    6.40    3.24
   1   0   4    6.17    1.38
  -1   0  -4    5.83    1.40
  -1   0  -5   42.89    3.66
   1   0   5   38.72    2.41
   1   0   5   42.88    3.03
   1   0   5   41.25    3.17
  -1   0  -5   41.01    3.13
  -1   0  -6 1521.25   23.03
   1   0   6 1491.99   22.15
   1   0   6 1503.65   23.70
   1   0   6 1535.76   24.20
   1   0   7    3.95    1.20
   1   0   7    5.91    1.35
   1   0   7    6.21    1.87
   1   0   7    6.32    1.42
   1   0   8    5.01    1.31
   1   0   8    2.38    2.39
   1   0   9  657.62   15.46
   1   0   9  662.30   16.32
  -1   0  -9  688.21   16.11
   1   0  10  367.56   15.71
   1   0  10  356.55   15.57
  -1   0 -10  415.42   17.00
   1   0  11  100.41    4.48
   1   0  11  103.85    6.30
  -1   0 -11   92.10    5.15
   1   0  12  290.91   14.07
  -1   0 -12  279.97   13.06
   1   0  13  145.31   14.42
  -1   0 -13  132.12    9.20
   1   0  14    3.73    3.08
  -1   0 -14    5.51    2.16
  -1  -1  15  213.93   11.20
   1   1 -15  206.88   10.25
  -1  -1  14  152.54    8.33
   1   1 -14  141.35    7.13
  -1  -1  13    4.33    2.24
   1   1 -13    3.63    1.81
  -1  -1  12  276.86   15.56
  -1  -1  12  278.97   13.85
   1   1 -12  296.14   14.41
  -1  -1  11 1710.76   50.61
  -1  -1  11 1808.24   56.92
   1   1 -11 1754.71   51.78
  -1  -1  10  115.18    6.28
  -1  -1  10  103.92    6.58
   1   1 -10  107.84    5.98
  -1  -1   9  440.64   10.11
  -1  -1   9  447.72   14.07
   1   1  -9  428.02   11.83
  -1  -1   8 1128.18   21.68
  -1  -1   8 1127.87   24.64
   1   1  -8 1144.29   22.43
  -1  -1   7  229.47    5.89
  -1  -1   7  236.99    6.75
   1   1  -7  251.30    6.82
  -1  -1   6  367.37    8.25
   1   1  -6  377.97    7.99
  -1  -1   6  382.23    8.93
   1   1  -6  387.40    8.82
  -1  -1   5 6428.00   68.66
   1   1  -5 6341.49   67.47
  -1  -1   5 6303.87   67.68
  -1  -1   5 6204.63   66.29
  -1  -1   4 1406.53   17.59
   1   1  -4 1340.79   16.74
  -1  -1   4 1366.68   17.30
   1   1  -4 1353.88   16.98
   1   1  -4 1363.87   17.28
  -1  -1   4 1331.84   16.73
  -1  -1   3   46.27    2.14
   1   1  -3   51.31    1.96
  -1  -1   3   47.05    3.30
   1   1  -3   46.19    1.93
   1   1  -3   48.84    2.42
  -1  -1   3   46.17    1.86
  -1  -1   2 3675.08   42.48
   1   1  -2 3582.86   41.35
  -1  -1   2 3639.98   41.67
   1   1  -2 3627.21   41.52
  -1  -1   2 3750.03   43.24
  -1  -1   1 3215.43   37.18
  -1  -1   0 1123.71   13.73
   1   1   0 1092.75   13.28
   1   1   0 1125.84   13.19
  -1  -1   0 1103.42   12.94
  -1  -1   0 1131.10   13.79
  -1  -1  -1 1310.13   15.91
   1   1   1 1335.35   16.04
   1   1   1 1303.28   15.58
  -1  -1  -1 1320.64   15.69
   1   1   1 1303.23   15.87
  -1  -1  -1 1317.20   16.00
  -1  -1  -2   19.90    1.43
   1   1   2   20.37    1.13
   1   1   2   18.95    1.68
  -1  -1  -2   19.73    1.75
   1   1   2   20.53    1.59
  -1  -1  -2   22.99    2.25
  -1  -1  -3 1178.46   14.41
   1   1   3 1190.01   14.49
   1   1   3 1236.03   15.91
  -1  -1  -3 1213.21   15.34
   1   1   3 1205.25   15.35
  -1  -1  -3 1216.46   15.37
  -1  -1  -4   57.83    2.55
   1   1   4   64.76    2.80
   1   1   4   57.57    2.95
  -1  -1  -4   56.36    3.49
   1   1   4   59.03    3.55
  -1  -1  -4   59.84    2.36
  -1  -1  -5 1299.96   19.71
   1   1   5 1301.93   19.13
   1   1   5 1275.66   20.21
   1   1   5 1298.43   20.91
  -1  -1  -6   66.80    3.71
   1   1   6   68.52    3.64
   1   1   6   67.12    3.77
   1   1   6   66.11    4.98
  -1  -1  -7  564.41   19.38
   1   1   7  550.37   18.63
   1   1   7  550.70   19.99
   1   1   7  527.38   14.59
   1   1   8  949.32   18.47
   1   1   8  976.59   18.45
   1   1   8  972.45   21.07
   1   1   8  963.10   21.39
   1   1   9  422.08   12.14
   1   1   9  412.87   13.46
   1   1   9  420.98   23.86
   1   1  10    3.93    2.73
   1   1  11  889.40   28.30
  -1  -1 -11  928.28   28.81
   1   1  12  409.15   19.56
  -1  -1 -12  403.02   17.95
   1   1  13   23.92    3.70
  -1  -1 -13   25.20    3.50
   1   1  14   86.11   13.21
  -1  -1 -14   83.79    6.29
  -1  -2  14   26.79    4.53
   1   2 -14   20.86    2.90
  -1  -2  13  307.24   18.89
  -1  -2  13  355.24   20.08
   1   2 -13  366.14   19.88
  -1  -2  12  299.81   14.12
  -1  -2  12  310.70   19.23
   1   2 -12  323.81   15.24
  -1  -2  11    8.61    2.66
  -1  -2  11    3.96    3.01
   1   2 -11    8.96    3.19
  -1  -2  10  814.57   20.30
  -1  -2  10  794.95   21.83
   1   2 -10  792.47   19.97
  -1  -2   9  683.32   15.54
  -1  -2   9  750.20   16.96
   1   2  -9  710.22   15.48
  -1  -2   8  700.12   17.02
  -1  -2   8  724.72   18.50
   1   2  -8  712.15   17.07
  -1  -2   7  939.79   14.91
  -1  -2   7  994.34   15.60
   1   2  -7  954.08   14.94
  -1  -2   6 1411.96   22.00
  -1  -2   6 1417.72   22.05
   1   2  -6 1465.81   22.66
  -1  -2   5  901.85   12.32
  -1  -2   5  913.47   12.07
   1   2  -5  905.97   12.08
  -1  -2   5  905.98   11.63
  -1  -2   4  793.99   10.86
   1   2  -4  803.49   10.66
  -1  -2   4  787.74   10.22
   1   2  -4  797.05   10.19
   1   2  -4  784.64   10.48
  -1  -2   4  792.42   10.29
  -1  -2   3  980.29   13.21
   1   2  -3  973.57   12.88
  -1  -2   3  967.14   12.22
   1   2  -3  981.29   12.31
   1   2  -3 1008.40   13.28
  -1  -2   3  970.27   12.63
  -1  -2   2 4385.98   51.00
   1   2  -2 4411.41   51.16
  -1  -2   2 4305.01   48.98
   1   2  -2 4569.44   51.92
  -1  -2   2 4409.20   50.97
  -1  -2   1   47.06    2.28
   1   2  -1   45.16    2.09
  -1  -2   1   46.97    1.36
   1   2  -1   46.44    1.74
   1   2  -1   50.51    2.42
  -1  -2   1   46.59    1.94
  -1  -2   0   33.69    1.71
   1   2   0   37.21    1.73
   1   2   0   34.53    0.97
   1   2   0   34.65    1.89
  -1  -2   0   36.25    1.89
  -1  -2  -1 1764.56   21.22
   1   2   1 1749.02   20.93
   1   2   1 1788.46   20.85
  -1  -2  -1 1713.72   19.96
   1   2   1 1767.06   21.67
  -1  -2  -1 1751.64   21.35
  -1  -2  -2  304.97    4.91
   1   2   2  308.89    5.02
   1   2   2  304.06    4.77
  -1  -2  -2  302.24    4.72
   1   2   2  305.83    5.49
  -1  -2  -2  289.41    5.14
  -1  -2  -3 1663.96   18.56
   1   2   3 1673.43   18.82
   1   2   3 1687.33   19.41
  -1  -2  -3 1635.57   19.61
   1   2   3 1673.22   19.99
  -1  -2  -4  942.51   11.07
   1   2   4  958.02   11.40
   1   2   4  942.86   12.60
  -1  -2  -4  935.24   12.06
   1   2   4  926.15   14.26
  -1  -2  -5  836.29   15.28
   1   2   5  811.29   14.93
   1   2   5  874.36   17.22
   1   2   5  890.64   18.71
  -1  -2  -6  169.72    4.02
   1   2   6  162.88    3.95
   1   2   6  166.89    5.62
   1   2   6  164.87    7.66
  -1  -2  -7 1428.27   30.64
   1   2   7 1414.92   30.48
   1   2   7 1488.91   33.77
   1   2   7 1450.05   34.08
   1   2   8  477.89    9.45
   1   2   8  491.33    9.71
   1   2   8  516.70   12.16
   1   2   9  457.12   18.30
   1   2   9  477.96   20.48
   1   2   9  479.60   25.12
   1   2  10  554.36   19.01
   1   2  10  608.36   19.98
   1   2  11  617.91   21.29
   1   2  12    6.30    3.31
  -1  -2 -12    1.65    1.89
   1   2  13   91.27    8.76
  -1  -2 -13  108.48    6.35
  -1  -3  14  217.72   12.67
  -1  -3  14  238.62   13.88
  -1  -3  13   89.79    9.84
  -1  -3  13   98.85    7.64
   1   3 -13   92.33    6.72
  -1  -3  12    5.92    2.48
  -1  -3  12   10.38    4.54
   1   3 -12   12.37    2.36
  -1  -3  11  152.14    7.42
  -1  -3  11  172.40    8.49
   1   3 -11  156.18    7.50
  -1  -3  10 1219.55   39.77
  -1  -3  10 1290.77   42.26
   1   3 -10 1218.93   39.54
  -1  -3   9  226.24    8.15
  -1  -3   9  221.97   12.21
   1   3  -9  231.26    8.07
  -1  -3   8  134.23    9.65
  -1  -3   8  146.50    7.92
   1   3  -8  145.26    5.70
  -1  -3   7  974.10   21.73
  -1  -3   7  955.86   19.19
   1   3  -7  935.26   18.43
  -1  -3   6  211.06    6.32
  -1  -3   6  220.95    6.10
   1   3  -6  217.32    5.95
  -1  -3   5   73.84    8.94
  -1  -3   5   84.89    6.69
   1   3  -5   80.38    3.62
   1   3  -5   86.75    3.40
  -1  -3   5   81.03    2.89
  -1  -3   4 3881.12   56.82
  -1  -3   4 3742.04   53.05
   1   3  -4 3903.32   55.02
   1   3  -4 3812.34   55.44
  -1  -3   4 3791.17   53.91
  -1  -3   3 1523.36   18.76
  -1  -3   3 1536.60   17.19
   1   3  -3 1531.06   17.20
   1   3  -3 1502.77   17.93
  -1  -3   3 1543.51   18.21
  -1  -3   2  118.92    3.58
  -1  -3   2  116.89    2.08
   1   3  -2  126.49    2.36
   1   3  -2  125.16    3.46
  -1  -3   2  123.39    3.37
  -1  -3   1  157.15    3.96
   1   3  -1  159.36    3.51
   1   3  -1  169.74    3.77
  -1  -3   1  170.20    3.85
  -1  -3   0 1800.35   21.46
   1   3   0 1771.83   20.48
   1   3   0 1841.81   21.87
  -1  -3   0 1756.17   20.32
  -1  -3  -1   13.15    2.57
   1   3   1    9.84    1.14
   1   3   1   12.44    1.66
  -1  -3  -1   11.67    1.44
   1   3   1   14.21    3.62
  -1  -3  -2  809.48   10.36
   1   3   2  827.05   10.29
   1   3   2  826.84   10.15
  -1  -3  -2  811.77   10.25
   1   3   2  833.49   11.42
  -1  -3  -3 4415.79   62.19
   1   3   3 4541.24   63.62
   1   3   3 4477.44   63.36
  -1  -3  -3 4410.45   62.02
   1   3   3 4428.33   63.73
  -1  -3  -4  258.60    6.05
   1   3   4  254.89    5.41
   1   3   4  254.69    6.13
  -1  -3  -4  251.36    5.92
   1   3   4  255.37    7.46
  -1  -3  -5  448.13    8.78
   1   3   5  449.71    8.74
   1   3   5  470.45   10.67
   1   3   5  454.50   13.28
  -1  -3  -6 1532.81   27.39
   1   3   6 1462.63   26.34
   1   3   6 1532.50   29.12
   1   3   6 1535.10   30.44
  -1  -3  -7  478.55    9.06
   1   3   7  438.41   25.11
   1   3   7  502.68   12.18
   1   3   7  457.13   15.25
   1   3   8   24.62    3.15
   1   3   8   29.37    8.59
   1   3   9  553.34   20.04
   1   3   9  509.77   21.58
   1   3  10  142.52    7.81
   1   3  10  137.20   11.30
   1   3  11    1.92    2.19
   1   3  11    1.89    2.67
   1   3  12  117.96    9.42
   1   3  13  229.04   13.57
  -1  -3 -13  232.31   13.54
  -1  -4  14  240.49   11.62
  -1  -4  14  256.49   12.57
  -1  -4  13   12.55    3.60
  -1  -4  13   10.47    4.59
  -1  -4  12  204.97   14.58
  -1  -4  12  179.84   12.84
   1   4 -12  182.35   12.74
  -1  -4  11  500.93   16.99
  -1  -4  11  470.33   17.17
   1   4 -11  491.73   16.06
  -1  -4  10  506.81   17.03
  -1  -4  10  554.26   18.48
   1   4 -10  534.49   17.28
  -1  -4   9  250.94   11.38
  -1  -4   9  209.93   12.65
   1   4  -9  200.12    8.84
  -1  -4   8  407.20   12.72
  -1  -4   8  404.43   15.10
   1   4  -8  402.87   12.01
  -1  -4   7  356.56   14.18
  -1  -4   7  381.24   13.99
   1   4  -7  346.88   12.70
  -1  -4   6   22.32    7.30
  -1  -4   6   20.25    3.86
   1   4  -6   19.44    2.90
  -1  -4   5  956.31   15.46
  -1  -4   5  937.26   15.25
   1   4  -5  944.12   13.65
   1   4  -5  931.59   14.16
  -1  -4   4  772.92   13.01
  -1  -4   4  764.59   11.19
   1   4  -4  771.91   11.09
   1   4  -4  746.43   11.95
  -1  -4   3   79.76    3.80
  -1  -4   3   87.80    2.37
   1   4  -3   89.03    2.35
   1   4  -3   94.75    3.45
  -1  -4   2 1503.23   23.39
  -1  -4   2 1527.26   21.43
   1   4  -2 1473.90   20.63
   1   4  -2 1507.67   23.00
  -1  -4   1 1108.35   21.78
   1   4  -1 1076.68   20.52
  -1  -4   0 1117.42   21.43
   1   4   0 1131.70   17.99
  -1  -4  -1 2044.80   30.40
   1   4   1 2036.13   28.40
  -1  -4  -1 2041.83   28.47
   1   4   1 2097.01   31.60
  -1  -4  -2 1461.25   22.61
   1   4   2 1457.70   21.89
   1   4   2 1452.17   21.11
  -1  -4  -2 1458.64   20.99
   1   4   2 1469.08   23.14
  -1  -4  -3  837.37   12.92
   1   4   3  845.94   12.23
   1   4   3  822.45   12.83
  -1  -4  -3  831.43   12.08
   1   4   3  825.60   15.56
  -1  -4  -4  579.79   11.82
   1   4   4  560.44   19.08
   1   4   4  593.01   12.87
  -1  -4  -4  594.66   11.79
   1   4   4  566.36   21.34
  -1  -4  -5 1230.81   26.98
   1   4   5 1213.20   26.21
   1   4   5 1249.27   28.03
   1   4   5 1249.51   29.21
  -1  -4  -6  461.81    9.09
   1   4   6  470.99    9.30
   1   4   6  471.47   10.93
   1   4   6  485.54   16.79
  -1  -4  -7   42.55    2.70
   1   4   7   48.80    4.14
   1   4   7   41.43    4.46
   1   4   8  443.03   18.31
   1   4   8  415.88   19.93
   1   4   9  569.87   20.62
   1   4   9  569.75   21.04
   1   4  10   19.91    3.83
   1   4  10   17.61    4.46
   1   4  11  176.00    9.31
   1   4  11  166.21   11.29
   1   4  12  115.57   12.03
   1   4  12  143.42   15.45
  -1  -5  13  184.03   11.52
  -1  -5  13  155.26   13.20
  -1  -5  12  411.90   17.03
  -1  -5  12  400.76   19.80
  -1  -5  11   66.14    6.12
  -1  -5  11   65.91    6.28
   1   5 -11   71.81    5.82
  -1  -5  10    8.43    3.48
  -1  -5  10    3.46    2.13
   1   5 -10    7.16    2.24
  -1  -5   9  664.66   21.73
  -1  -5   9  680.07   21.80
   1   5  -9  650.42   20.64
  -1  -5   8  290.23   12.98
  -1  -5   8  324.03   13.73
   1   5  -8  299.06   12.34
  -1  -5   7  122.19    8.50
  -1  -5   7  138.25    8.85
   1   5  -7  125.83    8.16
  -1  -5   6  323.40   10.07
  -1  -5   6  336.52    9.57
   1   5  -6  315.30    8.78
  -1  -5   5  609.40   15.81
  -1  -5   5  594.43   14.14
   1   5  -5  563.88   13.01
   1   5  -5  588.28   14.14
  -1  -5   4  323.23   10.03
  -1  -5   4  313.17    8.07
   1   5  -4  311.46    7.97
   1   5  -4  314.55    8.97
  -1  -5   3 1019.49   20.73
  -1  -5   3 1021.48   18.27
   1   5  -3 1021.93   18.27
   1   5  -3 1032.49   21.40
  -1  -5   2 1425.04   27.65
   1   5  -2 1436.01   27.04
  -1  -5   1   11.19    2.37
   1   5  -1    7.17    2.14
  -1  -5   0 1213.94   18.40
   1   5   0 1183.76   19.07
  -1  -5  -1 4150.93  136.11
   1   5   1 4079.99   74.38
  -1  -5  -2  117.05    4.59
   1   5   2  108.25    3.19
  -1  -5  -2  107.84    3.15
   1   5   2   99.86    5.70
  -1  -5  -3  251.79    9.57
   1   5   3  271.14    9.57
  -1  -5  -3  248.68    8.70
   1   5   3  261.37   13.44
  -1  -5  -4  601.07   12.76
   1   5   4  587.77   11.68
   1   5   4  624.43   12.82
  -1  -5  -4  606.35   12.03
   1   5   4  630.07   14.86
  -1  -5  -5  217.04    6.48
   1   5   5  189.32    6.55
   1   5   5  209.90    7.46
   1   5   5  219.48   12.08
  -1  -5  -6    2.13    0.96
   1   5   6    1.11    1.20
   1   5   6    1.17    1.82
   1   5   7 1484.97   47.71
   1   5   7 1612.83   53.81
   1   5   8  189.83   10.12
   1   5   8  206.40   13.20
   1   5   9    7.39    2.33
   1   5   9    3.25    3.34
   1   5  10  169.09    8.67
   1   5  10  137.58   10.86
   1   5  11  244.05   14.93
   1   5  11  237.67   16.34
   1   5  12    3.65    1.75
   1   5  12    4.10    1.17
  -1  -6  12   32.92    5.67
  -1  -6  12   22.65    2.80
  -1  -6  11   52.38    5.39
  -1  -6  11   55.19    4.82
  -1  -6  10  171.41   12.96
  -1  -6  10  163.20   11.44
  -1  -6   9   68.76    4.34
  -1  -6   9   64.90    3.32
   1   6  -9   72.77    3.27
  -1  -6   8   -1.32    2.69
  -1  -6   8    0.84    1.29
   1   6  -8   -0.21    1.20
  -1  -6   7 1491.25   48.92
  -1  -6   7 1423.94   45.42
   1   6  -7 1415.40   46.93
  -1  -6   6 1484.91   35.82
  -1  -6   6 1444.12   33.01
   1   6  -6 1458.49   33.69
  -1  -6   5    2.77    2.71
  -1  -6   5    7.49    1.29
   1   6  -5    9.04    1.53
   1   6  -5    3.17    1.58
  -1  -6   4  434.44   26.07
  -1  -6   4  412.68    9.87
   1   6  -4  402.36    9.55
   1   6  -4  409.05   11.07
  -1  -6   3 1640.96   33.19
   1   6  -3 1627.91   30.91
  -1  -6   2   11.14    2.85
   1   6  -2    6.43    2.41
  -1  -6   1  668.47   16.98
   1   6  -1  656.68   16.45
  -1  -6   0  541.30   14.06
   1   6   0  527.73   13.59
  -1  -6  -1   57.05    3.31
   1   6   1   48.84    6.01
  -1  -6  -2   63.55    3.56
  -1  -6  -2   68.52    1.73
   1   6   2   63.00    4.29
  -1  -6  -3 1276.55   26.66
   1   6   3 1232.59   24.88
   1   6   3 1308.84   29.32
  -1  -6  -4  411.14   17.00
   1   6   4  388.14   15.91
   1   6   4  404.99   17.78
  -1  -6  -5  311.57   12.39
   1   6   5  305.58   12.17
   1   6   5  321.23   14.05
   1   6   6  187.91    9.04
   1   6   6  196.02   15.45
   1   6   7  501.13   16.36
   1   6   7  538.24   18.82
   1   6   8   16.62    2.41
   1   6   8    6.41    4.08
   1   6   9  148.81    7.97
   1   6   9  148.04   15.81
   1   6  10  244.71   15.13
   1   6  10  219.02   15.70
   1   6  11   38.12    6.11
   1   6  11   25.32    9.62
  -1  -7  11  283.68   17.14
  -1  -7  10  127.19    9.40
  -1  -7   9   68.56    6.84
  -1  -7   8  493.43   21.64
   1   7  -8  450.55   18.70
  -1  -7   7  624.84   20.63
   1   7  -7  642.75   19.52
  -1  -7   6  128.96    7.05
   1   7  -6  119.31    5.54
  -1  -7   5  642.68   21.12
   1   7  -5  631.13   20.59
  -1  -7   4  267.03   13.41
   1   7  -4  295.67   12.28
  -1  -7   3  341.76   14.96
   1   7  -3  344.90   14.09
  -1  -7   2  407.65   17.98
   1   7  -2  399.91   17.47
  -1  -7   1  990.42   24.86
   1   7  -1  972.46   23.75
  -1  -7   0   18.84    6.29
   1   7   0   15.08    2.30
  -1  -7  -1  166.75   14.81
   1   7   1  134.92   11.58
  -1  -7  -2  224.80    9.99
   1   7   2  220.02   14.24
  -1  -7  -3  755.21   23.09
   1   7   3  726.83   24.13
  -1  -7  -4   48.03    5.31
   1   7   4   42.70    4.30
   1   7   5  377.24   12.38
   1   7   6  277.21   18.79
   1   7   7    9.95    4.75
   1   7   8  193.32   10.13
   1   7   9  270.53   16.27
  -1  -8  10   18.92    3.40
  -1  -8   9  199.68   18.45
  -1  -8   8  197.22   19.98
  -1  -8   7    0.71    1.81
  -1  -8   6  195.90   19.68
   1   8  -6  192.91   13.18
  -1  -8   5  391.42   17.79
   1   8  -5  319.56   16.43
  -1  -8   4    2.95    4.72
   1   8  -4    6.15    2.31
  -1  -8   3  505.64   18.77
   1   8  -3  478.79   17.02
  -1  -8   2  385.62   15.18
   1   8  -2  374.38   14.79
  -1  -8   1  222.08   12.86
   1   8  -1  219.88    9.60
  -1  -8   0   38.36    3.65
   1   8   0   39.80    5.83
  -1  -8  -1 1248.62   41.12
   1   8   1 1179.74   45.39
  -1  -8  -2  217.00   12.03
   1   8   2  194.97   10.38
  -1  -8  -3    2.73    1.78
   1   8   3    1.77    1.62
   1   8   4  348.04   18.43
   1   8   5  184.17   15.19
   1   8   6    3.98    2.60
   1   8   7   61.17    5.22
   1   8   8   70.74    6.87
  -1  -9   8    3.25    2.38
  -1  -9   7  140.04   12.73
  -1  -9   6  167.88   11.55
  -1  -9   5   34.76    4.89
   1   9  -5   15.11    2.86
  -1  -9   4  314.09   18.45
   1   9  -4  311.94   16.81
  -1  -9   3  233.61   13.90
   1   9  -3  215.83   12.22
  -1  -9   2  101.17   10.10
   1   9  -2  120.93    9.06
  -1  -9   1   94.34    9.05
   1   9  -1   75.50    7.39
  -1  -9   0  457.11   21.83
   1   9   0  416.42   22.50
  -1  -9  -1  171.06   14.94
   1   9   1  212.55   12.77
  -1  -9  -2   35.44    3.92
   1   9   2   25.62    5.71
   1   9   3   93.06    7.24
   1   9   4  142.01   18.20
   1   9   6  131.42   12.66
  -1 -10   5   37.90    4.04
  -1 -10   4  253.83   12.75
  -1 -10   3   71.63    9.12
  -1 -10   2    8.81    3.72
   1  10  -2    6.26    2.94
  -1 -10   1  348.12   18.82
   1  10  -1  300.66   19.44
  -1 -10   0   86.46   11.89
   1  10   0   75.53   10.13
   1  10   1    1.67    2.52
   1  10   2   48.17    5.61
   1  10   3   98.14   10.80
  -2  10   5  122.69    8.38
  -2  10   4  150.46   15.05
  -2  10   3   61.55    6.67
  -2  10   2  132.60    7.08
   2 -10  -1  122.06    8.42
  -2  10   1  122.23    8.81
   2 -10   0   21.01    3.27
   2 -10   1  176.12    9.46
   2 -10   2  112.88    6.77
   2 -10   3  124.32   10.38
   2 -10   4   26.65    5.64
   2 -10   5  284.07   16.18
   2 -10   6  168.94   17.13
  -2   9   8   89.77    9.91
  -2   9   7    2.38    2.95
  -2   9   6  333.55   17.03
  -2   9   5  186.90   15.38
  -2   9   4    1.22    1.27
   2  -9  -3   61.29    5.05
  -2   9   3   45.61   10.19
   2  -9  -2  398.03   17.35
  -2   9   2  392.91   17.35
   2  -9  -1    8.66    2.45
  -2   9   1    3.31    2.40
   2  -9   0   16.75    4.90
  -2   9   0   12.25    3.49
   2  -9   1  585.27   26.75
   2  -9   2  112.37   16.21
   2  -9   3    9.24    2.71
   2  -9   4  468.26   20.91
   2  -9   5   87.27    6.18
   2  -9   6   10.67    3.36
   2  -9   7  102.64   12.27
   2  -9   8  234.73   21.53
   2  -8 -10  144.82    9.26
  -2   8   9   39.00   16.88
  -2   8   8    6.54    4.13
  -2   8   7  212.17   16.60
  -2   8   6  200.27   11.90
  -2   8   5    3.97    1.61
  -2   8   5    4.41    3.34
   2  -8  -4  217.23    8.72
  -2   8   4  215.26   10.72
   2  -8  -3  137.02    5.81
  -2   8   3  121.61    9.65
   2  -8  -2   84.93    4.68
  -2   8   2   81.94    4.83
   2  -8  -1  135.07    9.80
  -2   8   1  127.64    5.12
   2  -8   0 1010.41   31.09
  -2   8   0  964.42   29.82
   2  -8   1  689.10   22.54
  -2   8  -1  651.56   19.76
   2  -8   2   73.51    4.48
  -2   8  -2   71.80    4.52
   2  -8   3  239.70   10.79
   2  -8   4  382.61   15.00
   2  -8   5    4.97    3.43
   2  -8   6  273.59   13.67
   2  -8   7  289.89   16.87
   2  -8   8   18.89    3.79
   2  -8   9   59.05    4.75
   2  -8  10  224.04   11.97
  -2   7  11   81.11    6.50
   2  -7 -11   97.85    7.77
  -2   7  10  143.80    8.11
   2  -7 -10  122.63    7.25
  -2   7   9  137.47    8.35
  -2   7   9  148.88    9.84
  -2   7   8   34.60    8.83
  -2   7   8   27.87    4.67
  -2   7   7  290.71   13.81
  -2   7   7  309.07   15.32
  -2   7   6   48.66    5.22
  -2   7   6   53.33    7.02
   2  -7  -5  274.89   11.17
  -2   7   5  258.73   10.67
  -2   7   5  258.10   11.87
   2  -7  -4  701.58   23.71
  -2   7   4  688.49   17.47
  -2   7   4  701.96   18.73
   2  -7  -3   69.73    4.21
  -2   7   3   70.53    4.96
   2  -7  -2  427.55   12.65
   2  -7  -2  418.50   11.99
  -2   7   2  431.28   16.57
   2  -7  -1 1663.38   34.80
   2  -7  -1 1585.76   31.99
  -2   7   1 1597.61   33.71
   2  -7   0  891.36   20.27
   2  -7   0  866.88   19.00
  -2   7   0  870.94   18.76
   2  -7   1  147.27   10.16
   2  -7   1  148.62    9.70
  -2   7  -1  131.91    8.74
   2  -7   2  195.57    7.82
   2  -7   2  171.71    6.24
  -2   7  -2  164.27    8.81
   2  -7   3  266.49   12.68
   2  -7   3  255.02   13.25
  -2   7  -3  255.63   11.25
   2  -7   4   48.16    4.39
   2  -7   4   64.56    3.94
   2  -7   5  600.81   19.93
   2  -7   5  588.66   19.39
   2  -7   6  685.04   24.63
   2  -7   6  667.20   23.23
   2  -7   7   25.31    4.83
   2  -7   7   14.79    5.98
   2  -7   8   77.10    7.30
   2  -7   8   60.28    6.68
   2  -7   9  330.80   14.34
   2  -7   9  299.41   14.53
   2  -7  10  111.05    6.94
   2  -7  10   97.71    5.59
   2  -7  11   14.52    3.49
  -2   6  12  150.08   13.62
   2  -6 -12  177.86   11.35
  -2   6  11   39.06    8.22
   2  -6 -11   52.85    6.09
  -2   6  10    2.69    2.31
   2  -6 -10   11.96    3.70
  -2   6   9  322.43   18.39
  -2   6   8  353.33   16.40
  -2   6   8  399.69   19.55
  -2   6   7   52.52    6.27
  -2   6   7   64.63    7.51
  -2   6   6  612.87   28.62
  -2   6   6  661.83   18.00
   2  -6  -5  531.33   14.08
  -2   6   5  542.63   15.93
  -2   6   5  525.55   15.58
   2  -6  -4   52.49    2.21
   2  -6  -4   54.31    3.54
  -2   6   4   59.53    4.05
  -2   6   4   50.54    3.68
   2  -6  -3  270.25   10.02
  -2   6   3  259.67    9.65
  -2   6   3  241.38   12.52
   2  -6  -2 1199.67   27.49
   2  -6  -2 1170.59   26.64
  -2   6   2 1189.47   27.71
   2  -6  -1  393.55   15.48
   2  -6  -1  409.80   14.16
   2  -6  -1  403.51   14.06
  -2   6   1  389.47   14.98
   2  -6   0    7.15    2.45
   2  -6   0    5.94    0.98
   2  -6   0   10.13    2.23
  -2   6   0    9.67    2.11
   2  -6   1  661.95   16.99
   2  -6   1  648.41   15.31
   2  -6   1  690.25   16.28
  -2   6  -1  695.65   16.14
   2  -6   1  656.74   14.86
   2  -6   2 1181.63   27.54
   2  -6   2 1203.81   26.76
  -2   6  -2 1176.17   25.50
   2  -6   2 1168.50   25.33
   2  -6   3    7.76    2.33
   2  -6   3    8.27    2.45
  -2   6  -3    5.17    1.07
   2  -6   3    5.78    0.78
   2  -6   4  628.99   16.07
   2  -6   4  644.92   13.87
   2  -6   4  600.49   10.85
   2  -6   5  494.98   15.64
   2  -6   5  492.43   14.40
   2  -6   6  343.40   22.28
   2  -6   6  359.06   14.64
   2  -6   7  342.12   16.74
   2  -6   7  340.22   15.89
   2  -6   8  997.36   30.89
   2  -6   8 1028.79   32.35
   2  -6   9  176.60   10.62
   2  -6   9  174.66    9.72
   2  -6  10  125.41    7.42
   2  -6  10  131.84    7.22
   2  -6  11  124.65    7.19
   2  -6  11  118.50    6.55
   2  -6  12  143.89    8.19
   2  -6  12  146.58    8.69
  -2   5  13  201.44   10.27
   2  -5 -13  245.95   12.43
  -2   5  12   33.41    4.62
   2  -5 -12   37.05    5.11
  -2   5  11    2.58    1.94
   2  -5 -11   11.47    3.95
  -2   5  10  426.89   15.24
   2  -5 -10  438.33   15.76
  -2   5   9  516.87   18.42
   2  -5  -9  565.05   19.55
  -2   5   8   10.67    2.28
  -2   5   7  276.62   14.32
  -2   5   7  299.73   13.79
  -2   5   6  741.60   15.87
  -2   5   6  722.72   16.00
   2  -5  -5  895.19   19.38
   2  -5  -5  926.08   20.10
  -2   5   5  897.98   23.64
  -2   5   5  939.77   22.42
   2  -5  -4   57.14    2.35
   2  -5  -4   58.76    3.89
  -2   5   4   63.17    5.04
  -2   5   4   60.68    4.64
   2  -5  -3 2350.63   42.23
   2  -5  -3 2355.70   42.17
  -2   5   3 2365.00   43.30
  -2   5   3 2286.62   43.28
   2  -5  -2  277.19    6.67
  -2   5   2  279.51    7.20
   2  -5  -2  272.51    6.13
  -2   5   2  276.68    7.23
   2  -5  -1   22.46    1.78
  -2   5   1   16.07    4.22
   2  -5  -1   20.60    2.00
   2  -5   0  565.10   12.07
   2  -5   0  573.27   11.82
   2  -5   0  575.55   11.63
  -2   5   0  566.97   11.68
   2  -5   0  576.90   11.24
   2  -5   1 1341.29   19.79
   2  -5   1 1350.96   19.41
   2  -5   1 1392.77   19.45
  -2   5  -1 1409.18   18.76
   2  -5   2   31.70    2.96
   2  -5   2   33.24    2.18
  -2   5  -2   30.27    2.28
   2  -5   2   35.77    1.71
   2  -5   3 1869.61   35.49
   2  -5   3 1803.79   34.08
   2  -5   3 1841.19   32.19
   2  -5   4 2731.24   60.40
   2  -5   4 2747.79   62.49
   2  -5   5  138.83   10.50
   2  -5   5  138.38    5.48
   2  -5   6  501.02   15.84
   2  -5   6  512.71   15.30
   2  -5   7  557.71   23.85
   2  -5   7  573.52   23.86
   2  -5   8   54.04    9.15
   2  -5   8   55.70    8.81
   2  -5   9  126.52    6.13
   2  -5   9  113.00    7.23
   2  -5  10  198.93   14.37
   2  -5  10  183.74   14.44
   2  -5  11  109.15    8.27
   2  -5  11  117.16    8.88
   2  -5  12    7.01    2.97
   2  -5  12    1.51    2.26
  -2   4  14  110.09    8.12
   2  -4 -14  109.16    8.30
  -2   4  13  102.35    6.89
   2  -4 -13   90.51    6.19
  -2   4  12   13.29    2.88
   2  -4 -12   11.58    3.39
  -2   4  11  103.48    7.29
   2  -4 -11   71.43    5.93
  -2   4  10  855.89   27.12
   2  -4 -10  841.16   26.91
  -2   4   9   33.51    3.85
   2  -4  -9   25.80    3.57
  -2   4   8  719.64   17.12
   2  -4  -8  698.04   17.08
  -2   4   7  904.26   22.53
  -2   4   6  306.89    9.42
  -2   4   6  321.04   13.02
   2  -4  -5  611.87   14.48
   2  -4  -5  603.21   14.49
  -2   4   5  582.40   14.34
  -2   4   5  589.55   14.42
   2  -4  -4 2697.40   34.39
   2  -4  -4 2718.65   34.74
  -2   4   4 2705.98   37.25
  -2   4   4 2780.74   38.96
   2  -4  -3 1322.31   19.53
   2  -4  -3 1259.41   18.70
  -2   4   3 1290.99   20.64
  -2   4   3 1283.84   20.19
  -2   4   2  129.13    3.73
   2  -4  -2  136.40    3.57
  -2   4   2  135.24    4.10
   2  -4  -2  139.51    3.90
  -2   4   2  131.83    4.23
   2  -4  -2  126.41    3.76
  -2   4   1 1696.01   25.32
   2  -4  -1 1652.92   24.81
   2  -4  -1 1708.52   25.55
   2  -4  -1 1702.58   25.20
  -2   4   1 1663.50   24.86
   2  -4  -1 1684.47   24.84
  -2   4   0 2963.25   43.16
   2  -4   0 2954.70   42.76
   2  -4   0 2958.75   42.56
  -2   4   0 2954.93   41.74
   2  -4   0 2995.84   42.24
  -2   4  -1   26.33    3.93
   2  -4   1   25.97    2.49
  -2   4  -1   23.64    1.69
  -2   4  -1   21.74    1.94
   2  -4   1   20.56    1.03
  -2   4  -2 3168.66   46.16
   2  -4   2 3254.02   46.78
   2  -4   2 3268.46   45.25
   2  -4   3  983.75   17.01
   2  -4   4   69.48    3.58
   2  -4   4   72.81    4.52
   2  -4   5  168.77    6.53
   2  -4   5  176.50    6.49
   2  -4   6  968.30   23.02
   2  -4   6 1009.34   23.78
  -2   4  -6  934.43   19.85
   2  -4   7   38.90    4.16
   2  -4   7   51.64    9.64
  -2   4  -7   33.28    2.73
  -2   4  -7   38.16    2.57
   2  -4   8    7.42    2.20
   2  -4   8    2.67    2.66
   2  -4   9  820.23   26.24
   2  -4   9  867.07   27.56
   2  -4  10   83.10    4.90
   2  -4  10   81.24    4.44
   2  -4  11   26.26    3.39
   2  -4  11   41.16    5.00
   2  -4  12  388.21   22.93
   2  -4  12  351.52   21.42
   2  -4  13  181.39    9.83
   2  -4  13  157.84    8.93
  -2   3  14  160.37   14.17
   2  -3 -14  176.89   11.06
  -2   3  13   12.84    4.91
   2  -3 -13   16.03    3.77
  -2   3  12  467.38   21.97
   2  -3 -12  487.42   21.71
  -2   3  11  296.39   13.19
   2  -3 -11  318.00   13.52
  -2   3  10   22.56    5.85
   2  -3 -10   18.90    3.25
  -2   3   9  207.18    8.17
   2  -3  -9  231.04    9.10
  -2   3   8 1367.30   27.16
   2  -3  -8 1445.20   28.99
  -2   3   7   20.94    3.40
   2  -3  -7   12.28    2.59
  -2   3   6  228.50    6.37
   2  -3  -6  224.00    6.47
  -2   3   5 1515.44   21.39
   2  -3  -5 1497.12   21.12
  -2   3   5 1521.03   23.74
   2  -3  -5 1482.41   23.28
  -2   3   4 2099.48   29.72
   2  -3  -4 2106.60   29.79
  -2   3   4 2145.96   32.04
   2  -3  -4 2030.75   30.38
  -2   3   3  218.69    3.54
   2  -3  -3  218.26    3.59
  -2   3   3  228.64    4.88
   2  -3  -3  223.17    4.44
   2  -3  -3  212.81    4.53
   2  -3  -2 6506.43   68.74
  -2   3   2 6419.61   68.61
   2  -3  -2 6455.46   68.71
   2  -3  -2 6571.00   70.04
  -2   3   1 2679.87   29.61
   2  -3  -1 2646.29   29.49
  -2   3   1 2595.31   29.56
   2  -3  -1 2642.65   29.45
   2  -3  -1 2644.59   28.86
   2  -3  -1 2591.09   28.37
  -2   3   0  699.14   10.86
   2  -3   0  721.75   10.39
   2  -3   0  711.12    9.36
   2  -3   0  701.38    9.46
   2  -3   0  703.30    8.67
   2  -3   0  694.20    8.31
  -2   3  -1  488.49    8.02
   2  -3   1  476.91    7.41
  -2   3  -1  486.25    7.15
   2  -3   1  469.18    5.40
   2  -3   1  464.93    5.40
  -2   3  -2 2278.83   26.39
   2  -3   2 2237.92   25.66
  -2   3  -2 2279.48   26.03
  -2   3  -3   34.63    3.15
   2  -3   3   25.37    2.52
  -2   3  -4  567.10   14.23
   2  -3   4  574.32   14.14
  -2   3  -5  559.36   12.12
   2  -3   5  568.93   12.46
  -2   3  -5  565.82   10.34
  -2   3  -5  570.59   10.56
   2  -3   6  581.02   13.02
   2  -3   6  536.50   17.86
  -2   3  -6  534.97   12.87
  -2   3  -6  543.48   13.20
   2  -3   7  471.89   11.35
   2  -3   7  457.77   11.53
  -2   3  -7  438.97   25.20
  -2   3  -7  452.88    9.19
   2  -3   8  593.15   14.55
   2  -3   8  558.52   25.11
  -2   3  -8  539.73   14.51
   2  -3   9  126.04    8.55
   2  -3   9  107.53    6.54
  -2   3  -9  119.65    5.83
   2  -3  10   74.26    5.16
   2  -3  10   70.09    4.93
  -2   3 -10   74.19    3.68
   2  -3  11  479.18   20.99
   2  -3  11  510.51   22.90
   2  -3  12  425.62   17.19
   2  -3  12  477.13   21.23
   2  -3  13    8.46    2.81
   2  -3  13    5.25    2.97
  -2   2  14    6.81    3.11
   2  -2 -14    7.26    3.16
  -2   2  13  185.47    9.59
   2  -2 -13  172.52    9.37
  -2   2  12  415.97   15.09
   2  -2 -12  415.12   14.93
  -2   2  11   34.57    3.46
   2  -2 -11   35.36    4.47
  -2   2  10  284.15   13.66
   2  -2 -10  253.63   12.15
  -2   2   9  855.12   15.63
  -2   2   9  899.96   19.68
  -2   2   8 1403.76   29.77
  -2   2   8 1371.54   29.26
  -2   2   8 1422.16   32.63
   2  -2  -8 1360.71   31.29
  -2   2   7  243.04    4.97
   2  -2  -7  229.59    4.68
  -2   2   7  244.85    8.08
   2  -2  -7  241.48    7.42
  -2   2   6 2133.30   30.16
   2  -2  -6 2114.39   29.69
  -2   2   6 2169.90   32.91
  -2   2   5 1267.75   18.19
   2  -2  -5 1274.83   18.30
  -2   2   5 1245.74   19.60
   2  -2  -5 1265.59   19.95
  -2   2   4  363.61    4.88
   2  -2  -4  361.77    5.34
  -2   2   4  370.88    7.24
   2  -2  -4  360.58    6.23
  -2   2   3 1631.39   19.45
   2  -2  -3 1617.97   19.43
  -2   2   3 1641.62   20.66
   2  -2  -3 1640.51   20.34
   2  -2  -3 1681.75   20.92
  -2   2   1 3875.23   44.88
   2  -2  -1 3821.43   44.15
  -2   2   1 3957.17   46.22
   2  -2  -1 3843.54   44.79
   2  -2  -1 3928.94   45.21
  -2   2   0  553.87    9.25
   2  -2   0  561.56    8.47
   2  -2   0  571.87    8.18
   2  -2   0  556.19    8.26
   2  -2   0  562.73    7.21
  -2   2   0  581.48    7.38
  -2   2  -1 1656.18   20.55
   2  -2   1 1623.12   20.01
   2  -2   1 1653.17   20.54
  -2   2  -1 1630.16   20.11
   2  -2   1 1647.93   18.93
  -2   2  -1 1646.55   18.85
   2  -2   2  129.65    3.18
   2  -2   2  123.13    3.40
  -2   2  -2  124.30    3.34
   2  -2   2  126.73    1.85
  -2   2  -2  126.47    1.90
  -2   2  -3  632.85   10.13
   2  -2   3  615.24    9.59
   2  -2   3  617.00    7.06
  -2   2  -3  621.56    7.07
  -2   2  -4 2673.78   39.30
   2  -2   4 2681.93   39.55
  -2   2  -4 2729.81   38.22
  -2   2  -5   35.37    3.33
   2  -2   5   31.90    2.76
  -2   2  -5   36.26    2.28
  -2   2  -5   37.96    1.74
  -2   2  -6  289.21   10.03
   2  -2   6  289.94    8.97
  -2   2  -6  292.83    7.59
  -2   2  -6  311.42    8.26
   2  -2   7  463.53   17.16
  -2   2  -7  418.52   14.69
  -2   2  -7  451.11   15.66
   2  -2   8  784.23   20.58
   2  -2   8  844.83   20.20
  -2   2  -8  830.81   17.86
   2  -2   9   54.83    3.81
   2  -2   9   56.90    4.86
  -2   2  -9   68.38    4.18
   2  -2  10  387.82   15.10
   2  -2  10  411.58   16.89
  -2   2 -10  372.50   14.06
   2  -2  11  223.77   13.58
   2  -2  11  240.98   13.30
  -2   2 -11  245.74   12.37
   2  -2  12   29.63    2.83
   2  -2  12   28.77    4.31
   2  -2  13  120.71   14.28
  -2   1  15    9.12    3.30
   2  -1 -15   12.66    3.22
  -2   1  14  130.25    7.38
   2  -1 -14  133.52    6.66
  -2   1  13  162.24   12.62
   2  -1 -13  162.11   12.36
  -2   1  12  150.88    9.17
   2  -1 -12  144.88    7.07
  -2   1  11  608.47   18.36
  -2   1  11  667.82   22.18
   2  -1 -11  644.51   21.13
  -2   1  10 1181.23   27.57
  -2   1  10 1308.27   31.81
   2  -1 -10 1261.46   30.59
  -2   1   9  384.01    9.64
  -2   1   9  387.57   10.33
  -2   1   9  387.68   11.49
   2  -1  -9  394.29   11.84
  -2   1   8  192.25    6.01
   2  -1  -8  180.93    5.03
  -2   1   8  184.91    7.32
   2  -1  -8  176.47    6.55
  -2   1   7 3672.03   46.85
   2  -1  -7 3625.92   46.10
  -2   1   7 3665.44   48.91
   2  -1  -7 3811.37   50.63
  -2   1   6 1226.39   18.50
   2  -1  -6 1209.95   17.92
  -2   1   6 1203.05   19.72
   2  -1  -6 1179.47   18.98
  -2   1   5  168.92    3.36
   2  -1  -5  165.83    2.98
  -2   1   5  169.07    4.38
   2  -1  -5  166.21    4.43
  -2   1   4  912.36   10.98
   2  -1  -4  881.71   10.46
  -2   1   4  885.41   11.75
   2  -1  -4  881.30   11.36
   2  -1  -4  917.65   12.16
  -2   1   3   47.42    1.83
   2  -1  -3   50.34    2.40
  -2   1   3   53.13    4.76
   2  -1  -3   54.23    2.30
   2  -1  -3   52.95    2.17
  -2   1   3   51.29    2.38
  -2   1   2 3364.58   39.02
   2  -1  -2 3271.78   37.92
  -2   1   2 3389.33   39.72
   2  -1  -2 3230.30   37.85
   2  -1  -2 3335.67   38.92
  -2   1   2 3333.47   38.85
  -2   1   0   91.49    2.65
   2  -1   0   94.86    2.57
   2  -1   0   96.13    2.97
  -2   1   0  103.07    2.86
   2  -1   0   97.73    2.34
  -2   1   0   95.03    2.23
  -2   1  -1   73.00    3.58
   2  -1   1   72.08    2.47
   2  -1   1   77.94    2.85
  -2   1  -1   71.06    3.00
   2  -1   1   69.50    1.77
  -2   1  -1   77.14    1.99
  -2   1  -2  176.89    5.91
   2  -1   2  179.60    3.78
   2  -1   2  183.39    4.09
  -2   1  -2  177.65    3.81
   2  -1   2  179.20    3.12
  -2   1  -2  174.71    3.33
  -2   1  -3 1823.13   21.12
   2  -1   3 1804.77   20.84
   2  -1   3 1859.75   21.89
   2  -1   3 1851.20   20.80
  -2   1  -3 1818.87   20.01
  -2   1  -4 1160.67   15.71
   2  -1   4 1189.84   17.02
   2  -1   4 1171.53   14.05
  -2   1  -4 1175.05   13.76
  -2   1  -5  933.37   19.29
   2  -1   5  914.03   18.30
   2  -1   5  890.75   17.12
  -2   1  -5  893.77   17.23
  -2   1  -6 1410.01   23.54
   2  -1   6 1371.28   20.86
   2  -1   6 1354.17   20.37
  -2   1  -7  850.46   22.35
   2  -1   7  838.70   20.52
   2  -1   7  845.00   20.33
   2  -1   8    9.46    3.74
  -2   1  -8   12.81    2.15
   2  -1   9 1251.61   29.72
   2  -1   9 1151.44   29.13
  -2   1  -9 1303.66   30.57
   2  -1  10  427.51   14.58
   2  -1  10  390.09   18.54
  -2   1 -10  406.34   13.88
   2  -1  11   34.47    2.34
   2  -1  11   27.77    4.03
  -2   1 -11   26.58    2.66
   2  -1  12   45.14    5.81
   2  -1  12   57.43    5.35
  -2   1 -12   43.65    3.03
   2  -1  13  167.16    8.96
  -2   0  15  198.50   10.53
   2   0 -15  224.63   11.17
  -2   0  14  334.93   15.04
   2   0 -14  332.71   14.55
  -2   0  13    2.84    2.63
   2   0 -13    2.17    2.83
  -2   0  12  440.11   14.41
  -2   0  12  497.76   17.68
   2   0 -12  478.37   16.60
  -2   0  11  903.18   29.28
  -2   0  11  872.70   29.78
   2   0 -11  839.23   28.45
  -2   0  10  426.62   13.90
  -2   0  10  447.55   14.76
   2   0 -10  457.79   14.24
  -2   0   9  231.82    6.90
  -2   0   9  245.71    9.03
   2   0  -9  240.97    8.11
  -2   0   8  730.54   14.47
  -2   0   8  751.68   16.95
   2   0  -8  703.38   15.40
  -2   0   7  390.45    8.67
   2   0  -7  371.26    7.87
  -2   0   7  382.90    9.29
   2   0  -7  382.21    9.17
  -2   0   6   31.49    1.96
   2   0  -6   29.90    1.73
  -2   0   6   37.19    2.88
   2   0  -6   34.29    3.05
  -2   0   5 2206.63   24.90
   2   0  -5 2195.53   24.74
  -2   0   5 2149.15   25.22
   2   0  -5 2169.29   25.38
  -2   0   4 1783.01   21.74
   2   0  -4 1711.73   20.81
  -2   0   4 1767.03   22.02
   2   0  -4 1749.46   21.61
   2   0  -4 1786.67   22.46
  -2   0   4 1822.56   22.67
  -2   0   3  263.63    4.74
   2   0  -3  273.60    5.60
  -2   0   3  257.51    6.64
   2   0  -3  269.50    4.74
  -2   0   3  270.94    5.12
  -2   0   2   50.35    2.42
   2   0  -2   45.85    2.34
  -2   0   2   45.12    3.25
   2   0  -2   43.33    1.99
   2   0  -2   46.87    2.44
  -2   0   2   47.26    2.21
  -2   0   1  776.24   10.48
   2   0  -1  768.39   10.46
  -2   0   1  788.44   10.43
   2   0  -1  784.38   10.52
  -2   0   1  767.63   10.23
  -2   0   0 2509.68   29.73
   2   0   0 2597.48   30.67
   2   0   0 2547.04   30.04
  -2   0   0 2511.28   29.60
   2   0   0 2584.03   30.30
  -2   0   0 2537.61   29.79
  -2   0  -1 1668.98   20.46
   2   0   1 1662.78   20.25
   2   0   1 1654.78   20.28
  -2   0  -1 1626.47   19.91
   2   0   1 1664.39   19.98
  -2   0  -1 1655.52   19.83
  -2   0  -2 7669.20   81.14
  -2   0  -2 7742.33   81.40
  -2   0  -3  449.68    8.72
   2   0   3  458.61    6.72
   2   0   3  461.67    7.41
  -2   0  -3  453.88    7.67
   2   0   3  454.56    7.22
  -2   0  -3  463.00    7.20
  -2   0  -4   12.78    3.81
   2   0   4   13.79    1.64
   2   0   4   16.05    1.94
   2   0   4   15.54    1.35
  -2   0  -4   10.78    4.57
  -2   0  -5 2274.27   34.01
   2   0   5 2230.62   34.33
   2   0   5 2296.77   35.07
  -2   0  -6  200.08    6.23
   2   0   6  204.00    6.59
   2   0   6  199.35    6.73
  -2   0  -7  394.32   16.39
   2   0   7  414.45   15.93
   2   0   7  403.88   14.93
  -2   0  -8  684.77   16.76
   2   0   8  697.09   16.23
   2   0   8  706.68   15.24
   2   0   9 1179.34   30.20
   2   0   9 1213.69   29.45
   2   0  10  111.06    4.82
   2   0  10   95.79    6.17
  -2   0 -10  104.83    5.14
   2   0  11  261.47   11.74
   2   0  11  276.74   15.03
  -2   0 -11  300.25   13.84
   2   0  12  452.56   25.14
  -2   0 -12  461.24   24.68
   2   0  13    1.02    1.94
  -2   0 -13    1.80    1.46
  -2  -1  15  171.19    9.92
   2   1 -15  143.00    7.94
  -2  -1  14    0.70    2.34
   2   1 -14    6.90    2.83
  -2  -1  13  127.97   10.54
   2   1 -13   98.09    8.13
  -2  -1  12  810.71   24.96
  -2  -1  12  829.03   28.58
   2   1 -12  811.69   25.47
  -2  -1  11  229.88   12.63
  -2  -1  11  246.65   12.63
   2   1 -11  272.12   13.26
  -2  -1  10    2.45    1.82
  -2  -1  10    3.70    2.63
   2   1 -10    7.52    3.29
  -2  -1   9 1128.86   22.58
  -2  -1   9 1062.66   22.09
   2   1  -9 1042.76   21.37
  -2  -1   8    9.87    1.86
  -2  -1   8   13.16    2.31
   2   1  -8   11.28    2.04
  -2  -1   7  234.85    6.35
  -2  -1   7  233.25    6.84
   2   1  -7  223.80    6.30
  -2  -1   6  505.41   10.73
  -2  -1   6  508.70   11.09
   2   1  -6  507.91   11.28
  -2  -1   5 3423.89   38.16
  -2  -1   5 3361.15   37.62
   2   1  -5 3429.27   38.51
  -2  -1   4   90.40    3.05
   2   1  -4   95.69    2.90
  -2  -1   4   85.53    2.76
   2   1  -4   87.43    3.02
   2   1  -4   86.79    3.14
  -2  -1   4   89.00    2.82
  -2  -1   3  887.62   12.14
   2   1  -3  899.41   12.12
  -2  -1   3  886.00   11.72
   2   1  -3  894.47   11.64
   2   1  -3  900.36   12.52
  -2  -1   3  891.32   12.12
  -2  -1   2 2946.58   34.94
   2   1  -2 3106.33   36.57
  -2  -1   2 2980.25   34.75
   2   1  -2 3013.61   35.11
   2   1  -2 2955.06   35.77
  -2  -1   1  719.77   10.22
   2   1  -1  735.27   10.11
  -2  -1   1  735.41    9.65
   2   1  -1  720.09    9.39
   2   1  -1  707.49    9.97
  -2  -1   0 3484.91   40.92
   2   1   0 3582.57   41.89
   2   1   0 3537.85   40.94
  -2  -1   0 3522.33   40.91
   2   1   0 3610.76   42.19
  -2  -1   0 3660.05   42.66
  -2  -1  -1 4399.37   51.23
   2   1   1 4437.65   51.42
   2   1   1 4595.85   52.94
  -2  -1  -1 4380.92   50.49
   2   1   1 4499.85   52.59
  -2  -1  -1 4365.61   50.60
  -2  -1  -2   21.59    1.62
   2   1   2   23.68    1.62
   2   1   2   22.10    1.96
  -2  -1  -2   23.86    1.47
   2   1   2   31.46    4.98
  -2  -1  -2   21.88    1.44
  -2  -1  -3   99.75    3.16
   2   1   3   98.33    2.88
   2   1   3  101.63    3.57
  -2  -1  -3  107.71    3.12
   2   1   3   94.77    3.20
  -2  -1  -3   93.37    4.28
  -2  -1  -4  676.62   13.17
   2   1   4  666.81   12.96
   2   1   4  667.25   14.19
   2   1   4  672.65   13.99
  -2  -1  -5 2198.47   30.23
   2   1   5 2168.21   28.74
   2   1   5 2299.07   31.72
   2   1   5 2283.10   32.42
  -2  -1  -6   19.86    2.20
   2   1   6   19.01    2.28
   2   1   6   26.09    6.33
   2   1   6   20.91    5.41
  -2  -1  -7 1722.41   37.64
   2   1   7 1691.84   38.26
   2   1   7 1702.53   40.05
  -2  -1  -8  313.56    9.13
   2   1   8  309.33   10.69
   2   1   8  309.70   10.23
  -2  -1  -9   33.84    4.76
   2   1   9   37.42    4.13
   2   1   9   40.12    5.02
   2   1  10  519.37   17.98
   2   1  10  594.64   21.75
   2   1  10  520.72   23.91
   2   1  11  474.70   21.10
   2   1  12   61.57    5.95
  -2  -1 -12   62.22    5.42
   2   1  13   72.81    7.75
  -2  -1 -13   66.80    6.75
   2   2 -15   20.46    3.39
  -2  -2  14   80.88    5.75
   2   2 -14   86.30    5.56
  -2  -2  13  330.24   21.04
  -2  -2  13  326.89   18.61
   2   2 -13  337.42   19.04
  -2  -2  12  254.07   12.28
  -2  -2  12  278.60   14.26
   2   2 -12  231.17   13.10
  -2  -2  11  193.17   14.54
  -2  -2  11  186.24    9.76
   2   2 -11  196.46   11.31
  -2  -2  10  211.89    9.89
  -2  -2  10  203.05    9.91
   2   2 -10  213.28   10.62
  -2  -2   9   50.05    3.52
  -2  -2   9   48.99    3.58
   2   2  -9   38.69    3.07
  -2  -2   8    6.74    2.98
  -2  -2   8    9.74    2.59
   2   2  -8   10.98    3.11
  -2  -2   7 1583.84   29.93
  -2  -2   7 1586.02   30.11
   2   2  -7 1588.40   30.19
  -2  -2   6 1986.95   28.18
  -2  -2   6 2031.27   27.85
   2   2  -6 1924.27   27.02
  -2  -2   5   74.16    3.90
  -2  -2   5   87.39    3.57
   2   2  -5   94.59    4.06
  -2  -2   4 1702.99   22.97
  -2  -2   4 1666.20   19.32
   2   2  -4 1680.96   19.37
   2   2  -4 1719.92   21.30
  -2  -2   3 2842.74   32.07
  -2  -2   3 2831.60   30.90
   2   2  -3 2840.22   30.88
   2   2  -3 2806.31   32.14
  -2  -2   3 2812.49   31.66
  -2  -2   2 1146.23   14.65
   2   2  -2 1194.58   14.78
  -2  -2   2 1173.74   13.51
   2   2  -2 1155.44   13.21
   2   2  -2 1189.97   15.01
  -2  -2   2 1160.09   14.43
  -2  -2   1  166.56    4.35
   2   2  -1  154.39    5.23
   2   2  -1  163.82    3.39
   2   2  -1  161.05    2.99
   2   2  -1  164.92    4.28
  -2  -2   1  167.50    5.49
  -2  -2   0 2148.14   26.33
   2   2   0 2194.97   26.67
   2   2   0 2157.73   25.40
   2   2   0 2124.45   26.48
  -2  -2   0 2181.64   26.94
  -2  -2  -1  463.41    7.51
   2   2   1  468.28    7.03
   2   2   1  464.17    6.45
  -2  -2  -1  468.08    6.57
   2   2   1  474.82    7.70
  -2  -2  -2  464.82    7.17
   2   2   2  478.18    7.09
   2   2   2  488.50    7.41
  -2  -2  -2  473.09    6.67
   2   2   2  485.70    7.87
  -2  -2  -3 3629.70   51.80
   2   2   3 3731.88   53.11
   2   2   3 3737.50   53.42
  -2  -2  -3 3694.68   52.50
   2   2   3 3800.19   54.77
  -2  -2  -4 1531.84   22.96
   2   2   4 1483.26   22.22
   2   2   4 1528.53   23.72
   2   2   4 1537.94   25.09
  -2  -2  -5   89.94    3.14
   2   2   5   93.43    3.19
   2   2   5   78.87    6.39
   2   2   5   88.94    7.30
  -2  -2  -6 1241.04   27.88
   2   2   6 1132.87   25.03
   2   2   6 1184.44   27.14
   2   2   6 1201.67   28.46
  -2  -2  -7 1674.23   30.84
   2   2   7 1529.20   28.32
   2   2   7 1575.47   33.91
   2   2   7 1622.69   34.35
  -2  -2  -8   11.76    2.91
   2   2   8   21.81    3.75
   2   2   8   16.61    5.48
   2   2   9  238.75   12.19
   2   2   9  212.38   13.95
   2   2  10  541.94   18.61
   2   2  10  534.83   17.75
   2   2  11   14.88    3.21
   2   2  11    9.10    2.87
   2   2  12  150.21    8.16
   2   2  12  138.58    9.56
   2   2  13  173.43    9.75
  -2  -2 -13  193.06   10.68
  -2  -3  14  122.33   16.38
  -2  -3  14  144.44   12.55
   2   3 -14  154.89   13.17
  -2  -3  13  101.09    7.41
  -2  -3  13   81.90    7.55
   2   3 -13   99.76    7.79
  -2  -3  12   79.45    7.28
  -2  -3  12   69.34    6.20
   2   3 -12   55.79    3.78
  -2  -3  11  191.26    8.69
  -2  -3  11  226.25   10.35
   2   3 -11  201.29    9.08
  -2  -3  10  461.73   19.09
  -2  -3  10  470.71   13.14
   2   3 -10  480.04   13.08
  -2  -3   9    8.57    4.49
  -2  -3   9   11.11    2.53
   2   3  -9   14.52    2.67
  -2  -3   8  859.83   18.55
  -2  -3   8  830.23   18.44
   2   3  -8  845.57   17.92
  -2  -3   7 1047.58   24.56
  -2  -3   7 1026.20   23.53
   2   3  -7 1034.72   24.18
  -2  -3   6  113.87    6.40
  -2  -3   6  121.25    6.73
   2   3  -6  110.27    4.62
  -2  -3   5  418.71   10.00
  -2  -3   5  407.93    9.17
   2   3  -5  396.62    8.37
   2   3  -5  387.13    9.26
  -2  -3   4 2021.08   30.78
  -2  -3   4 2058.91   29.84
   2   3  -4 2063.47   29.88
   2   3  -4 2031.82   30.96
  -2  -3   3    4.45    2.87
  -2  -3   3    1.16    1.74
   2   3  -3    4.92    1.28
   2   3  -3   11.31    2.13
  -2  -3   2 2448.05   28.60
  -2  -3   2 2518.47   27.12
   2   3  -2 2517.38   27.01
   2   3  -2 2525.79   29.73
  -2  -3   1 2970.04   34.99
   2   3  -1 2919.75   30.99
   2   3  -1 2977.62   31.61
   2   3  -1 2893.05   33.17
  -2  -3   0 1208.78   15.44
   2   3   0 1225.05   13.69
   2   3   0 1213.48   13.69
   2   3   0 1213.98   15.68
  -2  -3  -1  494.77   11.74
   2   3   1  494.82    9.50
  -2  -3  -1  475.10    9.06
   2   3   1  472.64   10.38
  -2  -3  -2 3422.17   49.24
   2   3   2 3417.99   48.96
   2   3   2 3405.24   48.63
  -2  -3  -2 3376.35   47.92
   2   3   2 3399.45   49.46
  -2  -3  -3 1261.48   18.02
   2   3   3 1219.30   17.10
   2   3   3 1288.43   18.46
  -2  -3  -3 1212.80   17.10
   2   3   3 1266.28   22.89
  -2  -3  -4  374.11   10.56
   2   3   4  354.89    9.51
   2   3   4  377.61   11.14
   2   3   4  344.79   12.12
  -2  -3  -5 1151.57   21.88
   2   3   5 1085.16   20.27
   2   3   5 1155.07   22.43
   2   3   5 1177.87   24.11
  -2  -3  -6 2110.51  119.94
   2   3   6 1868.61   33.99
   2   3   6 2112.48  120.52
   2   3   6 2069.94   43.44
  -2  -3  -7    0.85    1.15
   2   3   7    9.78    3.12
   2   3   7    3.33    2.32
   2   3   8  314.88   13.77
   2   3   8  300.43   18.01
   2   3   9  316.97   13.09
   2   3   9  298.92   14.79
   2   3  10   31.94   10.66
   2   3  10   29.60    7.98
   2   3  11   17.51    3.36
   2   3  11    9.17    2.63
   2   3  12  167.35    6.53
   2   3  12  179.43   17.96
  -2  -4  14   25.59    5.19
  -2  -4  14   20.60    3.41
  -2  -4  13   44.25    4.58
  -2  -4  13   38.10    4.08
   2   4 -13   28.56    3.22
  -2  -4  12  272.25   15.79
  -2  -4  12  300.25   16.65
   2   4 -12  247.44   13.94
  -2  -4  11  324.98   15.00
  -2  -4  11  320.22   22.44
   2   4 -11  314.63   14.16
  -2  -4  10    0.98    1.95
  -2  -4  10    1.77    2.37
   2   4 -10    4.86    3.31
  -2  -4   9 1658.24   54.27
  -2  -4   9 1622.48   53.25
   2   4  -9 1518.43   48.94
  -2  -4   8 1325.72   29.87
  -2  -4   8 1333.58   28.19
   2   4  -8 1281.67   29.88
  -2  -4   7  104.36    5.32
  -2  -4   7   99.33    4.45
   2   4  -7  105.94    5.08
  -2  -4   6  256.51   10.80
  -2  -4   6  235.88    8.90
   2   4  -6  233.54    9.30
  -2  -4   5  952.76   19.98
  -2  -4   5  943.33   17.91
   2   4  -5  917.83   17.32
   2   4  -5  955.55   19.05
  -2  -4   4  119.10   10.38
  -2  -4   4   99.13    3.93
   2   4  -4   94.47    2.72
   2   4  -4   96.02    4.93
  -2  -4   3 2192.08   30.89
  -2  -4   3 2104.28   27.06
   2   4  -3 2130.52   27.25
   2   4  -3 2102.78   29.15
  -2  -4   2 1117.83   17.24
   2   4  -2 1187.94   15.22
   2   4  -2 1161.78   14.95
   2   4  -2 1162.52   18.57
  -2  -4   1   99.44    4.12
   2   4  -1   90.86    1.79
   2   4  -1   99.60    4.22
  -2  -4   0  830.23   13.89
   2   4   0  849.55   10.98
   2   4   0  835.95   14.92
  -2  -4  -1 3018.86   40.30
   2   4   1 3084.51   39.01
  -2  -4  -1 3081.89   38.93
   2   4   1 3066.60   41.86
  -2  -4  -2 1549.60   22.14
   2   4   2 1587.22   21.35
  -2  -4  -2 1533.17   20.30
  -2  -4  -3    5.62    2.13
   2   4   3    6.93    2.44
  -2  -4  -3    0.80    1.13
   2   4   3    0.99    2.12
  -2  -4  -4 1540.12   34.42
   2   4   4 1560.08   34.40
   2   4   4 1541.70   36.76
  -2  -4  -5  165.49    6.06
   2   4   5  151.34    4.71
   2   4   5  167.29    8.56
   2   4   5  161.80   11.19
  -2  -4  -6  208.56    6.47
   2   4   6  208.29    7.50
   2   4   6  200.14    8.15
   2   4   7  551.76   19.04
   2   4   7  530.07   23.66
   2   4   8  372.82   14.92
   2   4   8  375.36   18.37
   2   4   9  137.93   12.62
   2   4   9  143.18    9.32
   2   4  10   43.62    3.99
   2   4  10   44.84    6.31
   2   4  11  101.22    9.67
   2   4  11  101.15    8.57
   2   4  12  138.43    8.41
   2   4  12  122.02   13.37
  -2  -5  13  249.20   14.34
  -2  -5  13  249.28   14.46
  -2  -5  12  192.84   10.26
  -2  -5  12  203.41    9.78
   2   5 -12  193.13   10.75
  -2  -5  11   11.88    5.01
  -2  -5  11   13.02    2.45
   2   5 -11   23.45    2.97
  -2  -5  10  430.20   17.62
  -2  -5  10  490.73   18.43
   2   5 -10  458.74   15.75
  -2  -5   9  409.96   16.49
  -2  -5   9  381.76   14.11
   2   5  -9  364.83   14.41
  -2  -5   8   -0.91    2.98
  -2  -5   8   -0.35    1.52
   2   5  -8    2.02    2.01
  -2  -5   7 1243.52   30.40
  -2  -5   7 1249.21   29.86
   2   5  -7 1186.95   28.24
  -2  -5   6  862.07   20.07
  -2  -5   6  857.29   18.29
   2   5  -6  848.42   19.12
  -2  -5   5   55.91    4.57
  -2  -5   5   60.12    2.66
   2   5  -5   51.49    2.25
   2   5  -5   49.59    6.20
  -2  -5   4  330.47   13.44
  -2  -5   4  312.42   11.10
   2   5  -4  307.32   10.79
   2   5  -4  317.54   12.15
  -2  -5   3 1332.10   30.92
   2   5  -3 1231.30   26.10
   2   5  -3 1281.76   29.14
  -2  -5   2  703.23   15.42
   2   5  -2  664.26   14.56
  -2  -5   1  380.16   12.81
   2   5  -1  386.18   11.02
  -2  -5   0 1661.56   32.54
   2   5   0 1693.66   32.39
  -2  -5  -1 1545.42   34.95
   2   5   1 1485.62   31.30
   2   5   1 1560.32   35.84
  -2  -5  -2   28.32    5.01
   2   5   2   34.28    2.94
  -2  -5  -2   27.26    1.42
   2   5   2   32.29    4.08
  -2  -5  -3  699.98   15.11
   2   5   3  690.02   13.61
  -2  -5  -3  662.97   12.78
   2   5   3  727.43   16.11
  -2  -5  -4  336.50   10.51
   2   5   4  339.56   10.16
   2   5   4  344.08   12.15
  -2  -5  -5    5.88    1.54
   2   5   5    1.61    1.66
  -2  -5  -6  150.67    7.15
   2   5   6  156.37    7.38
   2   5   6  127.38   10.01
   2   5   7  702.96   26.09
   2   5   7  744.98   26.11
   2   5   8  108.72   10.15
   2   5   8  145.29   13.32
   2   5   9   73.35    5.27
   2   5   9   71.71    6.79
   2   5  10  271.83   17.86
   2   5  10  289.70   18.38
   2   5  11   20.83    3.38
   2   5  11   19.93    6.70
  -2  -6  12    3.53    2.26
  -2  -6  11  295.91   13.01
  -2  -6  11  294.54   12.11
  -2  -6  10  149.86   11.63
  -2  -6  10  159.52   11.57
   2   6 -10  133.14    9.55
  -2  -6   9   21.10    3.28
  -2  -6   9   16.22    4.62
   2   6  -9   25.69    3.00
  -2  -6   8  186.37    9.54
  -2  -6   8  185.42    7.87
   2   6  -8  166.89    9.59
  -2  -6   7  685.82   22.60
  -2  -6   7  626.93   19.04
   2   6  -7  661.98   20.76
  -2  -6   6    3.43    2.84
  -2  -6   6    6.12    1.80
   2   6  -6    2.44    1.87
  -2  -6   5  349.88   15.97
  -2  -6   5  321.77   13.02
   2   6  -5  359.60   15.67
  -2  -6   4 3166.38  130.40
   2   6  -4 3090.43   62.99
  -2  -6   3  194.43   11.65
   2   6  -3  230.02    8.50
  -2  -6   2   61.93    5.67
   2   6  -2   53.96    4.46
  -2  -6   1 1664.00   35.58
   2   6  -1 1672.97   35.52
  -2  -6   0  221.12    8.11
   2   6   0  223.83    8.26
  -2  -6  -1   19.02    2.76
   2   6   1   12.10    2.54
  -2  -6  -2  153.58    8.08
   2   6   2  142.25   11.15
  -2  -6  -3  487.55   20.91
   2   6   3  453.95   18.07
   2   6   3  494.06   21.64
  -2  -6  -4   22.48    2.71
   2   6   4   14.20    4.23
   2   6   4   20.48    5.14
  -2  -6  -5  271.35   13.49
   2   6   5  285.79   12.78
   2   6   5  273.74   15.83
   2   6   6  483.84   15.42
   2   6   6  492.96   18.63
   2   6   7   23.04    2.52
   2   6   7   20.01    9.52
   2   6   8   29.93    3.12
   2   6   8   25.57    4.62
   2   6   9  142.43    9.89
   2   6  10   98.54    8.22
  -2  -7  11  257.51   15.70
  -2  -7  10    2.25    2.34
  -2  -7   9  251.75   15.31
   2   7  -9  260.84   14.39
  -2  -7   8  500.90   22.31
   2   7  -8  514.27   21.56
  -2  -7   7   50.05    5.99
   2   7  -7   53.51    8.18
  -2  -7   6  729.93   23.98
   2   7  -6  695.52   21.55
  -2  -7   5  312.20   13.48
   2   7  -5  307.12   12.27
  -2  -7   4  167.30   17.98
   2   7  -4  167.33    8.90
  -2  -7   3  100.71    6.52
   2   7  -3  101.56    6.01
  -2  -7   2  393.24   16.63
   2   7  -2  398.42   16.67
  -2  -7   1  744.10   25.46
   2   7  -1  765.89   26.68
  -2  -7   0   48.22    4.45
   2   7   0   44.38    3.93
  -2  -7  -1  237.82   16.60
   2   7   1  235.55   12.75
  -2  -7  -2  400.12   21.10
   2   7   2  372.83   18.03
  -2  -7  -3   63.28    4.16
   2   7   3   68.22   10.69
  -2  -7  -4  253.11   12.63
   2   7   4  250.67   14.25
   2   7   5  510.78   25.04
   2   7   6  130.42   10.16
   2   7   7    3.36    3.96
   2   7   8  175.69   14.71
   2   7   9   39.42   12.01
  -2  -8  10  156.68    9.35
  -2  -8   9  339.57   18.88
  -2  -8   8  117.46    7.30
  -2  -8   7   99.54    7.74
   2   8  -7   98.57    7.07
  -2  -8   6  219.58   16.07
   2   8  -6  202.17   16.20
  -2  -8   5  140.32   11.77
   2   8  -5  128.65    9.87
  -2  -8   4   11.91    2.86
   2   8  -4   13.45    4.95
  -2  -8   3  447.72   24.71
   2   8  -3  481.64   21.10
  -2  -8   2  218.02   11.47
   2   8  -2  237.42   11.81
  -2  -8   1   -0.79    2.90
   2   8  -1    5.17    2.35
  -2  -8   0  213.02   11.68
   2   8   0  226.64   11.58
  -2  -8  -1  366.97   16.18
   2   8   1  326.40   16.08
  -2  -8  -2   31.33    3.17
   2   8   2   34.88    3.69
  -2  -8  -3  364.59   15.84
   2   8   3  346.09   22.87
   2   8   4  583.77   32.65
   2   8   5   74.58   11.80
   2   8   6   49.60    6.00
   2   8   7   57.63    7.48
  -2  -9   7  240.21   17.89
  -2  -9   6   66.38   12.62
   2   9  -6   64.08    3.70
  -2  -9   5    8.49    6.16
   2   9  -5   18.76    2.94
  -2  -9   4  303.19   14.67
   2   9  -4  276.06   11.36
  -2  -9   3  182.28   11.31
  -2  -9   2    7.96    3.38
   2   9  -2    0.63    1.68
  -2  -9   1  172.86   11.74
   2   9  -1  177.00   10.08
  -2  -9   0  416.94   18.34
   2   9   0  381.78   18.75
  -2  -9  -1    3.55    2.85
   2   9   1    3.83    2.91
   2   9   2  167.36    8.41
   2   9   3   77.00    8.48
   2   9   4   40.31   11.82
   2   9   5   22.11    7.57
  -2 -10   3   10.41    2.84
   2  10  -3    8.91    3.10
  -2 -10   2  194.57   12.06
   2  10  -2  186.38   11.41
  -2 -10   1  228.63   13.33
   2  10  -1  217.46   10.83
  -2 -10   0    7.20    1.52
   2  10   0    7.89    3.88
  -3  10   5   34.83   12.86
  -3  10   4   51.95    6.74
  -3  10   3    7.82    2.62
   3 -10  -1  206.67   10.02
   3 -10   0   14.85    5.83
   3 -10   1   80.55    5.57
   3 -10   2  100.01    6.10
   3 -10   3   12.92    3.54
   3 -10   4  187.15   11.80
   3 -10   5  113.95    8.33
   3  -9  -8   37.31    3.93
   3  -9  -7   68.69    5.19
  -3   9   5   16.42    5.07
  -3   9   4  116.10    8.93
   3  -9  -3  282.72   12.68
  -3   9   3  265.26   13.23
   3  -9  -2  149.24    8.59
  -3   9   2  132.63   10.22
   3  -9  -1    2.94    1.83
  -3   9   1   -0.12    1.26
   3  -9   0  416.70   18.25
   3  -9   1   68.19    5.42
   3  -9   2   42.81    5.39
   3  -9   3  159.79   12.22
   3  -9   4  677.96   46.87
   3  -9   5    3.28    2.57
   3  -9   6   40.94    5.05
   3  -9   7  146.30   13.13
   3  -8 -10  326.16   15.65
  -3   8   9    2.60    1.52
   3  -8  -9    2.26    2.94
  -3   8   8   51.39   11.96
   3  -8  -8   64.43    6.49
  -3   8   7  205.04   15.45
   3  -8  -7  260.70   12.99
  -3   8   6   18.82    4.66
  -3   8   5   35.83    6.13
  -3   8   5   39.38    4.64
   3  -8  -4  488.95   17.88
   3  -8  -4  469.88   18.35
  -3   8   4  451.09   19.93
   3  -8  -3  103.23    4.98
   3  -8  -3   84.20    4.07
  -3   8   3   89.63    5.20
   3  -8  -2    8.22    2.55
   3  -8  -2    7.65    2.30
  -3   8   2    6.89    3.02
   3  -8  -1  200.58   10.36
   3  -8  -1  186.59    9.00
  -3   8   1  180.08   11.01
   3  -8   0  847.22   27.14
   3  -8   0  858.86   26.05
  -3   8   0  862.80   25.86
   3  -8   1   30.35    3.80
   3  -8   1   26.23    2.42
   3  -8   2  385.44   14.93
   3  -8   2  372.07   14.15
   3  -8   3  413.58   16.02
   3  -8   3  386.35   18.50
   3  -8   4   88.71    5.45
   3  -8   4   88.41    3.65
   3  -8   5  102.12   10.21
   3  -8   5   89.41    6.35
   3  -8   6  540.02   23.62
   3  -8   6  535.94   22.36
   3  -8   7   56.62    5.72
   3  -8   7   53.64    5.30
   3  -8   8   20.27    3.80
   3  -8   8    6.96    4.55
   3  -8   9  138.57    8.68
   3  -8   9  127.16    8.69
  -3   7  11  116.61   10.70
   3  -7 -11  141.45   12.95
  -3   7  10   32.20    9.77
   3  -7 -10   42.55    5.37
  -3   7   9  172.78    9.36
   3  -7  -9  186.52    9.82
  -3   7   8  180.90   10.07
   3  -7  -8  225.57   12.37
  -3   7   7   81.04    7.99
   3  -7  -7   83.97    4.48
  -3   7   6   26.84    7.04
   3  -7  -5  236.18    9.60
  -3   7   5  243.22   10.45
  -3   7   5  214.94   11.17
   3  -7  -4  844.43   28.36
  -3   7   4  828.20   27.68
  -3   7   4  845.15   28.20
   3  -7  -3   72.68    7.90
   3  -7  -3   62.32    7.42
  -3   7   3   63.37    8.91
   3  -7  -2  440.20   20.23
   3  -7  -2  449.82   18.68
  -3   7   2  446.56   20.78
   3  -7  -1 1157.51   25.87
   3  -7  -1 1190.76   25.07
  -3   7   1 1169.14   24.95
   3  -7   0   26.87    5.68
   3  -7   0   27.49    2.82
  -3   7   0   25.43    3.62
   3  -7   1 1027.09   27.10
   3  -7   1 1033.61   24.98
   3  -7   2  397.47   21.06
   3  -7   2  395.81   18.28
   3  -7   3   41.63    4.87
   3  -7   3   37.06    3.04
   3  -7   4   47.08    5.06
   3  -7   4   45.57    3.23
   3  -7   5  446.20   16.98
   3  -7   5  465.27   16.70
   3  -7   6  311.51   16.37
   3  -7   6  279.04   16.10
   3  -7   7  275.82   18.80
   3  -7   7  294.82   15.25
   3  -7   8  148.31    8.58
   3  -7   8  154.96    7.93
   3  -7   9  138.88    7.57
   3  -7   9  143.81    7.73
   3  -7  10    9.38    3.45
   3  -7  10    1.34    2.12
  -3   6  12  139.14   14.06
   3  -6 -12  170.59   10.68
  -3   6  11    0.88    2.65
   3  -6 -11    4.36    3.47
  -3   6  10  174.91   17.41
   3  -6 -10  229.31    8.54
  -3   6   9  234.30   17.01
   3  -6  -9  231.86   12.02
  -3   6   8  202.85   11.09
   3  -6  -8  230.44   10.76
  -3   6   7    8.07    1.96
   3  -6  -7    9.14    3.37
  -3   6   6 1969.42   46.44
   3  -6  -6 1936.05   45.28
   3  -6  -5  393.32   11.47
  -3   6   5  386.62   14.86
   3  -6  -5  390.90   12.46
   3  -6  -4    1.29    1.69
  -3   6   4    1.27    1.58
   3  -6  -3  635.62   13.87
  -3   6   3  619.14   14.45
   3  -6  -2  621.92   15.62
   3  -6  -2  612.33   14.96
   3  -6  -1    6.74    1.97
   3  -6  -1    5.55    2.13
   3  -6   0  206.32   14.00
   3  -6   0  226.63    8.81
   3  -6   0  234.60    8.46
   3  -6   0  252.92    9.15
   3  -6   1  775.62   19.71
   3  -6   1  785.06   19.06
   3  -6   1  791.95   17.38
   3  -6   1  824.51   18.15
   3  -6   2   21.84    2.64
   3  -6   2   21.63    3.86
   3  -6   2   21.91    1.59
   3  -6   2   21.54    1.03
   3  -6   3  238.56    9.15
   3  -6   3  228.72    7.71
   3  -6   4 1099.92   24.84
   3  -6   4 1157.30   25.69
   3  -6   5   53.54    4.44
   3  -6   5   49.50    4.03
   3  -6   6   20.89    5.42
   3  -6   6   17.79    2.73
   3  -6   7  555.02   20.46
   3  -6   7  520.17   19.18
   3  -6   8  236.43   13.06
   3  -6   8  198.57   11.74
   3  -6   9   13.26    6.06
   3  -6  10  335.08   21.19
   3  -6  10  315.37   19.46
   3  -6  11  290.72   13.99
   3  -6  11  292.22   14.56
  -3   5  13   51.40    6.04
   3  -5 -13   54.10    5.16
  -3   5  12   16.33    8.69
   3  -5 -12   17.46    3.90
  -3   5  11  178.11   15.10
   3  -5 -11  169.67   12.76
  -3   5  10  443.49   19.80
   3  -5 -10  501.29   17.45
  -3   5   9  242.96   13.75
   3  -5  -9  249.07   13.06
  -3   5   8  226.16   13.40
   3  -5  -8  217.00   10.77
  -3   5   7  591.30   15.77
   3  -5  -7  576.16   14.93
   3  -5  -6  438.31   25.11
   3  -5  -6  433.85   24.97
  -3   5   6  437.13   26.81
   3  -5  -6  457.48   11.45
   3  -5  -5    8.67    1.02
   3  -5  -5   10.32    1.95
  -3   5   5   15.83    3.24
   3  -5  -5    9.35    2.41
  -3   5   4 1013.06   19.09
   3  -5  -4  982.41   19.12
  -3   5   4 1053.11   23.56
   3  -5  -4 1009.69   20.08
  -3   5   3 1843.42   33.88
  -3   5   3 1796.09   35.52
   3  -5  -3 1807.20   33.57
  -3   5   2  117.18    4.86
   3  -5  -2  116.21    4.83
   3  -5  -2  114.67    4.51
  -3   5   1  885.56   14.98
   3  -5  -1  882.32   13.89
   3  -5  -1  879.38   13.21
   3  -5  -1  918.95   13.42
  -3   5   0  114.72    4.57
   3  -5   0  115.57    4.42
   3  -5   0  113.25    4.22
   3  -5   0  123.80    3.83
  -3   5  -1  355.11   10.28
   3  -5   1  335.61    9.81
   3  -5   1  349.31    8.66
   3  -5   1  351.60    8.69
  -3   5  -2  957.42   19.89
   3  -5   2  968.61   19.39
  -3   5  -3 1026.09   24.36
   3  -5   3 1086.32   25.06
   3  -5   4  471.61   11.51
   3  -5   5  208.27    8.16
   3  -5   5  205.00    8.01
   3  -5   6  635.91   17.28
   3  -5   6  621.40   16.57
   3  -5   7  448.30   19.05
   3  -5   7  415.23   22.03
   3  -5   8  288.62   17.21
   3  -5   8  334.23   14.82
   3  -5   9  381.22   19.91
   3  -5   9  361.07   17.26
   3  -5  10  111.12   10.88
   3  -5  10  128.49    7.82
   3  -5  11   59.04    5.24
   3  -5  11   65.87    5.04
   3  -5  12   39.21    3.93
   3  -5  12   45.80    5.29
  -3   4  14  201.97   14.38
   3  -4 -14  217.05   11.65
  -3   4  13    6.80    4.04
   3  -4 -13   15.70    3.39
  -3   4  12   94.59    6.83
   3  -4 -12   94.53    6.50
  -3   4  11  458.32   17.48
   3  -4 -11  462.11   16.69
  -3   4  10  576.44   21.57
   3  -4 -10  619.33   22.60
  -3   4   9    6.44    4.12
   3  -4  -9   10.55    3.04
  -3   4   8  744.75   18.90
   3  -4  -8  716.43   17.38
   3  -4  -7  324.67    7.57
  -3   4   7  318.34   12.67
   3  -4  -7  310.38    9.71
  -3   4   6   42.17    2.80
   3  -4  -6   42.79    2.45
  -3   4   6   50.11    8.01
   3  -4  -6   41.69    3.62
  -3   4   5 1126.36   21.29
   3  -4  -5 1109.08   20.31
  -3   4   5 1117.09   24.32
   3  -4  -5 1083.37   21.51
  -3   4   4 1142.93   16.36
   3  -4  -4 1151.42   15.93
  -3   4   4 1136.11   18.25
   3  -4  -4 1110.61   16.80
  -3   4   3  166.43    4.96
   3  -4  -3  150.12    4.22
  -3   4   3  155.86    6.71
   3  -4  -3  156.08    4.81
  -3   4   2  978.83   18.87
  -3   4   2  939.35   19.34
   3  -4  -2  941.65   18.27
   3  -4  -2  953.65   18.05
  -3   4   1 1350.57   21.63
   3  -4  -1 1301.67   20.38
   3  -4  -1 1380.55   20.61
   3  -4  -1 1338.51   19.97
  -3   4   0  395.01   10.82
   3  -4   0  396.87    9.18
   3  -4   0  389.75    7.62
   3  -4   0  387.55    7.71
  -3   4  -1  751.86   15.37
   3  -4   1  725.66   15.00
   3  -4   1  724.96   12.96
   3  -4   1  736.21   13.22
  -3   4  -2 3225.70   45.27
   3  -4   2 3034.32   40.81
  -3   4  -3   78.24    7.31
   3  -4   3   86.05    3.75
  -3   4  -4  186.94    7.00
   3  -4   4  163.46    6.40
  -3   4  -5  825.67   20.89
   3  -4   5  863.40   21.02
  -3   4  -6   21.11    5.34
   3  -4   6   21.58    3.35
   3  -4   7   81.62    5.37
   3  -4   7   88.83    7.46
   3  -4   8  675.06   22.24
   3  -4   8  711.98   23.43
   3  -4   9  387.60   14.15
   3  -4   9  381.05   10.01
   3  -4  10   18.82    3.18
   3  -4  10   12.35    4.65
   3  -4  11  113.27   11.07
   3  -4  11  123.95    9.11
   3  -4  12  291.41   17.26
   3  -4  12  287.38   16.31
  -3   3  14   33.19    3.95
   3  -3 -14   36.49    4.54
  -3   3  13  130.70    9.79
   3  -3 -13  113.32    8.65
  -3   3  12  753.63   31.67
   3  -3 -12  748.37   31.93
  -3   3  11  274.96   12.22
   3  -3 -11  262.69   12.75
  -3   3  10   25.80    3.56
   3  -3 -10   29.64    3.75
  -3   3   9  862.47   21.98
   3  -3  -9  778.68   18.72
  -3   3   8  122.32    3.38
   3  -3  -8  116.45    3.59
  -3   3   8  129.35    6.79
   3  -3  -8  132.14    6.14
  -3   3   7   13.10    2.29
   3  -3  -7    9.98    1.30
  -3   3   7   10.58    3.86
   3  -3  -7    6.14    2.57
  -3   3   6  834.28   15.53
   3  -3  -6  818.20   15.12
  -3   3   6  798.21   21.06
   3  -3  -6  788.33   16.66
  -3   3   5  384.97    8.11
   3  -3  -5  388.83    7.96
  -3   3   5  372.18   10.69
   3  -3  -5  363.77    8.65
  -3   3   4   40.76    2.26
   3  -3  -4   38.56    1.72
  -3   3   4   43.71    4.61
   3  -3  -4   38.02    2.54
  -3   3   3  650.28   12.61
   3  -3  -3  615.77   11.92
  -3   3   3  622.04   13.84
   3  -3  -3  644.14   12.99
  -3   3   2 3100.78   36.34
   3  -3  -2 2974.24   32.98
   3  -3  -2 2965.79   32.97
   3  -3  -2 3006.02   33.46
  -3   3   1    1.75    1.90
   3  -3  -1    1.11    1.02
   3  -3  -1    2.11    1.74
   3  -3  -1    2.77    1.47
   3  -3  -1    4.13    1.48
  -3   3   0  789.23   13.55
   3  -3   0  796.43   11.24
   3  -3   0  801.85   10.02
   3  -3   0  799.59    9.62
  -3   3  -1 1638.81   20.26
   3  -3   1 1582.94   19.53
   3  -3   1 1575.85   17.09
   3  -3   1 1617.11   17.62
  -3   3  -2  383.43    9.38
   3  -3   2  351.83    9.59
   3  -3   2  387.33    6.80
   3  -3   2  377.79    6.63
  -3   3  -3  181.71    5.65
   3  -3   3  179.08    5.58
  -3   3  -4  988.19   17.39
   3  -3   4  961.94   16.95
  -3   3  -5 1069.43   23.12
   3  -3   5 1058.83   23.42
  -3   3  -5 1038.31   18.47
  -3   3  -5 1036.20   18.45
  -3   3  -6   26.21    5.40
  -3   3  -6   27.47    1.49
  -3   3  -6   30.23    1.79
  -3   3  -7  533.13   15.74
   3  -3   7  544.06   23.33
  -3   3  -7  501.96   13.32
   3  -3   8 1130.40   37.44
  -3   3  -8 1113.63   35.25
   3  -3   9   42.36    3.60
   3  -3   9   42.56    4.63
  -3   3  -9   36.57    2.12
   3  -3  10  160.36    9.20
   3  -3  10  154.59   10.83
   3  -3  11  299.50   17.24
   3  -3  11  314.54   17.95
   3  -3  12   15.26    6.98
   3  -3  12   27.70    4.10
  -3   2  14  105.68    6.85
   3  -2 -14  107.28    6.50
  -3   2  13  485.15   26.26
   3  -2 -13  506.09   27.44
  -3   2  12  139.29    6.50
   3  -2 -12  131.80    6.16
  -3   2  11   69.83    4.77
   3  -2 -11   82.52   11.99
  -3   2  10  188.04    8.63
  -3   2  10  201.95   10.26
   3  -2 -10  199.77   10.13
  -3   2   9  160.61    7.83
  -3   2   9  165.85    8.68
   3  -2  -9  163.37    8.76
  -3   2   8   82.59    3.45
   3  -2  -8   78.63    3.68
  -3   2   8   77.26    4.97
   3  -2  -8   84.32    4.89
  -3   2   7  962.44   18.39
   3  -2  -7  926.64   17.10
  -3   2   7  978.40   24.18
   3  -2  -7  930.77   22.35
  -3   2   6 1678.95   23.12
   3  -2  -6 1686.96   22.34
  -3   2   6 1741.78   25.44
   3  -2  -6 1699.48   24.69
  -3   2   5  220.84    5.30
   3  -2  -5  218.08    4.99
  -3   2   5  214.76    6.67
   3  -2  -5  215.49    6.60
  -3   2   4  728.63    9.81
   3  -2  -4  724.96    9.49
  -3   2   4  731.25   12.96
   3  -2  -4  701.57   10.30
  -3   2   3 2324.14   26.16
   3  -2  -3 2314.71   25.99
  -3   2   3 2278.12   26.57
   3  -2  -3 2251.76   25.94
  -3   2   3 2286.47   26.19
  -3   2   2   82.50    2.74
   3  -2  -2   90.49    2.84
  -3   2   2   79.16    5.06
   3  -2  -2   83.93    3.54
   3  -2  -2   84.43    2.98
  -3   2   2   87.65    2.65
  -3   2   1  943.62   12.15
   3  -2  -1  920.85   11.82
   3  -2  -1  968.33   12.57
   3  -2  -1  924.96   12.36
   3  -2  -1  931.39   11.51
  -3   2   1  959.14   11.66
  -3   2   0 1523.39   18.38
   3  -2   0 1475.54   18.18
   3  -2   0 1486.92   16.85
  -3   2   0 1478.55   16.69
  -3   2  -1  614.37   10.08
   3  -2   1  580.54    8.87
   3  -2   1  571.87    7.12
  -3   2  -1  604.18    7.49
  -3   2  -2  586.06   10.50
   3  -2   2  614.31    9.83
   3  -2   2  588.67    7.18
  -3   2  -2  605.26    7.40
  -3   2  -3  896.99   20.30
   3  -2   3  889.66   18.16
   3  -2   3  894.73   16.14
  -3   2  -3  912.20   16.55
  -3   2  -4 1270.38   21.23
   3  -2   4 1288.94   19.61
   3  -2   4 1308.26   17.63
  -3   2  -4 1263.52   16.86
  -3   2  -5  329.01   11.50
   3  -2   5  333.42   10.70
   3  -2   5  311.32    8.06
  -3   2  -5  316.83    8.85
  -3   2  -6 1723.90   41.03
   3  -2   6 1769.66   40.03
   3  -2   6 1792.03   38.98
  -3   2  -6 1673.40   36.01
  -3   2  -7 1802.86   35.96
   3  -2   7 1758.62   36.41
  -3   2  -8  117.66    9.32
   3  -2   8  102.75    7.01
  -3   2  -8  106.11    5.47
   3  -2   9  179.67   24.01
  -3   2  -9  185.00    8.85
   3  -2  10  511.78   17.00
   3  -2  10  453.74   17.10
  -3   2 -10  502.64   15.62
   3  -2  11   98.26    7.96
   3  -2  11  100.79    8.78
   3  -2  12   84.53    4.86
   3  -2  12  107.85    7.18
   3  -2  13  130.86    9.32
  -3   1  15   74.66    6.74
   3  -1 -15   71.83    6.20
   3  -1 -14  221.78   14.13
  -3   1  13  168.54   20.30
   3  -1 -13  146.47   11.09
  -3   1  12   96.13    5.32
   3  -1 -12  114.36    5.47
  -3   1  11   99.54    3.65
  -3   1  11  112.92    7.61
   3  -1 -11  109.52    5.54
  -3   1  10  397.83   16.64
  -3   1  10  421.35   18.49
   3  -1 -10  394.96   17.37
  -3   1   9   93.64    3.86
  -3   1   9   86.64    5.21
   3  -1  -9   82.56    5.14
  -3   1   8 1478.43   32.68
   3  -1  -8 1410.56   30.72
  -3   1   8 1506.05   34.92
   3  -1  -8 1442.02   33.14
  -3   1   7 2426.40   32.57
   3  -1  -7 2391.22   31.39
  -3   1   7 2453.05   35.08
   3  -1  -7 2441.50   34.18
  -3   1   6   21.93    2.21
   3  -1  -6   16.93    4.16
  -3   1   6   22.66    6.81
   3  -1  -6   17.89    1.88
  -3   1   5 1032.44   19.66
   3  -1  -5 1046.79   20.18
  -3   1   5 1018.03   23.16
   3  -1  -5 1050.25   20.61
  -3   1   4  309.52    5.74
   3  -1  -4  304.03    5.17
  -3   1   4  302.42    7.35
   3  -1  -4  307.02    5.99
  -3   1   3  516.09    7.75
   3  -1  -3  512.32    7.46
  -3   1   3  502.36    9.74
   3  -1  -3  512.88    7.92
  -3   1   3  508.39    7.58
  -3   1   2  623.03    9.36
   3  -1  -2  621.89    9.03
  -3   1   2  622.87   11.03
   3  -1  -2  639.00    9.41
   3  -1  -2  621.84    9.12
  -3   1   2  632.95    9.10
  -3   1   1 2275.88   27.77
   3  -1  -1 2270.28   27.54
   3  -1  -1 2349.59   28.64
   3  -1  -1 2255.06   27.86
   3  -1  -1 2265.86   27.29
  -3   1   1 2328.15   27.89
  -3   1   0   40.17    2.50
   3  -1   0   44.27    2.26
   3  -1   0   40.95    2.67
   3  -1   0   39.94    2.09
  -3   1   0   45.03    1.96
  -3   1  -1  377.92    8.53
   3  -1   1  379.45    6.79
   3  -1   1  388.71    5.81
  -3   1  -1  387.43    5.72
  -3   1  -2 3146.09   35.52
   3  -1   2 3211.07   36.29
   3  -1   2 3119.36   33.80
  -3   1  -2 3150.14   34.13
  -3   1  -3 2151.43   32.13
   3  -1   3 2060.39   31.06
   3  -1   3 2141.88   30.86
  -3   1  -3 2100.31   30.56
  -3   1  -4  110.85    7.81
   3  -1   4  101.13    4.49
   3  -1   4  104.31    7.18
  -3   1  -4  109.70    3.61
  -3   1  -5 1991.48   38.61
   3  -1   5 1976.28   37.89
   3  -1   5 2067.26   37.72
  -3   1  -5 1904.45   34.36
  -3   1  -6  816.43   21.47
   3  -1   6  799.89   19.72
   3  -1   6  803.14   19.84
  -3   1  -7  148.18    9.72
   3  -1   7  143.99    6.49
   3  -1   7  116.93    7.45
  -3   1  -8  528.43   22.49
   3  -1   8  528.58   23.13
   3  -1   8  533.44   22.11
  -3   1  -9 1536.73   45.62
   3  -1   9 1489.63   46.31
   3  -1   9 1469.00   44.18
   3  -1  10   47.43    3.48
   3  -1  10   33.21    3.94
  -3   1 -10   37.48    2.54
   3  -1  11   67.56    5.71
   3  -1  11   55.35    5.61
  -3   1 -11   67.45    5.57
   3  -1  12  265.94   16.85
   3  -1  13  126.33    9.26
  -3   0  15   91.40    7.28
   3   0 -15   98.99    7.32
  -3   0  14   54.95    5.27
   3   0 -14   49.23    4.98
  -3   0  13    2.11    2.49
   3   0 -13    4.79    2.41
  -3   0  12  864.77   25.51
  -3   0  12  936.04   29.62
   3   0 -12  930.14   29.00
  -3   0  11   32.07    2.50
  -3   0  11   30.73    3.55
   3   0 -11   34.49    4.07
  -3   0  10   32.13    5.78
  -3   0  10   27.81    4.00
   3   0 -10   19.33    3.00
  -3   0   9  853.91   17.44
  -3   0   9  878.64   19.26
   3   0  -9  871.20   19.00
  -3   0   8  687.69   16.54
  -3   0   8  693.50   17.46
   3   0  -8  664.12   16.53
  -3   0   7  146.15    4.74
  -3   0   7  156.43    5.89
   3   0  -7  133.11    5.24
  -3   0   6 1236.44   19.54
  -3   0   6 1215.72   19.59
   3   0  -6 1215.98   19.86
  -3   0   5  727.85   17.04
  -3   0   5  709.05   15.15
   3   0  -5  728.85   15.02
  -3   0   4  749.47   10.57
   3   0  -4  750.73   10.23
  -3   0   4  766.05   12.08
   3   0  -4  760.93   11.11
  -3   0   3  757.73   10.67
   3   0  -3  738.78   10.07
  -3   0   3  748.90   11.17
   3   0  -3  744.28   10.22
   3   0  -3  749.35   10.89
  -3   0   2 1672.37   21.18
   3   0  -2 1662.84   20.90
  -3   0   2 1679.75   21.07
   3   0  -2 1685.72   21.05
   3   0  -2 1691.32   21.34
  -3   0   2 1664.11   20.90
  -3   0   1  410.48    7.18
   3   0  -1  416.45    6.94
   3   0  -1  434.82    8.72
   3   0  -1  412.52    7.62
   3   0  -1  424.30    8.28
  -3   0   1  405.20    6.73
  -3   0   0  936.45   13.17
   3   0   0  952.43   12.30
   3   0   0  934.73   12.16
  -3   0   0  911.64   12.43
   3   0   0  941.82   12.13
  -3   0   0  960.13   12.84
  -3   0  -1 4782.34   52.03
   3   0   1 4794.51   52.20
  -3   0  -1 4863.49   52.71
  -3   0  -1 4855.99   52.19
  -3   0  -2 6798.81   72.92
   3   0   2 6657.22   71.57
  -3   0  -2 6804.98   72.48
  -3   0  -3  226.41    6.78
   3   0   3  225.79    6.41
   3   0   3  240.02    6.71
  -3   0  -3  229.04    5.48
  -3   0  -4 3108.28   41.22
   3   0   4 3078.99   42.38
   3   0   4 3078.91   40.42
  -3   0  -5 1709.58   34.92
   3   0   5 1690.91   32.21
   3   0   5 1710.57   32.31
  -3   0  -6   32.21    2.81
   3   0   6   32.47    3.11
   3   0   6   38.94    4.06
  -3   0  -7  661.74   13.94
   3   0   7  639.96   15.13
   3   0   7  656.63   14.35
  -3   0  -8  232.67   13.50
   3   0   8  250.21   12.53
   3   0   8  215.77   11.68
  -3   0  -9  174.96   10.35
   3   0   9  154.50    9.28
   3   0   9  136.85   10.62
  -3   0 -10  141.75    8.04
   3   0  10  157.59    9.70
   3   0  10  170.85   10.22
   3   0  11  437.02   24.06
   3   0  12  150.27    8.17
  -3   0 -12  142.40    6.93
   3   0  13   33.31    4.34
  -3  -1  15   30.30    3.47
   3   1 -15   32.41    3.52
  -3  -1  14   53.25    5.59
   3   1 -14   60.36    5.29
  -3  -1  13  163.96   12.30
  -3  -1  13  175.06   14.60
   3   1 -13  167.28   12.29
  -3  -1  12  369.55    7.87
  -3  -1  12  355.51   17.18
   3   1 -12  369.04    9.08
  -3  -1  11    3.50    2.37
  -3  -1  11    5.88    2.45
   3   1 -11    3.63    2.71
  -3  -1  10  241.41   15.51
  -3  -1  10  237.93   15.45
   3   1 -10  272.72   12.91
  -3  -1   9 1125.27   22.42
  -3  -1   9 1124.96   23.30
   3   1  -9 1095.55   22.67
  -3  -1   8   18.94    2.33
  -3  -1   8   27.23    3.41
   3   1  -8   28.91    9.07
  -3  -1   7  147.51    5.44
  -3  -1   7  150.28    5.87
   3   1  -7  171.88    6.40
  -3  -1   6 1274.56   18.74
  -3  -1   6 1307.51   21.41
   3   1  -6 1271.41   19.29
  -3  -1   5    6.84    1.90
  -3  -1   5    6.21    2.17
   3   1  -5    5.08    2.99
  -3  -1   4 1455.85   18.23
  -3  -1   4 1449.08   17.77
   3   1  -4 1454.33   18.44
  -3  -1   3 7903.83  137.84
  -3  -1   3 7456.16  129.87
   3   1  -3 7263.21  126.26
  -3  -1   2 2672.01   30.61
  -3  -1   2 2664.58   29.81
   3   1  -2 2677.11   29.77
   3   1  -2 2787.47   32.09
  -3  -1   1   57.14    3.21
   3   1  -1   65.63    2.65
   3   1  -1   70.47    2.89
   3   1  -1   66.65    3.29
  -3  -1   0 7451.38  130.02
  -3  -1  -1 4745.23   51.99
   3   1   1 4793.06   51.93
  -3  -1  -1 4698.76   50.84
   3   1   1 4556.89   49.97
  -3  -1  -2 1277.31   20.43
   3   1   2 1266.04   19.88
   3   1   2 1276.53   19.94
  -3  -1  -3  864.53   17.04
   3   1   3  856.73   17.01
   3   1   3  894.12   17.48
  -3  -1  -4  874.50   13.83
   3   1   4  869.41   14.11
   3   1   4  894.77   17.35
  -3  -1  -5  203.10    8.73
   3   1   5  202.69    7.21
   3   1   5  209.40   12.87
  -3  -1  -6  386.26   14.60
   3   1   6  383.54   14.87
   3   1   6  346.53   15.32
  -3  -1  -7 1293.14   28.04
   3   1   7 1271.00   29.24
   3   1   7 1317.88   31.02
  -3  -1  -8   41.81    7.09
   3   1   8   51.10   10.49
   3   1   8   37.03    8.96
  -3  -1  -9   11.14    3.08
   3   1   9   10.23    5.25
   3   1   9   13.90    2.82
   3   1  10  346.50   16.22
   3   1  10  312.68   15.13
   3   1  11  116.69    7.43
   3   1  11  103.07    6.93
  -3  -2  14  300.37   18.18
   3   2 -14  278.26   17.04
  -3  -2  13  202.92   10.52
  -3  -2  13  182.32   12.51
   3   2 -13  196.82   10.17
  -3  -2  12   16.14    4.86
  -3  -2  12   22.60    6.92
   3   2 -12   12.59    2.10
  -3  -2  11 1025.79   34.73
  -3  -2  11  985.15   34.86
   3   2 -11  948.79   32.33
  -3  -2  10  506.08   18.76
  -3  -2  10  485.34   20.47
   3   2 -10  519.08   18.63
  -3  -2   9   20.67    5.52
  -3  -2   9   21.38    2.67
   3   2  -9   22.55    3.34
  -3  -2   8  169.40    9.72
  -3  -2   8  170.04    6.51
   3   2  -8  159.79    6.56
  -3  -2   7  676.74   19.25
  -3  -2   7  743.65   15.62
   3   2  -7  712.99   15.55
  -3  -2   6  551.32   12.61
  -3  -2   6  526.04   11.44
   3   2  -6  558.54   12.87
  -3  -2   5 2858.82   38.72
  -3  -2   5 2822.64   37.57
   3   2  -5 2825.27   40.27
  -3  -2   4 4413.70   64.19
  -3  -2   4 4301.35   61.16
   3   2  -4 4167.58   59.05
   3   2  -4 4271.36   62.11
  -3  -2   3  325.96    7.91
  -3  -2   3  342.88    9.01
   3   2  -3  333.67    7.17
   3   2  -3  320.81    8.80
  -3  -2   2  301.34    6.36
  -3  -2   2  308.19    6.74
   3   2  -2  296.20    6.53
   3   2  -2  296.02    6.46
  -3  -2   1 7115.80  124.40
   3   2  -1 6986.02   74.04
   3   2  -1 6985.04   75.70
  -3  -2   0 1132.68   18.26
   3   2   0 1201.16   18.79
   3   2   0 1149.69   17.52
   3   2   0 1177.93   19.66
  -3  -2  -1  268.93    7.22
   3   2   1  282.05    6.51
  -3  -2  -1  278.10    6.26
   3   2   1  269.03    6.82
  -3  -2  -2  602.77   12.90
   3   2   2  605.79   13.07
   3   2   2  598.40   12.90
  -3  -2  -3  988.56   15.37
   3   2   3  967.25   15.97
   3   2   3  980.93   15.71
  -3  -2  -4   11.40    1.96
   3   2   4    8.62    1.60
   3   2   4   14.59    4.82
  -3  -2  -5 1065.95   24.49
   3   2   5 1050.99   24.69
   3   2   5 1073.12   25.84
  -3  -2  -6 1282.49   27.21
   3   2   6 1283.89   26.28
   3   2   6 1307.60   26.78
  -3  -2  -7  453.78   18.96
   3   2   7  408.79   18.61
   3   2   7  445.64   19.86
  -3  -2  -8   32.00    4.19
   3   2   8   31.90    3.68
   3   2   8   30.02    3.01
   3   2   9  320.41   16.77
   3   2   9  310.31   14.87
   3   2  10  134.34   10.44
   3   2  10  112.68   12.31
   3   2  11   20.84    3.53
   3   2  11    9.86    5.71
   3   2  12  121.48   11.02
   3   2  12  118.80   13.54
  -3  -3  14  108.82    9.70
  -3  -3  14  123.58   11.23
   3   3 -14  142.38   12.55
  -3  -3  13   13.55    5.87
  -3  -3  13   16.21    2.97
   3   3 -13   18.88    3.29
  -3  -3  12  179.94   12.92
  -3  -3  12  181.55   12.96
   3   3 -12  166.04   12.28
  -3  -3  11  460.81   15.57
  -3  -3  11  448.29   15.39
   3   3 -11  451.37   15.60
  -3  -3  10   28.30    3.34
  -3  -3  10   40.37    3.68
   3   3 -10   30.38    3.70
  -3  -3   9  735.65   19.06
  -3  -3   9  817.89   20.64
   3   3  -9  773.09   20.08
  -3  -3   8 1994.93   42.05
  -3  -3   8 1995.24   41.42
   3   3  -8 1912.33   40.17
  -3  -3   7  544.44   14.73
  -3  -3   7  577.27   14.44
   3   3  -7  560.08   14.64
  -3  -3   6  517.82   14.46
  -3  -3   6  554.35   24.53
   3   3  -6  533.65   15.07
  -3  -3   5 1872.63   35.41
  -3  -3   5 1953.74   36.41
   3   3  -5 1839.18   36.31
  -3  -3   4  670.28   18.22
  -3  -3   4  661.17   16.33
   3   3  -4  649.60   15.95
   3   3  -4  677.41   17.99
  -3  -3   3  248.13    7.58
  -3  -3   3  236.81    6.02
   3   3  -3  231.55    5.19
   3   3  -3  237.84    6.94
  -3  -3   2 1259.87   20.40
   3   3  -2 1303.00   19.22
   3   3  -2 1288.03   19.41
   3   3  -2 1281.52   21.35
  -3  -3   1 2306.02   34.70
   3   3  -1 2350.03   33.58
   3   3  -1 2345.68   33.62
   3   3  -1 2382.49   36.12
  -3  -3   0  296.09    7.63
   3   3   0  308.00    6.83
   3   3   0  290.25    6.42
   3   3   0  284.29    7.41
  -3  -3  -1  559.18   12.70
   3   3   1  527.35   10.61
  -3  -3  -1  531.74   10.52
   3   3   1  529.01   11.78
  -3  -3  -2 1080.70   16.53
   3   3   2 1073.35   15.72
  -3  -3  -2 1067.01   15.41
   3   3   2 1084.82   17.32
  -3  -3  -3    4.04    2.72
   3   3   3    0.47    1.33
   3   3   3    1.56    2.38
  -3  -3  -4  704.82   16.80
   3   3   4  660.25   15.93
   3   3   4  653.24   18.31
  -3  -3  -5 1843.97   34.30
   3   3   5 1841.50   35.26
   3   3   5 1809.60   37.44
  -3  -3  -6  199.89   11.74
   3   3   6  196.16   12.89
   3   3   6  193.60   12.42
  -3  -3  -7    8.89    2.97
   3   3   7   24.22    3.78
   3   3   7   14.52    5.30
   3   3   8  355.77   14.70
   3   3   8  418.73   15.78
   3   3   9   93.39    6.26
   3   3   9  104.02   15.60
   3   3  10   35.87    3.63
   3   3  10   38.09    4.25
   3   3  11   73.88    5.47
   3   3  11   62.47    7.85
  -3  -4  14    0.28    2.02
  -3  -4  14    4.09    2.07
   3   4 -14    0.86    1.68
  -3  -4  13  219.33   13.59
  -3  -4  13  213.95   13.38
   3   4 -13  182.25    8.67
  -3  -4  12  108.67    6.87
  -3  -4  12  119.34    6.65
   3   4 -12  126.07    7.29
  -3  -4  11    9.97    3.67
  -3  -4  11   13.55    2.49
   3   4 -11   12.48    3.30
  -3  -4  10  387.07   18.25
  -3  -4  10  416.04   15.45
   3   4 -10  410.31   15.53
  -3  -4   9 1753.79   53.37
  -3  -4   9 1658.27   49.34
   3   4  -9 1702.52   50.42
  -3  -4   8    4.20    3.57
  -3  -4   8   11.16    2.41
   3   4  -8   11.29    2.80
  -3  -4   7  790.43   19.00
  -3  -4   7  794.80   17.66
   3   4  -7  793.17   18.94
  -3  -4   6 1139.83   23.65
  -3  -4   6 1169.09   22.59
   3   4  -6 1181.51   23.83
  -3  -4   5 1782.74   41.27
  -3  -4   5 1707.00   38.05
   3   4  -5 1662.06   37.32
  -3  -4   4  294.39    9.57
  -3  -4   4  257.39    7.85
   3   4  -4  269.64    7.23
   3   4  -4  275.98    8.54
  -3  -4   3 1380.82   27.25
  -3  -4   3 1381.97   25.17
   3   4  -3 1338.17   24.11
   3   4  -3 1340.07   26.13
  -3  -4   2  282.52    8.83
   3   4  -2  270.22    6.85
   3   4  -2  264.77    6.81
   3   4  -2  286.88    9.68
  -3  -4   1   10.57    2.25
   3   4  -1    8.50    1.89
   3   4  -1   13.10    1.10
   3   4  -1   16.73    5.19
  -3  -4   0  687.61   14.87
   3   4   0  692.96   13.39
   3   4   0  703.87   13.26
   3   4   0  677.30   14.56
  -3  -4  -1 1229.61   23.97
   3   4   1 1205.64   22.05
   3   4   1 1224.79   24.66
  -3  -4  -2   46.10    3.60
   3   4   2   39.15    4.59
  -3  -4  -2   38.93    2.21
   3   4   2   41.99    3.53
  -3  -4  -3  570.05   14.27
   3   4   3  600.13   12.55
   3   4   3  623.44   15.48
  -3  -4  -4  359.49   10.90
   3   4   4  332.88    9.92
   3   4   4  377.00   12.07
  -3  -4  -5  672.45   16.79
   3   4   5  628.93   16.35
   3   4   5  637.58   23.07
  -3  -4  -6  198.03    8.50
   3   4   6  180.10    8.47
   3   4   6  203.82   19.74
   3   4   7  189.83    8.42
   3   4   7  186.24   22.02
   3   4   8   92.78    6.39
   3   4   8   90.46    8.81
   3   4   9    5.70    2.29
   3   4   9    3.23    1.77
   3   4  10  262.40   15.93
   3   4  10  231.25   15.01
   3   4  11  112.76   11.26
   3   4  11  107.10    8.67
  -3  -5  13  201.24   10.48
  -3  -5  13  203.88   10.53
   3   5 -13  222.66   11.15
  -3  -5  12    1.41    2.55
  -3  -5  12    5.79    1.97
   3   5 -12    7.56    2.42
  -3  -5  11  302.54   19.21
  -3  -5  11  327.27   17.65
   3   5 -11  291.00   19.65
  -3  -5  10  370.27   16.75
  -3  -5  10  370.29   15.96
   3   5 -10  380.24   17.25
  -3  -5   9  134.41   10.26
  -3  -5   9  130.54    5.93
   3   5  -9  124.93    6.20
  -3  -5   8  370.53   17.68
  -3  -5   8  415.18   13.95
   3   5  -8  416.60   14.88
  -3  -5   7  705.96   24.96
  -3  -5   7  717.49   23.58
   3   5  -7  706.23   23.96
  -3  -5   6    7.30    3.68
  -3  -5   6   15.37    3.85
   3   5  -6   18.36    6.09
  -3  -5   5   23.15    3.89
  -3  -5   5   25.02    3.29
   3   5  -5   20.59    3.20
   3   5  -5   19.93    5.72
  -3  -5   4 1362.69   28.37
  -3  -5   4 1267.38   23.12
   3   5  -4 1361.88   27.18
  -3  -5   3  552.52   18.21
   3   5  -3  547.18   10.60
   3   5  -3  580.55   10.90
   3   5  -3  571.47   13.24
  -3  -5   2    1.66    1.95
   3   5  -2    0.99    1.98
  -3  -5   1  525.17   12.56
   3   5  -1  504.55    8.98
   3   5  -1  509.64   12.74
  -3  -5   0 1070.58   23.06
   3   5   0 1019.08   18.24
   3   5   0 1024.00   21.19
  -3  -5  -1  696.39   16.70
   3   5   1  654.69   12.77
   3   5   1  664.81   12.46
   3   5   1  685.12   15.52
  -3  -5  -2  513.51   15.35
   3   5   2  501.95   13.46
   3   5   2  477.59   16.41
  -3  -5  -3 1117.23   26.63
   3   5   3 1062.65   24.42
   3   5   3 1108.19   27.26
  -3  -5  -4   73.65    4.54
   3   5   4   60.04    4.22
   3   5   4   63.47    9.52
  -3  -5  -5    9.54    1.92
   3   5   5    5.78    1.89
   3   5   5    7.80    3.59
   3   5   6  157.36    7.13
   3   5   6  152.68    8.39
   3   5   7   86.52    6.10
   3   5   7   74.54   12.57
   3   5   8   92.24    5.61
   3   5   8  112.17    7.70
   3   5   9  322.52   19.26
   3   5   9  333.05   33.21
   3   5  10  131.46   12.77
   3   5  10  165.76    9.79
  -3  -6  12  256.44   21.44
  -3  -6  11  470.43   27.92
   3   6 -11  421.84   24.35
  -3  -6  10   34.48    4.12
   3   6 -10   22.67    2.88
  -3  -6   9   32.05    4.96
   3   6  -9   21.73    2.90
  -3  -6   8  337.99   16.14
   3   6  -8  305.13   20.63
  -3  -6   7  112.42    7.42
   3   6  -7   99.78    8.70
  -3  -6   6   49.97    4.34
   3   6  -6   63.37    3.93
  -3  -6   5  409.39   19.53
   3   6  -5  406.39   17.23
  -3  -6   4  957.28   32.25
   3   6  -4 1025.88   34.03
  -3  -6   3   59.53    8.82
   3   6  -3   48.75    4.01
  -3  -6   2 1030.26   26.18
   3   6  -2  995.09   24.62
  -3  -6   1  936.55   23.47
   3   6  -1  917.45   23.91
  -3  -6   0   19.08    2.98
   3   6   0   24.98    5.17
  -3  -6  -1  126.98    7.15
   3   6   1  119.18    6.99
  -3  -6  -2  889.95   29.53
   3   6   2  861.97   29.13
  -3  -6  -3  131.05    6.96
   3   6   3  112.66   10.13
  -3  -6  -4   18.50    2.51
   3   6   4   25.54    6.59
   3   6   5  309.13   15.51
   3   6   6  101.23   10.26
   3   6   7   17.56    4.45
   3   6   8  249.51   16.08
   3   6   9   96.04    9.35
  -3  -7  11   14.53    6.65
  -3  -7  10   21.22    6.29
   3   7 -10   17.41    7.74
  -3  -7   9  316.41   14.91
   3   7  -9  306.02   12.81
  -3  -7   8  214.17   16.19
   3   7  -8  245.48   14.01
  -3  -7   7    9.24    4.04
  -3  -7   6  754.05   31.60
   3   7  -6  827.64   34.05
  -3  -7   5  335.02   16.43
   3   7  -5  358.41   16.68
  -3  -7   4   18.78    3.21
   3   7  -4   18.37    2.94
  -3  -7   3  179.52   14.96
   3   7  -3  200.80    9.14
  -3  -7   2  350.40   20.78
   3   7  -2  393.08   16.61
  -3  -7   1  172.96    8.36
   3   7  -1  202.85   16.69
  -3  -7   0  290.95   12.26
   3   7   0  275.06   11.86
  -3  -7  -1  143.34   10.01
   3   7   1  160.07   10.03
  -3  -7  -2   63.41    3.82
   3   7   2   65.73    9.26
  -3  -7  -3  114.53    6.93
   3   7   3  114.77    7.17
   3   7   4  604.84   26.88
   3   7   5   95.48    9.11
   3   7   6    3.12    2.98
   3   7   7  175.32   17.19
  -3  -8   9  191.28   10.63
  -3  -8   8   11.82    2.83
   3   8  -8   22.34    2.87
  -3  -8   7  175.87    8.86
   3   8  -7  204.99   12.83
  -3  -8   6  301.68   13.36
   3   8  -6  313.95   13.21
  -3  -8   5    1.82    2.13
   3   8  -5    3.04    1.78
  -3  -8   4   72.95   15.41
   3   8  -4   84.17    6.78
  -3  -8   3  522.48   27.03
   3   8  -3  595.15   25.30
  -3  -8   2   15.24    2.87
   3   8  -2   14.95    2.55
  -3  -8   1  147.81   11.10
   3   8  -1  152.99   13.52
  -3  -8   0  269.08   12.75
   3   8   0  262.07   14.34
  -3  -8  -1   56.79    5.08
   3   8   1   57.16    4.48
  -3  -8  -2   36.74    3.50
   3   8   2   32.62    4.01
   3   8   3  252.73   16.28
   3   8   4  174.27   11.58
   3   8   5  103.84   10.17
  -3  -9   6   14.52    4.51
   3   9  -6    5.00    2.08
  -3  -9   5  140.64   19.91
   3   9  -5  160.78    5.99
  -3  -9   4  212.80   12.45
   3   9  -4  228.08   13.01
   3   9  -3    9.67    4.75
  -3  -9   2  107.68    9.45
   3   9  -2  139.00    8.86
  -3  -9   1  304.29   18.44
   3   9  -1  264.83   18.59
  -3  -9   0   62.73    4.70
   3   9   0   43.74    6.64
  -3  -9  -1   83.28    8.61
   3   9   1   72.01   11.42
   3   9   2  272.26   13.93
   3   9   3   52.46    7.72
   4 -10  -5   25.32    2.56
   4 -10  -2  140.42    7.16
   4 -10  -1   51.50    4.94
   4 -10   0  156.55    8.34
   4 -10   1  131.12    7.44
   4 -10   2   66.27    6.84
   4 -10   3  118.02   10.90
   4 -10   4  188.63   10.56
   4  -9  -8    8.41    2.93
   4  -9  -7  164.82    6.87
   4  -9  -6  167.66    8.15
   4  -9  -5    5.48    2.57
   4  -9  -4  191.66    9.16
   4  -9  -3  221.64   15.27
   4  -9  -3  256.63   11.61
   4  -9  -2   11.81    2.65
   4  -9  -1  230.57    9.04
   4  -9   0  196.72   14.33
   4  -9   1    2.62    3.48
   4  -9   2   18.62    8.41
   4  -9   3  416.29   23.32
   4  -9   4  152.21   10.74
   4  -9   5   65.16    7.31
   4  -9   6  152.22   16.26
   4  -9   7   77.53    6.86
  -4   8  10   27.51    9.35
   4  -8 -10   33.01    4.00
  -4   8   9    1.80    1.73
   4  -8  -9    0.49    2.14
  -4   8   8  215.57   12.67
   4  -8  -8  224.35   10.60
  -4   8   7  137.39   14.42
   4  -8  -7  159.81    8.46
  -4   8   6    5.67    2.55
   4  -8  -6   14.28    3.36
   4  -8  -5  188.99   10.35
   4  -8  -4  138.02    9.17
   4  -8  -4  144.02    6.14
   4  -8  -4  158.04    8.16
   4  -8  -3    1.54    1.94
   4  -8  -3    3.66    1.82
   4  -8  -3    6.51    2.10
   4  -8  -2   82.81    4.79
   4  -8  -2   77.92    4.42
   4  -8  -2   77.32    3.97
   4  -8  -1  445.38   16.67
   4  -8  -1  431.71   15.26
   4  -8  -1  428.85   14.89
   4  -8   0   40.75    7.91
   4  -8   0   40.19    3.18
   4  -8   1  138.20    9.50
   4  -8   1  131.48    6.47
   4  -8   2  509.91   22.60
   4  -8   2  507.88   16.13
   4  -8   3  250.77   12.89
   4  -8   3  250.68   11.70
   4  -8   4   31.59    4.66
   4  -8   4   18.49    7.58
   4  -8   5  318.79   16.50
   4  -8   5  348.63   15.46
   4  -8   6   82.49    6.95
   4  -8   6   93.59    7.02
   4  -8   7    6.41    3.82
   4  -8   7    7.50    2.28
   4  -8   8  295.87   17.05
   4  -8   8  219.24   14.50
  -4   7  11  105.74   10.38
   4  -7 -11  114.78   10.77
  -4   7  10   12.30    2.58
   4  -7 -10   15.39    3.04
  -4   7   9  146.12   14.13
   4  -7  -9  182.26    9.47
  -4   7   8   96.08    9.97
   4  -7  -8   84.87    7.06
  -4   7   7   23.26    7.07
   4  -7  -7   22.04    3.24
  -4   7   6  201.70    9.42
   4  -7  -6  220.71    9.99
   4  -7  -5  463.92   15.10
  -4   7   5  496.76   17.05
   4  -7  -5  493.83   16.52
   4  -7  -4   62.46    6.26
   4  -7  -4   58.14    4.19
   4  -7  -3  213.11    9.86
   4  -7  -3  231.12   10.50
   4  -7  -3  225.46    9.97
   4  -7  -2  518.56   17.98
   4  -7  -2  532.03   18.64
   4  -7  -2  527.89   17.88
   4  -7  -1  176.71   13.40
   4  -7  -1  179.56    9.12
   4  -7  -1  202.28    8.87
   4  -7   0  178.05   15.97
   4  -7   0  168.16   13.04
   4  -7   0  185.57    8.36
   4  -7   1 1294.24   43.87
   4  -7   1 1300.32   42.48
   4  -7   2   66.01    8.98
   4  -7   2   65.09    4.34
   4  -7   3  187.09   10.41
   4  -7   3  198.23   10.55
   4  -7   4  115.22    6.60
   4  -7   4  131.19   12.96
   4  -7   5  226.18   11.58
   4  -7   5  253.59   12.46
   4  -7   6    9.32    3.35
   4  -7   6   12.55    2.64
   4  -7   7  484.95   26.43
   4  -7   7  467.51   25.28
   4  -7   8  260.07   12.47
   4  -7   8  260.28   11.87
   4  -7   9    9.88    4.83
   4  -7   9    6.03    2.86
  -4   6  12  179.01   12.17
   4  -6 -12  168.00    7.62
  -4   6  11   15.74    6.55
   4  -6 -11   14.04    3.84
  -4   6  10  141.57   13.98
   4  -6 -10  141.03   10.70
  -4   6   9   17.89    4.76
   4  -6  -9   30.94    4.18
  -4   6   8   14.05    4.07
   4  -6  -8    4.44    3.08
  -4   6   7  313.44   17.88
   4  -6  -7  297.88   14.35
   4  -6  -6  928.21   30.07
  -4   6   6  915.76   33.27
   4  -6  -6  987.79   32.89
  -4   6   5   24.37    7.37
   4  -6  -5   24.14    3.23
  -4   6   4  972.21   21.35
  -4   6   4 1016.92   23.11
   4  -6  -4 1016.45   22.47
  -4   6   3  720.10   18.32
   4  -6  -3  727.62   17.27
   4  -6  -3  761.29   17.14
  -4   6   2   93.04    7.96
   4  -6  -2   97.26    4.80
   4  -6  -2   95.84    3.95
  -4   6   1  232.05    8.50
   4  -6  -1  244.16    8.19
   4  -6  -1  245.45    6.98
  -4   6   0  651.96   16.82
   4  -6   0  639.12   14.15
   4  -6   0  627.02   12.11
   4  -6   0  642.81   12.59
  -4   6  -1   47.59    8.80
   4  -6   1   54.18    4.68
   4  -6   1   39.65    3.01
   4  -6   1   45.14    2.92
  -4   6  -2   26.85    8.79
   4  -6   2   27.38    3.23
  -4   6  -3  438.63   18.99
   4  -6   3  467.05   20.70
   4  -6   4  479.46   13.21
   4  -6   5   67.30    5.04
   4  -6   5   82.24   11.95
   4  -6   6  273.24   13.74
   4  -6   6  258.13   11.53
   4  -6   7  437.70   20.20
   4  -6   7  465.88   20.27
   4  -6   8   28.13    4.89
   4  -6   8   15.68    2.72
   4  -6   9   72.71    6.48
   4  -6   9   82.32    9.00
   4  -6  10  240.42   13.96
   4  -6  10  275.84   23.55
  -4   5  13   27.20    7.73
   4  -5 -13   33.05    3.87
  -4   5  12    1.98    2.21
   4  -5 -12    6.16    3.33
  -4   5  11  162.09   18.14
   4  -5 -11  202.62   14.77
  -4   5  10  193.03   13.63
   4  -5 -10  198.88   11.11
  -4   5   9   56.49   13.94
   4  -5  -9   76.59    5.84
  -4   5   8  366.91   18.76
   4  -5  -8  406.55   17.29
  -4   5   7  641.12   14.89
  -4   5   7  655.19   18.24
   4  -5  -7  656.80   17.65
  -4   5   6    1.74    1.48
  -4   5   6    8.47    4.79
   4  -5  -6    1.69    2.23
  -4   5   5  437.34   25.45
  -4   5   5  407.02   15.10
   4  -5  -5  450.55   11.09
  -4   5   4  378.03   13.48
  -4   5   4  355.24   16.93
   4  -5  -4  377.08   13.92
  -4   5   3  164.37    8.75
  -4   5   3  170.61    8.74
   4  -5  -3  178.84    7.26
  -4   5   2  240.94    7.63
   4  -5  -2  234.87    7.74
   4  -5  -2  243.13    7.24
  -4   5   1 1201.64   23.49
   4  -5  -1 1188.00   23.58
   4  -5  -1 1135.70   21.25
   4  -5  -1 1165.25   21.75
  -4   5   0  233.22    9.26
   4  -5   0  243.46    9.80
   4  -5   0  229.97    8.23
   4  -5   0  234.24    8.36
  -4   5  -1  333.47   16.09
   4  -5   1  349.85   13.25
   4  -5   1  330.61   11.19
   4  -5   1  350.03   11.79
  -4   5  -2  918.16   27.81
   4  -5   2  960.62   23.25
  -4   5  -3  746.14   21.02
   4  -5   3  716.93   16.13
  -4   5  -4   95.94    7.74
   4  -5   4  102.44    7.72
  -4   5  -5  871.28   22.65
   4  -5   5  887.25   26.74
  -4   5  -6  518.40   22.77
   4  -5   6  535.46   22.09
   4  -5   7  188.58    9.43
   4  -5   7  203.37    9.83
   4  -5   8  357.14   16.41
   4  -5   8  356.14   16.45
   4  -5   9  243.96   14.25
   4  -5   9  235.15   16.55
   4  -5  10   23.15    9.21
   4  -5  10   14.10    6.36
   4  -5  11   92.56    6.81
   4  -5  11   71.95    8.67
  -4   4  14  127.88   19.38
   4  -4 -14  116.25    8.74
  -4   4  13   79.80   16.92
   4  -4 -13   92.66    6.70
  -4   4  12  143.38    9.27
   4  -4 -12  136.89    8.25
  -4   4  11   76.50    8.07
   4  -4 -11   81.35    6.28
  -4   4  10   28.09    6.30
   4  -4 -10   27.70    3.65
  -4   4   9  863.98   31.78
   4  -4  -9  852.82   29.19
  -4   4   8  653.98   15.06
  -4   4   8  676.45   18.94
   4  -4  -8  651.86   17.65
  -4   4   7   36.56    3.40
   4  -4  -7   27.15    4.60
  -4   4   7   41.27    6.80
   4  -4  -7   41.90    4.01
  -4   4   6  109.99    5.96
   4  -4  -6  103.44    4.31
  -4   4   6   91.48    6.81
   4  -4  -6  110.02    5.91
  -4   4   5  657.59   13.21
  -4   4   5  664.48   15.91
   4  -4  -5  676.38   14.89
  -4   4   4  269.61    7.92
  -4   4   4  265.85   10.55
   4  -4  -4  270.79    8.31
  -4   4   3 2420.13   33.99
  -4   4   3 2331.51   36.17
   4  -4  -3 2340.70   31.75
  -4   4   2  247.84    9.08
   4  -4  -2  258.63    7.24
   4  -4  -2  258.67    6.31
  -4   4   1  187.94    6.51
   4  -4  -1  184.93    6.15
   4  -4  -1  186.91    4.39
   4  -4  -1  186.64    4.75
  -4   4   0   24.01    6.99
   4  -4   0   23.47    4.06
   4  -4   0   18.67    1.21
   4  -4   0   19.16    1.43
  -4   4  -1 2433.11   47.85
   4  -4   1 2518.21   46.72
   4  -4   1 2476.83   43.46
   4  -4   1 2550.82   44.85
  -4   4  -2 2105.50   39.55
   4  -4   2 2041.03   38.27
  -4   4  -3   88.71    5.22
   4  -4   3  109.62    5.79
  -4   4  -4  844.64   19.73
   4  -4   4  859.58   18.82
  -4   4  -5 1176.80   34.05
   4  -4   5 1214.38   27.67
  -4   4  -6  141.45    7.98
   4  -4   6  143.64   13.50
  -4   4  -7  178.49   13.52
   4  -4   7  216.88   11.55
  -4   4  -8  237.04   13.73
   4  -4   8  262.03   12.64
   4  -4   9  147.41   17.30
   4  -4   9  147.71    9.00
   4  -4  10    5.09    2.35
   4  -4  11  339.70   25.33
   4  -4  11  401.39   23.17
  -4   3  14    3.82    1.85
   4  -3 -14    4.95    2.37
  -4   3  13  341.88   20.19
   4  -3 -13  402.35   17.43
  -4   3  12  121.32   11.34
   4  -3 -12  129.33   10.35
  -4   3  11    1.92    3.44
   4  -3 -11   -1.21    2.83
  -4   3  10  416.67   25.06
   4  -3 -10  454.45   15.73
  -4   3   9  917.25   20.97
  -4   3   9  918.87   24.16
   4  -3  -9  987.44   25.14
  -4   3   8    5.62    1.42
   4  -3  -8    2.59    0.94
  -4   3   8    3.76    2.94
   4  -3  -8    4.68    3.08
  -4   3   7  396.48   13.85
   4  -3  -7  369.16   12.82
  -4   3   7  402.70   19.81
   4  -3  -7  393.05   14.88
  -4   3   6  483.09   12.38
   4  -3  -6  461.08   12.31
  -4   3   6  468.92   15.27
   4  -3  -6  457.19   12.76
  -4   3   5   31.82    2.18
   4  -3  -5   29.49    1.98
  -4   3   5   40.99    7.35
   4  -3  -5   34.65    3.03
  -4   3   4    8.55    1.48
  -4   3   4   14.03    1.94
   4  -3  -4   11.65    2.45
  -4   3   3 5079.53   91.45
  -4   3   3 5060.56   73.67
   4  -3  -3 4742.98   67.60
  -4   3   2   42.72    6.35
   4  -3  -2   38.24    2.29
  -4   3   2   40.42    2.19
  -4   3   1   32.52    3.41
   4  -3  -1   46.31    3.29
   4  -3  -1   35.76    1.99
  -4   3   1   35.60    1.79
  -4   3   0 2592.22   39.79
   4  -3   0 2554.00   38.22
   4  -3   0 2556.24   36.61
  -4   3   0 2572.30   36.69
  -4   3  -1 2319.23   33.28
   4  -3   1 2217.17   30.88
   4  -3   1 2237.20   28.83
  -4   3  -1 2294.40   29.52
  -4   3  -2  124.45    4.79
   4  -3   2  149.09    6.04
   4  -3   2  136.20    3.35
  -4   3  -2  140.68    3.20
  -4   3  -3  814.99   18.65
   4  -3   3  789.89   16.71
   4  -3   3  801.23   14.53
  -4   3  -3  783.03   14.17
  -4   3  -4  529.08   14.49
   4  -3   4  541.36   14.04
   4  -3   4  524.20   11.56
  -4   3  -4  545.58   11.99
  -4   3  -5   19.49    4.46
   4  -3   5   20.68    4.78
   4  -3   5   17.40    2.29
  -4   3  -5   19.74    2.40
  -4   3  -6  206.73    8.05
   4  -3   6  215.23    8.64
  -4   3  -6  222.77    6.32
  -4   3  -7 2038.84   65.74
   4  -3   7 2004.08   64.63
  -4   3  -7 1843.69   57.65
  -4   3  -8  221.56   12.18
   4  -3   8  205.11   14.28
  -4   3  -9   58.09   10.67
   4  -3   9   71.29    5.97
   4  -3  10  283.27   16.32
   4  -3  10  298.07   17.33
   4  -3  11  196.20   12.69
   4  -3  12    0.46    2.71
   4  -3  12    6.89    3.04
   4  -2 -14   96.24    6.47
  -4   2  13  268.11   15.78
   4  -2 -13  275.48   16.10
  -4   2  12   26.13    3.76
   4  -2 -12   18.59    3.60
  -4   2  11  488.20   18.82
   4  -2 -11  461.91   17.68
  -4   2  10   98.09    6.71
  -4   2  10  100.73   12.40
   4  -2 -10  110.05    7.11
  -4   2   9    0.62    0.92
  -4   2   9    2.50    2.89
   4  -2  -9    3.02    2.54
  -4   2   8  294.79    8.35
  -4   2   8  282.38   16.22
   4  -2  -8  298.56   11.47
  -4   2   7 1083.05   24.75
  -4   2   7 1109.41   27.46
   4  -2  -7 1076.84   25.36
  -4   2   6  314.43    8.90
  -4   2   6  311.36   12.95
   4  -2  -6  308.58   10.12
  -4   2   5  776.86   12.81
  -4   2   5  791.64   16.00
   4  -2  -5  784.26   13.35
  -4   2   4  819.08   16.16
  -4   2   4  812.35   17.70
   4  -2  -4  818.91   16.59
  -4   2   3 4314.64   61.79
  -4   2   3 4113.48   59.47
   4  -2  -3 4469.77   64.78
  -4   2   2  679.80   14.19
  -4   2   2  696.84   15.22
   4  -2  -2  686.94   13.79
  -4   2   1 4312.58   62.07
   4  -2  -1 4514.86   64.85
   4  -2  -1 4339.54   61.49
  -4   2   1 4208.95   59.59
  -4   2   0 2954.41   43.50
   4  -2   0 2998.21   44.15
   4  -2   0 2935.32   42.30
  -4   2   0 2869.82   41.06
  -4   2  -1  199.08    7.95
   4  -2   1  226.33    6.69
   4  -2   1  211.47    5.03
  -4   2  -1  221.69    5.74
  -4   2  -2  335.62   10.08
   4  -2   2  333.03    8.64
   4  -2   2  325.82    7.19
  -4   2  -2  334.31    7.06
  -4   2  -3 2155.27   30.89
   4  -2   3 2178.47   30.88
   4  -2   3 2138.26   28.36
  -4   2  -3 2144.68   28.06
  -4   2  -4    1.80    1.77
   4  -2   4    5.03    2.56
   4  -2   4    1.43    0.95
  -4   2  -4    7.05    1.45
  -4   2  -5  744.63   19.78
   4  -2   5  759.41   19.20
   4  -2   5  748.20   17.42
  -4   2  -5  711.24   16.02
  -4   2  -6  840.57   20.57
   4  -2   6  892.35   21.53
   4  -2   6  862.15   18.60
  -4   2  -7  336.59   17.01
   4  -2   7  354.62   16.28
   4  -2   7  325.06   14.18
  -4   2  -8  263.40   20.52
   4  -2   8  244.25   12.76
   4  -2   8  214.22   11.32
  -4   2  -9  510.98   20.86
   4  -2   9  527.48   20.56
  -4   2 -10  146.57   15.68
   4  -2  10  149.28   13.22
   4  -2  11   10.43    6.04
   4  -2  11   15.33    3.50
   4  -2  12   58.47    5.35
   4  -2  12   88.62    7.04
  -4   1  15  125.29   13.05
   4  -1 -15  139.53    8.83
  -4   1  14  141.87   17.67
   4  -1 -14  140.95    8.14
  -4   1  13    7.30    5.77
   4  -1 -13   13.03    4.05
  -4   1  12   62.76    6.88
   4  -1 -12   61.93    5.73
  -4   1  11  285.49   11.65
  -4   1  11  276.60   15.16
   4  -1 -11  264.50   11.73
  -4   1  10    0.81    1.64
  -4   1  10    0.90    2.17
   4  -1 -10    2.84    3.26
  -4   1   9  333.76   10.08
  -4   1   9  353.32   13.48
   4  -1  -9  321.83   10.82
  -4   1   8 1099.99   25.46
  -4   1   8 1107.53   30.98
   4  -1  -8 1059.81   25.22
  -4   1   7  678.10   14.25
  -4   1   7  725.64   16.79
   4  -1  -7  680.83   15.26
  -4   1   6 1395.18   20.23
  -4   1   6 1391.65   24.52
   4  -1  -6 1388.77   21.51
  -4   1   5 5047.10   65.11
   4  -1  -5 5053.98  118.00
  -4   1   4 1212.30   19.38
  -4   1   4 1227.35   21.15
   4  -1  -4 1208.39   21.30
  -4   1   3   30.76    2.62
  -4   1   3   32.19    3.46
   4  -1  -3   32.21    2.33
  -4   1   2 1470.91   22.96
  -4   1   2 1481.87   25.70
   4  -1  -2 1434.03   22.05
  -4   1   1 2861.18   32.98
   4  -1  -1 2769.64   32.15
   4  -1  -1 2798.72   31.87
  -4   1   1 2810.12   31.71
  -4   1   0   26.42    2.79
   4  -1   0   27.87    2.57
   4  -1   0   27.96    1.97
  -4   1   0   34.31    2.15
  -4   1  -1 2019.29   30.64
   4  -1   1 1975.59   30.41
   4  -1   1 1936.87   28.48
  -4   1  -1 1952.75   28.78
  -4   1  -2  846.74   17.17
   4  -1   2  804.56   16.56
   4  -1   2  778.27   15.31
  -4   1  -2  818.68   15.63
  -4   1  -3  470.61   11.27
   4  -1   3  467.45   11.02
   4  -1   3  504.37   11.35
  -4   1  -3  485.36   10.05
  -4   1  -4 1000.01   22.07
   4  -1   4 1013.68   21.37
   4  -1   4 1014.71   19.32
  -4   1  -5 1884.92   46.05
   4  -1   5 1877.78   43.55
   4  -1   5 1788.91   39.15
  -4   1  -6  115.36   12.64
   4  -1   6  136.32    9.58
   4  -1   6  123.25    8.41
  -4   1  -7    0.96    1.68
   4  -1   7    2.45    2.47
   4  -1   7    2.42    1.52
  -4   1  -8  393.58   21.08
   4  -1   8  397.06   18.75
   4  -1   8  398.88   17.91
  -4   1  -9  186.23   14.20
   4  -1   9  166.76   14.76
   4  -1   9  151.94   11.08
  -4   1 -10   16.11    7.39
   4  -1  10   19.38    7.42
   4  -1  11  243.47   14.52
   4  -1  11  302.18   19.99
   4  -1  12   47.06    5.75
  -4   0  15   91.74   13.28
   4   0 -15   93.72    7.34
  -4   0  14   18.69    3.40
   4   0 -14   14.11    3.23
  -4   0  13  323.12   18.84
   4   0 -13  308.08   17.51
  -4   0  12  371.34   15.79
  -4   0  12  350.13   19.82
   4   0 -12  333.41   15.42
  -4   0  11   60.11    3.42
  -4   0  11   69.18   11.44
   4   0 -11   67.45    4.94
  -4   0  10  487.78   17.15
  -4   0  10  467.54   13.39
   4   0 -10  492.90   17.96
  -4   0   9 1115.73   24.30
  -4   0   9 1132.99   26.36
   4   0  -9 1111.86   25.11
  -4   0   8   87.65    6.18
  -4   0   8   88.02    6.56
   4   0  -8   95.10    5.53
  -4   0   7  409.93   12.00
  -4   0   7  427.98   13.82
   4   0  -7  435.90   12.61
  -4   0   6 2341.78   32.24
  -4   0   6 2303.73   32.45
   4   0  -6 2382.63   33.43
  -4   0   5  693.28   12.05
  -4   0   5  708.10   12.55
   4   0  -5  667.19   17.43
  -4   0   4  128.07    4.76
  -4   0   4  126.12    7.33
   4   0  -4  117.29    5.52
  -4   0   3 2686.14   39.73
  -4   0   3 2742.43   42.18
   4   0  -3 2684.73   39.69
  -4   0   2 3273.20   47.89
   4   0  -2 3045.45   44.62
  -4   0   1    9.01    3.24
   4   0  -1    9.59    2.12
   4   0  -1   10.51    2.12
  -4   0   0 1306.49   20.92
   4   0   0 1294.00   20.59
   4   0   0 1258.64   19.66
  -4   0  -1  905.15   18.13
   4   0   1  890.45   18.30
   4   0   1  962.60   19.33
  -4   0  -2  201.05    6.25
   4   0   2  188.34    7.48
   4   0   2  193.84    5.38
  -4   0  -3  918.78   14.76
   4   0   3  907.92   14.97
   4   0   3  871.51   13.66
  -4   0  -4 3169.43   59.16
   4   0   4 3044.92   56.88
   4   0   4 3066.08   56.88
  -4   0  -5  975.11   23.54
   4   0   5  980.41   23.71
   4   0   5  973.00   24.59
  -4   0  -6  170.20    8.54
   4   0   6  150.26   10.23
   4   0   6  158.79   11.96
  -4   0  -7  118.11    7.28
   4   0   7  114.36    9.62
   4   0   7  124.83    8.05
  -4   0  -8  129.06    9.15
   4   0   8  139.33    8.41
   4   0   8  115.63    7.73
  -4   0  -9   69.89    5.02
   4   0   9   61.68    6.86
   4   0   9   69.09    5.04
  -4   0 -10  166.27   11.99
   4   0  10  182.22   10.72
   4   0  10  184.55    9.64
   4   0  11  126.95    6.89
   4   0  12    8.27    3.42
  -4  -1  14  187.31    7.09
   4   1 -14  186.90    7.66
  -4  -1  13  304.34   16.58
  -4  -1  13  294.22   16.61
   4   1 -13  298.87   17.48
  -4  -1  12    5.32    3.02
  -4  -1  12   -0.07    2.26
   4   1 -12    4.35    2.79
  -4  -1  11  505.99   18.00
  -4  -1  11  462.32   17.54
   4   1 -11  482.05   18.65
  -4  -1  10  958.89   31.73
  -4  -1  10  934.61   32.14
   4   1 -10  900.03   30.51
  -4  -1   9  976.80   21.94
  -4  -1   9  986.98   27.02
   4   1  -9  922.29   21.81
  -4  -1   8  108.09    5.07
  -4  -1   8  117.68    8.24
   4   1  -8  118.56    6.10
  -4  -1   7 1469.90   34.94
  -4  -1   7 1433.56   34.33
   4   1  -7 1478.27   33.94
  -4  -1   6  187.79    8.32
  -4  -1   6  192.55    7.26
   4   1  -6  212.78    7.89
  -4  -1   5  253.42    7.30
  -4  -1   5  265.55    8.58
   4   1  -5  248.69    7.22
  -4  -1   4 1841.34   26.44
  -4  -1   4 1811.40   26.53
   4   1  -4 1822.72   26.33
  -4  -1   3 1277.93   20.82
  -4  -1   3 1259.72   21.41
   4   1  -3 1222.90   20.34
  -4  -1   2   26.10    6.36
   4   1  -2   19.59    5.12
   4   1  -2   14.11    2.56
  -4  -1   1 1801.55   28.53
   4   1  -1 1837.12   28.48
   4   1  -1 1779.26   30.46
  -4  -1   0 3249.14   48.13
   4   1   0 3129.44   45.50
   4   1   0 3213.93   46.93
   4   1   1  183.40    5.96
   4   1   1  173.97    5.61
  -4  -1  -2 2096.36   29.61
   4   1   2 2093.28   29.09
   4   1   2 2120.15   29.74
  -4  -1  -3 1170.65   24.56
   4   1   3 1138.38   22.63
   4   1   3 1157.80   22.53
   4   1   4  158.05    7.42
   4   1   4  158.36   10.23
  -4  -1  -5    9.54    2.71
   4   1   5    6.84    3.30
   4   1   5    7.19    3.11
  -4  -1  -6  239.34   11.30
   4   1   6  239.12    8.94
   4   1   6  248.75    8.56
  -4  -1  -7  108.54    8.80
   4   1   7  124.58    7.58
   4   1   7  120.68    6.89
  -4  -1  -8    5.95    2.08
   4   1   8    8.94    3.35
   4   1   8    7.67    2.28
  -4  -1  -9  258.82   14.61
   4   1   9  280.30   13.93
   4   1   9  276.46   13.27
   4   1  10  312.97   18.03
   4   1  10  284.38   19.82
   4   1  11    3.89    2.52
   4   1  11    1.81    2.53
  -4  -2  14  216.86   13.58
   4   2 -14  199.24   11.81
  -4  -2  13    1.87    1.97
  -4  -2  13   12.35    3.96
   4   2 -13   11.74    3.65
  -4  -2  12  197.62   14.39
  -4  -2  12  239.28   11.83
   4   2 -12  223.57   15.94
  -4  -2  11 1196.20   38.28
  -4  -2  11 1288.81   16.06
   4   2 -11 1271.80   16.02
  -4  -2  10   69.96    7.78
  -4  -2  10   79.77    4.89
   4   2 -10   63.98    4.72
  -4  -2   9  723.37   20.61
  -4  -2   9  753.92   19.49
   4   2  -9  766.22   20.27
  -4  -2   8 1009.42   23.15
  -4  -2   8  992.17   22.12
   4   2  -8  968.27   22.57
  -4  -2   7  629.26   15.13
  -4  -2   7  630.32   14.44
   4   2  -7  630.29   14.87
  -4  -2   6   26.88    3.83
  -4  -2   6   27.79    2.44
   4   2  -6   24.31    3.77
  -4  -2   5 2543.14   47.12
  -4  -2   5 2507.35   46.27
   4   2  -5 2510.66   49.85
  -4  -2   4 1215.75   19.26
  -4  -2   4 1197.51   19.46
   4   2  -4 1182.24   18.51
  -4  -2   3   57.05    3.86
  -4  -2   3   62.35    3.47
   4   2  -3   55.07    3.55
  -4  -2   2  913.03   15.53
   4   2  -2  903.71   13.57
   4   2  -2  887.26   14.76
  -4  -2   1 1510.03   22.41
   4   2  -1 1469.02   21.02
   4   2  -1 1499.16   22.33
  -4  -2   0  121.22    4.77
   4   2   0  125.21    3.99
   4   2   0  128.61    4.88
  -4  -2  -1  209.83    6.42
   4   2   1  200.91    5.69
   4   2   1  194.30    6.08
  -4  -2  -2  517.99   14.21
   4   2   2  537.18   14.21
   4   2   2  543.91   14.69
  -4  -2  -3   15.02    2.09
   4   2   3   16.55    5.92
   4   2   3   13.69    4.38
  -4  -2  -4   86.40    8.53
   4   2   4   85.48    4.46
   4   2   4   81.61    4.34
  -4  -2  -5 1444.39   31.52
   4   2   5 1436.03   31.24
   4   2   5 1414.61   32.11
  -4  -2  -6  171.32   10.78
   4   2   6  182.50    8.93
   4   2   6  170.95   15.50
  -4  -2  -7   37.76    3.30
   4   2   7   34.70    3.54
   4   2   7   44.39    4.67
  -4  -2  -8  385.32   16.18
   4   2   8  408.08   15.03
   4   2   8  433.95   27.85
   4   2   9  210.50   19.08
   4   2   9  242.71   18.62
   4   2  10   47.32    5.11
   4   2  10   32.55    4.34
   4   2  11  131.33   11.85
   4   2  11  120.30   15.19
  -4  -3  14    3.14    3.14
  -4  -3  14    1.24    1.34
   4   3 -14    7.14    3.01
  -4  -3  13  132.83   12.07
  -4  -3  13  145.95   13.56
   4   3 -13  146.61    7.86
  -4  -3  12  339.43   20.92
  -4  -3  12  372.84   20.98
   4   3 -12  335.49   18.72
  -4  -3  11   26.51    9.84
  -4  -3  11   32.89    6.96
   4   3 -11   27.81    3.29
  -4  -3  10  286.33   12.29
  -4  -3  10  300.59   18.15
   4   3 -10  272.05   12.11
  -4  -3   9  668.32   23.63
  -4  -3   9  639.90   22.42
   4   3  -9  637.55   22.55
  -4  -3   8  254.80   14.37
  -4  -3   8  265.08   13.68
   4   3  -8  263.80   12.57
  -4  -3   7  103.91    7.84
  -4  -3   7  101.78    8.40
   4   3  -7   91.17    7.15
  -4  -3   6 1566.82   31.93
  -4  -3   6 1604.08   33.32
   4   3  -6 1581.81   31.33
  -4  -3   5 1441.35   34.64
  -4  -3   5 1422.21   31.72
   4   3  -5 1438.65   33.19
  -4  -3   4    4.49    2.38
  -4  -3   4    0.61    1.45
   4   3  -4    1.47    2.44
  -4  -3   3  367.99   11.09
   4   3  -3  347.88    9.14
   4   3  -3  361.94    9.79
   4   3  -3  358.90   11.29
  -4  -3   2 1237.92   24.56
   4   3  -2 1208.36   22.44
   4   3  -2 1252.33   23.78
   4   3  -2 1237.27   24.59
  -4  -3   1  443.59   12.66
   4   3  -1  441.87   12.24
   4   3  -1  451.43   11.73
   4   3  -1  441.64   13.94
  -4  -3   0  238.18    8.59
   4   3   0  214.42    6.42
   4   3   0  204.51    7.19
  -4  -3  -1  612.83   15.57
   4   3   1  620.69   15.56
   4   3   1  646.85   16.25
  -4  -3  -2  563.55   14.41
   4   3   2  533.30   13.16
   4   3   2  556.06   14.66
  -4  -3  -3  252.70    8.43
   4   3   3  260.78    7.95
   4   3   3  280.99    9.22
  -4  -3  -4  177.17    8.57
   4   3   4  175.29    7.47
   4   3   4  203.85    7.83
  -4  -3  -5  408.48   17.44
   4   3   5  405.90   17.33
   4   3   5  353.64   18.94
  -4  -3  -6  152.77    8.76
   4   3   6  149.47    8.31
   4   3   6  146.37   11.70
  -4  -3  -7  674.18   20.79
   4   3   7  657.67   22.46
   4   3   7  673.09   21.43
   4   3   8  570.34   24.12
   4   3   8  612.97   31.50
   4   3   9    4.97    2.69
   4   3   9    3.28    3.15
   4   3  10  105.61    9.97
   4   3  10   80.95    9.80
  -4  -4  13  371.47   20.11
  -4  -4  13  404.39   21.62
   4   4 -13  370.22   20.33
  -4  -4  12   70.65    6.10
  -4  -4  12   97.61   10.07
   4   4 -12   58.81    6.72
  -4  -4  11   42.08   11.54
  -4  -4  11   66.15   11.15
   4   4 -11   61.50   10.55
  -4  -4  10  262.58   15.79
  -4  -4  10  277.56   17.51
   4   4 -10  270.45   13.86
  -4  -4   9  558.13   20.57
  -4  -4   9  553.39   19.31
   4   4  -9  542.02   21.97
  -4  -4   8   93.87    6.51
  -4  -4   8   91.80    7.72
   4   4  -8   93.11    6.09
  -4  -4   7  679.20   19.06
  -4  -4   7  700.66   17.45
   4   4  -7  639.96   17.45
  -4  -4   6  769.51   19.13
  -4  -4   6  730.74   16.58
   4   4  -6  745.48   18.06
  -4  -4   5    3.57    3.38
  -4  -4   5    6.71    2.14
   4   4  -5    8.62    3.68
  -4  -4   4  212.69    8.21
  -4  -4   4  201.84    9.50
   4   4  -4  215.57    6.41
   4   4  -4  211.22    7.90
  -4  -4   3 1328.81   26.85
   4   4  -3 1294.36   23.94
   4   4  -3 1330.53   24.98
   4   4  -3 1329.15   26.78
  -4  -4   2    1.06    1.75
   4   4  -2    0.61    0.52
   4   4  -2    4.24    1.81
   4   4  -2    1.96    1.96
  -4  -4   1  265.45    9.15
   4   4  -1  253.38    7.80
   4   4  -1  248.96    6.88
   4   4  -1  254.72    9.06
  -4  -4   0 1074.75   22.48
   4   4   0 1019.25   19.98
   4   4   0 1047.04   20.45
   4   4   0 1092.09   22.77
  -4  -4  -1  504.73   21.51
   4   4   1  464.68   10.26
   4   4   1  488.86   12.17
  -4  -4  -2  143.83   15.65
   4   4   2  115.70    7.39
   4   4   2  134.16    9.17
  -4  -4  -3  838.65   21.03
   4   4   3  805.68   21.17
   4   4   3  863.58   22.15
  -4  -4  -4  357.36   14.80
   4   4   4  353.95   14.68
   4   4   4  343.61   15.19
  -4  -4  -5   12.06    2.16
   4   4   5   13.18    4.43
   4   4   5   13.91    4.21
  -4  -4  -6  286.35   13.06
   4   4   6  289.11   13.49
   4   4   6  277.44   13.95
   4   4   7  213.06   14.14
   4   4   7  193.28   12.93
   4   4   8    1.81    1.60
   4   4   8    3.84    3.29
   4   4   9  219.60   13.70
   4   4   9  194.72   14.57
   4   4  10  117.48    8.47
   4   4  10   92.04   14.36
  -4  -5  12   65.38    5.61
  -4  -5  12   62.74    5.89
   4   5 -12   81.45    7.60
  -4  -5  11  406.16   20.93
  -4  -5  11  406.07   29.82
   4   5 -11  364.27   18.75
  -4  -5  10  243.02   13.12
  -4  -5  10  207.82   18.47
   4   5 -10  256.03   12.83
  -4  -5   9    0.87    1.76
  -4  -5   9   -0.12    1.12
   4   5  -9    1.01    2.59
  -4  -5   8  549.48   20.07
  -4  -5   8  556.74   19.15
   4   5  -8  543.94   19.73
  -4  -5   7  102.24    5.89
  -4  -5   7  114.02    7.07
   4   5  -7  105.43    5.18
  -4  -5   6   74.16   15.56
  -4  -5   6   81.75    5.81
   4   5  -6   84.87    8.02
  -4  -5   5  850.87   29.05
  -4  -5   5  782.65   25.34
   4   5  -5  821.25   28.18
  -4  -5   4  361.74   19.89
   4   5  -4  383.65   15.55
   4   5  -4  411.24   18.04
  -4  -5   3  215.16   10.51
   4   5  -3  221.80    9.18
   4   5  -3  242.50   11.95
  -4  -5   2  306.71   16.75
   4   5  -2  306.77   12.40
   4   5  -2  284.50   13.80
  -4  -5   1  336.55   15.09
   4   5  -1  320.71   12.95
   4   5  -1  361.47   16.27
  -4  -5   0  172.77    9.00
   4   5   0  176.91    7.77
   4   5   0  180.20    9.24
  -4  -5  -1  158.82   12.42
   4   5   1  136.36    6.26
   4   5   1  140.56    8.30
  -4  -5  -2 1590.57   51.29
   4   5   2 1457.69   46.01
   4   5   2 1516.68   49.61
  -4  -5  -3  618.17   20.40
   4   5   3  530.72   16.46
   4   5   3  572.83   20.91
  -4  -5  -4    9.01    1.86
   4   5   4    2.21    2.49
   4   5   4    3.72    2.66
  -4  -5  -5  327.69   14.92
   4   5   5  344.13   15.37
   4   5   5  327.89   18.17
   4   5   6  229.38    5.86
   4   5   6  227.99   16.97
   4   5   7    7.15    2.04
   4   5   7    3.33    2.77
   4   5   8  128.27    6.44
   4   5   8  129.45   16.38
   4   5   9  145.60   10.26
  -4  -6  11  248.99   15.05
   4   6 -11  229.10   13.05
  -4  -6  10    0.70    1.88
   4   6 -10    2.80    1.98
  -4  -6   9  213.80   17.47
   4   6  -9  248.26   14.95
  -4  -6   8  225.04   18.24
   4   6  -8  244.94   11.78
  -4  -6   7   10.88    3.81
   4   6  -7   16.49    3.17
  -4  -6   6  170.20    9.87
   4   6  -6  171.98    9.49
  -4  -6   5  710.54   26.14
   4   6  -5  677.22   24.00
  -4  -6   4  179.97    9.88
   4   6  -4  184.78    9.74
  -4  -6   3  107.22    5.65
   4   6  -3  110.74    6.09
  -4  -6   2 1216.12   38.18
   4   6  -2 1152.88   36.87
  -4  -6   1  143.17   10.03
   4   6  -1  159.31    8.97
  -4  -6   0  192.03   10.54
   4   6   0  177.33    9.99
  -4  -6  -1  656.38   23.20
   4   6   1  628.15   22.59
  -4  -6  -2  131.10    5.59
   4   6   2  142.59    6.48
  -4  -6  -3   74.63    5.25
   4   6   3   67.50    7.27
  -4  -6  -4  401.73   17.26
   4   6   4  382.49   19.39
   4   6   5  155.02    9.54
   4   6   6   14.28    6.07
   4   6   7  163.17   11.86
  -4  -7  10  139.75   13.24
   4   7 -10  192.23   10.05
  -4  -7   9  362.10   28.40
   4   7  -9  358.17   19.14
  -4  -7   8   11.36    4.01
   4   7  -8   13.05    2.66
  -4  -7   7  182.68    9.67
   4   7  -7  161.01   12.97
  -4  -7   6  719.28   39.13
   4   7  -6  713.24   29.76
  -4  -7   5   54.12    5.77
   4   7  -5   61.15    5.74
  -4  -7   4  321.51   22.45
   4   7  -4  382.55   17.37
  -4  -7   3  433.41   19.85
   4   7  -3  432.35   19.29
  -4  -7   2   57.14    9.36
   4   7  -2   56.67    4.97
  -4  -7   1  103.16    7.23
   4   7  -1  100.29   10.80
  -4  -7   0  334.22   15.16
   4   7   0  333.96   16.62
  -4  -7  -1  163.21   12.83
   4   7   1  160.88   12.51
  -4  -7  -2    3.40    2.00
   4   7   2    2.43    2.23
  -4  -7  -3  214.87   12.34
   4   7   3  188.06   17.02
   4   7   4  195.68   11.14
   4   7   5    4.79    5.14
   4   7   6  189.29   10.78
  -4  -8   8  356.87   17.05
   4   8  -8  331.02   14.82
  -4  -8   7  382.51   21.04
   4   8  -7  404.82   21.26
  -4  -8   6   24.56    6.04
   4   8  -6   38.91    4.30
  -4  -8   5   47.29   13.42
   4   8  -5   48.73    4.96
  -4  -8   4  203.04   10.43
   4   8  -4  192.82    9.36
  -4  -8   3   48.62    5.35
   4   8  -3   44.55    6.41
  -4  -8   2   47.94   10.54
   4   8  -2   45.88    8.45
  -4  -8   1  447.43   29.30
   4   8  -1  553.51   21.78
  -4  -8   0  177.09    8.82
   4   8   0  180.42    9.51
  -4  -8  -1   12.76    4.90
   4   8   1   22.54    3.61
  -4  -8  -2  108.76    9.66
   4   8   2   66.98    9.10
   4   8   3  210.55   12.62
   4   8   4    7.31    4.14
  -4  -9   4   52.04    4.99
   4   9  -4   52.77    4.93
  -4  -9   3   87.95    6.97
   4   9  -3   67.59   13.57
  -4  -9   2  336.40   15.45
   4   9  -2  344.35   16.41
  -4  -9   1  141.45    8.03
   4   9  -1  126.99   15.16
   5 -10  -2   84.25    7.73
   5 -10  -1   74.85    9.35
   5 -10   0  108.11   10.78
   5 -10   1   62.58    4.37
   5 -10   2    1.88    3.44
   5 -10   3  246.55   12.39
   5  -9  -8  146.49    8.15
   5  -9  -7  155.05   13.47
   5  -9  -6   68.49    4.82
   5  -9  -5  151.54    9.88
   5  -9  -3   47.71    3.39
   5  -9  -2   42.27    4.90
   5  -9  -2   47.82    3.50
   5  -9  -1  374.50   20.78
   5  -9  -1  347.52   18.87
   5  -9   0   31.23    3.01
   5  -9   0   23.56    6.66
   5  -9   1   66.38    7.27
   5  -9   1   64.48    7.29
   5  -9   2  129.69    9.43
   5  -9   2  137.34    9.24
   5  -9   3  140.89    9.17
   5  -9   4    3.62    2.93
   5  -9   4   11.51    3.37
   5  -9   5  357.71   16.84
  -5   8   9  120.36   14.09
   5  -8  -9  147.71   13.01
  -5   8   8  278.23   18.87
   5  -8  -8  310.52   18.62
  -5   8   7    0.43    2.65
   5  -8  -7    2.54    1.96
  -5   8   6   68.79    6.33
   5  -8  -6   53.30    3.79
   5  -8  -5  356.62   19.53
   5  -8  -5  360.19   15.84
   5  -8  -4    7.40    1.93
   5  -8  -4    3.24    1.98
   5  -8  -4    6.16    1.79
   5  -8  -3   51.90    4.65
   5  -8  -3   49.87    4.30
   5  -8  -3   50.55    3.02
   5  -8  -2  204.93   10.43
   5  -8  -2  184.49   10.96
   5  -8  -1  119.57    9.98
   5  -8  -1  124.33    4.72
   5  -8   0   72.45    9.22
   5  -8   0   72.33    3.85
   5  -8   1  249.35   17.10
   5  -8   1  258.79   12.14
   5  -8   2  373.12   17.04
   5  -8   2  346.77   15.33
   5  -8   3    3.19    2.84
   5  -8   3    2.55    2.20
   5  -8   4  139.14    8.24
   5  -8   4  141.82    7.81
   5  -8   5  401.28   17.53
   5  -8   5  369.80   15.75
   5  -8   6    0.25    2.95
   5  -8   6    2.25    1.99
   5  -8   7   44.89   12.75
   5  -8   7   45.99    5.31
  -5   7  11    4.77    3.53
   5  -7 -11    1.31    2.25
  -5   7  10  110.58    7.10
   5  -7 -10  106.99    6.94
  -5   7   9  107.73    9.30
   5  -7  -9   93.56    7.57
  -5   7   8   32.61    5.10
   5  -7  -8   23.30    3.12
  -5   7   7  219.23   14.29
   5  -7  -7  273.46   13.18
  -5   7   6  149.95    8.83
   5  -7  -6  164.12    8.67
  -5   7   5   21.36    7.71
   5  -7  -5   14.23    2.25
  -5   7   4   76.80    3.64
   5  -7  -4   87.15   13.96
   5  -7  -4   83.66    4.37
  -5   7   3  608.01   19.19
   5  -7  -3  569.31   18.35
   5  -7  -3  621.82   19.38
  -5   7   2  134.24    7.30
   5  -7  -2  154.67    8.24
   5  -7  -2  131.13    5.44
  -5   7   1    1.93    2.37
   5  -7  -1    5.76    2.62
   5  -7  -1    1.84    1.31
  -5   7   0  960.62   29.65
   5  -7   0  991.75   30.42
  -5   7  -1  626.18   22.64
   5  -7   1  688.21   22.83
  -5   7  -2   17.55    7.05
   5  -7   2   27.28    3.50
  -5   7  -3  385.69   14.73
   5  -7   3  383.96   13.39
   5  -7   4  106.56    7.40
   5  -7   4   91.33   12.48
   5  -7   5   59.20    5.78
   5  -7   5   60.26    6.25
   5  -7   6  119.60    7.21
   5  -7   6  135.79    7.73
   5  -7   7  257.03   16.04
   5  -7   7  272.40   16.42
   5  -7   8   24.35    5.61
   5  -7   8   32.29    3.63
  -5   6  12    0.40    2.56
   5  -6 -12    5.32    2.62
  -5   6  11  131.57    8.31
   5  -6 -11  126.53    7.57
  -5   6  10  234.05   14.37
   5  -6 -10  252.64   14.97
  -5   6   9   14.16    6.07
   5  -6  -9    7.80    3.30
   5  -6  -8   77.45    4.25
  -5   6   7  147.14    6.31
  -5   6   7  150.09    8.27
   5  -6  -7  160.81    7.89
  -5   6   6  162.94    9.07
  -5   6   6  159.46    9.55
   5  -6  -6  175.17    9.27
  -5   6   5  202.13    9.38
  -5   6   5  199.72   11.48
   5  -6  -5  227.81   10.78
  -5   6   4 1127.63   27.47
   5  -6  -4 1117.24   26.89
  -5   6   3  326.13   15.52
   5  -6  -3  302.52   17.17
   5  -6  -3  324.22   13.90
  -5   6   2  240.04   11.58
   5  -6  -2  236.97   11.22
   5  -6  -2  247.74   10.72
  -5   6   1  645.00   16.91
   5  -6  -1  618.60   16.99
   5  -6  -1  618.67   14.95
  -5   6   0  950.33   25.84
   5  -6   0  954.03   23.71
   5  -6   0  946.81   21.64
  -5   6  -1   10.23    2.94
   5  -6   1   13.46    4.20
  -5   6  -2  160.03   10.06
   5  -6   2  172.42    8.64
  -5   6  -3  436.07   17.90
   5  -6   3  468.64   15.96
  -5   6  -4   60.00    5.12
   5  -6   4   63.43    5.11
  -5   6  -5   28.59    7.50
   5  -6   5   30.29    8.45
  -5   6  -6  850.80   40.46
   5  -6   6  976.12   61.31
   5  -6   7   48.90    4.74
   5  -6   7   59.68    4.47
   5  -6   8   15.96    3.29
   5  -6   8   31.76    4.75
   5  -6   9  109.07   10.40
   5  -6   9  107.11   10.15
  -5   5  13    3.42    4.56
   5  -5 -13    4.35    2.43
  -5   5  12   62.57   14.77
   5  -5 -12   75.38    5.91
  -5   5  11  210.71   19.27
   5  -5 -11  213.91   12.95
  -5   5  10    0.74    2.89
   5  -5 -10    6.97    2.63
  -5   5   9  194.74   19.69
   5  -5  -9  161.77    8.85
  -5   5   8  522.27   18.48
   5  -5  -8  532.23   18.10
  -5   5   7  139.52    6.58
  -5   5   7  154.83    8.45
   5  -5  -7  140.89    8.10
  -5   5   6  274.70   13.24
  -5   5   6  271.35   18.78
   5  -5  -6  325.14   14.85
  -5   5   5  702.21   17.00
  -5   5   5  762.02   21.39
   5  -5  -5  762.96   17.85
  -5   5   4  211.64    9.34
  -5   5   4  224.69   10.34
   5  -5  -4  231.76    8.08
  -5   5   3   27.00    5.62
   5  -5  -3   21.97    5.61
   5  -5  -3   14.14    1.95
  -5   5   2  431.14   13.20
   5  -5  -2  453.80   11.34
   5  -5  -2  446.51   10.06
  -5   5   1 1118.78   22.90
   5  -5  -1 1141.97   26.26
   5  -5  -1 1135.47   21.90
  -5   5   0   45.21    6.46
   5  -5   0   39.36    3.58
   5  -5   0   35.06    3.44
   5  -5   0   39.69    1.98
  -5   5  -1  478.62   14.55
   5  -5   1  457.05   14.05
   5  -5   1  452.54   11.86
  -5   5  -2  422.95   13.29
   5  -5   2  411.21   12.98
  -5   5  -3  114.79    7.15
   5  -5   3  108.03    8.52
  -5   5  -4  832.20   28.45
   5  -5   4  760.83   26.96
  -5   5  -5  621.79   24.43
   5  -5   5  616.49   20.89
  -5   5  -6  831.96   27.62
   5  -5   6  826.57   28.22
  -5   5  -7   12.30    3.34
   5  -5   7   21.77    3.49
   5  -5   8  418.05   22.93
   5  -5   9  129.74    8.36
   5  -5   9  130.35    7.45
   5  -5  10   19.31    2.99
   5  -5  10   21.68    7.70
  -5   4  13  137.17   18.95
   5  -4 -13  161.65    7.46
  -5   4  12  113.46   10.10
   5  -4 -12  113.81    8.47
  -5   4  11    5.55    3.15
   5  -4 -11    8.45    3.82
  -5   4  10  245.01   17.74
   5  -4 -10  250.72   12.65
  -5   4   9  508.37   25.37
   5  -4  -9  503.44   17.31
  -5   4   8  302.23   12.08
  -5   4   8  299.42   16.57
   5  -4  -8  300.49   13.52
  -5   4   7  103.52    7.69
  -5   4   7  106.98    7.21
   5  -4  -7  100.88    6.77
  -5   4   6  765.82   17.07
  -5   4   6  747.27   19.79
   5  -4  -6  738.56   17.41
  -5   4   5  497.42   11.39
  -5   4   5  483.05   12.56
   5  -4  -5  491.13   11.82
  -5   4   4    3.17    3.22
  -5   4   4    1.21    2.11
   5  -4  -4    2.82    1.84
  -5   4   3 2044.32   46.13
   5  -4  -3 1991.77   43.69
  -5   4   2  902.04   21.30
   5  -4  -2  846.75   20.66
   5  -4  -2  940.24   21.55
  -5   4   1   30.47    9.04
   5  -4  -1   34.99    8.56
   5  -4  -1   25.39    2.17
  -5   4   0  326.78   15.30
   5  -4   0  365.05   13.92
   5  -4   0  349.30   12.37
  -5   4   0  351.67   12.28
  -5   4  -1  900.06   27.00
   5  -4   1  932.92   22.38
   5  -4   1  927.67   20.27
  -5   4  -1  941.05   20.53
  -5   4  -2  271.18    8.85
   5  -4   2  258.88    9.09
   5  -4   2  261.15    6.33
  -5   4  -3  684.66   18.09
   5  -4   3  689.00   17.04
   5  -4   3  636.67   12.43
  -5   4  -4 1481.56   39.79
   5  -4   4 1481.65   35.67
  -5   4  -5  164.22   14.71
   5  -4   5  180.35    9.00
  -5   4  -6   89.23    7.47
   5  -4   6   87.50   14.32
  -5   4  -7  364.99   19.13
   5  -4   7  383.42   14.43
  -5   4  -8  104.52    8.63
   5  -4   8   98.52    8.41
  -5   4  -9    0.03    1.36
   5  -4   9    3.20    3.50
   5  -4  10  135.30   11.70
   5  -4  10  114.58   12.13
  -5   3  14  154.97   14.36
   5  -3 -14  147.89    8.82
  -5   3  13   83.94    8.13
   5  -3 -13   78.66    5.70
  -5   3  12   10.54    4.90
   5  -3 -12    9.80    3.78
  -5   3  11  130.79    9.24
   5  -3 -11  148.39    9.44
  -5   3  10  856.74   30.63
   5  -3 -10  796.62   27.95
  -5   3   9  232.19   11.93
  -5   3   9  245.32   15.63
   5  -3  -9  243.32   11.69
  -5   3   8  361.42   15.23
  -5   3   8  353.23   18.18
   5  -3  -8  310.37   14.20
  -5   3   7 1006.84   21.55
  -5   3   7 1004.68   28.63
   5  -3  -7 1027.75   23.36
  -5   3   6  331.27    9.38
  -5   3   6  357.58   13.17
   5  -3  -6  332.30   10.14
  -5   3   5    1.77    1.57
  -5   3   5    2.75    2.49
   5  -3  -5    4.91    2.13
  -5   3   4 1521.77   29.51
  -5   3   4 1530.52   35.12
   5  -3  -4 1564.10   30.01
  -5   3   3 1018.82   22.32
  -5   3   3 1044.17   21.84
   5  -3  -3 1018.68   22.11
  -5   3   2    2.69    2.69
   5  -3  -2    4.53    3.79
  -5   3   1  638.90   18.61
   5  -3  -1  670.46   14.72
   5  -3  -1  662.54   13.46
  -5   3   0 2767.86   51.40
   5  -3   0 2904.74   53.50
   5  -3   0 2872.22   51.60
  -5   3   0 2695.76   48.17
  -5   3  -1  164.60    6.78
   5  -3   1  156.01    7.12
   5  -3   1  171.62    5.10
  -5   3  -1  173.93    5.15
  -5   3  -2  337.77   13.18
   5  -3   2  326.30   14.92
   5  -3   2  318.82   11.48
  -5   3  -2  308.08   10.72
  -5   3  -3 1411.39   28.20
   5  -3   3 1403.65   28.35
   5  -3   3 1427.94   26.10
  -5   3  -3 1314.79   24.02
  -5   3  -4  123.14   11.15
   5  -3   4  119.90    8.84
   5  -3   4  104.49    6.65
  -5   3  -4  108.57    6.58
  -5   3  -5    3.82    2.47
   5  -3   5    3.64    2.47
   5  -3   5    2.26    1.27
  -5   3  -6  276.19   14.33
   5  -3   6  273.92   18.22
  -5   3  -7  159.24   12.04
   5  -3   7  174.98    9.02
  -5   3  -8   53.63   12.12
   5  -3   8   58.19    4.58
  -5   3  -9  269.01   16.46
   5  -3   9  283.32   16.70
  -5   3 -10  196.16   19.98
   5  -3  10  240.96   16.20
   5  -3  11    0.98    3.04
   5  -3  11    1.08    3.66
  -5   2  14  267.61   21.65
   5  -2 -14  314.53   17.92
  -5   2  13    4.47    4.33
   5  -2 -13    2.81    2.33
  -5   2  12   55.66   13.99
   5  -2 -12   60.85    6.18
  -5   2  11  560.62   20.86
   5  -2 -11  570.82   19.75
  -5   2  10   30.39    2.89
  -5   2  10   25.52    7.13
   5  -2 -10   27.77    3.81
  -5   2   9  164.06   11.86
  -5   2   9  163.35    8.59
   5  -2  -9  143.73    6.52
  -5   2   8  824.72   18.21
  -5   2   8  830.55   22.43
   5  -2  -8  822.98   19.60
  -5   2   7  329.28    9.46
  -5   2   7  315.05   13.09
   5  -2  -7  312.13   10.34
  -5   2   6   81.30    4.57
  -5   2   6   83.03    5.22
   5  -2  -6   78.93    5.16
  -5   2   5 1286.56   25.24
  -5   2   5 1313.77   30.62
   5  -2  -5 1344.48   26.61
  -5   2   4 2270.07   42.42
  -5   2   4 2340.91   45.66
   5  -2  -4 2320.83   42.95
  -5   2   3  288.19    9.84
  -5   2   3  311.54    9.65
   5  -2  -3  302.41    7.84
  -5   2   2 1463.04   22.01
   5  -2  -2 1433.42   22.78
   5  -2  -2 1472.47   21.42
  -5   2   1 1627.74   23.91
   5  -2  -1 1594.01   23.89
   5  -2  -1 1633.26   23.43
  -5   2   0  189.64    6.41
   5  -2   0  179.72    6.24
   5  -2   0  174.29    5.04
  -5   2  -1  611.90   18.36
   5  -2   1  634.51   14.23
   5  -2   1  608.38   12.30
  -5   2  -2 1514.74   29.98
   5  -2   2 1527.34   29.93
   5  -2   2 1464.14   27.74
  -5   2  -2 1410.64   26.00
  -5   2  -3  587.69   15.19
   5  -2   3  595.05   15.95
   5  -2   3  581.10   14.07
  -5   2  -3  537.96   12.66
  -5   2  -4   70.96    8.89
   5  -2   4   77.06    5.44
   5  -2   4   72.13    4.21
  -5   2  -5  269.02   15.94
   5  -2   5  316.64   15.69
   5  -2   5  297.57   12.43
  -5   2  -6   83.81    8.98
   5  -2   6   70.32   10.04
   5  -2   6   73.45    6.67
  -5   2  -7    3.54    2.72
   5  -2   7   13.19    3.40
   5  -2   7    2.15    2.06
  -5   2  -8  701.39   31.34
   5  -2   8  714.90   31.47
  -5   2  -9  180.70   10.43
   5  -2   9  196.78   10.39
  -5   2 -10    0.86    2.07
   5  -2  10    3.75    2.68
   5  -2  11   88.86    7.33
  -5   1  14   57.09   14.46
   5  -1 -14   55.56    5.06
  -5   1  13  306.77   15.24
   5  -1 -13  330.28   14.77
  -5   1  12  298.75   20.51
   5  -1 -12  336.72   15.85
  -5   1  11  173.79    8.89
  -5   1  11  187.37   10.98
   5  -1 -11  182.35   10.14
  -5   1  10   63.35    6.58
  -5   1  10   63.39    6.03
   5  -1 -10   63.71    4.78
  -5   1   9  317.28   13.89
  -5   1   9  315.67   15.70
   5  -1  -9  333.57   15.83
  -5   1   8  955.33   21.98
  -5   1   8 1003.56   24.04
   5  -1  -8  950.41   23.99
  -5   1   7  131.58    5.36
  -5   1   7  140.71    6.32
   5  -1  -7  121.06    6.06
  -5   1   6 1640.46   37.70
  -5   1   6 1658.08   39.18
   5  -1  -6 1616.83   36.94
  -5   1   5 2534.85   47.07
  -5   1   5 2465.16   48.40
   5  -1  -5 2518.85   46.64
  -5   1   4   10.53    2.71
  -5   1   4    7.26    2.72
   5  -1  -4    8.45    3.53
  -5   1   3 1141.21   18.16
  -5   1   3 1116.05   18.68
   5  -1  -3 1113.26   17.40
  -5   1   2 1548.11   26.59
   5  -1  -2 1545.34   23.80
   5  -1  -2 1614.28   24.22
  -5   1   1   61.40    8.07
   5  -1  -1   64.54    6.85
   5  -1  -1   58.08    5.82
  -5   1   0  708.53   12.95
   5  -1   0  674.64   17.80
   5  -1   0  697.92   11.98
  -5   1  -1  641.50   14.38
   5  -1   1  618.56   13.74
   5  -1   1  636.59   13.18
  -5   1  -2  326.11    9.98
   5  -1   2  315.91   10.34
   5  -1   2  331.62    9.97
  -5   1  -3  144.37    7.32
   5  -1   3  132.71    6.77
   5  -1   3  143.64    6.23
  -5   1  -4  577.44   19.17
   5  -1   4  568.24   13.81
   5  -1   4  593.67   13.39
  -5   1  -5  382.28   12.16
   5  -1   5  396.36   18.58
   5  -1   5  405.63   12.22
  -5   1  -6  163.93   12.22
   5  -1   6  128.78   10.05
   5  -1   6  134.38    8.69
  -5   1  -7  123.62    6.19
   5  -1   7  119.15    6.77
   5  -1   7  135.98    7.58
  -5   1  -8  434.48   21.61
   5  -1   8  431.97   20.12
   5  -1   8  442.82   20.56
  -5   1  -9   16.73    6.39
   5  -1   9   17.58    3.47
  -5   1 -10  136.76   12.67
   5  -1  10  124.72    7.40
   5  -1  11  270.73   14.75
  -5   0  14   92.61   19.56
   5   0 -14   92.78    8.92
  -5   0  13  504.82   25.60
   5   0 -13  520.78   21.73
  -5   0  12   82.90    7.42
  -5   0  12  101.04   18.13
   5   0 -12   94.59    8.60
  -5   0  11  113.34    4.99
  -5   0  11  107.07    9.33
   5   0 -11  100.41    5.82
  -5   0  10 1656.94   48.95
  -5   0  10 1665.48   53.35
   5   0 -10 1470.79   44.36
  -5   0   9  641.93   16.79
  -5   0   9  634.05   23.36
   5   0  -9  643.34   17.94
  -5   0   8    4.42    2.53
  -5   0   8    8.09    4.45
   5   0  -8    9.96    3.52
  -5   0   7 1353.12   26.95
  -5   0   7 1355.12   29.02
   5   0  -7 1323.07   26.91
  -5   0   6  523.77   14.08
  -5   0   6  486.70   14.75
   5   0  -6  490.68   13.76
  -5   0   5    1.83    2.21
  -5   0   5    2.06    1.99
   5   0  -5    4.89    2.77
  -5   0   4  488.09   13.92
  -5   0   4  470.16   13.80
   5   0  -4  464.36   13.03
  -5   0   3 1036.43   16.83
  -5   0   3  999.54   18.04
   5   0  -3  983.49   17.25
  -5   0   2   91.27    4.20
   5   0  -2   93.26    4.35
   5   0  -2   86.62    4.28
  -5   0   1  204.83    6.43
   5   0  -1  210.64    6.28
   5   0  -1  212.88    6.47
  -5   0   0 1167.53   23.78
   5   0   0 1208.22   23.75
   5   0   0 1235.75   24.20
  -5   0  -1    5.41    2.85
   5   0   1    5.12    3.39
   5   0   1   10.02    2.50
  -5   0  -2   82.10    4.85
   5   0   2   81.17    4.70
   5   0   2   73.18    3.83
  -5   0  -3  767.58   19.49
   5   0   3  756.71   19.25
   5   0   3  779.23   19.03
  -5   0  -4  962.13   22.03
   5   0   4  937.44   22.69
   5   0   4  964.97   21.34
  -5   0  -5    1.67    2.23
   5   0   5    1.28    2.07
   5   0   5    0.82    1.10
  -5   0  -6  836.33   28.31
   5   0   6  858.37   29.59
   5   0   6  814.96   27.32
  -5   0  -7  343.72   17.97
   5   0   7  339.67   14.17
   5   0   7  307.73   15.16
  -5   0  -8   11.46    5.95
   5   0   8   20.00    4.60
   5   0   8   11.45    4.25
  -5   0  -9  177.26   13.50
   5   0   9  188.63   16.07
   5   0   9  174.48   12.22
   5   0  10  191.03   12.35
   5   0  11   47.23    9.26
  -5  -1  14  211.78   22.72
   5   1 -14  209.06   12.68
  -5  -1  13  138.47    9.42
  -5  -1  13  156.43   19.02
   5   1 -13  162.35   11.74
  -5  -1  12  334.94   15.61
  -5  -1  12  311.95   18.40
   5   1 -12  352.64   16.94
  -5  -1  11  489.84   17.29
  -5  -1  11  514.51   21.43
   5   1 -11  535.91   18.38
  -5  -1  10  243.08   11.82
  -5  -1  10  275.28   15.56
   5   1 -10  255.72   13.00
  -5  -1   9   -0.85    2.51
  -5  -1   9    1.07    2.65
   5   1  -9    0.84    2.56
  -5  -1   8  680.18   16.74
  -5  -1   8  664.91   16.39
   5   1  -8  668.07   17.22
  -5  -1   7 1172.48   24.00
  -5  -1   7 1166.33   24.59
   5   1  -7 1155.17   24.30
  -5  -1   6    2.28    2.34
  -5  -1   6    2.32    2.50
   5   1  -6    5.92    2.89
  -5  -1   5  609.50   15.95
  -5  -1   5  587.52   15.52
   5   1  -5  596.37   16.04
  -5  -1   4  425.72   12.42
  -5  -1   4  406.21   14.15
   5   1  -4  430.60   13.02
  -5  -1   3  716.55   15.76
   5   1  -3  687.84   14.41
   5   1  -3  705.40   15.36
  -5  -1   2  630.80   14.02
   5   1  -2  681.37   14.31
   5   1  -2  643.39   14.18
  -5  -1   1  401.13   12.06
   5   1  -1  397.96   11.26
   5   1  -1  400.85   11.93
  -5  -1   0  804.88   17.25
   5   1   0  841.41   17.36
   5   1   0  840.55   17.53
  -5  -1  -1   18.46    4.73
   5   1   1   19.73    2.61
   5   1   1   21.76    2.72
  -5  -1  -2 1438.06   33.31
   5   1   2 1433.09   32.51
   5   1   2 1537.65   34.67
  -5  -1  -3  416.33   12.17
   5   1   3  456.76   11.34
   5   1   3  452.00   10.95
  -5  -1  -4  330.72   10.78
   5   1   4  293.39   17.95
   5   1   4  335.15   13.90
  -5  -1  -5  583.11   23.06
   5   1   5  561.39   20.07
   5   1   5  527.68   21.96
  -5  -1  -6  478.37   17.98
   5   1   6  482.47   16.39
   5   1   6  445.63   15.70
  -5  -1  -7   29.93    3.62
   5   1   7   34.29    4.23
   5   1   7   28.77    2.75
  -5  -1  -8  169.80   13.33
   5   1   8  170.81   12.58
   5   1   8  207.33   15.16
   5   1   9  245.28   12.06
   5   1   9  256.11   14.03
   5   1  10   59.47    4.49
   5   1  10   43.94    6.33
  -5  -2  14   89.81    6.65
  -5  -2  14   64.20    9.98
   5   2 -14   69.85    5.99
  -5  -2  13    2.84    1.90
  -5  -2  13    1.75    1.97
   5   2 -13   11.11    3.86
  -5  -2  12  366.67   20.10
  -5  -2  12  360.68   21.62
   5   2 -12  382.50   21.21
  -5  -2  11  326.80   15.21
  -5  -2  11  301.93   21.71
   5   2 -11  321.90   15.23
  -5  -2  10   40.28    4.51
  -5  -2  10   38.98    7.21
   5   2 -10   38.05    4.00
  -5  -2   9  614.37   20.35
  -5  -2   9  535.30   21.64
   5   2  -9  560.74   18.85
  -5  -2   8  241.34   12.86
  -5  -2   8  223.10   15.53
   5   2  -8  239.97   11.89
  -5  -2   7    7.84    4.02
  -5  -2   7    1.40    3.32
   5   2  -7    2.69    2.63
  -5  -2   6  504.66   13.08
  -5  -2   6  493.69   16.24
   5   2  -6  553.65   14.04
  -5  -2   5 1177.46   24.41
  -5  -2   5 1151.17   23.27
   5   2  -5 1141.97   24.12
  -5  -2   4  175.27    8.37
  -5  -2   4  169.70   10.61
   5   2  -4  168.68    7.99
  -5  -2   3  212.18    9.84
   5   2  -3  212.84    8.60
   5   2  -3  219.19    9.50
  -5  -2   2 2228.22   50.21
   5   2  -2 2190.11   47.95
   5   2  -2 2194.51   49.09
  -5  -2   1  416.15   15.55
   5   2  -1  440.02   15.74
   5   2  -1  432.32   16.00
  -5  -2   0   90.84    5.37
   5   2   0   98.18    6.58
   5   2   0  103.45    5.70
  -5  -2  -1  996.18   21.09
   5   2   1  962.47   19.87
   5   2   1 1005.76   20.86
  -5  -2  -2  160.55    7.83
   5   2   2  145.39    5.67
   5   2   2  133.88    5.78
  -5  -2  -3   62.95    5.36
   5   2   3   63.91    7.44
   5   2   3   73.57    5.91
  -5  -2  -4  567.18   23.91
   5   2   4  546.27   23.06
   5   2   4  515.59   22.02
  -5  -2  -5  324.14   15.18
   5   2   5  275.23   13.29
   5   2   5  305.15   17.08
  -5  -2  -6    3.29    3.38
   5   2   6    4.84    2.92
   5   2   6    4.85    3.21
  -5  -2  -7  434.97   19.77
   5   2   7  406.05   18.83
   5   2   7  443.25   19.49
  -5  -2  -8  603.14   33.55
   5   2   8  631.63   34.89
   5   2   8  662.02   46.77
   5   2   9   22.81   10.09
   5   2   9   16.58    6.36
   5   2  10   35.32    3.91
   5   2  10   24.46    9.93
  -5  -3  13  210.89   12.22
  -5  -3  13  196.09   14.45
   5   3 -13  231.62   14.70
  -5  -3  12  146.00   10.39
  -5  -3  12  136.31   13.79
   5   3 -12  135.65   10.09
  -5  -3  11    5.03    3.48
  -5  -3  11    2.54    1.60
   5   3 -11    3.22    2.58
  -5  -3  10  461.49   16.09
  -5  -3  10  487.21   22.08
   5   3 -10  449.13   16.75
  -5  -3   9  112.14    6.17
  -5  -3   9  125.08    6.42
   5   3  -9  126.90    7.45
  -5  -3   8   16.08    5.17
  -5  -3   8   17.91    4.55
   5   3  -8   22.60    8.98
  -5  -3   7   76.76    5.60
  -5  -3   7   80.67    8.32
   5   3  -7  103.98    6.31
  -5  -3   6 2313.00   54.70
  -5  -3   6 2329.74   53.15
   5   3  -6 2362.54   97.13
  -5  -3   5  179.09    7.66
  -5  -3   5  201.32   12.62
   5   3  -5  181.55    7.53
  -5  -3   4  263.63    9.34
   5   3  -4  263.30    9.14
  -5  -3   3  285.77    9.96
   5   3  -3  278.67    8.04
   5   3  -3  262.00    9.76
  -5  -3   2  191.42    7.55
   5   3  -2  177.60    5.84
   5   3  -2  187.65    7.51
  -5  -3   1   98.55    7.16
   5   3  -1   95.42    3.94
   5   3  -1  109.76    5.66
  -5  -3   0 2083.43   40.60
   5   3   0 2044.29   38.08
   5   3   0 2063.56   39.82
  -5  -3  -1 1121.80   25.35
   5   3   1 1040.02   22.39
   5   3   1 1084.98   24.38
   5   3   2   29.25    2.66
   5   3   2   33.01    3.60
  -5  -3  -3  180.76   13.51
   5   3   3  200.97    9.02
   5   3   3  190.25    9.20
  -5  -3  -4 1039.48   31.55
   5   3   4 1001.73   30.30
   5   3   4 1025.19   33.69
  -5  -3  -5    5.83    2.35
   5   3   5    1.87    2.23
   5   3   5    2.29    1.79
  -5  -3  -6  393.05   16.93
   5   3   6  345.71   16.65
   5   3   6  341.98   17.88
  -5  -3  -7  306.34   14.36
   5   3   7  291.49   16.20
   5   3   7  320.84   16.45
   5   3   8   78.47    6.28
   5   3   8   86.03   12.16
   5   3   9   98.70    8.95
   5   3   9  101.82   11.26
  -5  -4  13  128.05   16.08
  -5  -4  13  119.83   12.83
   5   4 -13  132.03   12.73
  -5  -4  12    7.02    2.74
   5   4 -12    3.47    4.38
  -5  -4  11   96.32    7.80
  -5  -4  11   98.58   15.94
   5   4 -11   90.58    7.30
  -5  -4  10  337.64   16.38
  -5  -4  10  387.34   24.90
   5   4 -10  340.14   15.93
  -5  -4   9   28.53    8.97
  -5  -4   9   32.71    3.81
   5   4  -9   28.95   10.87
  -5  -4   8  537.39   20.11
  -5  -4   8  523.30   20.30
   5   4  -8  471.26   18.71
  -5  -4   7  711.78   23.36
  -5  -4   7  695.52   21.73
   5   4  -7  731.15   24.16
  -5  -4   6  398.01   23.30
  -5  -4   6  392.17   16.08
   5   4  -6  398.47   17.06
  -5  -4   5  112.56    7.51
  -5  -4   5  119.24    7.56
  -5  -4   4  783.08   20.99
   5   4  -4  793.05   19.02
   5   4  -4  728.05   21.95
  -5  -4   3  227.21   11.26
   5   4  -3  208.29    9.39
   5   4  -3  226.64   11.14
  -5  -4   2  367.28   16.69
   5   4  -2  333.44   13.96
   5   4  -2  340.00   15.33
  -5  -4   1  589.16   26.00
   5   4  -1  516.26   21.39
   5   4  -1  485.95   20.84
  -5  -4   0  563.97   23.95
   5   4   0  590.63   24.78
   5   4   0  601.13   26.38
  -5  -4  -1  146.60   15.04
   5   4   1  141.59    7.08
   5   4   1  137.25    8.14
  -5  -4  -2 1145.58   38.52
   5   4   2 1128.82   36.47
   5   4   2 1200.40   39.85
  -5  -4  -3  683.09   22.18
   5   4   3  619.62   19.31
   5   4   3  644.23   21.17
  -5  -4  -4   18.70    2.80
   5   4   4   18.98    5.00
   5   4   4   13.24    3.19
  -5  -4  -5  204.62   11.15
   5   4   5  204.10   10.60
   5   4   5  209.25   15.85
  -5  -4  -6  572.05   23.78
   5   4   6  549.80   23.47
   5   4   6  533.59   26.57
   5   4   7   39.91    5.99
   5   4   7   44.74    4.68
   5   4   8   55.57    3.92
   5   4   8   61.41    5.83
  -5  -5  12  285.02   13.58
   5   5 -12  312.46   14.46
  -5  -5  11  328.27   19.92
   5   5 -11  329.81   18.27
  -5  -5  10   94.11   12.49
   5   5 -10   81.32    6.83
  -5  -5   9  244.24   14.75
   5   5  -9  249.76   14.76
  -5  -5   8  608.32   28.27
   5   5  -8  651.15   27.83
  -5  -5   7   18.90    4.02
   5   5  -7   12.20    6.68
  -5  -5   6  127.16    6.90
   5   5  -6  146.97   13.14
  -5  -5   5  420.28   23.46
   5   5  -5  417.77   14.83
   5   5  -5  420.92   16.19
  -5  -5   4  216.30   22.05
   5   5  -4  177.93    8.18
   5   5  -4  189.19   10.52
  -5  -5   3  243.81   13.07
   5   5  -3  233.35   10.47
   5   5  -3  234.74   12.24
  -5  -5   2 1251.97   38.33
   5   5  -2 1215.93   37.02
  -5  -5   1  142.68    9.14
   5   5  -1  119.85    3.92
   5   5  -1  133.74    7.96
  -5  -5   0   31.49    4.08
   5   5   0   27.41    3.86
  -5  -5  -1  527.01   19.26
   5   5   1  481.13   18.99
  -5  -5  -2  444.78   15.59
   5   5   2  427.94   16.56
  -5  -5  -3    7.12    2.45
   5   5   3    1.46    1.54
   5   5   3    1.81    2.41
  -5  -5  -4  329.05   14.97
   5   5   4  319.39   17.77
  -5  -5  -5  412.57   22.07
   5   5   5  340.40   23.90
   5   5   6   72.97   13.20
   5   5   7   25.30    8.12
  -5  -6  10  285.79   16.58
   5   6 -10  259.18   15.36
  -5  -6   9  390.88   24.29
   5   6  -9  403.98   23.63
  -5  -6   8  109.10    8.80
   5   6  -8  102.43    7.73
  -5  -6   7  148.44   10.35
   5   6  -7  173.11    9.37
  -5  -6   6  251.30   12.75
   5   6  -6  260.94   12.76
  -5  -6   5   52.74   10.80
   5   6  -5   45.82    4.00
  -5  -6   4  161.55   10.13
   5   6  -4  172.41   10.38
  -5  -6   3  612.05   26.48
   5   6  -3  631.19   26.87
  -5  -6   2  871.16   27.41
   5   6  -2  862.12   27.15
  -5  -6   1    4.05    3.47
   5   6  -1    2.15    2.86
  -5  -6   0  392.35   17.92
   5   6   0  330.31   15.59
  -5  -6  -1  326.67   14.98
   5   6   1  349.33   16.75
  -5  -6  -2    5.96    2.65
   5   6   2   10.18    2.57
  -5  -6  -3  326.13   19.73
   5   6   3  385.53   21.69
  -5  -6  -4  106.60   10.09
   5   6   4  112.09    8.63
   5   6   5   49.94   12.18
   5   6   6   25.08    8.69
  -5  -7   9    8.58    3.60
   5   7  -9    9.30    2.89
  -5  -7   8   86.07    8.62
   5   7  -8  118.04   10.75
  -5  -7   7  481.02   28.05
   5   7  -7  441.05   25.97
  -5  -7   6  129.79    7.88
   5   7  -6  130.72    7.24
  -5  -7   5   38.25    8.59
   5   7  -5   29.92    4.69
  -5  -7   4  783.79   30.07
   5   7  -4  786.03   46.90
  -5  -7   3  305.00   17.51
   5   7  -3  319.73   18.40
  -5  -7   2   26.33    3.47
   5   7  -2   19.18    3.38
  -5  -7   1  206.82    9.95
   5   7  -1  203.24   10.31
  -5  -7   0  150.70   14.37
   5   7   0  172.85   12.17
  -5  -7  -1   12.85    2.99
   5   7   1   10.71    5.70
  -5  -7  -2   43.06    6.82
   5   7   2   42.00   10.79
   5   7   3  247.76   19.52
   5   7   4   26.90    7.91
   5   8  -6   59.68    5.06
  -5  -8   5  226.37   20.07
   5   8  -5  250.21   12.00
  -5  -8   4   66.39    8.51
   5   8  -4   63.17   15.86
  -5  -8   3    6.13    3.45
   5   8  -3    3.57    2.62
  -5  -8   2  177.88   11.01
   5   8  -2  188.49   11.71
  -5  -8   1  272.33   15.56
   5   8  -1  252.76   15.44
  -5  -8   0   10.62    3.84
   5   8   0    3.58    3.22
  -5  -8  -1   44.33   14.81
   5   8   1   72.92    9.70
   6 -10  -2   23.47    3.29
   6 -10  -1  134.36    8.27
   6 -10   0   70.85    8.53
   6  -9  -7   39.68    5.32
   6  -9  -7   63.06    5.36
   6  -9  -6   29.09    2.99
   6  -9  -5  220.18   12.38
   6  -9  -4   81.93    5.14
   6  -9  -3    0.39    1.46
   6  -9  -3    4.82    1.94
   6  -9  -2  217.37   19.47
   6  -9  -2  242.86   14.76
   6  -9  -1  283.70   17.13
   6  -9  -1  262.14   17.65
   6  -9   0    4.70    3.30
   6  -9   0   -0.55    1.24
   6  -9   1   95.38    8.71
   6  -9   1   89.39    5.69
   6  -9   2   78.85    7.79
   6  -9   2   84.59    7.83
   6  -9   3   26.05    3.23
   6  -9   3   14.40    2.51
   6  -9   4   65.11    6.05
   6  -9   4   69.37    6.86
  -6   8   9  167.47   18.18
   6  -8  -9  208.52   10.86
  -6   8   8   38.38   12.38
   6  -8  -8   61.78    4.37
  -6   8   7   29.92    8.55
   6  -8  -7   39.70    4.07
   6  -8  -6  280.20   12.53
   6  -8  -6  284.37   12.05
   6  -8  -5   70.08    6.46
   6  -8  -5   70.33    4.65
   6  -8  -4   43.28    4.53
   6  -8  -4   42.96    4.05
  -6   8   3  260.21   12.11
   6  -8  -3  264.66   13.05
  -6   8   2  190.80   15.55
   6  -8  -2  193.95   13.82
  -6   8   1   23.04    3.90
   6  -8  -1   22.25    3.13
  -6   8   0  128.29   10.06
   6  -8   0  144.29   10.89
  -6   8  -1  245.15   14.45
   6  -8   1  241.71   13.94
   6  -8   2   34.71    3.60
   6  -8   3   62.72    6.30
   6  -8   3   41.24    4.91
   6  -8   4  329.77   20.72
   6  -8   4  328.01   19.71
   6  -8   5  185.99   11.59
   6  -8   5  178.20   14.07
   6  -8   6   23.90    3.56
  -6   7  10  106.91   14.61
   6  -7 -10  118.80   10.78
  -6   7   9   62.51    6.45
   6  -7  -9   72.84    5.19
  -6   7   8   17.93    6.25
   6  -7  -8   21.79    3.69
  -6   7   7  182.93   18.85
   6  -7  -7  239.93   11.82
  -6   7   6   61.16    4.64
  -6   7   6   63.49    9.92
   6  -7  -6   67.43    5.16
  -6   7   5   27.58    3.44
   6  -7  -5   25.00    7.47
   6  -7  -5   45.41    3.48
  -6   7   4  204.31   12.68
   6  -7  -4  206.79   10.61
   6  -7  -4  228.76   11.01
  -6   7   3  350.87   18.77
   6  -7  -3  360.05   16.68
   6  -7  -3  390.97   12.73
  -6   7   2   38.79    9.53
   6  -7  -2   38.06    3.79
   6  -7  -2   39.34    2.81
  -6   7   1  225.93   11.81
   6  -7  -1  235.72   12.09
  -6   7   0  321.99   19.19
   6  -7   0  367.55    8.91
  -6   7  -1  116.71   16.40
   6  -7   1  121.60    7.66
  -6   7  -2  118.77   14.03
   6  -7   2  123.57    7.96
  -6   7  -3 1004.19   41.30
   6  -7   3 1020.04   15.48
  -6   7  -4   60.51    6.52
   6  -7   4   79.80    6.03
  -6   7  -5    6.00    4.60
   6  -7   5    2.41    2.46
   6  -7   6  208.12   13.55
   6  -7   7   50.01    5.71
   6  -7   7   55.46    4.89
  -6   6  11  320.75   19.16
   6  -6 -11  335.38   18.57
  -6   6  10   35.30   11.73
   6  -6 -10   44.14    5.00
  -6   6   9   35.80    5.54
   6  -6  -9   36.25    3.93
  -6   6   8  209.54   15.94
   6  -6  -8  266.60   12.97
  -6   6   7  103.32    5.86
  -6   6   7  118.45   11.06
   6  -6  -7  107.66    4.61
  -6   6   6    1.15    1.53
  -6   6   6    0.89    2.26
   6  -6  -6    1.08    1.98
  -6   6   5  460.89   16.78
  -6   6   5  446.24   21.33
   6  -6  -5  490.06   17.56
  -6   6   4  672.31   21.30
   6  -6  -4  638.06   21.08
   6  -6  -4  665.93   20.97
  -6   6   3   87.27    4.60
   6  -6  -3   96.35    5.60
   6  -6  -3  100.23    4.50
  -6   6   2  305.15   13.82
   6  -6  -2  267.65   12.22
   6  -6  -2  314.86   12.77
  -6   6   1  832.26   28.33
   6  -6  -1  780.95   26.79
   6  -6  -1  780.08   25.27
  -6   6   0   34.49    8.09
   6  -6   0   31.18    3.78
  -6   6  -1  335.18   19.54
   6  -6   1  332.49   15.83
  -6   6  -2  268.88   11.65
   6  -6   2  275.87   11.97
  -6   6  -3  204.35   10.72
   6  -6   3  209.32   11.01
  -6   6  -4   23.02    6.61
   6  -6   4   28.24    3.86
  -6   6  -5  196.62   14.55
   6  -6   5  215.94   15.59
  -6   6  -6  229.19   18.24
   6  -6   6  236.58   21.83
  -6   6  -7   12.08    4.98
   6  -6   7   24.17    3.31
   6  -6   8  128.15    9.06
   6  -6   8  141.37    8.76
  -6   5  12  111.22   14.48
   6  -5 -12  117.64   10.87
  -6   5  11   91.88   10.64
   6  -5 -11   89.20    7.49
  -6   5  10  115.27   10.22
   6  -5 -10  122.32    7.39
  -6   5   9  317.87   21.06
   6  -5  -9  345.97   16.16
  -6   5   8  217.93   10.75
  -6   5   8  208.59   14.01
   6  -5  -8  226.64   11.43
  -6   5   7    0.82    1.35
  -6   5   7    3.28    2.91
   6  -5  -7    4.59    2.38
  -6   5   6  380.92   17.61
  -6   5   6  349.33   21.11
   6  -5  -6  405.89   15.22
  -6   5   5 1831.20   59.08
  -6   5   5 1789.81   60.98
   6  -5  -5 1883.15   60.36
  -6   5   4  117.81    9.68
   6  -5  -4  128.89    8.90
   6  -5  -4  115.92    6.56
  -6   5   3   86.31    5.15
   6  -5  -3   98.01    6.44
   6  -5  -3  109.25    6.08
  -6   5   2  438.86   18.79
   6  -5  -2  386.25   17.03
   6  -5  -2  437.40   18.20
  -6   5   1  368.35   16.25
   6  -5  -1  375.35   17.12
   6  -5  -1  376.88   15.64
  -6   5   0   99.31    6.79
   6  -5   0  107.82    6.93
   6  -5   0  115.87    5.69
  -6   5  -1  800.15   28.23
   6  -5   1  786.46   26.91
  -6   5  -2   78.06    8.74
   6  -5   2   94.50    6.99
  -6   5  -3   22.47    6.19
   6  -5   3   35.07    4.50
  -6   5  -4  260.13   12.07
   6  -5   4  291.51   13.04
  -6   5  -5  295.54   15.77
   6  -5   5  291.27   13.80
  -6   5  -6   59.69    7.91
   6  -5   6   78.36    6.82
  -6   5  -7  222.28   12.34
   6  -5   7  238.65   11.32
  -6   5  -8  215.38   14.92
   6  -5   8  220.49   14.68
   6  -5   9   35.91    4.36
  -6   4  13  100.59    9.33
   6  -4 -13  116.66    8.22
  -6   4  12   28.36    8.35
   6  -4 -12   34.91    4.89
  -6   4  11   49.85    8.87
   6  -4 -11   60.39    5.35
  -6   4  10  467.64   24.61
   6  -4 -10  506.61   23.25
  -6   4   9  306.13   14.59
  -6   4   9  311.96   20.49
   6  -4  -9  343.48   16.61
  -6   4   8    1.97    1.28
  -6   4   8    1.09    2.39
   6  -4  -8    6.22    4.40
  -6   4   7  840.82   28.11
  -6   4   7  846.70   31.49
   6  -4  -7  834.61   28.54
  -6   4   6  258.27   11.63
  -6   4   6  233.36   11.68
   6  -4  -6  251.00   12.04
  -6   4   5  638.67   17.52
  -6   4   5  591.73   25.92
   6  -4  -5  621.51   16.50
  -6   4   4  749.58   17.70
   6  -4  -4  731.34   18.43
  -6   4   3  691.62   20.92
   6  -4  -3  709.57   18.31
   6  -4  -3  716.07   16.55
  -6   4   2   95.99    9.68
   6  -4  -2  116.68    8.62
   6  -4  -2   99.21    6.80
  -6   4   1  432.24   18.53
   6  -4  -1  439.85   14.31
   6  -4  -1  436.66   12.82
  -6   4   0  655.30   17.23
   6  -4   0  617.05   15.60
   6  -4   0  632.55   14.38
  -6   4  -1  399.09   16.61
   6  -4   1  441.44   14.22
   6  -4   1  415.12   12.37
  -6   4  -2   58.68    7.04
   6  -4   2   55.37    5.07
   6  -4   2   51.60    3.03
  -6   4  -3  525.17   21.62
   6  -4   3  549.82   20.07
  -6   4  -4  154.29    8.96
   6  -4   4  180.98   10.60
  -6   4  -5    4.65    3.24
   6  -4   5    2.24    2.19
  -6   4  -6  562.77   30.89
   6  -4   6  610.18   27.67
  -6   4  -7  216.92   14.05
   6  -4   7  214.71   13.22
  -6   4  -8    2.08    3.58
   6  -4   8   15.43    3.76
  -6   4  -9   60.50    7.72
   6  -4   9   71.98   18.26
  -6   3  13  129.39   13.13
   6  -3 -13  136.01   12.37
  -6   3  12   61.62   14.09
   6  -3 -12   58.47    5.82
  -6   3  11  217.69   17.02
   6  -3 -11  226.71    8.13
  -6   3  10  373.68   14.84
   6  -3 -10  400.13   14.98
  -6   3   9   25.92    6.15
  -6   3   9   36.01    7.70
   6  -3  -9   41.54    5.02
  -6   3   8  756.27   25.78
  -6   3   8  807.22   29.13
   6  -3  -8  755.21   26.59
  -6   3   7  649.65   17.20
  -6   3   7  655.84   21.85
   6  -3  -7  660.64   17.93
  -6   3   6   59.67    5.14
  -6   3   6   50.53    8.49
   6  -3  -6   53.37    4.93
  -6   3   5  236.57    8.65
  -6   3   5  211.70   11.46
   6  -3  -5  233.17    8.77
  -6   3   4 1125.28   23.18
  -6   3   4 1147.62   25.90
   6  -3  -4 1106.80   22.56
  -6   3   3   69.97    8.89
  -6   3   2  471.09   13.38
   6  -3  -2  451.45   13.21
   6  -3  -2  472.86   12.04
  -6   3   1  716.91   16.55
   6  -3  -1  719.45   20.27
   6  -3  -1  706.51   14.88
  -6   3   0  203.96    9.95
   6  -3   0  184.40    7.29
   6  -3   0  209.60    6.58
  -6   3  -1    2.99    1.27
   6  -3   1    2.46    2.82
   6  -3   1    9.06    1.84
  -6   3  -2 1358.48   31.52
   6  -3   2 1411.59   31.21
   6  -3   2 1352.95   27.92
  -6   3  -3  213.86   15.05
   6  -3   3  242.24   11.64
   6  -3   3  231.88   10.65
  -6   3  -4   81.05    6.64
   6  -3   4   81.25    6.12
   6  -3   4   57.98    4.64
  -6   3  -5   98.95   11.32
   6  -3   5  110.33   13.45
  -6   3  -6  325.09   19.36
   6  -3   6  324.91   16.20
  -6   3  -7   18.05    4.95
   6  -3   7   17.22    3.68
  -6   3  -8  137.71   11.13
   6  -3   8  143.58   10.29
  -6   3  -9  328.68   20.03
   6  -3   9  337.78   19.81
  -6   2  14   40.63   12.52
   6  -2 -14   50.88    5.16
   6  -2 -13   10.86    3.52
  -6   2  12  447.07   25.24
   6  -2 -12  503.04   27.21
  -6   2  11  446.94   30.44
   6  -2 -11  498.53   22.18
  -6   2  10    5.33    2.18
  -6   2  10    4.90    2.46
   6  -2 -10    0.76    2.77
  -6   2   9  225.48   10.90
  -6   2   9  196.43   16.15
   6  -2  -9  206.13   10.91
  -6   2   8  226.63    9.93
  -6   2   8  227.36   14.79
   6  -2  -8  229.42   10.86
  -6   2   7   33.65    6.89
  -6   2   7   30.15    7.28
   6  -2  -7   20.92    3.67
  -6   2   6  519.30   15.64
  -6   2   6  524.81   16.08
   6  -2  -6  498.55   15.38
  -6   2   5  798.66   17.57
  -6   2   5  801.64   25.12
   6  -2  -5  816.41   17.95
  -6   2   4  166.90    6.56
  -6   2   4  149.88   11.10
   6  -2  -4  147.80    6.17
  -6   2   3  109.62    9.72
   6  -2  -3  121.91    7.69
   6  -2  -3  125.06    6.47
  -6   2   2 1018.48   24.39
   6  -2  -2 1043.18   25.31
   6  -2  -2 1054.24   24.90
  -6   2   1  337.10   13.37
   6  -2  -1  332.84   13.00
   6  -2  -1  317.96   12.42
  -6   2   0  248.29    8.44
   6  -2   0  275.03    9.16
   6  -2   0  254.35    7.83
  -6   2  -1  610.09   16.44
   6  -2   1  655.49   15.38
   6  -2   1  620.93   13.08
  -6   2  -2  607.33   19.06
   6  -2   2  636.32   16.17
   6  -2   2  657.00   14.55
  -6   2  -3    7.03    3.03
   6  -2   3    8.36    4.66
   6  -2   3    2.61    1.53
  -6   2  -4  616.45   27.23
   6  -2   4  629.14   22.62
   6  -2   4  628.27   20.76
  -6   2  -5  211.29   17.65
   6  -2   5  200.46   10.69
   6  -2   5  193.53   10.71
  -6   2  -6   56.25    4.89
   6  -2   6   60.41    7.03
  -6   2  -7  285.10   15.30
   6  -2   7  319.77   15.50
  -6   2  -8  423.12   26.73
   6  -2   8  393.32   21.99
  -6   2  -9   52.45   12.20
   6  -2   9   55.30    6.06
  -6   2 -10   48.26    7.71
   6  -2  10   62.86    8.27
  -6   1  14   41.57    6.99
   6  -1 -14   47.46    6.19
   6  -1 -13  285.43   20.46
  -6   1  12  160.79   10.75
   6  -1 -12  175.49    9.88
  -6   1  11    7.25    2.36
  -6   1  11    4.42    1.75
   6  -1 -11    3.61    3.66
  -6   1  10  386.43   14.65
  -6   1  10  381.37   22.21
   6  -1 -10  363.00   15.21
  -6   1   9  263.25   12.56
  -6   1   9  261.40   14.02
   6  -1  -9  256.04   13.13
  -6   1   8   21.20    2.81
  -6   1   8   25.64    7.07
   6  -1  -8   21.42    3.48
  -6   1   7  376.91   16.60
  -6   1   7  349.76   14.09
   6  -1  -7  396.02   12.96
  -6   1   6 1256.77   27.52
  -6   1   6 1263.27   28.92
   6  -1  -6 1254.03   28.33
  -6   1   5  388.84   11.51
  -6   1   5  381.38   15.44
   6  -1  -5  389.95   11.57
  -6   1   4  104.34    5.78
  -6   1   4  104.55   14.41
   6  -1  -4   84.73    5.21
  -6   1   3 1033.42   27.14
   6  -1  -3 1082.44   26.08
   6  -1  -3 1075.81   25.94
  -6   1   2  141.91    7.14
   6  -1  -2  130.80    6.51
   6  -1  -2  118.77   10.45
  -6   1   1  228.94    9.71
   6  -1  -1  238.79   10.01
   6  -1  -1  229.28    9.33
  -6   1   0  601.61   14.41
   6  -1   0  614.60   14.27
   6  -1   0  608.02   13.23
  -6   1  -1  221.97    8.23
   6  -1   1  216.04   11.59
   6  -1   1  192.62    8.54
  -6   1  -2   45.22    4.50
   6  -1   2   42.61    6.33
   6  -1   2   48.98    4.09
  -6   1  -3  731.24   19.39
   6  -1   3  730.00   19.61
   6  -1   3  746.26   18.61
  -6   1  -4 1027.11   35.89
   6  -1   4 1042.20   34.98
   6  -1   4 1087.54   35.20
  -6   1  -5    3.64    2.37
   6  -1   5    4.98    3.59
   6  -1   5    3.27    1.65
  -6   1  -6  154.61    9.46
   6  -1   6  177.50    9.68
   6  -1   6  158.90    8.20
  -6   1  -7  541.59   24.68
   6  -1   7  492.58   21.76
  -6   1  -8   97.38    8.75
   6  -1   8   83.69    7.52
  -6   1  -9   48.92   10.80
   6  -1   9   75.11    6.13
  -6   1 -10  237.27   12.41
   6  -1  10  237.81   12.62
  -6   0  14  115.68   21.39
   6   0 -14  143.10    9.35
  -6   0  13  122.86   12.21
   6   0 -13  118.45    7.09
  -6   0  12   31.25    8.93
  -6   0  12   27.95    9.88
   6   0 -12   37.59    4.60
  -6   0  11  233.75   14.26
  -6   0  11  230.85   28.31
   6   0 -11  219.19   12.39
  -6   0  10  396.17   13.85
  -6   0  10  383.83   21.87
   6   0 -10  426.40   15.60
  -6   0   9   18.39    2.99
  -6   0   9   19.41    4.34
   6   0  -9    5.55    3.09
  -6   0   8  725.61   25.14
  -6   0   8  750.10   26.34
   6   0  -8  775.07   27.27
  -6   0   7 1341.53   32.28
  -6   0   7 1344.47   34.70
   6   0  -7 1368.36   33.54
  -6   0   6  168.36    7.52
  -6   0   6  165.01    9.27
   6   0  -6  138.52    9.68
  -6   0   5  179.53    7.70
  -6   0   5  156.22    9.37
   6   0  -5  184.83    7.30
  -6   0   4  308.79   12.22
  -6   0   4  313.21   12.20
   6   0  -4  332.59   15.24
  -6   0   3  229.78   10.58
   6   0  -3  244.25   10.23
   6   0  -3  256.89   10.68
  -6   0   2   31.76    8.19
   6   0  -2   31.30    3.45
   6   0  -2   24.94    3.14
  -6   0   1  802.28   20.00
   6   0  -1  837.91   22.31
   6   0  -1  836.81   21.46
  -6   0   0  822.33   18.87
   6   0   0  798.20   17.51
  -6   0  -1   86.02    7.98
   6   0   1   95.36    5.12
   6   0   1   84.09    4.33
  -6   0  -2  266.73    9.57
   6   0   2  281.15   12.61
   6   0   2  287.14    9.41
  -6   0  -3  956.77   24.32
   6   0   3  922.67   24.32
   6   0   3  925.67   22.97
  -6   0  -4   18.13    4.82
   6   0   4   22.67    6.81
   6   0   4   20.68    4.69
  -6   0  -5  411.81   19.38
   6   0   5  425.54   21.11
   6   0   5  463.76   19.30
  -6   0  -6  895.48   29.22
   6   0   6  863.42   27.56
   6   0   6  907.78   27.46
  -6   0  -7  179.39   21.33
   6   0   7  178.03   13.43
   6   0   7  172.95   12.74
  -6   0  -8   21.42    8.15
   6   0   8   29.75    4.45
   6   0   8   30.62    4.31
  -6   0  -9  347.80   21.40
   6   0   9  389.52   21.24
   6   1 -14   89.99    7.27
  -6  -1  13    2.75    1.78
  -6  -1  13    2.26    2.37
   6   1 -13    4.72    2.40
  -6  -1  12  332.17   13.78
  -6  -1  12  335.39   14.88
   6   1 -12  352.45   15.55
  -6  -1  11  280.89   13.39
  -6  -1  11  238.68   16.15
   6   1 -11  307.53   15.12
  -6  -1  10   15.22    3.45
  -6  -1  10    5.00    3.31
   6   1 -10   11.88    4.64
  -6  -1   9  175.76    8.42
  -6  -1   9  206.78   21.10
   6   1  -9  195.26    9.97
  -6  -1   8  467.16   13.87
  -6  -1   8  451.47   22.42
   6   1  -8  469.08   13.62
  -6  -1   7  495.17   21.45
  -6  -1   7  498.93   24.30
   6   1  -7  491.73   21.71
  -6  -1   6  127.04    9.17
  -6  -1   6  156.88   17.06
   6   1  -6  161.31   15.26
  -6  -1   5  359.45   18.00
  -6  -1   5  363.77   11.47
   6   1  -5  389.19   13.42
  -6  -1   4   49.99    4.10
   6   1  -4   42.32    3.11
   6   1  -4   47.45    5.07
  -6  -1   3  322.17   11.77
   6   1  -3  339.27   10.20
   6   1  -3  320.00   10.58
  -6  -1   2 2001.11   40.25
   6   1  -2 2095.87  119.66
   6   1  -2 1967.77   38.44
  -6  -1   1 1275.46   26.16
   6   1  -1 1323.32   26.31
   6   1  -1 1318.69   26.57
  -6  -1   0  120.56    8.78
   6   1   0  115.61    8.22
   6   1   0  132.20   12.06
  -6  -1  -1  949.87   22.00
   6   1   1  924.34   21.55
   6   1   1  923.32   20.84
  -6  -1  -2  621.59   17.31
   6   1   2  613.85   26.43
   6   1   2  614.00   26.73
  -6  -1  -3  402.09   17.07
   6   1   3  441.79   18.40
   6   1   3  422.37   17.50
  -6  -1  -4  948.55   30.35
   6   1   4  814.11   27.64
   6   1   4  908.72   28.36
  -6  -1  -5  563.32   20.44
   6   1   5  468.21   18.05
   6   1   5  501.93   18.17
  -6  -1  -6   34.68    7.08
   6   1   6   36.20    3.48
   6   1   6   27.38    7.20
  -6  -1  -7  169.97    9.57
   6   1   7  157.24    8.66
   6   1   7  155.22   11.63
  -6  -1  -8  172.24    9.19
   6   1   8  179.59    9.08
   6   1   8  164.05    9.04
   6   1   9  116.00    8.61
   6   1   9  122.45    7.96
  -6  -2  13  148.15   12.79
  -6  -2  13  134.09   14.85
   6   2 -13  162.06    7.69
  -6  -2  12  219.60   10.73
  -6  -2  12  238.56   19.78
   6   2 -12  210.89   10.97
  -6  -2  11   69.58    6.54
  -6  -2  11   65.34    5.28
   6   2 -11   66.28    5.55
  -6  -2  10  163.23   13.00
  -6  -2  10  178.72   19.17
   6   2 -10  186.18   11.32
  -6  -2   9  608.89   20.47
  -6  -2   9  619.70   22.61
   6   2  -9  596.65   20.22
  -6  -2   8  122.91    7.07
  -6  -2   8  137.89   14.62
   6   2  -8  118.32    6.16
  -6  -2   7  193.64   10.24
  -6  -2   7  202.20   14.80
   6   2  -7  203.10   10.46
  -6  -2   6  427.45   18.12
  -6  -2   6  396.52   19.25
   6   2  -6  444.83   18.65
  -6  -2   5  202.42   15.54
  -6  -2   5  177.64   11.09
   6   2  -5  171.75    9.44
  -6  -2   4  166.53   11.68
   6   2  -4  157.71   13.45
   6   2  -4  177.73    7.87
  -6  -2   3 1491.09   32.87
   6   2  -3 1450.69   30.74
   6   2  -3 1436.03   31.53
  -6  -2   2 1264.64   28.26
   6   2  -2 1300.13   28.31
   6   2  -2 1209.08   28.25
  -6  -2   1   32.96    4.98
   6   2  -1   35.87    3.49
   6   2  -1   28.30    4.05
  -6  -2   0 1265.76   31.68
   6   2   0 1299.46   31.12
   6   2   0 1344.97   32.65
  -6  -2  -1 1555.23   37.15
   6   2   1 1492.13   35.18
   6   2   1 1610.05   38.26
  -6  -2  -2    3.93    2.61
   6   2   2    0.72    1.97
   6   2   2    4.36    3.19
  -6  -2  -3  133.66    8.04
   6   2   3  138.16    7.75
   6   2   3  133.23    7.83
  -6  -2  -4  394.71   15.07
   6   2   4  331.13   17.71
   6   2   4  367.35   14.69
  -6  -2  -5  126.90   11.53
   6   2   5  154.55    9.03
   6   2   5  109.87    9.22
  -6  -2  -6   15.80    5.68
   6   2   6   25.98    3.54
   6   2   6   24.68    7.05
  -6  -2  -7  449.29   20.44
   6   2   7  459.65   18.27
   6   2   7  449.08   23.62
   6   2   8   86.20    8.62
   6   2   8   71.20   13.40
  -6  -3  13  274.74   13.71
  -6  -3  13  250.62   16.55
   6   3 -13  272.93   13.88
  -6  -3  12   26.54    3.52
  -6  -3  12   22.39    6.11
   6   3 -12   20.04    7.15
  -6  -3  11   61.21    6.19
  -6  -3  11   69.84    6.95
   6   3 -11   54.80    6.38
  -6  -3  10  439.68   19.84
  -6  -3  10  426.40   22.84
   6   3 -10  443.97   22.34
  -6  -3   9    1.78    1.78
   6   3  -9    1.31    2.70
  -6  -3   8   92.30    5.06
  -6  -3   8   85.56    5.49
   6   3  -8   92.67    5.25
  -6  -3   7  862.25   30.36
  -6  -3   7  856.87   28.97
   6   3  -7  935.78   32.81
  -6  -3   6  242.66   12.38
  -6  -3   6  245.90   13.58
   6   3  -6  256.81   13.02
  -6  -3   5   37.84    4.74
   6   3  -5   39.27    3.06
   6   3  -5   41.91    4.72
  -6  -3   4 2072.81   48.39
   6   3  -4 2034.83   64.63
  -6  -3   3  481.68   14.36
   6   3  -3  440.61   17.88
   6   3  -3  477.97   14.30
  -6  -3   2   11.72    3.84
   6   3  -2   10.18    1.88
   6   3  -2   12.44    3.00
  -6  -3   1  299.50   13.63
   6   3  -1  302.15   12.56
   6   3  -1  296.99   17.22
  -6  -3   0  665.85   23.34
   6   3   0  660.53   22.69
   6   3   0  685.57   24.37
  -6  -3  -1    0.57    2.45
   6   3   1    2.86    1.71
   6   3   1    5.61    3.10
  -6  -3  -2  405.52   15.59
   6   3   2  416.33   15.35
   6   3   2  393.33   15.33
  -6  -3  -3  818.20   25.53
   6   3   3  719.11   22.25
   6   3   3  754.10   23.97
  -6  -3  -4  175.56    9.95
   6   3   4  171.13    9.48
   6   3   4  136.78    8.59
  -6  -3  -5   82.20    6.96
   6   3   5   63.91    8.14
   6   3   5   72.96    8.61
  -6  -3  -6  370.88   17.16
   6   3   6  394.61   16.21
   6   3   6  387.82   30.43
   6   3   7  167.74    7.77
   6   3   7  182.14   20.63
   6   3   8    1.19    1.62
   6   3   8    0.90    2.70
  -6  -4  12  126.06   12.92
  -6  -4  12  131.05   13.93
   6   4 -12  141.16    8.27
  -6  -4  11  333.75   22.05
  -6  -4  11  304.82   19.87
   6   4 -11  330.93   20.36
  -6  -4  10   96.63   19.65
  -6  -4  10  104.60    7.75
   6   4 -10  100.08    9.48
  -6  -4   9  161.44    9.09
  -6  -4   9  165.03   13.22
   6   4  -9  164.06    9.17
  -6  -4   8  307.33   15.14
  -6  -4   8  294.36   15.69
   6   4  -8  326.79   15.45
  -6  -4   7  492.86   17.10
  -6  -4   7  435.28   17.57
   6   4  -7  516.46   17.82
  -6  -4   6  222.87   12.16
   6   4  -6  258.57   13.76
  -6  -4   5  846.28   29.81
   6   4  -5  778.01   26.12
   6   4  -5  773.17   27.57
  -6  -4   4  841.46   29.58
   6   4  -4  811.38   26.89
   6   4  -4  824.44   28.71
  -6  -4   3    1.01    2.68
   6   4  -3    4.84    1.82
   6   4  -3    3.03    2.64
  -6  -4   2  301.73   17.88
   6   4  -2  292.41   13.24
   6   4  -2  309.55   15.24
  -6  -4   1  430.08   16.51
   6   4  -1  369.85   15.05
   6   4  -1  416.97   16.08
  -6  -4   0    8.81    3.87
   6   4   0    7.86    2.33
   6   4   0    5.93    2.57
  -6  -4  -1  379.87    8.61
   6   4   1  380.72    7.39
   6   4   1  393.80   14.57
  -6  -4  -2  541.00   18.13
   6   4   2  499.28   17.32
   6   4   2  481.44   23.40
  -6  -4  -3   56.18    6.62
   6   4   3   58.42    4.84
   6   4   3   61.92    5.88
  -6  -4  -4   50.52    5.45
   6   4   4   45.32    7.24
   6   4   4   48.55    4.33
  -6  -4  -5  356.31   14.43
   6   4   5  310.72   13.80
   6   4   5  352.47   15.41
   6   4   6  161.58    6.88
   6   4   6  157.84   18.67
   6   4   7   13.05    2.41
   6   4   7   15.13    4.91
  -6  -5  11   35.23    4.21
   6   5 -11   37.00    3.72
  -6  -5  10  221.84   13.35
   6   5 -10  204.79   12.45
  -6  -5   9  664.83   42.21
   6   5  -9  706.60   13.53
  -6  -5   8  256.19   16.86
   6   5  -8  282.20   12.62
  -6  -5   7   56.78    4.88
   6   5  -7   66.25    4.84
  -6  -5   6  418.73   18.94
   6   5  -6  443.97   19.98
  -6  -5   5  217.87   12.47
   6   5  -5  233.67   13.12
  -6  -5   4    9.16    4.36
   6   5  -4    1.30    3.15
  -6  -5   3  537.76   23.62
   6   5  -3  511.33   22.58
  -6  -5   2  384.57   17.64
   6   5  -2  359.99   16.41
  -6  -5   1   23.79    3.45
   6   5  -1   16.79    5.44
  -6  -5   0  116.22    7.51
   6   5   0  128.13    8.21
  -6  -5  -1  396.85   17.99
   6   5   1  390.77   18.24
  -6  -5  -2  165.85    9.16
   6   5   2  152.90   13.58
  -6  -5  -3   62.28    5.67
   6   5   3   44.73    5.12
  -6  -5  -4  226.70   13.95
   6   5   4  201.02   13.80
   6   5   5  136.68   13.60
  -6  -6   9   72.16    6.40
   6   6  -9   52.71    7.18
  -6  -6   8   28.70    5.54
   6   6  -8   39.63    4.02
  -6  -6   7  306.60   19.23
   6   6  -7  282.02   17.38
  -6  -6   6  147.52   10.52
   6   6  -6  150.91   11.34
  -6  -6   5   20.22    4.03
   6   6  -5   15.11    2.59
  -6  -6   4  266.94   15.75
   6   6  -4  256.63   15.22
  -6  -6   3  433.68   23.85
   6   6  -3  372.34   20.67
  -6  -6   2   95.15    6.61
   6   6  -2   87.63    6.29
  -6  -6   1  133.06   13.99
   6   6  -1  113.31    8.83
  -6  -6   0  395.87   16.39
   6   6   0  399.37   16.65
  -6  -6  -1  247.78   11.77
   6   6   1  246.66   11.40
  -6  -6  -2   24.85    8.11
   6   6   2   32.00    3.90
  -6  -6  -3  248.27   13.74
   6   6   3  261.50   14.96
   6   6   4   87.05    6.87
   6   7  -7   51.39    6.76
  -6  -7   6    9.38    3.40
   6   7  -6    6.87    2.94
  -6  -7   5  252.69   15.02
   6   7  -5  201.63   12.42
  -6  -7   4  430.98   23.41
   6   7  -4  397.60   21.67
  -6  -7   3   36.53    4.51
   6   7  -3   34.39    4.24
  -6  -7   2  219.86   13.57
   6   7  -2  228.51   13.37
  -6  -7   1  409.25   22.11
   6   7  -1  389.79   21.03
  -6  -7   0   34.94   14.25
   6   7   0   55.68    5.40
  -6  -7  -1   20.07    3.15
   6   7   1    6.78    5.36
   7  -9  -5  121.69   16.38
   7  -9  -4    7.08    2.00
   7  -9  -3   23.94    3.05
   7  -9  -2  221.90   12.93
   7  -9  -2  239.76   13.55
   7  -9  -1   23.27    3.27
   7  -9  -1   20.94    8.43
   7  -9   0   45.47    4.12
   7  -9   0   39.90    4.37
   7  -9   1  264.18   13.64
   7  -9   1  227.98   11.24
  -7   8   8    4.07    3.70
   7  -8  -8    3.80    2.56
   7  -8  -7  172.79   11.37
   7  -8  -7  175.59   10.30
   7  -8  -6  191.04   12.37
   7  -8  -6  195.31   12.20
  -7   8   5   18.09    4.97
   7  -8  -5   22.67    3.31
  -7   8   4  131.16    9.95
   7  -8  -4  127.61    9.23
  -7   8   3   84.57    7.64
   7  -8  -3   97.46    7.49
  -7   8   2   37.63    8.71
   7  -8  -2   50.90    5.24
  -7   8   1  124.13    9.18
   7  -8  -1  122.10   10.18
  -7   8   0  174.78   12.94
   7  -8   0  160.70   11.38
  -7   8  -1   83.64   12.31
   7  -8   1  101.79    6.43
  -7   8  -2   12.81    4.40
   7  -8   2   16.55    5.71
  -7   8  -3   82.11   13.54
   7  -8   3   99.09    9.30
  -7   8  -4  211.23   18.91
   7  -8   4  239.42   11.69
  -7   7   9    3.36    2.55
   7  -7  -9    3.55    2.81
  -7   7   8   72.13   18.48
   7  -7  -8   77.13    5.17
  -7   7   7  180.87   11.51
   7  -7  -7  176.18    8.58
  -7   7   6    2.28    1.68
   7  -7  -6    4.32    3.14
   7  -7  -6    6.24    2.74
  -7   7   5  118.80    6.95
   7  -7  -5  146.80    8.36
   7  -7  -5  144.68    7.42
  -7   7   4  182.19   14.98
   7  -7  -4  220.42   22.53
   7  -7  -4  192.28   13.30
  -7   7   3   37.92    7.93
   7  -7  -3   44.07    4.44
  -7   7   2   31.00    3.51
   7  -7  -2   16.01    3.41
  -7   7   1  354.07   16.14
   7  -7  -1  365.72   16.83
  -7   7   0   82.41   10.24
   7  -7   0  101.25    8.81
  -7   7  -1    1.73    1.73
   7  -7   1    1.17    1.85
  -7   7  -2  359.39   20.69
   7  -7   2  361.84   19.99
  -7   7  -3   89.65   11.67
   7  -7   3  100.34    8.05
  -7   7  -4    5.32    4.07
   7  -7   4    6.98    3.46
  -7   7  -5  287.27   17.11
   7  -7   5  329.18   18.32
  -7   6  11  104.31   13.47
   7  -6 -11  127.33    9.08
  -7   6  10    5.15    2.85
   7  -6 -10   10.22    3.27
  -7   6   9  102.96   10.32
   7  -6  -9  147.08   10.38
  -7   6   8  167.12   14.75
   7  -6  -8  199.70    9.73
  -7   6   7    1.02    1.19
  -7   6   7    2.71    2.52
   7  -6  -7    3.80    2.66
  -7   6   6  107.59    9.44
   7  -6  -6  123.46    7.93
  -7   6   5  394.51   17.18
   7  -6  -5  468.10   20.71
   7  -6  -5  420.03   18.32
  -7   6   4   98.66    5.56
   7  -6  -4  115.15    5.97
   7  -6  -4   94.43    5.91
  -7   6   3   30.58    8.08
   7  -6  -3   28.72    3.24
   7  -6  -3   30.75    2.32
  -7   6   2  622.84   20.29
   7  -6  -2  658.20   22.09
  -7   6   1  234.23   14.44
   7  -6  -1  233.80   12.00
  -7   6   0   42.34   12.75
   7  -6   0   48.89    3.86
  -7   6  -1  332.85   16.15
   7  -6   1  341.13   17.07
  -7   6  -2  184.73   11.15
   7  -6   2  197.57   11.26
  -7   6  -3   82.34   12.01
   7  -6   3   88.82    5.05
  -7   6  -4   62.30   12.45
   7  -6   4   56.38    6.35
  -7   6  -5  151.68    7.83
   7  -6   5  174.28    8.88
  -7   6  -6   14.79    3.77
   7  -6   6   14.92    3.83
  -7   5  11    3.42    1.79
   7  -5 -11   -0.44    2.13
  -7   5  10  127.92   16.68
   7  -5 -10  158.03   11.37
  -7   5   9  102.18   11.27
   7  -5  -9  131.67    7.97
  -7   5   8    0.96    1.69
  -7   5   8    0.57    2.09
   7  -5  -8    0.65    2.39
  -7   5   7  175.08    9.54
  -7   5   7  187.09   11.95
   7  -5  -7  201.58   11.46
  -7   5   6  720.65   23.34
  -7   5   6  717.03   30.56
   7  -5  -6  721.06   23.51
  -7   5   5  270.57   12.34
   7  -5  -5  274.72   12.30
   7  -5  -5  284.24   11.81
  -7   5   4  261.13   11.43
   7  -5  -4  267.75   12.05
   7  -5  -4  273.52   11.12
  -7   5   3  328.17   15.50
   7  -5  -3  339.02   16.64
   7  -5  -3  336.96   15.45
  -7   5   2   61.47    6.03
   7  -5  -2   81.67    6.78
   7  -5  -2   62.00    3.62
  -7   5   1   56.92   10.79
   7  -5  -1   51.23    4.23
   7  -5  -1   42.67    3.84
  -7   5   0  232.30   14.94
   7  -5   0  251.66   11.28
  -7   5  -1  314.23   16.17
   7  -5   1  306.20   13.07
  -7   5  -2    6.60    2.28
   7  -5   2    5.23    4.80
  -7   5  -3  155.39   14.91
   7  -5   3  174.22   14.98
  -7   5  -4  320.12   19.73
   7  -5   4  353.97   16.75
  -7   5  -5   17.24    5.61
   7  -5   5   12.57    2.72
  -7   5  -6  173.60    9.32
   7  -5   6  182.00    9.41
  -7   5  -7  204.03   12.69
   7  -5   7  197.18   12.52
  -7   4  12    8.20    3.31
   7  -4 -12   10.60    4.19
  -7   4  11  104.78   12.18
   7  -4 -11  106.00    6.55
  -7   4  10  207.06   17.68
   7  -4 -10  203.69   10.35
  -7   4   9    2.44    2.21
  -7   4   9    4.37    2.21
   7  -4  -9    8.98    4.57
  -7   4   8  289.34   13.32
  -7   4   8  241.79   16.72
   7  -4  -8  285.15   14.79
  -7   4   7  427.84   16.16
  -7   4   7  469.03   20.22
   7  -4  -7  503.10   18.72
  -7   4   6  185.26   11.38
  -7   4   6  197.03   14.96
   7  -4  -6  224.59   11.58
  -7   4   5   66.14    3.90
   7  -4  -5   71.75    4.19
  -7   4   4  291.40   12.97
   7  -4  -4  304.67   14.17
   7  -4  -4  306.89   13.17
  -7   4   3   74.48    8.97
   7  -4  -3   77.56    5.74
   7  -4  -3   61.59    4.30
  -7   4   2   36.91    5.34
   7  -4  -2   33.05    4.03
   7  -4  -2   27.37    6.84
  -7   4   1  964.35   33.57
   7  -4  -1  989.73   33.48
   7  -4  -1 1037.41   34.31
  -7   4   0  284.03   18.39
   7  -4   0  370.72   16.32
   7  -4   0  323.71   13.10
  -7   4  -1    2.37    2.51
   7  -4   1    2.58    2.14
   7  -4   1    4.77    1.14
  -7   4  -2  453.24   19.60
   7  -4   2  431.49   18.76
  -7   4  -3  281.28   15.42
   7  -4   3  269.73   13.76
  -7   4  -4   67.01    8.25
   7  -4   4   70.11    6.05
  -7   4  -5  118.26   14.27
   7  -4   5  121.11   15.80
  -7   4  -6  586.54   27.38
   7  -4   6  623.31   24.43
  -7   4  -7   34.02   10.57
   7  -4   7   42.47    5.56
  -7   4  -8   23.69   11.05
   7  -4   8   34.27    4.52
  -7   3  13    3.63    3.30
   7  -3 -13    4.16    2.28
  -7   3  12  233.32   17.80
   7  -3 -12  265.61   18.39
  -7   3  11  172.75   21.30
   7  -3 -11  173.76   12.46
  -7   3  10   63.30    5.16
  -7   3  10   75.79   13.46
   7  -3 -10   61.04    6.69
  -7   3   9  165.77    9.11
  -7   3   9  160.91   10.94
   7  -3  -9  176.01   11.79
  -7   3   8  600.88   21.19
  -7   3   8  605.37   22.13
   7  -3  -8  615.30   22.32
  -7   3   7  193.89    9.98
  -7   3   7  179.82   11.97
   7  -3  -7  177.83    9.82
  -7   3   6   94.57    4.93
  -7   3   6   90.80   16.50
   7  -3  -6   98.92    5.46
  -7   3   5  207.72   10.07
  -7   3   5  166.99   16.04
   7  -3  -5  208.63   10.04
  -7   3   4   71.75    5.22
   7  -3  -4   76.64    5.47
   7  -3  -4   89.15    5.64
  -7   3   3  317.44   14.67
   7  -3  -3  318.17   15.09
   7  -3  -3  329.51   14.59
  -7   3   2  790.07   21.19
   7  -3  -2  738.58   20.05
   7  -3  -2  781.25   21.39
  -7   3   1  250.78   14.38
   7  -3  -1  205.72   11.84
   7  -3  -1  249.86   11.23
  -7   3   0    2.33    2.05
   7  -3   0    7.83    3.90
   7  -3   0    4.98    2.39
  -7   3  -1  503.19   26.58
   7  -3   1  476.10   14.34
   7  -3   1  554.45   19.93
  -7   3  -2 1068.82   35.85
   7  -3   2  966.98   34.64
   7  -3   2 1038.42   30.54
  -7   3  -3   56.36    5.18
   7  -3   3   60.19    5.11
  -7   3  -4  306.23   17.37
   7  -3   4  322.43   16.03
  -7   3  -5  156.22   14.02
   7  -3   5  140.71   14.89
  -7   3  -6  160.01   17.37
   7  -3   6  168.98    9.16
  -7   3  -7   51.09    7.62
   7  -3   7   49.69    4.99
  -7   3  -8  188.63   10.34
   7  -3   8  209.32   11.36
  -7   2  13  147.63   12.12
   7  -2 -13  157.79   10.65
  -7   2  12  259.72   21.26
   7  -2 -12  259.18   16.28
  -7   2  11    1.10    1.95
  -7   2  11    7.50    2.33
   7  -2 -11    4.80    2.63
  -7   2  10  112.39   12.62
  -7   2  10  114.33   11.86
   7  -2 -10  127.74   10.13
  -7   2   9  677.08   26.35
  -7   2   9  702.24   31.31
   7  -2  -9  735.41   24.07
  -7   2   8   10.23    3.81
  -7   2   8    3.51    2.17
   7  -2  -8   16.11    3.54
  -7   2   7   54.69    3.88
  -7   2   7   63.43    6.10
   7  -2  -7   70.82    5.06
  -7   2   6  288.29   12.72
  -7   2   6  296.76   13.49
   7  -2  -6  306.04   13.76
  -7   2   5   61.79    4.69
  -7   2   5   89.43   17.60
   7  -2  -5   79.76    5.62
  -7   2   4   56.24    7.54
   7  -2  -4   70.67    7.68
   7  -2  -4   69.65    5.19
  -7   2   3  726.00   19.57
   7  -2  -3  744.81   19.91
   7  -2  -3  771.81   19.90
  -7   2   2  950.93   24.35
   7  -2  -2  935.99   24.19
   7  -2  -2  937.52   23.21
  -7   2   1    5.08    2.38
   7  -2  -1    3.09    2.38
   7  -2  -1    1.23    1.80
  -7   2   0  343.26   15.64
   7  -2   0  340.64   15.42
   7  -2   0  322.10   14.28
  -7   2  -1  775.58   32.48
   7  -2   1  790.92   27.43
   7  -2   1  778.12   26.16
  -7   2  -2   51.63    8.03
   7  -2   2   58.64    7.33
   7  -2   2   48.27    2.84
  -7   2  -3  237.89   12.02
   7  -2   3  247.46   11.49
   7  -2   3  245.37    9.92
  -7   2  -4  887.20   32.93
   7  -2   4  894.58   28.34
   7  -2   4  838.94   24.95
  -7   2  -5   89.58    6.52
   7  -2   5   74.25    6.09
  -7   2  -6   12.27    5.38
   7  -2   6   11.47    4.26
  -7   2  -7  340.20   28.87
   7  -2   7  370.77   22.07
  -7   2  -8  163.21   15.17
   7  -2   8  175.40   11.26
  -7   1  13   94.90    8.07
   7  -1 -13   89.55    7.38
  -7   1  12   20.12    4.80
   7  -1 -12   15.77    2.70
  -7   1  11  163.23    8.34
  -7   1  11  172.85   20.70
   7  -1 -11  181.32   10.53
  -7   1  10  193.96   13.75
  -7   1  10  192.18   16.61
   7  -1 -10  209.76   15.76
  -7   1   9   48.93    4.09
  -7   1   9   43.62   10.96
   7  -1  -9   54.48    4.93
  -7   1   8  120.54    6.14
  -7   1   8  119.20    8.41
   7  -1  -8  129.22    7.53
  -7   1   7  389.65   18.20
  -7   1   7  320.79   22.11
   7  -1  -7  374.55   17.74
  -7   1   6  222.44   10.96
  -7   1   6  224.07   12.55
   7  -1  -6  207.14   10.19
  -7   1   5   27.14    3.49
  -7   1   5   27.35    7.43
   7  -1  -5   29.32    5.40
  -7   1   4 1907.81   47.74
   7  -1  -4 2017.67   49.11
   7  -1  -4 1933.42   49.44
  -7   1   3 1262.63   31.19
   7  -1  -3 1303.76   31.83
   7  -1  -3 1264.34   30.55
  -7   1   2  198.85   10.12
   7  -1  -2  188.28   10.36
   7  -1  -2  177.91    8.95
  -7   1   1  582.06   24.97
   7  -1  -1  550.28   23.61
   7  -1  -1  608.90   26.57
  -7   1   0  632.94   17.73
   7  -1   0  596.42   26.48
   7  -1   0  648.04   16.95
  -7   1  -1   18.88    3.59
   7  -1   1   18.80    3.64
   7  -1   1    4.89    1.84
  -7   1  -2  236.48   17.58
   7  -1   2  243.51   12.87
   7  -1   2  215.57   10.56
  -7   1  -3  577.11   25.36
   7  -1   3  558.95   20.47
   7  -1   3  563.97   20.64
  -7   1  -4  129.42   12.30
   7  -1   4  137.24    6.05
   7  -1   4  166.08    8.20
  -7   1  -5  157.79   13.44
   7  -1   5  186.87   11.24
   7  -1   5  143.21    8.47
  -7   1  -6  488.79   29.26
   7  -1   6  473.44   25.68
  -7   1  -7  203.30   19.33
   7  -1   7  212.26   13.51
  -7   1  -8    0.34    1.71
   7  -1   8    4.87    3.23
  -7   0  13    9.70    3.54
   7   0 -13    8.52    3.59
  -7   0  12   84.13    7.83
  -7   0  12   86.66    6.75
   7   0 -12  107.11    7.29
  -7   0  11  164.15    8.98
  -7   0  11  165.50   14.09
   7   0 -11  167.31    9.88
  -7   0  10  102.90    8.16
  -7   0  10   70.44   13.95
   7   0 -10   73.27    6.75
  -7   0   9   51.03    4.07
  -7   0   9   47.37    9.58
   7   0  -9   50.01    4.46
  -7   0   8  962.42   33.60
  -7   0   8  886.76   30.56
   7   0  -8  897.46   31.20
  -7   0   7  372.74   21.50
  -7   0   7  362.74   21.54
   7   0  -7  393.60   18.98
  -7   0   6  197.12   10.39
  -7   0   6  187.14    9.39
   7   0  -6  184.47   16.12
  -7   0   5  724.72   25.48
   7   0  -5  801.57   28.11
  -7   0   4 1104.48   27.88
   7   0  -4 1119.20   27.69
   7   0  -4 1154.62   29.26
  -7   0   3   35.42    4.00
   7   0  -3   37.78    3.72
   7   0  -3   51.04    4.48
  -7   0   2  491.54   25.88
   7   0  -2  506.64   22.10
   7   0  -2  476.71   20.93
  -7   0   1  936.68   24.42
   7   0  -1  967.10   24.44
   7   0  -1  957.88   25.23
  -7   0   0  174.93    8.90
   7   0   0  191.64    9.49
   7   0   0  168.04    8.70
  -7   0  -1  205.10   10.52
   7   0   1  184.88    8.97
   7   0   1  181.19    8.39
  -7   0  -2  926.08   29.20
   7   0   2  909.91   28.66
   7   0   2  931.23   28.48
  -7   0  -3   83.08    5.46
   7   0   3   66.14    4.76
   7   0   3   70.15   10.40
  -7   0  -4   41.08    8.04
   7   0   4   36.25    4.22
   7   0   4   40.68    5.56
  -7   0  -5  391.08   29.12
   7   0   5  347.99   19.40
   7   0   5  357.07   18.78
  -7   0  -6  295.04   14.56
   7   0   6  294.88   13.30
   7   0   6  282.35   13.17
  -7   0  -7    2.35    1.49
   7   0   7   13.98    3.79
  -7   0  -8   53.91   14.46
   7   0   8   90.04    7.64
  -7  -1  13   31.14   12.19
  -7  -1  13   39.42    8.81
   7   1 -13   51.91    6.43
  -7  -1  12  338.88   22.43
  -7  -1  12  360.86   22.09
   7   1 -12  366.88   20.29
  -7  -1  11   25.81    8.45
  -7  -1  11   23.21    9.05
   7   1 -11   36.69    5.29
  -7  -1  10  237.28   11.85
  -7  -1  10  231.81   10.23
   7   1 -10  258.37   13.33
  -7  -1   9  429.46   19.43
  -7  -1   9  399.71   18.74
   7   1  -9  432.02   19.58
  -7  -1   8  521.94   18.46
  -7  -1   8  523.45   21.61
   7   1  -8  548.50   18.96
  -7  -1   7   36.14    5.05
  -7  -1   7   29.29    9.42
   7   1  -7   27.61    9.25
  -7  -1   6  652.36   21.89
  -7  -1   6  598.70   24.33
   7   1  -6  586.54   19.92
  -7  -1   5  405.12   17.83
   7   1  -5  410.54   17.47
   7   1  -5  389.59   17.01
  -7  -1   4   19.64    3.25
   7   1  -4   17.16    2.68
   7   1  -4   26.88    4.05
  -7  -1   3  517.79   18.82
   7   1  -3  538.05   20.71
   7   1  -3  555.13   20.16
  -7  -1   2  899.28   30.79
   7   1  -2  800.36   28.96
   7   1  -2  792.47   29.59
  -7  -1   1    8.83    3.82
   7   1  -1    5.67    1.88
   7   1  -1    9.25    3.45
  -7  -1   0  789.78   27.53
   7   1   0  773.75   24.38
   7   1   0  796.30   26.70
  -7  -1  -1  523.72   18.10
   7   1   1  555.92   18.56
   7   1   1  548.10   20.06
  -7  -1  -2  844.04   29.31
   7   1   2  813.23   28.39
   7   1   2  827.63   28.35
  -7  -1  -3   78.18    4.89
   7   1   3   63.21    4.96
   7   1   3   57.06    6.24
  -7  -1  -4  570.09   24.39
   7   1   4  535.51   23.03
   7   1   4  560.73   23.81
  -7  -1  -5  233.64   20.29
   7   1   5  242.90   16.45
   7   1   5  232.47   15.56
  -7  -1  -6    1.64    2.04
   7   1   6    1.67    1.87
   7   1   6    3.53    2.67
  -7  -1  -7   94.42   11.91
   7   1   7  128.41   11.62
   7   1   7  114.72   12.04
  -7  -2  12  152.41   13.85
  -7  -2  12  133.41   15.15
   7   2 -12  175.88   11.96
  -7  -2  11   79.35    6.01
  -7  -2  11   70.65    8.21
   7   2 -11   71.53    8.45
  -7  -2  10  508.44   27.63
  -7  -2  10  443.73   25.36
   7   2 -10  492.90   28.69
  -7  -2   9  125.67    9.85
  -7  -2   9  163.17   13.46
   7   2  -9  153.94   12.06
  -7  -2   8    9.26    3.77
  -7  -2   8   14.26    5.54
   7   2  -8    3.66    2.76
  -7  -2   7 1110.35   34.09
  -7  -2   7 1094.54   32.94
   7   2  -7 1048.46   32.94
  -7  -2   6  506.53   19.05
  -7  -2   6  458.72   22.14
   7   2  -6  454.84   17.58
  -7  -2   5   24.54    3.64
   7   2  -5   23.87    5.81
   7   2  -5   17.72    3.24
  -7  -2   4  397.16   18.97
   7   2  -4  381.16   17.58
   7   2  -4  403.41   15.62
  -7  -2   3  467.37   16.59
   7   2  -3  459.18   15.19
   7   2  -3  469.95   18.90
  -7  -2   2  181.83   10.08
   7   2  -2  197.15   10.01
   7   2  -2  182.47    9.90
  -7  -2   1  464.42   21.20
   7   2  -1  471.94   15.85
   7   2  -1  487.31   16.78
  -7  -2   0 1091.77   37.40
   7   2   0 1010.94   34.49
   7   2   0 1104.66   39.08
  -7  -2  -1   51.41    5.15
   7   2   1   54.46    4.14
   7   2   1   69.28    8.41
  -7  -2  -2   37.07    3.67
   7   2   2   41.03    4.02
   7   2   2   42.08    3.41
  -7  -2  -3  418.44   18.49
   7   2   3  407.28   18.54
   7   2   3  412.00   19.19
  -7  -2  -4  148.13    8.43
   7   2   4  128.06   11.02
   7   2   4  134.05    7.10
  -7  -2  -5    9.48    2.95
   7   2   5    4.14    2.44
   7   2   5    2.32    1.34
  -7  -2  -6   26.86   10.06
   7   2   6   47.22    4.84
   7   2   6   48.26   12.08
  -7  -2  -7   88.86    9.03
   7   2   7  105.23   12.78
  -7  -3  11  478.38   25.98
  -7  -3  11  520.15   12.07
   7   3 -11  526.99   18.88
  -7  -3  10  315.92   19.72
  -7  -3  10  296.14   19.96
   7   3 -10  362.39   21.74
  -7  -3   9   86.99    6.51
  -7  -3   9   85.59    8.83
   7   3  -9   81.26   12.92
  -7  -3   8  252.74   12.63
  -7  -3   8  262.91   16.80
   7   3  -8  265.77   13.17
  -7  -3   7  180.75   10.91
  -7  -3   7  168.81   11.54
   7   3  -7  188.81   11.02
  -7  -3   6    2.80    2.91
   7   3  -6    2.00    2.22
   7   3  -6    2.69    2.59
  -7  -3   5  558.69   26.93
   7   3  -5  593.36   18.84
   7   3  -5  577.61   20.32
  -7  -3   4 1164.53   35.73
   7   3  -4 1158.61   34.52
   7   3  -4 1130.79   35.55
  -7  -3   3   10.82    3.67
   7   3  -3    9.74    2.05
   7   3  -3    9.66    3.24
  -7  -3   2   32.71    7.87
   7   3  -2   36.69    4.15
   7   3  -2   37.22    3.64
  -7  -3   1  456.60   16.66
   7   3  -1  483.67   15.66
   7   3  -1  498.26   17.18
  -7  -3   0  123.97    5.77
   7   3   0  119.97    4.50
   7   3   0  106.47    5.48
  -7  -3  -1   26.64    3.60
   7   3   1   35.70    3.08
   7   3   1   38.79    8.49
  -7  -3  -2  271.15   13.46
   7   3   2  248.69   11.99
   7   3   2  267.94   13.33
  -7  -3  -3  155.19    8.22
   7   3   3  145.57    8.71
   7   3   3  155.23    9.00
  -7  -3  -4   16.68    2.96
   7   3   4   23.14    3.51
  -7  -3  -5  166.91    8.81
   7   3   5  160.58    7.83
   7   3   5  139.78    7.28
  -7  -3  -6  142.69    8.30
   7   3   6  148.92    8.81
   7   3   6  140.40    7.59
  -7  -4  10   19.82    3.48
   7   4 -10   22.49    3.59
  -7  -4   9  356.43   21.73
   7   4  -9  387.94   23.28
  -7  -4   8  171.83   12.43
   7   4  -8  209.62   10.56
  -7  -4   7    4.82    2.84
   7   4  -7    0.28    1.13
   7   4  -7    1.32    2.50
  -7  -4   6  344.34   17.10
   7   4  -6  361.12   15.56
   7   4  -6  374.42   17.93
  -7  -4   5  708.93   30.47
   7   4  -5  646.72   26.43
   7   4  -5  630.25   27.18
  -7  -4   4  151.50   13.94
   7   4  -4  181.25   12.61
   7   4  -4  149.77   11.52
  -7  -4   3  154.23    9.40
   7   4  -3  157.58    8.28
   7   4  -3  161.90   11.39
  -7  -4   2  195.45   14.69
   7   4  -2  163.55   12.16
   7   4  -2  168.01   12.61
  -7  -4   1  206.25   20.58
   7   4  -1  206.01   14.03
   7   4  -1  212.80   15.30
  -7  -4   0   11.35    3.16
   7   4   0   16.94    4.59
   7   4   0   21.46    3.57
  -7  -4  -1  354.14   19.67
   7   4   1  365.31   20.77
  -7  -4  -2   90.27    9.17
   7   4   2   81.48    6.62
  -7  -4  -3    3.27    2.00
   7   4   3    5.37    4.79
  -7  -4  -4  173.72   10.39
   7   4   4  175.45   10.68
  -7  -4  -5  157.04    8.16
   7   4   5  150.62    9.44
  -7  -5   9  236.57   12.54
   7   5  -9  201.05   11.15
  -7  -5   8   11.18    3.37
   7   5  -8    2.82    5.30
  -7  -5   7  207.40   13.61
   7   5  -7  260.10   16.51
  -7  -5   6  418.19   24.77
   7   5  -6  391.37   23.10
  -7  -5   5    6.40    2.76
   7   5  -5    8.32    2.79
  -7  -5   4   63.07    6.17
   7   5  -4   76.68    8.65
  -7  -5   3  414.41   17.26
   7   5  -3  404.48   20.40
  -7  -5   2  125.68    9.30
   7   5  -2  143.44   10.27
  -7  -5   1   31.13    3.91
   7   5  -1   40.06    4.81
  -7  -5   0  186.88   10.66
   7   5   0  165.38   10.07
  -7  -5  -1  226.00   20.82
   7   5   1  205.72   16.33
  -7  -5  -2   30.41    4.45
   7   5   2   15.49    3.37
  -7  -5  -3  116.49    8.14
   7   5   3  118.39    9.27
  -7  -6   7  181.18   10.48
   7   6  -7  177.73   10.49
  -7  -6   6   32.16    6.56
   7   6  -6   38.28    4.11
  -7  -6   5   45.73    4.76
   7   6  -5   39.44    4.47
  -7  -6   4  212.95   12.98
   7   6  -4  214.32   12.76
  -7  -6   3   30.50    7.08
   7   6  -3   26.88    3.47
  -7  -6   2   69.08    7.31
   7   6  -2   75.38    7.73
  -7  -6   1  282.17   16.11
   7   6  -1  297.94   17.39
  -7  -6   0  289.57   13.67
   7   6   0  279.24   13.55
   8  -8  -6   50.68    4.81
  -8   8   5    5.40    2.78
   8  -8  -5   12.00    2.79
  -8   8   4  138.94   12.70
   8  -8  -4  111.20   14.13
  -8   8   3   70.14   12.69
   8  -8  -3   85.74    8.43
  -8   8   2   35.39   11.80
   8  -8  -2   57.11    4.44
  -8   8   1  158.49   15.80
   8  -8  -1  144.84   12.65
  -8   8   0   31.60   10.27
   8  -8   0   34.65   10.56
  -8   8  -1    2.45    2.90
   8  -8   1    8.09    3.56
   8  -7  -8  188.41   10.06
   8  -7  -7  109.87   12.04
   8  -7  -7  113.91   11.10
  -8   7   6   68.61    5.71
   8  -7  -6   77.24    5.52
   8  -7  -6   66.40    7.42
  -8   7   5   62.62    5.08
   8  -7  -5   57.41    5.60
  -8   7   4   25.10    8.16
   8  -7  -4   28.46    4.17
  -8   7   3   19.28    5.52
   8  -7  -3   17.87    3.23
  -8   7   2  264.41   12.08
   8  -7  -2  233.88   11.34
  -8   7   1  188.08   11.35
   8  -7  -1  207.41   11.26
  -8   7   0    3.74    3.21
   8  -7   0   11.63    4.00
  -8   7  -1   67.83   18.83
   8  -7   1   68.92    8.55
  -8   7  -2  216.55   16.28
   8  -7   2  229.45   13.93
  -8   7  -3   37.78    9.78
   8  -7   3   32.89    3.49
  -8   6   9  174.35   11.76
   8  -6  -9  179.75   13.22
  -8   6   8    8.29    5.55
   8  -6  -8   21.56    3.69
  -8   6   7    3.43    2.45
   8  -6  -7    4.70    3.30
   8  -6  -7   -0.02    1.89
  -8   6   6  430.42   17.66
   8  -6  -6  444.58   19.70
   8  -6  -6  423.42   16.85
  -8   6   5    0.34    1.66
   8  -6  -5   12.26    4.34
   8  -6  -5    5.55    2.28
  -8   6   4   18.21    8.93
   8  -6  -4   31.55    4.07
   8  -6  -4   27.92    2.82
  -8   6   3  269.96   16.90
   8  -6  -3  251.37   16.56
  -8   6   2  400.44   18.89
   8  -6  -2  452.96   20.46
  -8   6   1   23.68    7.91
   8  -6  -1   25.52    3.59
  -8   6   0  294.78   18.38
   8  -6   0  314.90   19.22
  -8   6  -1  304.68   13.33
   8  -6   1  315.18   13.75
  -8   6  -2   10.08    4.15
   8  -6   2    8.26    2.99
  -8   6  -3   55.24   14.18
   8  -6   3   64.08    5.11
  -8   6  -4  213.85   25.18
   8  -6   4  301.79   17.15
  -8   6  -5   10.51    4.40
   8  -6   5   22.70    3.78
  -8   5  10  181.30   16.53
   8  -5 -10  171.50   10.92
  -8   5   9   25.70   10.91
   8  -5  -9   36.51    4.22
  -8   5   8  120.91    8.68
  -8   5   8  106.05   13.04
   8  -5  -8  132.79    9.40
  -8   5   7   22.43    6.81
  -8   5   7   29.40    9.31
   8  -5  -7   29.93    3.32
  -8   5   6  199.44   17.12
   8  -5  -6  198.17   17.66
   8  -5  -6  244.53   12.00
  -8   5   5   42.88   11.09
   8  -5  -5   52.81    5.59
   8  -5  -5   50.80    4.78
  -8   5   4  700.03   33.91
   8  -5  -4  670.23   29.24
   8  -5  -4  688.48   28.34
  -8   5   3  344.09   21.56
   8  -5  -3  427.74   19.43
   8  -5  -3  371.10   16.85
  -8   5   2    2.41    2.83
   8  -5  -2   12.05    4.24
   8  -5  -2   11.89    3.40
  -8   5   1  115.52   14.92
   8  -5  -1  128.87    8.32
  -8   5   0  396.74   20.30
   8  -5   0  418.28   19.01
  -8   5  -1   27.84    5.95
   8  -5   1   30.32   10.39
  -8   5  -2   78.13   15.82
   8  -5   2   94.45    6.41
  -8   5  -3  124.28   14.79
   8  -5   3  141.88   10.79
  -8   5  -4  149.01   14.03
   8  -5   4  157.29    8.49
  -8   5  -5   20.65    7.15
   8  -5   5   36.42    4.15
  -8   4  11  111.30   11.78
   8  -4 -11  122.34    8.69
  -8   4  10   64.11   15.96
   8  -4 -10   72.38    5.21
  -8   4   9   55.04    8.68
  -8   4   9   58.00   17.10
   8  -4  -9   64.13    6.63
  -8   4   8  321.86   17.70
  -8   4   8  293.84   23.78
   8  -4  -8  314.51   17.84
  -8   4   7  100.02    8.97
  -8   4   7   98.42   11.57
   8  -4  -7  124.13    9.79
  -8   4   6    8.98    4.24
   8  -4  -6    9.57    3.55
   8  -4  -6    6.07    3.10
  -8   4   5  351.92   21.40
   8  -4  -5  405.21   15.45
   8  -4  -5  387.49   13.66
  -8   4   4  323.28   15.51
   8  -4  -4  353.07   17.38
   8  -4  -4  317.89   14.91
  -8   4   3   14.04    4.12
   8  -4  -3    8.63    2.85
   8  -4  -3   10.91    2.90
  -8   4   2  157.31    9.81
   8  -4  -2  153.41    9.18
   8  -4  -2  165.26   10.10
  -8   4   1  313.81   16.00
   8  -4  -1  319.00   15.72
   8  -4  -1  320.74   14.49
  -8   4   0  122.68   13.57
   8  -4   0  126.96    9.01
  -8   4  -1  296.24   20.59
   8  -4   1  314.67   16.82
  -8   4  -2  476.35   25.54
   8  -4   2  584.32   25.36
  -8   4  -3   60.86   13.58
   8  -4   3   70.09    6.98
  -8   4  -4    2.83    3.02
   8  -4   4    4.08    2.54
  -8   4  -5  329.72   20.72
   8  -4   5  285.87   18.96
  -8   4  -6  226.66   23.68
   8  -4   6  230.56   12.93
  -8   3  12  213.45   15.07
   8  -3 -12  226.81   11.94
  -8   3  11   14.78    4.69
   8  -3 -11   17.71    3.73
  -8   3  10   59.04    4.97
  -8   3  10   47.21   12.68
   8  -3 -10   58.93    5.79
  -8   3   9  316.10   17.38
  -8   3   9  302.06   19.02
   8  -3  -9  298.66   17.11
  -8   3   8  255.85   12.00
  -8   3   8  248.75   17.72
   8  -3  -8  275.45   13.49
  -8   3   7    5.34    2.78
  -8   3   7   10.27    4.13
   8  -3  -7    0.26    2.40
  -8   3   6  508.09   17.24
   8  -3  -6  530.77   18.31
  -8   3   5  537.29   18.13
   8  -3  -5  552.78   19.13
   8  -3  -5  497.82   18.70
  -8   3   4   21.20    5.99
   8  -3  -4   20.68    3.17
   8  -3  -4   12.64    5.53
  -8   3   3  230.39   14.00
   8  -3  -3  238.96   13.50
   8  -3  -3  228.48   12.54
  -8   3   2  435.71   21.14
   8  -3  -2  477.72   18.44
   8  -3  -2  479.63   17.23
  -8   3   1    3.33    2.59
   8  -3  -1    2.51    2.27
   8  -3  -1    9.82    2.70
  -8   3   0  128.31   21.61
   8  -3   0  134.97    6.25
   8  -3   0  132.29    4.61
  -8   3  -1  467.07   23.44
   8  -3   1  491.16   22.15
   8  -3   1  443.18   18.55
  -8   3  -2  303.39   15.12
   8  -3   2  299.48   14.55
  -8   3  -3  140.75   11.26
   8  -3   3  143.42   11.29
  -8   3  -4  372.79   17.06
   8  -3   4  351.06   15.04
  -8   3  -5  287.67   20.23
   8  -3   5  323.29   19.96
  -8   3  -6    2.29    2.47
   8  -3   6    2.48    3.48
  -8   2  12   44.46   10.44
   8  -2 -12   45.09    5.30
  -8   2  11   32.25    9.67
  -8   2  11   51.58    8.67
   8  -2 -11   40.65    4.84
  -8   2  10  323.45   13.40
  -8   2  10  340.92   19.67
   8  -2 -10  337.83   14.83
  -8   2   9  225.78   13.15
  -8   2   9  243.34   15.25
   8  -2  -9  254.85   15.42
  -8   2   8   40.39    4.21
  -8   2   8   36.22   12.71
   8  -2  -8   52.65    5.84
  -8   2   7  461.05   20.44
  -8   2   7  450.08   23.29
   8  -2  -7  473.09   21.00
  -8   2   6  191.10   10.03
   8  -2  -6  218.58   11.48
  -8   2   5    1.17    2.05
   8  -2  -5    8.08    3.85
   8  -2  -5    1.94    2.53
  -8   2   4  463.14   17.73
   8  -2  -4  482.04   18.54
   8  -2  -4  453.58   19.21
  -8   2   3  899.08   31.41
   8  -2  -3  919.52   32.46
   8  -2  -3  899.02   31.73
  -8   2   2  203.61   10.08
   8  -2  -2  188.43    9.55
   8  -2  -2  202.00    9.29
  -8   2   1  144.50    8.20
   8  -2  -1  150.90    7.87
   8  -2  -1  123.53   11.31
  -8   2   0  496.45   17.67
   8  -2   0  530.27   18.39
   8  -2   0  519.14   16.58
  -8   2  -1  289.87   14.72
   8  -2   1  280.26   18.03
   8  -2   1  313.74   14.74
  -8   2  -2   46.00   13.03
   8  -2   2   34.35    5.01
   8  -2   2   35.55    2.51
  -8   2  -3  407.30   22.28
   8  -2   3  435.80   20.17
  -8   2  -4  146.92   12.79
   8  -2   4  143.61    8.32
  -8   2  -5    1.67    2.58
   8  -2   5    8.77    2.92
  -8   2  -6   62.79    8.71
   8  -2   6   66.77   12.44
  -8   1  12   41.64   11.87
   8  -1 -12   44.89    5.18
  -8   1  11  260.14   16.00
  -8   1  11  211.95   19.45
   8  -1 -11  218.06   14.18
  -8   1  10  167.97   11.20
  -8   1  10  168.71   25.28
   8  -1 -10  201.81   10.26
  -8   1   9    3.24    3.04
  -8   1   9   12.05    3.78
   8  -1  -9    9.66    4.01
  -8   1   8  336.06   15.41
  -8   1   8  320.76   18.42
   8  -1  -8  363.29   18.90
  -8   1   7  236.92   13.18
  -8   1   7  222.68   12.88
   8  -1  -7  221.76   12.47
  -8   1   6    2.54    2.20
   8  -1  -6    6.37    2.44
   8  -1  -6    0.79    1.72
  -8   1   5  359.76   15.02
   8  -1  -5  377.71    9.05
   8  -1  -5  402.85   15.91
  -8   1   4  956.67   32.84
   8  -1  -4  974.79   33.45
   8  -1  -4  945.31   32.18
  -8   1   3  167.33    9.08
   8  -1  -3  156.16    8.13
   8  -1  -3  136.84    5.34
  -8   1   2  213.00   12.58
   8  -1  -2  192.37   15.82
   8  -1  -2  230.22   13.08
  -8   1   1 1338.99   16.83
   8  -1  -1 1293.60   43.41
   8  -1  -1 1309.29   43.19
  -8   1   0  126.30    6.40
   8  -1   0  104.11    5.54
   8  -1   0  114.50   10.08
  -8   1  -1    4.13    3.59
   8  -1   1    2.35    2.24
   8  -1   1    3.29    2.38
  -8   1  -2  509.72   25.50
   8  -1   2  512.72   22.44
   8  -1   2  508.71   21.80
  -8   1  -3  122.11   12.08
   8  -1   3  140.33   11.02
   8  -1   3  110.07   12.83
  -8   1  -4    0.30    2.09
   8  -1   4    4.08    3.05
  -8   1  -5  129.61   10.79
   8  -1   5  131.20    8.02
  -8   1  -6   56.30    5.40
   8  -1   6   53.46    4.44
  -8   0  12  329.34   15.31
  -8   0  12  296.21   21.10
   8   0 -12  332.59   16.16
  -8   0  11  110.26   10.02
  -8   0  11  106.49   11.13
   8   0 -11  100.54    9.65
  -8   0  10    8.21    3.02
  -8   0  10   11.19    3.95
   8   0 -10    6.25    2.79
  -8   0   9  285.36   16.43
  -8   0   9  245.15   24.92
   8   0  -9  266.33   16.12
  -8   0   8  651.03   27.57
  -8   0   8  634.57   30.61
   8   0  -8  674.98   29.29
  -8   0   7   17.07    3.48
   8   0  -7    8.83    3.84
  -8   0   6  483.82   16.89
   8   0  -6  518.62   18.31
   8   0  -6  464.61   17.19
  -8   0   5  747.81   24.19
   8   0  -5  735.51   23.79
   8   0  -5  778.85   25.44
  -8   0   4   75.75    5.52
   8   0  -4   85.26    5.32
   8   0  -4   73.93    4.90
  -8   0   3  290.99   15.86
   8   0  -3  288.81   13.37
   8   0  -3  292.48   12.80
  -8   0   2  327.37   14.18
   8   0  -2  362.99   15.18
   8   0  -2  323.67   13.68
  -8   0   1  161.16    9.38
   8   0  -1  171.66    9.47
   8   0  -1  177.52    9.51
  -8   0   0  146.68    6.97
   8   0   0  170.27    9.16
   8   0   0  173.05    9.53
  -8   0  -1  158.63    9.66
   8   0   1  165.73    9.85
   8   0   1  153.33   13.72
  -8   0  -2  409.68   19.22
   8   0   2  391.55   17.79
   8   0   2  406.51   17.85
  -8   0  -3    3.34    2.59
   8   0   3   12.35    3.04
   8   0   3    7.72    3.00
  -8   0  -4  142.85   17.44
   8   0   4  164.67   11.41
   8   0   4  142.70    9.44
  -8   0  -5  183.48   20.43
   8   0   5  164.16   14.12
   8   0   5  189.70    6.94
  -8   0  -6    0.86    2.20
   8   0   6    8.44    2.97
  -8  -1  11   16.24    3.26
  -8  -1  11    4.43    1.91
   8   1 -11    4.74    3.06
  -8  -1  10  305.40   18.63
  -8  -1  10  274.10   16.86
   8   1 -10  301.74   18.88
  -8  -1   9  375.51   16.04
  -8  -1   9  380.27   17.07
   8   1  -9  334.55   20.24
  -8  -1   8   12.11    3.91
  -8  -1   8    7.69    2.98
   8   1  -8   11.78    4.81
  -8  -1   7  282.15   13.55
  -8  -1   7  321.20   17.55
   8   1  -7  297.46   16.99
  -8  -1   6  619.35   27.27
   8   1  -6  655.50   30.80
   8   1  -6  651.03   27.86
  -8  -1   5   60.48    5.31
   8   1  -5   55.36    4.10
   8   1  -5   66.43    6.21
  -8  -1   4   32.14    3.52
   8   1  -4   35.24    3.22
   8   1  -4   32.73    3.68
  -8  -1   3  326.13   16.27
   8   1  -3  302.19   15.01
   8   1  -3  319.77   15.37
  -8  -1   2  129.77    8.44
   8   1  -2  127.31    5.39
   8   1  -2  123.63    5.69
  -8  -1   1   82.53   10.46
   8   1  -1   60.01    4.19
   8   1  -1   73.55    7.63
  -8  -1   0  456.39   20.23
   8   1   0  480.72   21.05
   8   1   0  484.19   21.47
  -8  -1  -1  161.61   12.02
   8   1   1  178.54   13.02
   8   1   1  215.79   15.60
  -8  -1  -2    3.72    3.05
   8   1   2    3.50    2.51
   8   1   2    3.03    2.68
  -8  -1  -3  123.96    9.11
   8   1   3  114.65    9.35
   8   1   3  110.89    8.46
  -8  -1  -4  192.10   19.05
   8   1   4  175.82   14.84
   8   1   4  225.79   13.87
  -8  -1  -5    3.97    1.90
   8   1   5    8.41    4.47
   8   1   5    6.47    2.51
  -8  -2  11  311.04   15.12
  -8  -2  11  342.84   17.52
   8   2 -11  335.11   16.91
  -8  -2  10  116.69   13.75
  -8  -2  10   90.44   13.51
   8   2 -10  100.37   13.19
  -8  -2   9   45.76    5.63
  -8  -2   9   38.43    8.53
   8   2  -9   51.01    6.51
  -8  -2   8  254.34   11.91
  -8  -2   8  263.29   14.30
   8   2  -8  283.82   13.63
  -8  -2   7  386.32   22.21
   8   2  -7  407.94   22.25
   8   2  -7  443.61   24.47
  -8  -2   6  149.60   11.84
   8   2  -6  150.94   11.04
   8   2  -6  150.13   11.67
  -8  -2   5  220.54   18.71
   8   2  -5  206.45   14.55
   8   2  -5  220.86   15.82
  -8  -2   4  248.13   17.71
   8   2  -4  241.72   12.76
   8   2  -4  219.33   12.41
  -8  -2   3  112.85    8.20
   8   2  -3  122.74    7.45
   8   2  -3  125.87    8.20
  -8  -2   2    8.06    3.35
   8   2  -2    6.30    2.52
   8   2  -2    4.20    3.46
  -8  -2   1  391.14   18.52
   8   2  -1  406.46   18.07
   8   2  -1  397.49   17.96
  -8  -2   0  247.01   12.80
   8   2   0  233.89   11.69
   8   2   0  245.91   12.51
  -8  -2  -1    7.54    2.37
   8   2   1    4.87    2.46
   8   2   1    3.60    2.04
  -8  -2  -2  250.96   11.77
   8   2   2  279.95   12.27
   8   2   2  273.92   11.87
  -8  -2  -3  289.16   17.97
   8   2   3  244.74   14.79
   8   2   3  261.75   17.25
  -8  -2  -4    0.37    2.36
   8   2   4    5.21    2.53
   8   2   4    0.79    1.75
  -8  -2  -5   86.63   15.34
   8   2   5  104.10    7.54
   8   2   5   91.65    6.67
  -8  -3  10   12.53    3.33
   8   3 -10    3.21    5.50
  -8  -3   9  196.60   12.16
  -8  -3   9  156.59   16.73
   8   3  -9  198.09   12.44
  -8  -3   8  349.43   20.94
   8   3  -8  337.25   19.70
   8   3  -8  383.14   22.89
  -8  -3   7   11.35    3.36
   8   3  -7    7.64    2.90
   8   3  -7    5.39    2.51
  -8  -3   6   69.97    6.65
   8   3  -6   70.18    5.61
   8   3  -6   68.33    9.50
  -8  -3   5  474.72   25.96
   8   3  -5  442.90   23.54
   8   3  -5  449.89   24.60
  -8  -3   4  239.04   14.49
   8   3  -4  271.24   15.07
   8   3  -4  251.72   15.12
  -8  -3   3   13.36    4.03
   8   3  -3    6.67    3.60
  -8  -3   2  305.10   17.60
   8   3  -2  301.79   16.57
   8   3  -2  314.71   19.01
  -8  -3   1  184.56   10.16
   8   3  -1  181.18    8.81
   8   3  -1  185.51    9.71
  -8  -3   0    1.34    1.98
   8   3   0    8.69    2.84
   8   3   0    4.26    2.09
  -8  -3  -1  225.77   14.38
   8   3   1  214.37   13.11
   8   3   1  208.09   13.26
  -8  -3  -2  112.55    6.96
   8   3   2  110.22    5.78
   8   3   2  130.92    8.59
  -8  -3  -3   20.16    3.15
   8   3   3   14.19    2.49
   8   3   3   18.77    3.88
  -8  -4   8   29.89    4.38
   8   4  -8   23.48   10.77
  -8  -4   7   41.20   14.30
   8   4  -7   52.59    7.47
  -8  -4   6  255.54   16.69
   8   4  -6  311.28   19.15
  -8  -4   5  189.95    7.80
   8   4  -5  193.49   12.77
  -8  -4   4   68.19    5.29
   8   4  -4   57.44    5.58
  -8  -4   3  378.78   25.38
   8   4  -3  368.26   21.96
  -8  -4   2  210.43   13.69
   8   4  -2  221.23   14.11
   8   4  -1   12.85    3.52
  -8  -4   0  170.02   10.77
   8   4   0  189.62   12.01
  -8  -4  -1  250.74   21.68
   8   4   1  292.14   16.39
  -8  -4  -2   11.96    3.64
   8   4   2    2.41    2.38
   8   5  -6   96.84    7.37
  -8  -5   5   21.34    3.64
   8   5  -5   28.12    3.83
  -8  -5   4  186.59   10.42
   8   5  -4  168.81    9.64
  -8  -5   3   92.52    7.43
   8   5  -3   91.28    8.68
  -8  -5   2   41.11    5.01
   8   5  -2   43.06    7.41
  -8  -5   1  297.47   14.81
   8   5  -1  298.42   14.45
  -9   7   5   58.25    9.05
   9  -7  -5   80.21    6.44
  -9   7   4    5.04    3.29
   9  -7  -4    5.95    2.09
  -9   7   3   91.17   12.75
   9  -7  -3  107.84    7.89
  -9   7   2  135.07    8.57
   9  -7  -2  140.16    8.47
  -9   7   1   17.94    7.40
   9  -7  -1   27.53    3.97
   9  -7   0   29.45   13.20
  -9   6   7  108.78    9.43
   9  -6  -7  122.25    8.60
   9  -6  -7  114.10    7.84
  -9   6   6  136.05   14.27
   9  -6  -6  148.84   13.24
   9  -6  -6  150.03   12.91
  -9   6   5    8.35    3.65
   9  -6  -5    3.48    2.32
  -9   6   4   72.58    9.67
   9  -6  -4   70.19    9.90
  -9   6   3  229.46   19.72
   9  -6  -3  227.08   14.53
  -9   6   2   48.18   12.62
   9  -6  -2   43.69    4.72
  -9   6   1   40.35    8.55
   9  -6  -1   35.24   15.89
  -9   6   0  401.15   22.67
   9  -6   0  376.28   20.67
  -9   6  -1   84.07   16.08
   9  -6   1   86.98    7.44
  -9   6  -2    0.32    2.22
   9  -6   2    6.73    3.37
  -9   5   9   11.06    4.65
   9  -5  -9    9.16    3.12
  -9   5   8  135.07   11.84
   9  -5  -8  165.03    7.85
   9  -5  -8  157.05   13.73
  -9   5   7  137.28   12.51
   9  -5  -7  140.10   14.73
   9  -5  -7  147.82   12.91
  -9   5   6   13.56    4.10
   9  -5  -6   18.89    3.85
  -9   5   5  116.59   14.51
   9  -5  -5  140.18   10.37
   9  -5  -5  139.69    9.51
  -9   5   4  314.04   13.60
   9  -5  -4  322.36   14.50
   9  -5  -4  291.18   13.07
  -9   5   3  122.44    9.37
   9  -5  -3   97.24    7.65
  -9   5   2  106.77    8.24
   9  -5  -2  110.07    8.70
  -9   5   1  295.80   13.16
   9  -5  -1  284.30   13.67
  -9   5   0   94.02   16.62
   9  -5   0   95.78    6.95
  -9   5  -1   31.44    8.85
   9  -5   1   47.85    5.23
  -9   5  -2  149.97   20.47
   9  -5   2  191.90   12.13
  -9   5  -3   88.49    9.72
   9  -5   3   93.87    7.32
  -9   4   9  138.70   13.31
  -9   4   9  152.41   20.69
   9  -4  -9  154.81   13.70
  -9   4   8  220.79   14.79
   9  -4  -8  261.41   16.24
  -9   4   7    1.41    2.10
   9  -4  -7    3.28    3.34
   9  -4  -7    7.48    2.73
  -9   4   6  144.15   12.33
   9  -4  -6  180.19    9.47
   9  -4  -6  156.81   12.03
  -9   4   5  584.53   31.60
   9  -4  -5  626.81   33.72
   9  -4  -5  531.02   28.52
  -9   4   4  106.00   21.30
   9  -4  -4  120.56    7.96
   9  -4  -4  108.17    6.42
  -9   4   3   58.19   11.34
   9  -4  -3   66.63    4.67
   9  -4  -3   58.92    3.64
  -9   4   2   91.22   11.13
   9  -4  -2   81.38    5.78
   9  -4  -2   97.34    5.49
  -9   4   1  151.86    9.62
   9  -4  -1  177.45    9.98
  -9   4   0    3.96    3.15
   9  -4   0    2.82    1.58
  -9   4  -1  285.71   19.21
   9  -4   1  303.23   18.65
  -9   4  -2  251.89   16.88
   9  -4   2  239.09   15.26
  -9   4  -3   15.08    6.31
   9  -4   3   25.60    3.47
   9  -4   4   33.53    4.22
  -9   3  10  263.56   14.02
   9  -3 -10  244.24   12.40
  -9   3   9  139.77   12.01
  -9   3   9  118.12   15.57
   9  -3  -9  162.77    7.63
   9  -3  -8   13.59    3.35
  -9   3   7  145.48   10.38
   9  -3  -7  160.81   12.10
   9  -3  -7  144.63   10.42
  -9   3   6  530.26   28.54
   9  -3  -6  504.94   27.43
   9  -3  -6  499.96   28.05
  -9   3   5   67.76    8.05
   9  -3  -5   74.11    5.78
   9  -3  -5   79.85    5.20
  -9   3   4   49.40   12.29
   9  -3  -4   49.65    5.52
   9  -3  -4   50.98    9.01
  -9   3   3  493.93   21.64
   9  -3  -3  574.15   25.09
   9  -3  -3  558.44   23.73
  -9   3   2  134.20   18.12
   9  -3  -2  128.66    7.86
   9  -3  -2  152.92    7.64
  -9   3   1   45.49   13.86
   9  -3  -1   46.48    4.75
   9  -3  -1   37.84    5.13
  -9   3   0  213.07   20.32
   9  -3   0  206.93   15.68
  -9   3  -1  119.15   13.26
   9  -3   1  165.52   11.50
  -9   3  -2    4.67    2.00
   9  -3   2    6.83    2.94
  -9   3  -3  154.31   18.90
   9  -3   3  155.87   14.36
  -9   3  -4   93.04   12.01
   9  -3   4  105.88    8.25
  -9   2  10  260.72   12.59
  -9   2  10  257.47   14.29
   9  -2 -10  250.84   12.92
  -9   2   9   22.64    3.17
  -9   2   9   16.83    9.34
   9  -2  -9   17.23    3.20
  -9   2   8  203.10    9.98
  -9   2   8  185.78   10.27
   9  -2  -8  189.88    9.72
  -9   2   7  275.76   12.14
   9  -2  -7  271.58   13.51
   9  -2  -7  263.42   15.73
  -9   2   6   57.14    6.53
   9  -2  -6   54.56    4.35
   9  -2  -6   68.25    7.03
  -9   2   5  210.37   15.69
   9  -2  -5  212.81   12.99
   9  -2  -5  244.12   14.24
  -9   2   4  215.83   15.95
   9  -2  -4  230.88    7.65
   9  -2  -4  233.32   11.59
  -9   2   3  144.70   11.43
   9  -2  -3  146.60   11.31
   9  -2  -3  118.12    9.23
  -9   2   2   33.31    5.87
   9  -2  -2   33.52    4.30
   9  -2  -2   25.46    8.75
  -9   2   1  397.63   21.95
   9  -2  -1  323.45   19.96
   9  -2  -1  359.48   19.42
  -9   2   0  261.50   16.76
   9  -2   0  257.94   15.41
   9  -2   0  271.95   15.23
  -9   2  -1    3.62    2.79
   9  -2   1    1.33    2.03
  -9   2  -2  131.61   10.35
   9  -2   2  138.17    7.61
  -9   2  -3  159.30   22.59
   9  -2   3  146.87   14.16
  -9   2  -4    3.47    1.81
   9  -2   4    4.52    2.33
  -9   1  10   14.89    8.63
  -9   1  10   17.43    5.24
   9  -1 -10   25.03    4.64
  -9   1   9  240.92   15.13
  -9   1   9  227.16   16.61
   9  -1  -9  227.09   13.73
  -9   1   8  283.39   21.08
  -9   1   8  295.88   19.42
   9  -1  -8  299.26   19.06
  -9   1   7   15.48    5.35
   9  -1  -7    8.55    3.83
   9  -1  -7   13.99    3.90
  -9   1   6   17.97    3.07
   9  -1  -6   17.21    2.94
   9  -1  -6   13.84    3.14
  -9   1   5  376.64   21.20
   9  -1  -5  394.08   22.33
   9  -1  -5  378.92   20.89
  -9   1   4  165.93   12.47
   9  -1  -4  151.54   11.58
   9  -1  -4  149.27   11.20
  -9   1   3   30.36    4.43
   9  -1  -3   20.28    7.40
   9  -1  -3   20.83    6.81
  -9   1   2  320.92   15.23
   9  -1  -2  342.99   16.06
   9  -1  -2  311.81   19.37
  -9   1   1  168.02    9.90
   9  -1  -1  180.57    9.76
   9  -1  -1  194.23   10.02
  -9   1   0    9.40    2.94
   9  -1   0   18.73    3.96
   9  -1   0   14.57    2.48
  -9   1  -1  300.91   13.37
   9  -1   1  321.62   13.96
   9  -1   1  348.88   14.01
  -9   1  -2  139.52    8.15
   9  -1   2  131.95    7.92
   9  -1   2  120.25    9.30
  -9   1  -3    0.86    1.79
   9  -1   3    5.28    2.29
  -9   1  -4  105.08   11.79
   9  -1   4   99.88   13.89
  -9   0  10   75.64    6.23
  -9   0  10   48.84   15.82
   9   0 -10   70.40    6.69
  -9   0   9  419.67   22.45
  -9   0   9  414.21   24.21
   9   0  -9  463.84   24.93
  -9   0   8   64.08    5.26
   9   0  -8   67.39    5.33
  -9   0   7   84.73    7.48
   9   0  -7   67.82    6.07
   9   0  -7   71.67    7.49
  -9   0   6  363.16   16.28
   9   0  -6  345.59   14.66
   9   0  -6  374.91   16.24
  -9   0   5  208.33   20.54
   9   0  -5  232.46   13.70
   9   0  -5  249.85   14.71
  -9   0   4    1.49    3.36
   9   0  -4    8.21    3.68
   9   0  -4    7.26    3.00
  -9   0   3  310.32   17.75
   9   0  -3  342.27   19.10
   9   0  -3  306.57   19.83
  -9   0   2  129.64    8.25
   9   0  -2  136.13    7.89
   9   0  -2  138.75    7.72
  -9   0   1   90.65    7.06
   9   0  -1   80.04    5.94
   9   0  -1   58.73    4.78
  -9   0   0   66.56    6.43
   9   0   0   69.50    6.30
   9   0   0   67.96    5.94
  -9   0  -1  309.99   18.94
   9   0   1  301.18   18.37
   9   0   1  277.58   16.90
  -9   0  -2   22.73    3.91
   9   0   2   16.40    3.04
   9   0   2   14.14    4.68
  -9   0  -3   98.27   20.81
   9   0   3  135.41   12.12
   9   0   3   97.33   12.01
  -9  -1   9  114.35    8.06
  -9  -1   9  106.94    9.01
   9   1  -9  125.74    9.66
  -9  -1   8  106.23   10.14
   9   1  -8  106.47   10.03
   9   1  -8  108.71   10.35
  -9  -1   7  428.68   25.27
   9   1  -7  419.68   24.42
   9   1  -7  414.71   24.65
  -9  -1   6  132.82   10.03
   9   1  -6  150.06   10.40
   9   1  -6  137.13   10.02
  -9  -1   5   11.17    3.30
   9   1  -5   13.37    3.05
   9   1  -5   16.62    4.20
  -9  -1   4   38.51    5.32
   9   1  -4   38.93    4.66
   9   1  -4   26.35    9.49
  -9  -1   3  137.85   12.53
   9   1  -3  175.60    8.82
   9   1  -3  195.61    9.99
  -9  -1   2    6.80    3.11
   9   1  -2    1.36    1.96
   9   1  -2    1.17    3.81
  -9  -1   1  313.02   13.98
   9   1  -1  344.94   15.01
   9   1  -1  311.02   13.37
  -9  -1   0  306.87   18.68
   9   1   0  306.72   18.38
   9   1   0  285.21   18.04
  -9  -1  -1   24.88    4.30
   9   1   1   20.14    3.53
  -9  -1  -2   93.98    9.30
   9   1   2   80.34    8.93
   9   1   2   91.47    8.90
  -9  -1  -3  272.89   14.48
   9   1   3  296.00   14.17
   9   1   3  301.87   13.89
  -9  -2   8  127.03    9.21
   9   2  -8  119.40    7.94
   9   2  -8  130.80    9.10
  -9  -2   7  144.38   12.97
   9   2  -7  141.75   12.26
   9   2  -7  158.12   13.80
  -9  -2   6    3.28    3.47
   9   2  -6    0.43    1.62
   9   2  -6    3.06    4.41
  -9  -2   5  570.39   33.22
   9   2  -5  483.29   30.68
   9   2  -5  473.42   27.76
  -9  -2   4  102.23    7.02
   9   2  -4   84.15    5.03
   9   2  -4   77.18    6.07
  -9  -2   3   18.22    3.93
   9   2  -3   10.58    2.97
   9   2  -3    4.13    2.38
  -9  -2   2  254.93   16.91
   9   2  -2  251.40   17.40
   9   2  -2  260.46   16.85
  -9  -2   1  378.14   22.84
   9   2  -1  331.16   19.90
   9   2  -1  393.63   23.24
  -9  -2   0   32.76    4.27
   9   2   0   27.59    3.70
   9   2   0   29.87    4.77
  -9  -2  -1  120.66    8.79
   9   2   1   86.70    6.46
   9   2   1  116.37    8.34
   9   2   2  237.55   12.29
  -9  -3   7   52.73    4.87
   9   3  -7   50.14    5.28
  -9  -3   6  161.00    9.16
   9   3  -6  176.57   10.80
  -9  -3   5  129.32    9.18
   9   3  -5  136.65    7.33
   9   3  -5  164.45    9.62
  -9  -3   4   27.52    3.95
   9   3  -4   32.57    3.24
   9   3  -4   22.95    3.81
  -9  -3   3  390.01   21.73
   9   3  -3  350.72   20.30
  -9  -3   2  544.61   23.85
   9   3  -2  531.96   24.28
  -9  -3   1  100.35    9.85
   9   3  -1  102.24    7.71
  -9  -3   0  150.29    8.96
   9   3   0  124.40    8.60
 -10   5   4  130.17    9.98
  10  -5  -4  135.84    8.81
 -10   5   3    5.43    2.58
  10  -5  -3    8.49    3.27
 -10   5   2  131.55   13.79
  10  -5  -2  138.83    8.60
  10  -4  -7   18.14   10.12
 -10   4   6  238.19   13.27
  10  -4  -6  275.44   13.69
  10  -4  -6  264.38   12.39
 -10   4   5  137.92   15.83
  10  -4  -5  147.82    8.84
  10  -4  -5  149.05    7.97
 -10   4   4   10.70    3.39
  10  -4  -4   12.08    3.52
  10  -4  -4   10.10    2.19
 -10   4   3  189.72   12.44
  10  -4  -3  204.42   12.73
 -10   4   2   46.47   14.57
  10  -4  -2   42.91    4.23
 -10   4   1    7.54    4.09
  10  -4  -1    3.66    3.15
 -10   4   0   47.55   16.11
  10  -4   0   54.96   12.74
 -10   3   7  137.37    8.33
  10  -3  -7  141.87    8.55
  10  -3  -7  143.44    8.44
 -10   3   6  143.63   12.49
  10  -3  -6  111.68   14.17
  10  -3  -6  147.55   12.64
 -10   3   5    2.44    2.03
  10  -3  -5    3.20    2.33
  10  -3  -5    4.69    2.61
 -10   3   4  137.81   12.47
  10  -3  -4  116.08   10.81
  10  -3  -4  127.53   11.04
 -10   3   3  144.32   12.60
  10  -3  -3  139.87   12.66
  10  -3  -3  135.62   11.68
 -10   3   2    9.88    4.96
  10  -3  -2   22.42    2.98
 -10   3   1  134.09   15.48
  10  -3  -1  154.90   13.83
 -10   3   0  256.36   15.05
  10  -3   0  249.64   14.01
  10  -2  -8  177.83    9.86
 -10   2   7  108.17    7.71
  10  -2  -7  117.04    8.89
  10  -2  -7  100.25    7.31
 -10   2   6   19.13    3.54
  10  -2  -6   15.87    3.59
  10  -2  -6   11.39    2.81
 -10   2   5  207.04   12.61
  10  -2  -5  182.28   11.80
  10  -2  -5  162.43    6.49
 -10   2   4   32.70    3.43
  10  -2  -4   30.21    3.92
  10  -2  -4   39.02    3.73
 -10   2   3    3.42    2.14
  10  -2  -3   14.43    3.15
  10  -2  -3    6.10    2.47
 -10   2   2  340.05   18.71
  10  -2  -2  373.00   20.80
  10  -2  -2  339.76   18.06
 -10   2   1  110.29   19.06
  10  -2  -1  134.01   16.71
 -10   2   0   98.61   15.73
  10  -2   0   90.52    7.37
  10  -2   1   86.09    7.08
 -10   1   7   22.15    3.62
  10  -1  -7   23.09    2.99
  10  -1  -7   32.53    5.07
 -10   1   6   84.41    8.87
  10  -1  -6   87.79    8.56
  10  -1  -6   93.43    9.53
 -10   1   5   92.41   15.11
  10  -1  -5  117.52   10.76
  10  -1  -5   93.29    8.76
 -10   1   4    2.37    2.96
  10  -1  -4    2.82    3.02
  10  -1  -4    0.77    2.56
 -10   1   3  225.21   13.57
  10  -1  -3  191.96   11.71
  10  -1  -3  200.86   12.04
 -10   1   2  495.37   26.44
  10  -1  -2  464.81   24.66
  10  -1  -2  492.18   25.56
 -10   1   1   30.12   12.13
  10  -1  -1   30.72    3.31
  10  -1  -1   34.14    4.64
 -10   1   0   27.74    4.03
  10  -1   0   28.42    4.76
  10  -1   0   26.29    4.78
 -10   0   7  261.27   13.18
  10   0  -7  256.72   12.59
  10   0  -7  283.34   13.95
 -10   0   6  215.86   12.12
  10   0  -6  216.83   11.26
  10   0  -6  211.61   11.06
 -10   0   5   10.24    3.21
  10   0  -5    9.72    2.95
  10   0  -5   10.23    5.91
 -10   0   4  195.34   12.04
  10   0  -4  211.88   11.02
  10   0  -4  169.56   11.78
 -10   0   3  467.91   21.34
  10   0  -3  435.08   19.16
  10   0  -3  450.60   19.63
 -10   0   2   30.88    4.06
  10   0  -2   24.59    7.30
 -10   0   1   79.87    6.55
  10   0  -1   54.90    7.44
  10   0  -1   70.56    7.45
 -10  -1   5  239.30   13.51
  10   1  -5  257.17   12.95
  10   1  -5  200.74   14.36
 -10  -1   4  284.10   14.31
  10   1  -4  286.66   13.64
  10   1  -4  304.92   14.67
 -10  -1   3   70.53    8.34
  10   1  -3   85.39    6.67
  10   1  -3   78.91    7.10
   0   0   0    0.00    0.00
;
_shelx_hkl_checksum              93202
_shelx_res_file
;
    p.res created by SHELXL-2014/7
TITL p in P-1
CELL 0.71073   7.9867   8.3516  11.6035  90.502 103.758 101.400
ZERR    2.00   0.0016   0.0017   0.0023   0.030   0.030   0.030
LATT 1
SFAC C  H  N  O  Cd
UNIT 26 24 12 8 2
L.S. 20
BOND $H
ACTA
TEMP 20
SIZE 0.18 0.16 0.13
CONF
EQIV $6 -x, -y+1, -z+1
HTAB N5 N2_$6
FMAP 2
PLAN 5
WGHT    0.021400    0.554600
FVAR       0.77759
CD1   5    0.100454    0.152005    0.152855    11.00000    0.02097    0.02589 =
         0.02485    0.00505    0.00675    0.00194
N1    3    0.029532    0.392024    0.243121    11.00000    0.04272    0.02449 =
         0.03794   -0.00011    0.01167    0.00859
N2    3   -0.037069    0.382096    0.340092    11.00000    0.06634    0.02584 =
         0.04266    0.01157    0.02240    0.01312
N3    3   -0.083851    0.516626    0.360750    11.00000    0.06509    0.03022 =
         0.03814    0.01013    0.02562    0.01311
N4    3   -0.047290    0.616343    0.276279    11.00000    0.03036    0.01957 =
         0.02768    0.00455    0.00608    0.00397
N5    3    0.127711    0.863775    0.475595    11.00000    0.03374    0.02422 =
         0.02691    0.00711    0.00680    0.00427
AFIX  43
H5B   2    0.090752    0.777902    0.510125    11.00000   -1.20000
AFIX   0
N6    3    0.145700    1.038872    0.334466    11.00000    0.02843    0.02098 =
         0.02226    0.00262    0.00284    0.00489
O1    4    0.154624   -0.085761    0.067999    11.00000    0.03059    0.03581 =
         0.05326    0.00041    0.02220    0.00243
O2    4    0.191221   -0.071159   -0.114355    11.00000    0.02249    0.05505 =
         0.03351   -0.00295   -0.00087    0.00475
O3    4    0.213959    0.337487    0.023224    11.00000    0.03552    0.06879 =
         0.04417    0.02041    0.00483   -0.01716
O4    4    0.389410    0.295386    0.189173    11.00000    0.03965    0.06836 =
         0.04516    0.02358    0.01249   -0.00467
C1    1    0.021364    0.538176    0.205244    11.00000    0.03582    0.02846 =
         0.03073    0.00408    0.01014    0.00532
AFIX  43
H1A   2    0.057821    0.580207    0.139242    11.00000   -1.20000
AFIX   0
C2    1   -0.080574    0.781872    0.276081    11.00000    0.03142    0.02032 =
         0.03719    0.00239    0.00121    0.00630
AFIX  23
H2A   2   -0.190817    0.780403    0.297864    11.00000   -1.20000
H2B   2   -0.091759    0.820739    0.196626    11.00000   -1.20000
AFIX   0
C3    1    0.065097    0.896497    0.361305    11.00000    0.02629    0.02151 =
         0.02497    0.00246    0.00537    0.00727
C4    1    0.262068    0.993891    0.526591    11.00000    0.02946    0.02660 =
         0.02376    0.00386    0.00729    0.00842
C5    1    0.378570    1.019873    0.638572    11.00000    0.04005    0.03950 =
         0.02314    0.00609    0.00451    0.01008
AFIX  43
H5A   2    0.373169    0.943960    0.696427    11.00000   -1.20000
AFIX   0
C6    1    0.501625    1.163564    0.658752    11.00000    0.03675    0.04454 =
         0.02556   -0.00441   -0.00018    0.01025
AFIX  43
H6A   2    0.582006    1.185603    0.732339    11.00000   -1.20000
AFIX   0
C7    1    0.509791    1.278131    0.571752    11.00000    0.03540    0.03200 =
         0.03805   -0.00458    0.00276    0.00153
AFIX  43
H7A   2    0.593893    1.375031    0.589504    11.00000   -1.20000
AFIX   0
C8    1    0.396170    1.250613    0.460538    11.00000    0.03697    0.02590 =
         0.03344    0.00319    0.00343    0.00233
AFIX  43
H8A   2    0.402527    1.326419    0.402690    11.00000   -1.20000
AFIX   0
C9    1    0.271109    1.104257    0.438258    11.00000    0.02713    0.02429 =
         0.02130    0.00185    0.00383    0.00792
C10   1    0.251097   -0.064602   -0.004312    11.00000    0.02108    0.02588 =
         0.03512   -0.00134    0.00522    0.00485
C11   1    0.448261   -0.030575    0.044224    11.00000    0.02117    0.05131 =
         0.02397    0.00471    0.00447    0.00629
AFIX  23
H11A  2    0.479520    0.049892    0.110637    11.00000   -1.20000
H11B  2    0.482236   -0.130401    0.074436    11.00000   -1.20000
AFIX   0
C12   1    0.361898    0.363263    0.093469    11.00000    0.03658    0.03250 =
         0.03504    0.00074    0.01464   -0.00696
C13   1    0.516423    0.476672    0.063589    11.00000    0.03684    0.05320 =
         0.03693    0.00918    0.00855   -0.01524
AFIX  23
H13A  2    0.546792    0.575575    0.115046    11.00000   -1.20000
H13C  2    0.616951    0.424194    0.080491    11.00000   -1.20000
AFIX   0
HKLF 4
REM  p in P-1
REM R1 =  0.0231 for    3336 Fo > 4sig(Fo)  and  0.0249 for all    3480 data
REM    217 parameters refined using      0 restraints
END
WGHT      0.0207      0.5722
REM Highest difference peak  0.782,  deepest hole -0.418,  1-sigma level  0.069
Q1    1   0.3025  1.4548  0.4608  11.00000  0.05    0.78
Q2    1   0.2744  1.0592  0.4933  11.00000  0.05    0.39
Q3    1   0.2212  1.0810  0.3777  11.00000  0.05    0.35
Q4    1   0.3175  1.0153  0.5741  11.00000  0.05    0.35
Q5    1   0.3637  0.3767  0.1804  11.00000  0.05    0.33
;
_shelx_res_checksum              97440
loop_
_space_group_symop_operation_xyz
'x, y, z'
'-x, -y, -z'
loop_
_atom_site_type_symbol
_atom_site_label
_atom_site_fract_x
_atom_site_fract_y
_atom_site_fract_z
_atom_site_U_iso_or_equiv
_atom_site_adp_type
_atom_site_calc_flag
_atom_site_occupancy
Cd Cd1 0.10045(2) 0.15201(2) 0.15285(2) 0.02409(6) Uani d 1
N N1 0.0295(3) 0.3920(2) 0.24312(19) 0.0345(4) Uani d 1
N N2 -0.0371(3) 0.3821(3) 0.3401(2) 0.0428(5) Uani d 1
N N3 -0.0839(3) 0.5166(3) 0.36075(19) 0.0417(5) Uani d 1
N N4 -0.0473(2) 0.6163(2) 0.27628(16) 0.0262(4) Uani d 1
N N5 0.1277(2) 0.8638(2) 0.47560(16) 0.0286(4) Uani d 1
H H5B 0.0908 0.7779 0.5101 0.034 Uiso calc 1
N N6 0.1457(2) 1.0389(2) 0.33447(15) 0.0245(4) Uani d 1
O O1 0.1546(2) -0.0858(2) 0.06800(17) 0.0385(4) Uani d 1
O O2 0.1912(2) -0.0712(2) -0.11436(15) 0.0388(4) Uani d 1
O O3 0.2140(2) 0.3375(3) 0.02322(17) 0.0542(6) Uani d 1
O O4 0.3894(3) 0.2954(3) 0.18917(18) 0.0528(5) Uani d 1
C C1 0.0214(3) 0.5382(3) 0.2052(2) 0.0315(5) Uani d 1
H H1A 0.0578 0.5802 0.1392 0.038 Uiso calc 1
C C2 -0.0806(3) 0.7819(3) 0.2761(2) 0.0307(5) Uani d 1
H H2A -0.1908 0.7804 0.2979 0.037 Uiso calc 1
H H2B -0.0918 0.8207 0.1966 0.037 Uiso calc 1
C C3 0.0651(3) 0.8965(2) 0.36131(18) 0.0241(4) Uani d 1
C C4 0.2621(3) 0.9939(3) 0.52659(19) 0.0261(4) Uani d 1
C C5 0.3786(3) 1.0199(3) 0.6386(2) 0.0345(5) Uani d 1
H H5A 0.3732 0.9440 0.6964 0.041 Uiso calc 1
C C6 0.5016(3) 1.1636(3) 0.6588(2) 0.0367(5) Uani d 1
H H6A 0.5820 1.1856 0.7323 0.044 Uiso calc 1
C C7 0.5098(3) 1.2781(3) 0.5718(2) 0.0370(5) Uani d 1
H H7A 0.5939 1.3750 0.5895 0.044 Uiso calc 1
C C8 0.3962(3) 1.2506(3) 0.4605(2) 0.0336(5) Uani d 1
H H8A 0.4025 1.3264 0.4027 0.040 Uiso calc 1
C C9 0.2711(3) 1.1043(3) 0.43826(18) 0.0242(4) Uani d 1
C C10 0.2511(3) -0.0646(3) -0.0043(2) 0.0277(4) Uani d 1
C C11 0.4483(3) -0.0306(3) 0.04422(19) 0.0325(5) Uani d 1
H H11A 0.4795 0.0499 0.1106 0.039 Uiso calc 1
H H11B 0.4822 -0.1304 0.0744 0.039 Uiso calc 1
C C12 0.3619(3) 0.3633(3) 0.0935(2) 0.0357(5) Uani d 1
C C13 0.5164(4) 0.4767(4) 0.0636(2) 0.0458(7) Uani d 1
H H13A 0.5468 0.5756 0.1150 0.055 Uiso calc 1
H H13C 0.6170 0.4242 0.0805 0.055 Uiso calc 1
loop_
_atom_site_aniso_label
_atom_site_aniso_U_11
_atom_site_aniso_U_22
_atom_site_aniso_U_33
_atom_site_aniso_U_12
_atom_site_aniso_U_13
_atom_site_aniso_U_23
Cd1 0.02097(8) 0.02589(9) 0.02485(9) 0.00194(6) 0.00675(6) 0.00505(6)
N1 0.0427(11) 0.0245(10) 0.0379(11) 0.0086(8) 0.0117(9) -0.0001(8)
N2 0.0663(15) 0.0258(10) 0.0427(12) 0.0131(10) 0.0224(11) 0.0116(9)
N3 0.0651(15) 0.0302(11) 0.0381(12) 0.0131(10) 0.0256(11) 0.0101(9)
N4 0.0304(9) 0.0196(9) 0.0277(9) 0.0040(7) 0.0061(7) 0.0046(7)
N5 0.0337(10) 0.0242(9) 0.0269(9) 0.0043(8) 0.0068(8) 0.0071(7)
N6 0.0284(9) 0.0210(8) 0.0223(8) 0.0049(7) 0.0028(7) 0.0026(7)
O1 0.0306(8) 0.0358(9) 0.0533(11) 0.0024(7) 0.0222(8) 0.0004(8)
O2 0.0225(8) 0.0550(11) 0.0335(9) 0.0047(7) -0.0009(7) -0.0030(8)
O3 0.0355(10) 0.0688(14) 0.0442(11) -0.0172(9) 0.0048(8) 0.0204(10)
O4 0.0396(10) 0.0684(14) 0.0452(11) -0.0047(10) 0.0125(9) 0.0236(10)
C1 0.0358(12) 0.0285(12) 0.0307(11) 0.0053(9) 0.0101(10) 0.0041(9)
C2 0.0314(11) 0.0203(10) 0.0372(12) 0.0063(9) 0.0012(9) 0.0024(9)
C3 0.0263(10) 0.0215(10) 0.0250(10) 0.0073(8) 0.0054(8) 0.0025(8)
C4 0.0295(10) 0.0266(11) 0.0238(10) 0.0084(9) 0.0073(8) 0.0039(8)
C5 0.0401(13) 0.0395(13) 0.0231(11) 0.0101(11) 0.0045(9) 0.0061(10)
C6 0.0367(13) 0.0445(14) 0.0256(11) 0.0103(11) -0.0002(9) -0.0044(10)
C7 0.0354(12) 0.0320(12) 0.0381(13) 0.0015(10) 0.0028(10) -0.0046(10)
C8 0.0370(12) 0.0259(11) 0.0334(12) 0.0023(9) 0.0034(10) 0.0032(9)
C9 0.0271(10) 0.0243(10) 0.0213(9) 0.0079(8) 0.0038(8) 0.0019(8)
C10 0.0211(10) 0.0259(11) 0.0351(12) 0.0049(8) 0.0052(9) -0.0013(9)
C11 0.0212(10) 0.0513(15) 0.0240(11) 0.0063(10) 0.0045(9) 0.0047(10)
C12 0.0366(13) 0.0325(12) 0.0350(12) -0.0070(10) 0.0146(10) 0.0007(10)
C13 0.0368(13) 0.0532(16) 0.0369(14) -0.0152(12) 0.0086(11) 0.0092(12)
loop_
_atom_type_symbol
_atom_type_description
_atom_type_scat_dispersion_real
_atom_type_scat_dispersion_imag
_atom_type_scat_source
C C 0.0033 0.0016 'International Tables Vol C Tables 4.2.6.8 and 6.1.1.4'
H H 0.0000 0.0000 'International Tables Vol C Tables 4.2.6.8 and 6.1.1.4'
N N 0.0061 0.0033 'International Tables Vol C Tables 4.2.6.8 and 6.1.1.4'
O O 0.0106 0.0060 'International Tables Vol C Tables 4.2.6.8 and 6.1.1.4'
Cd Cd -0.8075 1.2024 'International Tables Vol C Tables 4.2.6.8 and 6.1.1.4'
loop_
_geom_angle_atom_site_label_1
_geom_angle_atom_site_label_2
_geom_angle_atom_site_label_3
_geom_angle_site_symmetry_1
_geom_angle_site_symmetry_3
_geom_angle
_geom_angle_publ_flag
O2 Cd1 N6 2 1_545 93.56(7) y
O2 Cd1 O4 2 . 166.87(8) y
N6 Cd1 O4 1_545 . 92.97(7) y
O2 Cd1 O1 2 . 96.50(7) y
N6 Cd1 O1 1_545 . 89.19(7) y
O4 Cd1 O1 . . 94.98(8) y
O2 Cd1 O3 2 . 116.94(7) y
N6 Cd1 O3 1_545 . 147.96(7) y
O4 Cd1 O3 . . 55.19(7) y
O1 Cd1 O3 . . 96.40(8) y
O2 Cd1 N1 2 . 80.82(7) y
N6 Cd1 N1 1_545 . 89.75(7) y
O4 Cd1 N1 . . 87.83(8) y
O1 Cd1 N1 . . 177.05(6) y
O3 Cd1 N1 . . 85.95(8) y
C1 N1 N2 . . 105.9(2) ?
C1 N1 Cd1 . . 131.29(17) ?
N2 N1 Cd1 . . 122.16(15) ?
N3 N2 N1 . . 110.38(19) ?
N2 N3 N4 . . 106.56(19) ?
C1 N4 N3 . . 108.31(18) ?
C1 N4 C2 . . 131.2(2) ?
N3 N4 C2 . . 120.45(19) ?
C3 N5 C4 . . 107.28(18) ?
C3 N5 H5B . . 126.4 ?
C4 N5 H5B . . 126.4 ?
C3 N6 C9 . . 105.59(17) ?
C3 N6 Cd1 . 1_565 127.42(14) ?
C9 N6 Cd1 . 1_565 126.92(14) ?
C10 O1 Cd1 . . 116.91(15) ?
C10 O2 Cd1 . 2 108.15(15) ?
C12 O3 Cd1 . . 90.33(15) ?
C12 O4 Cd1 . . 92.75(16) ?
N1 C1 N4 . . 108.9(2) ?
N1 C1 H1A . . 125.6 ?
N4 C1 H1A . . 125.6 ?
N4 C2 C3 . . 111.35(18) ?
N4 C2 H2A . . 109.4 ?
C3 C2 H2A . . 109.4 ?
N4 C2 H2B . . 109.4 ?
C3 C2 H2B . . 109.4 ?
H2A C2 H2B . . 108.0 ?
N6 C3 N5 . . 112.49(19) ?
N6 C3 C2 . . 124.39(19) ?
N5 C3 C2 . . 123.11(19) ?
N5 C4 C9 . . 105.66(18) ?
N5 C4 C5 . . 131.7(2) ?
C9 C4 C5 . . 122.5(2) ?
C6 C5 C4 . . 116.3(2) ?
C6 C5 H5A . . 121.8 ?
C4 C5 H5A . . 121.8 ?
C5 C6 C7 . . 121.9(2) ?
C5 C6 H6A . . 119.0 ?
C7 C6 H6A . . 119.0 ?
C8 C7 C6 . . 121.5(2) ?
C8 C7 H7A . . 119.2 ?
C6 C7 H7A . . 119.2 ?
C7 C8 C9 . . 117.2(2) ?
C7 C8 H8A . . 121.4 ?
C9 C8 H8A . . 121.4 ?
C4 C9 C8 . . 120.4(2) ?
C4 C9 N6 . . 108.96(19) ?
C8 C9 N6 . . 130.6(2) ?
O2 C10 O1 . . 123.1(2) ?
O2 C10 C11 . . 118.5(2) ?
O1 C10 C11 . . 118.5(2) ?
C11 C11 C10 2_655 . 114.5(2) ?
C11 C11 H11A 2_655 . 108.6 ?
C10 C11 H11A . . 108.6 ?
C11 C11 H11B 2_655 . 108.6 ?
C10 C11 H11B . . 108.6 ?
H11A C11 H11B . . 107.6 ?
O3 C12 O4 . . 121.7(2) ?
O3 C12 C13 . . 120.6(2) ?
O4 C12 C13 . . 117.6(2) ?
O3 C12 Cd1 . . 62.07(13) ?
O4 C12 Cd1 . . 59.66(13) ?
C13 C12 Cd1 . . 176.8(2) ?
C13 C13 C12 2_665 . 114.3(3) ?
C13 C13 H13A 2_665 . 108.7 ?
C12 C13 H13A . . 108.7 ?
C13 C13 H13C 2_665 . 108.7 ?
C12 C13 H13C . . 108.7 ?
H13A C13 H13C . . 107.6 ?
loop_
_geom_bond_atom_site_label_1
_geom_bond_atom_site_label_2
_geom_bond_site_symmetry_2
_geom_bond_distance
_geom_bond_publ_flag
Cd1 O2 2 2.2271(17) y
Cd1 N6 1_545 2.2960(18) y
Cd1 O4 . 2.318(2) y
Cd1 O1 . 2.3681(18) y
Cd1 O3 . 2.3703(19) y
Cd1 N1 . 2.476(2) y
N1 C1 . 1.309(3) ?
N1 N2 . 1.351(3) ?
N2 N3 . 1.290(3) ?
N3 N4 . 1.339(3) ?
N4 C1 . 1.324(3) ?
N4 C2 . 1.458(3) ?
N5 C3 . 1.352(3) ?
N5 C4 . 1.381(3) ?
N5 H5B . 0.8600 ?
N6 C3 . 1.313(3) ?
N6 C9 . 1.397(3) ?
N6 Cd1 1_565 2.2961(18) ?
O1 C10 . 1.259(3) ?
O2 C10 . 1.249(3) ?
O2 Cd1 2 2.2271(17) ?
O3 C12 . 1.243(3) ?
O4 C12 . 1.244(3) ?
C1 H1A . 0.9300 ?
C2 C3 . 1.498(3) ?
C2 H2A . 0.9700 ?
C2 H2B . 0.9700 ?
C4 C9 . 1.390(3) ?
C4 C5 . 1.393(3) ?
C5 C6 . 1.371(4) ?
C5 H5A . 0.9300 ?
C6 C7 . 1.401(4) ?
C6 H6A . 0.9300 ?
C7 C8 . 1.377(3) ?
C7 H7A . 0.9300 ?
C8 C9 . 1.396(3) ?
C8 H8A . 0.9300 ?
C10 C11 . 1.509(3) ?
C11 C11 2_655 1.498(4) ?
C11 H11A . 0.9700 ?
C11 H11B . 0.9700 ?
C12 C13 . 1.512(3) ?
C13 C13 2_665 1.505(5) ?
C13 H13A . 0.9700 ?
C13 H13C . 0.9700 ?
loop_
_geom_hbond_atom_site_label_D
_geom_hbond_atom_site_label_H
_geom_hbond_atom_site_label_A
_geom_hbond_site_symmetry_A
_geom_hbond_distance_DH
_geom_hbond_distance_HA
_geom_hbond_distance_DA
_geom_hbond_angle_DHA
N5 H5B N2 2_566 0.86 2.27 3.089(3) 159
loop_
_geom_torsion_atom_site_label_1
_geom_torsion_atom_site_label_2
_geom_torsion_atom_site_label_3
_geom_torsion_atom_site_label_4
_geom_torsion_site_symmetry_1
_geom_torsion_site_symmetry_4
_geom_torsion
C1 N1 N2 N3 . . -0.1(3)
Cd1 N1 N2 N3 . . -171.73(17)
N1 N2 N3 N4 . . -0.1(3)
N2 N3 N4 C1 . . 0.2(3)
N2 N3 N4 C2 . . -178.4(2)
N2 N1 C1 N4 . . 0.2(3)
Cd1 N1 C1 N4 . . 170.77(15)
N3 N4 C1 N1 . . -0.2(3)
C2 N4 C1 N1 . . 178.1(2)
C1 N4 C2 C3 . . -97.0(3)
N3 N4 C2 C3 . . 81.2(3)
C9 N6 C3 N5 . . 0.4(2)
Cd1 N6 C3 N5 1_565 . 177.62(14)
C9 N6 C3 C2 . . -179.8(2)
Cd1 N6 C3 C2 1_565 . -2.6(3)
C4 N5 C3 N6 . . -1.2(3)
C4 N5 C3 C2 . . 178.99(19)
N4 C2 C3 N6 . . 130.2(2)
N4 C2 C3 N5 . . -50.0(3)
C3 N5 C4 C9 . . 1.5(2)
C3 N5 C4 C5 . . -175.3(2)
N5 C4 C5 C6 . . 177.9(2)
C9 C4 C5 C6 . . 1.6(3)
C4 C5 C6 C7 . . 0.1(4)
C5 C6 C7 C8 . . -1.2(4)
C6 C7 C8 C9 . . 0.6(4)
N5 C4 C9 C8 . . -179.4(2)
C5 C4 C9 C8 . . -2.2(3)
N5 C4 C9 N6 . . -1.3(2)
C5 C4 C9 N6 . . 175.9(2)
C7 C8 C9 C4 . . 1.0(3)
C7 C8 C9 N6 . . -176.6(2)
C3 N6 C9 C4 . . 0.6(2)
Cd1 N6 C9 C4 1_565 . -176.65(14)
C3 N6 C9 C8 . . 178.4(2)
Cd1 N6 C9 C8 1_565 . 1.2(3)
Cd1 O2 C10 O1 2 . -6.3(3)
Cd1 O2 C10 C11 2 . 173.39(17)
Cd1 O1 C10 O2 . . -96.3(2)
Cd1 O1 C10 C11 . . 84.0(2)
O2 C10 C11 C11 . 2_655 13.7(4)
O1 C10 C11 C11 . 2_655 -166.6(3)
Cd1 O3 C12 O4 . . -0.7(3)
Cd1 O3 C12 C13 . . 178.0(2)
Cd1 O4 C12 O3 . . 0.7(3)
Cd1 O4 C12 C13 . . -178.0(2)
O3 C12 C13 C13 . 2_665 -12.0(5)
O4 C12 C13 C13 . 2_665 166.7(3)

_cod_database_fobs_code 2019955
