#------------------------------------------------------------------------------
#$Date: 2016-02-20 00:18:51 +0200 (Sat, 20 Feb 2016) $
#$Revision: 176760 $
#$URL: svn://www.crystallography.net/cod/cif/2/01/97/2019725.cif $
#------------------------------------------------------------------------------
#
# This file is available in the Crystallography Open Database (COD),
# http://www.crystallography.net/. The original data for this entry
# were provided by IUCr Journals, http://journals.iucr.org/.
#
# The file may be used within the scientific community so long as
# proper attribution is given to the journal article from which the
# data were obtained.
#
data_2019725
loop_
_publ_author_name
'Chernyshev, Alexander N.'
'Kukushkin, Vadim Yu.'
'Haukka, Matti'
_publ_section_title
;
 Two complexes of Pt^IV^ and Au^III^ with 2,2'-dipyridylamine and
 2,2'-dipyridylaminide ligands
;
_journal_coeditor_code           DT3029
_journal_issue                   12
_journal_name_full               'Acta Crystallographica Section C'
_journal_page_first
;
;
_journal_paper_doi               10.1107/S2053229614021548
_journal_volume                  70
_journal_year                    2014
_chemical_formula_iupac          '[Au Cl2 (C10 H8 N3)]'
_chemical_formula_moiety         'C10 H8 Au Cl2 N3'
_chemical_formula_sum            'C10 H8 Au Cl2 N3'
_chemical_formula_weight         438.06
_chemical_name_systematic
;
[bis(pyridin-2-yl-\k<i>N</i>)aminido]dichloridogold(III)
;
_space_group_crystal_system      triclinic
_space_group_IT_number           2
_space_group_name_Hall           '-P 1'
_space_group_name_H-M_alt        'P -1'
_symmetry_space_group_name_Hall  '-P 1'
_symmetry_space_group_name_H-M   'P -1'
_atom_sites_solution_hydrogens   geom
_audit_creation_method           SHELXL2014
_cell_angle_alpha                115.042(4)
_cell_angle_beta                 98.263(5)
_cell_angle_gamma                105.452(6)
_cell_formula_units_Z            2
_cell_length_a                   7.6126(13)
_cell_length_b                   8.8933(7)
_cell_length_c                   9.5996(8)
_cell_measurement_reflns_used    9134
_cell_measurement_temperature    100(2)
_cell_measurement_theta_max      36.07
_cell_measurement_theta_min      3.17
_cell_volume                     542.50(12)
_computing_cell_refinement       'SAINT (Bruker, 2009)'
_computing_data_collection       'APEX2 (Bruker, 2010)'
_computing_data_reduction        'SAINT (Bruker, 2009)'
_computing_molecular_graphics    'OLEX2 (Dolomanov et al., 2009)'
_computing_publication_material  'SHELXL2014 (Sheldrick, 2008)'
_computing_structure_refinement  'SHELXL2014 (Sheldrick, 2008)'
_computing_structure_solution    'SUPERFLIP (Palatinus & Chapuis, 2007)'
_diffrn_ambient_temperature      100(2)
_diffrn_detector_area_resol_mean 16
_diffrn_measured_fraction_theta_full 0.997
_diffrn_measured_fraction_theta_max 0.993
_diffrn_measurement_device
'62mm x 62mm CCD camera on three-circle goniostat'
_diffrn_measurement_device_type  'Bruker SMART APEXII CCD area-detector'
_diffrn_measurement_method       '\f and \w scans'
_diffrn_radiation_monochromator  'flat graphite crystal'
_diffrn_radiation_type           MoK\a
_diffrn_radiation_wavelength     0.71073
_diffrn_reflns_av_R_equivalents  0.0377
_diffrn_reflns_limit_h_max       10
_diffrn_reflns_limit_h_min       -10
_diffrn_reflns_limit_k_max       11
_diffrn_reflns_limit_k_min       -11
_diffrn_reflns_limit_l_max       12
_diffrn_reflns_limit_l_min       -12
_diffrn_reflns_number            9771
_diffrn_reflns_theta_full        26.000
_diffrn_reflns_theta_max         28.280
_diffrn_reflns_theta_min         2.450
_exptl_absorpt_coefficient_mu    14.022
_exptl_absorpt_correction_T_max  0.4774
_exptl_absorpt_correction_T_min  0.1713
_exptl_absorpt_correction_type   numerical
_exptl_absorpt_process_details   '(SADABS; Sheldrick, 2008)'
_exptl_crystal_colour            violet
_exptl_crystal_density_diffrn    2.682
_exptl_crystal_description       block
_exptl_crystal_F_000             404
_exptl_crystal_size_max          0.225
_exptl_crystal_size_mid          0.117
_exptl_crystal_size_min          0.115
_refine_diff_density_max         1.951
_refine_diff_density_min         -2.717
_refine_ls_extinction_method     none
_refine_ls_goodness_of_fit_ref   1.038
_refine_ls_hydrogen_treatment    constr
_refine_ls_matrix_type           full
_refine_ls_number_parameters     145
_refine_ls_number_reflns         2678
_refine_ls_number_restraints     0
_refine_ls_restrained_S_all      1.038
_refine_ls_R_factor_all          0.0253
_refine_ls_R_factor_gt           0.0235
_refine_ls_shift/su_max          0.001
_refine_ls_shift/su_mean         0.000
_refine_ls_structure_factor_coef Fsqd
_refine_ls_weighting_details
'w = 1/[\s^2^(Fo^2^)+(0.0396P)^2^] where P=(Fo^2^+2Fc^2^)/3'
_refine_ls_weighting_scheme      calc
_refine_ls_wR_factor_gt          0.0593
_refine_ls_wR_factor_ref         0.0601
_reflns_number_gt                2525
_reflns_number_total             2678
_reflns_threshold_expression     I>2\s(I)
_cod_data_source_file            dt3029sup1.cif
_cod_data_source_block           II
_cod_original_cell_volume        542.49(11)
_cod_database_code               2019725
#BEGIN Tags that were not found in dictionaries:
_shelx_space_group_comment
;
The symmetry employed for this shelxl refinement is uniquely defined
by the following loop, which should always be used as a source of
symmetry information in preference to the above space-group names.
They are only intended as comments.
;
_shelx_estimated_absorpt_t_min   0.145
_shelx_estimated_absorpt_t_max   0.295
_shelx_hkl_file
;
  -1   1   0  358.61   17.29
  -1   1   0  351.05   15.14
   1  -1   0  330.85   16.18
  -2   2   0    9.11    0.76
  -2   2   0    8.34    0.66
  -2   2   0    9.44    0.60
   2  -2   0    8.90    0.63
   2  -2   0   10.70    0.64
   2  -2   0    9.37    0.57
  -3   3   0   86.58    4.24
  -3   3   0   79.92    4.93
  -3   3   0   79.35    5.21
   3  -3   0   86.44    4.25
   3  -3   0   84.52    3.73
   3  -3   0   77.97    3.97
  -4   4   0  135.80    8.59
  -4   4   0  138.38    8.08
  -4   4   0  142.24    6.95
   4  -4   0  127.18    6.49
   4  -4   0  137.93    6.10
   4  -4   0  135.82    6.97
   4  -4   0  136.46    6.76
  -5   5   0    7.70    0.63
  -5   5   0    8.46    1.00
  -5   5   0    9.18    0.82
   5  -5   0    8.74    0.75
   5  -5   0    8.31    0.81
   5  -5   0    7.57    0.81
  -6   6   0    3.53    0.60
  -6   6   0    2.80    0.73
   6  -6   0    1.91    0.47
   6  -6   0    3.82    0.59
  -7   7   0    0.89    0.71
   7  -7   0   -0.03    0.42
  -8   8   0    0.36    0.76
   8  -8   0   -0.32    0.47
  -9   9   0   10.37    1.44
 -10  11  -1    4.91    1.25
  -9  10  -1   24.79    2.21
  -8   9  -1   33.57    2.58
   7  -8   1   22.08    1.54
  -7   8  -1   24.87    1.98
   6  -7   1   59.62    3.04
   6  -7   1   53.14    2.81
  -6   7  -1   61.60    3.80
  -6   7  -1   58.18    3.23
   5  -6   1  151.57    7.23
   5  -6   1  140.92    6.73
  -5   6  -1  152.68    8.98
  -5   6  -1  155.47    7.72
   4  -5   1  105.89    5.04
   4  -5   1  107.22    5.38
   4  -5   1  105.65    4.70
  -4   5  -1  106.75    6.24
  -4   5  -1   89.17    4.93
  -4   5  -1  119.24    5.39
  -4   5  -1   95.75    6.55
   3  -4   1   16.07    1.05
   3  -4   1   18.40    1.05
   3  -4   1   16.77    0.92
  -3   4  -1   15.96    1.23
  -3   4  -1   17.74    1.04
  -3   4  -1   13.98    0.87
   2  -3   1    1.09    0.26
   2  -3   1    1.31    0.21
  -2   3  -1    0.98    0.19
  -2   3  -1    0.62    0.33
  -2   3  -1    1.43    0.25
  -2   3  -1    1.06    0.21
   1  -2   1   -0.09    0.19
  -1   2  -1    0.30    0.16
  -1   2  -1    0.13    0.12
  -1   2  -1    0.54    0.14
   0   1  -1    1.26    0.14
   0   1  -1    1.32    0.15
  -1   0   1   25.98    1.30
   1   0  -1   24.05    1.23
   1   0  -1   28.49    1.40
   1   0  -1   31.14    1.77
  -2   1   1   71.68    4.61
  -2   1   1   73.52    4.31
   2  -1  -1   79.50    3.70
   2  -1  -1   68.54    3.62
   2  -1  -1   68.10    3.45
   2  -1  -1   71.17    4.61
   2  -1  -1   77.89    3.25
  -3   2   1   65.24    4.25
  -3   2   1   67.08    3.44
  -3   2   1   65.95    4.02
   3  -2  -1   67.68    3.02
   3  -2  -1   63.33    3.23
   3  -2  -1   74.33    3.47
   3  -2  -1   63.85    3.35
  -4   3   1  139.27    9.37
  -4   3   1  151.40    8.78
  -4   3   1  153.93    7.55
   4  -3  -1  144.02    7.37
   4  -3  -1  157.36    7.57
   4  -3  -1  154.99    6.63
   4  -3  -1  139.85    7.07
  -5   4   1  198.23   11.88
  -5   4   1  216.04   10.24
  -5   4   1  181.37    9.98
   5  -4  -1  204.23   10.00
   5  -4  -1  212.53    8.99
   5  -4  -1  201.02    9.59
   5  -4  -1  199.72   10.25
  -6   5   1   75.41    3.70
  -6   5   1   79.14    4.72
   6  -5  -1   80.33    3.59
   6  -5  -1   71.98    3.79
   6  -5  -1   73.14    4.06
  -7   6   1   29.69    2.13
   7  -6  -1   27.08    1.63
  -8   7   1   41.18    2.70
   8  -7  -1   32.80    2.00
  -9   8   1   16.86    1.72
   9  -8  -1   16.67    1.29
 -10   9   1    0.14    0.95
  10  -9  -1    0.89    0.63
  -9  11  -2   -0.41    0.99
  -8  10  -2   -0.17    0.87
   7  -9   2    0.42    0.65
  -7   9  -2    0.43    0.81
  -7   9  -2   -0.08    0.63
   6  -8   2   17.43    1.28
  -6   8  -2   17.16    1.67
  -6   8  -2   16.43    1.40
   5  -7   2   40.54    2.28
  -5   7  -2   44.59    2.88
  -5   7  -2   41.76    2.44
   4  -6   2   41.38    1.98
   4  -6   2   36.60    2.14
  -4   6  -2   40.95    2.26
  -4   6  -2   42.09    2.66
   3  -5   2   84.90    3.83
   3  -5   2   85.27    4.10
  -3   5  -2   78.47    5.07
  -3   5  -2   88.93    4.37
   2  -4   2  221.90   11.57
  -2   4  -2  256.96   10.83
  -2   4  -2  246.65   14.37
  -2   4  -2  260.94   12.39
   1  -3   2  319.83   15.68
  -1   3  -2  358.78   14.69
  -1   3  -2  328.84   19.46
   0   2  -2  265.88   12.06
   0   2  -2  286.68   13.79
  -1  -1   2  122.58    5.53
   1   1  -2  108.64    5.59
   1   1  -2  105.99    4.89
   1   1  -2  109.51    5.51
  -2   0   2   68.58    3.44
  -2   0   2   73.13    4.29
   2   0  -2   66.26    3.24
   2   0  -2   71.42    3.64
   2   0  -2   76.62    3.70
   2   0  -2   82.20    4.66
  -3   1   2   86.61    5.28
   3  -1  -2   85.24    4.21
   3  -1  -2   91.72    3.98
   3  -1  -2   92.65    5.67
   3  -1  -2   95.22    4.54
   3  -1  -2   82.69    4.45
  -4   2   2   15.29    1.20
   4  -2  -2   14.71    1.15
   4  -2  -2   16.27    1.01
   4  -2  -2   16.01    0.93
   4  -2  -2   16.71    0.91
   4  -2  -2   15.03    0.95
  -5   3   2    5.74    0.63
  -5   3   2    5.55    0.70
  -5   3   2    5.61    0.52
   5  -3  -2    4.80    0.52
   5  -3  -2    5.71    0.52
   5  -3  -2    5.27    0.58
   5  -3  -2    5.35    0.59
  -6   4   2   10.50    1.09
  -6   4   2    9.92    0.85
   6  -4  -2   11.37    0.87
   6  -4  -2    8.61    0.92
  -7   5   2    5.38    0.55
  -7   5   2    5.81    0.86
   7  -5  -2    5.39    0.75
   7  -5  -2    6.45    0.69
  -8   6   2   13.97    1.40
   8  -6  -2   12.51    1.09
  -9   7   2   31.20    2.26
   9  -7  -2   24.45    1.69
 -10   8   2   26.77    2.33
  10  -8  -2   29.42    1.83
 -11   9   2   15.48    1.78
  11  -9  -2   15.11    1.41
  -9  12  -3   12.81    1.69
  -8  11  -3   19.35    2.00
   7 -10   3   26.95    1.78
  -7  10  -3   31.00    2.38
  -7  10  -3   27.03    2.02
   6  -9   3   42.02    2.35
  -6   9  -3   44.68    3.00
  -6   9  -3   38.44    2.52
   5  -8   3   29.34    1.84
  -5   8  -3   31.05    2.00
  -5   8  -3   35.09    2.36
   4  -7   3   10.61    0.93
  -4   7  -3   11.56    1.01
  -4   7  -3   11.23    1.19
   3  -6   3    2.00    0.41
  -3   6  -3    2.16    0.55
  -3   6  -3    1.72    0.41
   2  -5   3   -0.07    0.25
  -2   5  -3    0.00    0.27
  -2   5  -3    0.07    0.36
   1  -4   3    4.60    0.39
  -1   4  -3    5.37    0.57
  -1   4  -3    5.87    0.51
  -1   4  -3    5.09    0.42
   0  -3   3   32.92    1.71
   0   3  -3   32.11    1.74
   0   3  -3   34.54    1.74
   0   3  -3   33.22    1.50
  -1  -2   3   97.54    4.70
   1   2  -3   87.60    4.75
   1   2  -3   98.25    4.76
  -2  -1   3  204.24   12.11
  -2  -1   3  227.15   10.32
   2   1  -3  188.90    9.14
   2   1  -3  197.88   10.29
   2   1  -3  226.15   10.46
  -3   0   3  202.73   11.90
  -3   0   3  200.02   10.11
   3   0  -3  225.14   12.89
   3   0  -3  192.83   10.10
   3   0  -3  213.90   10.26
   3   0  -3  190.21    8.98
  -4   1   3  115.37    7.07
  -4   1   3  117.68    5.99
   4  -1  -3  114.12    5.98
   4  -1  -3  133.26    7.63
   4  -1  -3  108.16    5.33
   4  -1  -3  128.85    6.11
  -5   2   3  110.59    6.92
  -5   2   3  114.93    5.85
   5  -2  -3  121.63    7.44
   5  -2  -3  116.22    5.85
   5  -2  -3  114.48    5.24
   5  -2  -3  119.27    6.00
  -6   3   3  104.83    5.06
  -6   3   3   95.82    6.00
   6  -3  -3  102.94    5.23
   6  -3  -3   93.22    4.54
  -7   4   3   35.76    1.86
  -7   4   3   35.49    2.45
  -7   4   3   37.28    2.02
   7  -4  -3   33.69    1.89
   7  -4  -3   33.16    2.16
  -8   5   3   11.71    1.24
  -8   5   3    9.23    0.98
  -8   5   3   10.42    0.84
   8  -5  -3   11.76    1.06
   8  -5  -3    8.83    1.03
  -9   6   3    5.42    1.00
   9  -6  -3    7.09    0.84
 -10   7   3    1.37    0.88
  10  -7  -3    1.81    0.67
 -11   8   3    0.35    0.94
  11  -8  -3    0.14    0.66
  -8  12  -4    0.55    1.09
   7 -11   4   14.03    1.26
  -7  11  -4   14.66    1.78
  -7  11  -4   12.14    1.39
   6 -10   4   12.17    1.14
  -6  10  -4   12.37    1.26
  -6  10  -4   13.96    1.72
   5  -9   4   18.48    1.34
  -5   9  -4   16.45    1.45
  -5   9  -4   20.96    1.76
   4  -8   4   66.73    3.55
  -4   8  -4   70.91    3.84
  -4   8  -4   75.00    4.46
   3  -7   4  121.37    6.20
  -3   7  -4  140.56    7.73
  -3   7  -4  126.30    6.66
   2  -6   4  107.07    5.71
  -2   6  -4  129.49    6.17
  -2   6  -4  124.47    7.11
   1  -5   4   82.75    4.22
  -1   5  -4   92.71    5.26
  -1   5  -4   92.75    4.58
   0  -4   4  102.88    5.29
   0   4  -4  106.33    5.39
   0   4  -4  110.06    5.40
  -1  -3   4  110.25    5.54
   1   3  -4  116.56    5.61
   1   3  -4  106.45    5.61
  -2  -2   4   31.01    1.66
  -2  -2   4   27.58    1.83
   2   2  -4   28.20    1.60
   2   2  -4   34.11    1.62
  -3  -1   4    0.49    0.27
  -3  -1   4    0.25    0.30
   3   1  -4    0.10    0.27
   3   1  -4    0.42    0.17
   3   1  -4    0.08    0.21
   3   1  -4    0.22    0.21
  -4   0   4    1.23    0.35
  -4   0   4    1.64    0.34
   4   0  -4    1.39    0.38
   4   0  -4    1.10    0.24
   4   0  -4    1.19    0.31
   4   0  -4    1.44    0.30
  -5   1   4    2.96    0.44
  -5   1   4    2.13    0.54
   5  -1  -4    2.57    0.41
   5  -1  -4    2.80    0.50
   5  -1  -4    2.13    0.44
   5  -1  -4    2.48    0.36
  -6   2   4   21.71    1.33
  -6   2   4   20.03    1.54
   6  -2  -4   18.58    1.17
   6  -2  -4   19.24    1.36
  -7   3   4   59.84    3.74
  -7   3   4   62.64    3.15
   7  -3  -4   53.05    2.83
   7  -3  -4   58.45    3.31
  -8   4   4   60.76    3.11
  -8   4   4   58.99    3.70
  -8   4   4   55.69    2.87
   8  -4  -4   54.89    2.84
   8  -4  -4   53.68    3.29
  -9   5   4   23.15    1.44
  -9   5   4   25.05    1.64
  -9   5   4   25.46    2.00
   9  -5  -4   24.59    1.60
 -10   6   4   16.39    1.67
  10  -6  -4   15.65    1.32
 -11   7   4   18.20    1.86
  11  -7  -4   18.73    1.51
   7 -12   5   14.04    1.33
  -7  12  -5   14.68    1.62
   6 -11   5    3.50    0.79
  -6  11  -5    1.31    0.83
  -6  11  -5    1.12    1.12
   5 -10   5    1.31    0.65
  -5  10  -5    1.97    0.74
  -5  10  -5    2.22    0.97
   4  -9   5    8.34    0.89
  -4   9  -5    9.90    1.15
  -4   9  -5    9.33    0.99
   3  -8   5    0.64    0.42
  -3   8  -5   -0.06    0.60
  -3   8  -5   -0.09    0.48
   2  -7   5   27.62    1.58
  -2   7  -5   29.72    1.74
  -2   7  -5   31.22    1.97
   1  -6   5   32.12    1.67
  -1   6  -5   35.07    1.86
   0  -5   5   41.11    2.19
   0   5  -5   42.62    2.24
   0   5  -5   42.17    2.24
  -1  -4   5  152.65    7.63
   1   4  -5  149.50    7.73
   1   4  -5  158.10    7.74
  -2  -3   5  237.86   11.64
   2   3  -5  224.34   11.79
   2   3  -5  242.99   11.80
  -3  -2   5  152.87    8.08
   3   2  -5  160.51    8.17
   3   2  -5  149.35    7.12
   3   2  -5  172.86   10.32
   3   2  -5  174.73    7.12
  -4  -1   5   88.98    5.44
  -4  -1   5   91.32    4.67
   4   1  -5  101.04    5.97
   4   1  -5   83.84    4.09
   4   1  -5   93.23    4.71
  -5   0   5   79.24    4.11
  -5   0   5   79.99    4.81
   5   0  -5   80.89    4.18
   5   0  -5   73.01    3.61
   5   0  -5   85.02    5.25
  -6   1   5   51.62    3.30
  -6   1   5   55.29    2.84
   6  -1  -5   51.90    2.90
   6  -1  -5   55.99    3.58
   6  -1  -5   45.69    2.47
  -7   2   5   15.20    1.18
  -7   2   5   13.72    1.32
   7  -2  -5   13.27    1.00
   7  -2  -5   13.74    1.24
  -8   3   5    3.27    0.78
  -8   3   5    3.70    0.65
  -8   3   5    3.46    0.53
   8  -3  -5    2.41    0.78
   8  -3  -5    3.12    0.58
  -9   4   5    0.77    0.55
  -9   4   5    0.94    0.46
  -9   4   5    0.93    0.75
   9  -4  -5    0.95    0.58
   9  -4  -5    1.47    0.81
 -10   5   5    0.76    0.81
  10  -5  -5   -0.52    0.60
 -11   6   5    3.43    1.02
  11  -6  -5    4.74    0.84
   7 -13   6   10.88    1.21
  -7  13  -6   10.46    1.40
   6 -12   6   16.07    1.37
  -6  12  -6   14.03    1.60
   5 -11   6   17.36    1.35
  -5  11  -6   17.28    1.58
   4 -10   6   68.27    3.35
  -4  10  -6   61.07    3.63
   3  -9   6   98.39    4.57
  -3   9  -6   86.74    4.92
   2  -8   6   32.40    1.75
  -2   8  -6   31.78    1.90
   1  -7   6   16.04    0.96
  -1   7  -6   17.12    1.12
   0  -6   6   50.41    2.62
   0   6  -6   50.09    2.69
  -1  -5   6   31.43    1.74
   1   5  -6   31.52    1.74
  -2  -4   6    2.15    0.37
   2   4  -6    2.48    0.35
   2   4  -6    2.05    0.32
  -3  -3   6   17.21    1.13
   3   3  -6   17.59    1.37
   3   3  -6   16.90    1.05
  -4  -2   6    0.70    0.37
  -4  -2   6    1.03    0.40
   4   2  -6    1.17    0.33
   4   2  -6    1.70    0.22
   4   2  -6    1.29    0.42
  -5  -1   6   11.09    0.97
  -5  -1   6   11.35    1.04
   5   1  -6   10.05    1.06
   5   1  -6   10.48    0.87
   5   1  -6   10.83    0.73
  -6   0   6  118.67    6.96
  -6   0   6  120.67    5.95
   6   0  -6  109.83    5.22
   6   0  -6  113.49    6.05
   6   0  -6  117.37    7.57
  -7   1   6  113.66    6.91
  -7   1   6  119.16    5.91
   7  -1  -6  112.01    6.06
   7  -1  -6  115.91    7.51
   7  -1  -6  110.62    5.20
  -8   2   6   21.18    1.75
  -8   2   6   21.95    1.31
  -8   2   6   23.75    1.60
   8  -2  -6   19.48    1.71
   8  -2  -6   21.75    1.33
  -9   3   6   13.59    1.05
  -9   3   6   13.10    1.43
  -9   3   6   15.94    1.33
   9  -3  -6   13.41    1.13
   9  -3  -6   12.73    1.41
 -10   4   6   35.50    2.19
 -10   4   6   31.61    2.53
 -10   4   6   32.87    1.92
  10  -4  -6   32.54    2.44
  10  -4  -6   37.38    2.03
 -11   5   6   15.68    1.69
   6 -13   7    0.49    0.82
  -6  13  -7   -0.16    0.90
   5 -12   7    0.71    0.71
  -5  12  -7    0.21    0.79
   4 -11   7    0.69    0.60
  -4  11  -7   -0.02    0.68
   3 -10   7    9.92    0.96
  -3  10  -7    9.73    1.05
   2  -9   7   42.82    2.18
  -2   9  -7   37.84    2.34
   1  -8   7   26.58    1.51
  -1   8  -7   29.89    1.71
   0   7  -7   28.21    1.67
  -1  -6   7  158.65    8.36
   1   6  -7  175.90    8.50
  -2  -5   7  256.72   12.98
   2   5  -7  266.62   13.16
  -3  -4   7   69.45    3.59
   3   4  -7   68.19    3.56
   3   4  -7   67.13    4.56
  -4  -3   7   15.92    1.18
   4   3  -7   16.03    1.02
   4   3  -7   13.43    1.29
  -5  -2   7   42.25    2.35
   5   2  -7   36.81    2.89
   5   2  -7   43.56    2.29
  -6  -1   7   33.96    2.05
  -6  -1   7   35.10    2.28
   6   1  -7   32.76    2.49
   6   1  -7   31.06    2.00
   6   1  -7   33.31    1.64
  -7   0   7    1.01    0.65
  -7   0   7    0.35    0.53
   7   0  -7    1.83    0.66
   7   0  -7    1.22    0.61
   7   0  -7    1.20    0.36
  -8   1   7    0.27    0.59
  -8   1   7    0.71    0.66
  -8   1   7    0.50    0.41
   8  -1  -7    0.07    0.63
   8  -1  -7    0.63    0.72
   8  -1  -7    0.45    0.41
  -9   2   7    0.35    0.64
  -9   2   7   -0.15    0.44
  -9   2   7   -0.02    0.72
   9  -2  -7    0.56    0.49
   9  -2  -7    0.39    0.84
 -10   3   7    1.75    0.55
 -10   3   7    3.23    0.82
 -10   3   7    2.55    0.93
  10  -3  -7    3.56    0.69
  10  -3  -7    3.16    1.08
 -11   4   7   11.95    1.62
 -11   4   7   16.59    1.51
  11  -4  -7   16.18    1.34
  -6  14  -8    9.64    1.39
   5 -13   8   18.42    1.52
  -5  13  -8   15.82    1.69
   4 -12   8   23.91    1.57
  -4  12  -8   19.39    1.74
   3 -11   8   23.96    1.55
  -3  11  -8   21.73    1.74
   2 -10   8   21.37    1.37
  -2  10  -8   19.21    1.48
   1  -9   8   16.07    1.06
  -1   9  -8   15.37    1.21
   0  -8   8    1.00    0.35
   0   8  -8    0.74    0.45
  -1  -7   8    6.32    0.67
   1   7  -8    7.52    0.77
  -2  -6   8    2.90    0.55
   2   6  -8    3.78    0.48
  -3  -5   8    4.99    0.62
   3   5  -8    4.77    0.74
   3   5  -8    4.60    0.50
  -4  -4   8   39.02    2.28
   4   4  -8   37.26    2.83
   4   4  -8   41.79    2.20
  -5  -3   8   72.72    3.74
   5   3  -8   64.07    4.71
   5   3  -8   71.76    3.71
  -6  -2   8   65.08    3.53
   6   2  -8   63.82    3.52
   6   2  -8   64.42    4.45
  -7  -1   8   60.39    2.92
  -7  -1   8   55.40    3.23
   7   1  -8   58.35    2.69
   7   1  -8   56.69    4.09
   7   1  -8   57.21    3.29
  -8   0   8   31.84    2.19
  -8   0   8   36.59    1.90
   8   0  -8   32.45    2.28
   8   0  -8   34.41    1.77
  -9   1   8   22.71    1.73
  -9   1   8   23.31    1.46
   9  -1  -8   24.15    1.41
   9  -1  -8   19.89    1.89
 -10   2   8   17.19    1.27
 -10   2   8   15.25    1.69
 -10   2   8   17.46    1.57
  10  -2  -8   16.46    1.78
  10  -2  -8   21.93    1.36
 -11   3   8    5.40    0.97
 -11   3   8    4.68    0.76
 -11   3   8    1.96    0.97
  11  -3  -8    3.71    1.18
  11  -3  -8    4.50    0.81
  -5  14  -9   -0.31    0.86
   4 -13   9    9.34    1.10
  -4  13  -9    8.71    1.24
   3 -12   9   14.21    1.27
  -3  12  -9   13.97    1.41
   2 -11   9   16.11    1.21
  -2  11  -9   13.61    1.33
   1 -10   9   40.46    2.24
  -1  10  -9   42.48    2.47
   0  -9   9   64.84    3.39
   0   9  -9   73.23    3.76
  -1  -8   9   58.55    2.97
   1   8  -9   62.58    3.29
  -2  -7   9   48.20    2.66
   2   7  -9   50.98    2.64
   2   7  -9   43.78    3.37
  -3  -6   9   39.10    2.22
   3   6  -9   34.64    2.76
   3   6  -9   38.70    2.12
  -4  -5   9   26.31    1.65
   4   5  -9   25.90    1.52
   4   5  -9   21.21    1.94
  -5  -4   9    9.44    0.71
  -5  -4   9   10.44    0.98
   5   4  -9    9.73    0.91
   5   4  -9    8.18    1.09
  -6  -3   9    0.74    0.38
  -6  -3   9    0.72    0.56
   6   3  -9    0.74    0.51
   6   3  -9    0.19    0.54
  -7  -2   9    0.28    0.39
  -7  -2   9    0.14    0.59
   7   2  -9    0.85    0.62
  -8  -1   9    4.75    0.85
  -8  -1   9    2.61    0.55
   8   1  -9    4.66    0.91
  -9   0   9   12.52    1.04
  -9   0   9   12.51    1.26
   9   0  -9   12.12    1.39
 -10   1   9   10.84    1.25
 -10   1   9   13.02    1.09
  10  -1  -9   12.01    1.47
 -11   2   9    9.13    1.17
  11  -2  -9    8.36    1.37
  -4  14 -10    6.82    1.19
   3 -13  10    9.58    1.11
  -3  13 -10    8.53    1.20
   2 -12  10    4.69    0.82
  -2  12 -10    4.04    0.91
   1 -11  10    0.52    0.55
  -1  11 -10    0.22    0.64
   0 -10  10    1.88    0.52
   0  10 -10    2.15    0.70
  -1  -9  10    1.85    0.47
   1   9 -10    2.03    0.60
   1   9 -10    2.13    0.70
  -2  -8  10    7.05    0.64
   2   8 -10    5.98    0.98
   2   8 -10    7.58    0.77
  -3  -7  10   38.65    1.97
  -3  -7  10   38.63    2.30
   3   7 -10   42.32    2.23
   3   7 -10   35.47    2.90
  -4  -6  10   78.77    4.10
  -4  -6  10   78.31    3.69
   4   6 -10   81.22    4.04
   4   6 -10   64.97    5.16
  -5  -5  10   48.83    2.74
  -5  -5  10   49.19    2.36
   5   5 -10   44.00    2.62
   5   5 -10   44.22    3.41
  -6  -4  10   18.82    1.57
  -6  -4  10   22.19    1.23
   6   4 -10   18.98    1.42
  -7  -3  10   33.99    2.21
  -7  -3  10   33.81    1.85
   7   3 -10   33.57    2.15
  -8  -2  10   35.86    1.99
  -8  -2  10   36.64    2.36
   8   2 -10   35.37    2.38
  -9  -1  10   10.54    1.23
  -9  -1  10   10.12    0.99
   9   1 -10    9.22    1.29
 -10   0  10    0.91    0.58
 -10   0  10    0.80    0.84
  10   0 -10    2.44    1.11
  -2  13 -11   27.00    2.03
   1 -12  11   40.23    2.46
  -1  12 -11   46.56    2.75
   0 -11  11   20.01    1.46
   0  11 -11   23.69    1.70
  -1 -10  11   13.59    1.12
   1  10 -11   18.12    1.36
  -2  -9  11   23.99    1.46
   2   9 -11   26.80    1.66
  -3  -8  11   16.12    1.02
   3   8 -11   16.16    1.22
  -4  -7  11   -0.21    0.56
  -4  -7  11    0.87    0.36
   4   7 -11    0.83    0.48
  -5  -6  11   -0.20    0.34
  -5  -6  11   -0.15    0.59
   5   6 -11    0.26    0.47
  -6  -5  11    0.42    0.40
  -6  -5  11    0.00    0.64
   6   5 -11    0.23    0.53
  -7  -4  11    3.28    0.57
  -7  -4  11    2.94    0.82
   7   4 -11    4.75    0.83
  -8  -3  11   15.25    1.54
  -8  -3  11   16.77    1.18
   8   3 -11   16.46    1.55
  -9  -2  11   19.20    1.75
  -9  -2  11   20.83    1.42
   9   2 -11   20.39    1.84
 -10  -1  11   14.97    1.56
  10   1 -11   12.47    1.57
  -1  13 -12    0.95    0.76
   0 -12  12    4.69    0.82
   0  12 -12    8.37    1.12
  -1 -11  12    5.71    0.79
   1  11 -12    7.68    1.00
   2  10 -12   16.99    1.38
  -3  -9  12   43.02    2.34
   3   9 -12   46.40    2.60
  -4  -8  12   43.50    2.51
  -4  -8  12   38.64    2.12
   4   8 -12   40.10    2.38
  -5  -7  12   19.40    1.21
  -5  -7  12   20.26    1.63
   5   7 -12   18.55    1.41
  -6  -6  12   20.78    1.68
  -6  -6  12   20.96    1.28
   6   6 -12   19.24    1.49
  -7  -5  12   25.40    1.89
  -7  -5  12   24.22    1.48
   7   5 -12   23.12    1.76
  -8  -4  12    7.32    0.83
  -8  -4  12    6.66    1.06
   8   4 -12    8.89    1.14
  -9  -3  12    0.83    0.83
   9   3 -12    1.32    0.95
   1  12 -13    6.33    1.01
  -2 -11  13    6.75    0.86
   2  11 -13    7.99    1.00
  -3 -10  13    0.94    0.49
   3  10 -13    2.04    0.69
  -4  -9  13    0.43    0.50
   4   9 -13    1.00    0.62
  -5  -8  13    2.58    0.80
  -5  -8  13    2.68    0.53
   5   8 -13    2.12    0.67
  -6  -7  13    0.75    0.45
  -6  -7  13    0.79    0.77
   6   7 -13    0.62    0.62
  -7  -6  13    8.19    1.14
   7   6 -13    8.88    1.05
  -8  -5  13   26.17    1.99
   8   5 -13   23.60    1.91
   5   9 -14   12.55    1.22
  -7  -6  14    1.94    0.89
   6   7 -14   11.32    1.17
  -6  -7  14   11.17    1.24
   5   8 -14   13.43    1.16
   3  10 -14   24.62    1.63
   2  11 -14   30.48    1.94
   8   4 -13   21.94    1.83
  -8  -4  13   22.07    1.82
   7   5 -13   12.71    1.33
  -7  -5  13   12.69    1.33
  -7  -5  13   12.71    1.03
   6   6 -13    3.41    0.73
  -6  -6  13    2.22    0.81
  -6  -6  13    1.68    0.48
   5   7 -13    2.47    0.64
  -5  -7  13    1.64    0.74
   4   8 -13    4.08    0.68
   3   9 -13    0.46    0.54
   2  10 -13    7.62    0.85
  -2 -10  13    6.08    0.72
   1  11 -13   10.83    1.15
  -1 -11  13    9.80    0.97
   0  12 -13    8.73    1.11
   9   2 -12   -0.49    0.91
  -9  -2  12    0.15    0.78
   8   3 -12    4.61    1.00
  -8  -3  12    4.52    0.95
  -8  -3  12    5.14    0.71
   7   4 -12   24.44    1.80
  -7  -4  12   25.13    1.49
  -7  -4  12   24.36    1.89
   6   5 -12   20.35    1.55
  -6  -5  12   23.04    1.30
  -6  -5  12   20.43    1.72
   5   6 -12   15.50    1.23
  -5  -6  12   16.47    1.04
  -5  -6  12   17.47    1.49
   4   7 -12   35.48    2.17
  -4  -7  12   39.85    2.33
   3   8 -12   53.36    2.94
   2   9 -12   23.12    1.52
   1  10 -12    8.61    0.93
  -1 -10  12    6.84    0.74
   0  11 -12    8.92    1.08
   0 -11  12    8.77    0.90
  -1  12 -12    6.27    1.04
   1 -12  12    5.90    0.89
  -2  13 -12   -0.01    0.74
  10   0 -11   10.94    1.43
 -10   0  11   10.22    1.23
   9   1 -11   13.25    1.46
  -9  -1  11   11.27    1.07
  -9  -1  11   13.72    1.45
   8   2 -11   12.99    1.46
  -8  -2  11   14.23    1.09
  -8  -2  11   14.11    1.44
   7   3 -11    7.14    0.97
  -7  -3  11    7.79    0.78
  -7  -3  11    7.20    0.98
   6   4 -11    2.96    0.68
  -6  -4  11    1.70    0.43
  -6  -4  11    3.06    0.74
   5   5 -11    0.66    0.48
  -5  -5  11    0.58    0.59
  -5  -5  11    0.18    0.34
   4   6 -11    2.27    0.50
  -4  -6  11    1.29    0.59
   3   7 -11   10.15    0.91
   3   7 -11    9.67    1.25
  -3  -7  11   10.99    1.11
   2   8 -11   17.77    1.20
   2   8 -11   15.01    1.58
   1   9 -11   24.94    1.63
   0  10 -11   39.23    2.19
   0 -10  11   31.16    1.90
  -1  11 -11   45.70    2.59
   1 -11  11   38.38    2.30
  -2  12 -11   22.60    1.77
   2 -12  11   23.38    1.61
  -3  13 -11   10.23    1.26
  10  -1 -10    1.77    1.06
 -10   1  10    1.18    0.56
 -10   1  10    1.58    0.84
   9   0 -10   13.18    1.49
  -9   0  10   14.49    1.50
  -9   0  10   14.58    1.13
   8   1 -10   15.77    1.56
  -8  -1  10   19.01    1.21
  -8  -1  10   16.47    1.56
   7   2 -10   27.85    1.90
  -7  -2  10   27.28    1.92
   6   3 -10   56.39    3.00
  -6  -3  10   48.69    3.01
   5   4 -10   50.28    3.66
   5   4 -10   48.15    2.79
  -5  -4  10   53.89    2.92
   4   5 -10   40.10    2.21
   4   5 -10   36.88    2.92
  -4  -5  10   40.70    2.33
   3   6 -10   32.84    2.61
   3   6 -10   34.61    1.95
  -3  -6  10   35.33    2.07
   2   7 -10   19.38    1.75
   2   7 -10   21.47    1.33
  -2  -7  10   21.31    1.45
   1   8 -10   10.75    0.91
   1   8 -10    8.05    1.06
   0   9 -10    5.08    0.73
   0  -9  10    5.20    0.56
  -1  10 -10    0.07    0.57
   1 -10  10    0.46    0.44
  -2  11 -10    1.90    0.72
   2 -11  10    2.20    0.63
  -3  12 -10    8.18    1.08
   3 -12  10    8.18    0.99
  -4  13 -10   11.25    1.34
   4 -13  10   10.67    1.15
  11  -3  -9   21.45    2.05
  10  -2  -9   16.22    1.77
 -10   2   9   18.71    1.59
 -10   2   9   17.25    1.28
   9  -1  -9    1.83    0.94
  -9   1   9    4.57    0.67
  -9   1   9    3.74    0.84
   8   0  -9    1.74    0.81
  -8   0   9    2.20    0.53
  -8   0   9    1.25    0.69
   7   1  -9    6.92    0.91
  -7  -1   9    4.93    0.82
   6   2  -9    1.40    0.63
   6   2  -9    0.87    0.57
  -6  -2   9    1.87    0.61
   5   3  -9    9.94    1.16
   5   3  -9   10.31    0.92
  -5  -3   9   11.01    1.09
   4   4  -9   21.13    1.91
   4   4  -9   24.98    1.45
  -4  -4   9   25.59    1.62
   3   5  -9   10.15    0.81
   3   5  -9    8.92    1.06
  -3  -5   9   10.71    0.99
   2   6  -9   44.82    2.39
   2   6  -9   43.58    3.14
  -2  -6   9   43.51    2.45
   1   7  -9  148.72    9.93
   1   7  -9  158.61    7.84
   0   8  -9  101.04    5.28
  -1   9  -9   15.10    1.16
   1  -9   9   13.10    0.94
  -2  10  -9   18.97    1.44
   2 -10   9   19.57    1.32
  -3  11  -9   32.00    2.17
   3 -11   9   33.83    1.94
  -4  12  -9    9.56    1.25
   4 -12   9   13.35    1.18
  -5  13  -9    1.16    0.86
   5 -13   9    0.82    0.79
  11  -4  -8    1.31    1.13
  11  -4  -8    1.32    0.69
 -11   4   8    1.07    0.74
 -11   4   8    0.94    0.96
  10  -3  -8   12.43    1.49
 -10   3   8   11.66    1.52
 -10   3   8   12.74    1.26
 -10   3   8   14.27    1.12
   9  -2  -8   29.37    2.22
   9  -2  -8   33.93    1.73
  -9   2   8   29.60    2.02
  -9   2   8   26.03    2.27
  -9   2   8   30.85    1.75
   8  -1  -8   21.51    1.19
   8  -1  -8   16.86    1.64
  -8   1   8   19.00    1.69
  -8   1   8   19.11    1.55
   7   0  -8   32.01    2.56
   7   0  -8   34.08    2.15
  -7   0   8   35.29    2.35
  -7   0   8   29.72    2.05
   6   1  -8  107.08    5.73
   6   1  -8  110.29    7.22
  -6  -1   8  112.79    6.57
  -6  -1   8  105.21    5.64
   5   2  -8   91.26    6.28
   5   2  -8   94.03    4.94
  -5  -2   8   98.50    4.94
   4   3  -8   17.65    1.12
   4   3  -8   15.93    1.46
  -4  -3   8   17.45    1.27
   3   4  -8    8.14    0.96
   3   4  -8    9.11    0.73
  -3  -4   8   10.54    0.92
   2   5  -8   20.53    1.24
   2   5  -8   21.24    1.69
  -2  -5   8   21.73    1.36
   1   6  -8    5.40    0.76
   1   6  -8    6.58    0.65
  -1  -6   8    5.42    0.57
   0   7  -8    2.26    0.46
  -1   8  -8    8.09    0.84
  -2   9  -8    9.47    0.98
   2  -9   8   10.76    0.88
  -3  10  -8   21.79    1.64
   3 -10   8   23.46    1.45
  -4  11  -8   38.91    2.58
   4 -11   8   43.83    2.35
  -5  12  -8   23.50    1.91
   5 -12   8   25.48    1.69
  -6  13  -8    9.13    1.35
   6 -13   8   12.11    1.25
  11  -5  -7   17.66    1.35
 -11   5   7   12.31    1.66
  10  -4  -7    6.32    0.83
  10  -4  -7    4.48    1.12
 -10   4   7    3.98    1.01
 -10   4   7    6.40    0.91
 -10   4   7    3.28    0.65
   9  -3  -7    0.76    0.54
   9  -3  -7    1.31    0.87
  -9   3   7    1.31    0.50
  -9   3   7    2.10    0.83
  -9   3   7    1.41    0.68
   8  -2  -7    0.52    0.71
   8  -2  -7    0.57    0.43
  -8   2   7    0.59    0.68
  -8   2   7    1.58    0.61
   7  -1  -7    0.04    0.34
   7  -1  -7   -0.05    0.61
  -7   1   7   -0.20    0.60
  -7   1   7   -0.01    0.50
   6   0  -7    9.36    1.02
   6   0  -7    9.68    1.12
   6   0  -7    8.84    0.72
  -6   0   7   10.20    1.09
  -6   0   7   11.89    1.08
   5   1  -7   32.20    1.94
   5   1  -7   35.28    2.47
   5   1  -7   30.66    1.92
  -5  -1   7   34.97    2.23
  -5  -1   7   34.04    1.97
   4   2  -7   50.46    2.67
   4   2  -7   46.14    3.42
   4   2  -7   48.50    2.70
  -4  -2   7   53.18    2.74
  -4  -2   7   51.51    3.09
   3   3  -7   70.27    3.59
   3   3  -7   67.78    4.60
  -3  -3   7   69.59    3.62
   2   4  -7  130.80    7.81
   2   4  -7  112.31    6.10
   2   4  -7  119.32    6.11
  -2  -4   7  120.58    6.08
   1   5  -7  185.60   11.46
   1   5  -7  180.47    9.06
   1   5  -7  179.79    9.06
  -1  -5   7  173.07    8.94
   0   6  -7  110.14    5.49
   0  -6   7  104.23    5.39
  -1   7  -7   29.59    1.71
  -2   8  -7   28.78    1.75
   2  -8   7   28.91    1.57
  -3   9  -7   29.31    1.87
   3  -9   7   28.32    1.64
  -4  10  -7    2.17    0.71
   4 -10   7    1.91    0.59
  -5  11  -7    0.94    0.74
   5 -11   7    2.55    0.70
  -6  12  -7    1.38    0.87
   6 -12   7   -0.49    0.72
  -7  13  -7    0.46    0.96
   7 -13   7    0.84    0.84
  11  -6  -6    7.62    0.97
 -11   6   6    7.57    1.26
  10  -5  -6   25.30    1.67
  10  -5  -6   22.23    2.02
 -10   5   6   23.54    2.09
 -10   5   6   27.55    1.81
   9  -4  -6   27.52    1.69
   9  -4  -6   26.33    2.03
  -9   4   6   26.99    1.60
  -9   4   6   26.94    2.15
  -9   4   6   28.03    1.84
   8  -3  -6   29.99    2.16
   8  -3  -6   32.39    1.78
  -8   3   6   33.44    1.98
  -8   3   6   31.65    2.34
   7  -2  -6   71.28    4.13
   7  -2  -6   73.68    3.51
  -7   2   6   80.78    4.00
  -7   2   6   73.65    4.67
   6  -1  -6   80.72    3.79
   6  -1  -6   77.98    4.29
   6  -1  -6   83.79    5.50
   6  -1  -6   77.70    4.42
  -6   1   6   93.07    4.35
  -6   1   6   82.66    5.06
   5   0  -6   26.03    1.98
   5   0  -6   25.11    1.31
   5   0  -6   26.25    1.60
   5   0  -6   24.33    1.56
  -5   0   6   28.24    1.62
  -5   0   6   26.73    1.82
   4   1  -6    7.89    0.88
   4   1  -6   10.08    0.55
   4   1  -6    7.39    0.75
   4   1  -6    7.79    0.69
  -4  -1   6    7.89    0.72
  -4  -1   6    7.99    0.83
   3   2  -6   22.97    1.29
   3   2  -6   23.26    1.29
   3   2  -6   21.58    1.34
   3   2  -6   23.89    1.71
  -3  -2   6   23.01    1.37
  -3  -2   6   22.05    1.50
   2   3  -6   10.18    0.70
   2   3  -6   12.53    1.00
   2   3  -6   11.99    0.74
   2   3  -6   10.37    0.78
  -2  -3   6   11.26    0.84
  -2  -3   6   10.44    0.84
   1   4  -6   12.99    0.81
   1   4  -6   14.12    1.10
   1   4  -6   12.29    0.81
  -1  -4   6   13.08    0.87
   0   5  -6   54.95    2.68
   0   5  -6   49.57    2.67
   0  -5   6   48.44    2.63
  -1   6  -6   37.35    2.33
  -1   6  -6   37.62    2.04
  -2   7  -6   44.94    2.58
  -2   7  -6   50.67    2.96
   2  -7   6   45.77    2.35
  -3   8  -6   61.93    3.49
  -3   8  -6   71.03    4.02
   3  -8   6   59.66    3.18
  -4   9  -6   52.12    3.20
   4  -9   6   60.93    2.94
  -5  10  -6   34.05    2.31
   5 -10   6   36.54    2.06
  -6  11  -6   18.66    1.77
  -6  11  -6   20.49    2.03
   6 -11   6   20.31    1.51
  -7  12  -6   11.94    1.45
   7 -12   6   13.60    1.29
  -8  13  -6    7.53    1.30
  11  -7  -5    4.93    0.88
 -11   7   5    3.32    1.07
  10  -6  -5    1.40    0.70
 -10   6   5    1.31    0.89
   9  -5  -5    0.75    0.81
   9  -5  -5    0.23    0.58
  -9   5   5    0.01    0.74
  -9   5   5    0.34    0.44
  -9   5   5    0.29    0.52
   8  -4  -5    1.67    0.75
   8  -4  -5    1.26    0.55
  -8   4   5    2.10    0.55
  -8   4   5    1.74    0.73
   7  -3  -5    4.99    0.80
   7  -3  -5    3.64    0.56
  -7   3   5    4.19    0.64
  -7   3   5    3.98    0.79
   6  -2  -5   30.00    1.72
   6  -2  -5   26.07    1.81
   6  -2  -5   26.47    1.52
  -6   2   5   28.78    2.03
  -6   2   5   32.74    1.77
   5  -1  -5   88.28    4.27
   5  -1  -5  100.50    6.18
   5  -1  -5   94.90    4.94
   5  -1  -5   95.13    4.83
  -5   1   5   94.00    5.68
   4   0  -5  115.93    5.77
   4   0  -5  112.59    5.85
   4   0  -5  122.74    7.38
   4   0  -5  107.45    5.08
  -4   0   5  113.48    6.77
   3   1  -5  146.02    8.75
   3   1  -5  120.99    6.82
   3   1  -5  149.48    6.01
   3   1  -5  140.57    6.91
  -3  -1   5  126.38    8.02
   2   2  -5  182.13    9.75
   2   2  -5  218.17   12.48
   2   2  -5  182.47    9.87
   2   2  -5  215.59    9.88
  -2  -2   5  187.07   11.46
   1   3  -5  144.18    7.58
   1   3  -5  147.86    8.91
   1   3  -5  146.99    7.67
   1   3  -5  150.68    7.67
   1   3  -5  173.54    9.72
  -1  -3   5  155.19    7.60
   0   4  -5   80.40    3.93
   0   4  -5   71.55    4.54
   0   4  -5   80.75    3.93
   0  -4   5   76.07    3.87
  -1   5  -5   46.17    2.95
  -1   5  -5   54.10    2.59
  -1   5  -5   47.29    2.57
  -2   6  -5   32.12    2.05
  -2   6  -5   33.39    1.80
   2  -6   5   29.91    1.60
  -3   7  -5    7.97    0.95
  -3   7  -5    7.52    0.82
   3  -7   5    6.46    0.67
  -4   8  -5    0.80    0.69
  -4   8  -5    0.81    0.53
   4  -8   5    0.48    0.42
  -5   9  -5    3.40    0.75
  -5   9  -5    4.86    1.02
   5  -9   5    4.76    0.73
  -6  10  -5    6.75    1.03
  -6  10  -5    6.73    1.27
   6 -10   5    8.93    0.96
  -7  11  -5   16.09    2.02
  -7  11  -5   13.72    1.49
   7 -11   5   15.60    1.32
  -8  12  -5   16.36    1.93
  -8  12  -5   13.69    1.58
   8 -12   5   14.00    1.36
  11  -8  -4    7.94    1.03
 -11   8   4    6.94    1.30
  10  -7  -4   19.42    1.48
 -10   7   4   18.99    1.89
   9  -6  -4   46.11    2.48
   8  -5  -4   43.64    2.77
   8  -5  -4   47.48    2.42
  -8   5   4   45.14    2.38
  -8   5   4   47.05    3.13
  -8   5   4   45.84    2.56
   7  -4  -4   20.18    1.35
   7  -4  -4   18.37    1.47
   7  -4  -4   18.61    1.29
  -7   4   4   20.99    1.67
  -7   4   4   22.75    1.38
   6  -3  -4   14.11    1.04
   6  -3  -4   17.54    1.14
   6  -3  -4   15.90    1.24
  -6   3   4   16.64    1.40
  -6   3   4   18.24    1.17
   5  -2  -4   29.96    1.68
   5  -2  -4   37.03    1.91
   5  -2  -4   35.00    1.97
  -5   2   4   34.21    2.26
   4  -1  -4   25.64    1.79
   4  -1  -4   26.70    1.45
   4  -1  -4   22.52    1.25
   4  -1  -4   24.59    1.42
  -4   1   4   24.33    1.67
   3   0  -4    4.27    0.56
   3   0  -4    3.10    0.37
   3   0  -4    3.27    0.29
   3   0  -4    4.04    0.44
  -3   0   4    3.53    0.45
   2   1  -4   38.47    2.02
   2   1  -4   36.01    2.03
   2   1  -4   41.36    2.61
   2   1  -4   41.23    2.03
  -2  -1   4   37.59    2.37
   1   2  -4   35.25    2.09
   1   2  -4   28.78    1.61
   1   2  -4   28.49    1.88
   0   3  -4   79.10    4.25
   0   3  -4   86.58    4.32
   0   3  -4   84.10    5.01
   0   3  -4   92.39    4.32
  -1   4  -4  170.06   11.09
  -1   4  -4  202.28    9.58
  -1   4  -4  199.98    9.58
  -2   5  -4  184.42    8.35
  -2   5  -4  160.83    9.65
   2  -5   4  149.50    7.74
  -3   6  -4  111.30    6.26
  -3   6  -4  106.21    5.39
   3  -6   4   95.69    5.00
  -4   7  -4   61.54    3.35
  -4   7  -4   61.82    3.88
   4  -7   4   60.84    3.10
  -5   8  -4   47.36    3.04
  -5   8  -4   40.67    2.59
   5  -8   4   44.40    2.40
  -6   9  -4   27.83    2.01
  -6   9  -4   32.00    2.40
   6  -9   4   31.13    1.84
  -7  10  -4   10.84    1.26
  -7  10  -4   14.01    1.74
   7 -10   4   13.44    1.18
  -8  11  -4    1.79    0.87
  -8  11  -4    1.17    1.10
   8 -11   4    2.56    0.82
  -9  12  -4   -0.85    1.06
  11  -9  -3   -0.63    0.71
 -11   9   3    1.04    1.05
  10  -8  -3   -0.19    0.64
 -10   8   3    1.08    0.93
   9  -7  -3    0.09    0.53
  -9   7   3    0.30    0.77
   8  -6  -3   14.86    1.21
  -8   6   3   16.88    1.10
  -8   6   3   17.12    1.58
   7  -5  -3   42.17    2.50
   7  -5  -3   42.87    2.19
  -7   5   3   42.75    2.85
  -7   5   3   40.60    2.31
   6  -4  -3   31.65    1.95
   6  -4  -3   30.74    1.71
   6  -4  -3   32.29    1.82
  -6   4   3   33.71    2.24
   5  -3  -3  100.94    4.92
   5  -3  -3  112.08    5.66
   5  -3  -3  114.65    5.51
  -5   3   3  108.35    6.53
   4  -2  -3  303.24   14.68
   4  -2  -3  304.28   12.83
   4  -2  -3  288.10   14.39
  -4   2   3  270.56   16.99
   3  -1  -3  125.55    6.26
   3  -1  -3  150.52    7.18
   3  -1  -3  153.22    8.99
   3  -1  -3  136.38    7.04
  -3   1   3  150.26    8.98
  -3   1   3  134.62    8.31
   2   0  -3   29.09    1.59
   2   0  -3   34.10    1.38
   2   0  -3   31.47    1.58
   2   0  -3   25.35    1.38
   2   0  -3   32.10    2.03
  -2   0   3   30.76    2.01
  -2   0   3   27.89    1.86
   1   1  -3  135.61    6.74
   1   1  -3  128.95    6.67
   1   1  -3  131.59    7.85
   1   1  -3  152.86    8.52
   1   1  -3  125.96    6.74
   0   2  -3  192.34    9.46
  -1   3  -3   20.52    1.02
  -1   3  -3   24.27    1.21
  -1   3  -3   23.92    1.19
  -1   3  -3   19.59    1.39
  -2   4  -3    2.59    0.34
  -2   4  -3    2.18    0.38
   2  -4   3    2.16    0.28
  -3   5  -3    0.03    0.31
  -3   5  -3    0.44    0.42
   3  -5   3   -0.09    0.30
  -4   6  -3    1.49    0.47
  -4   6  -3    1.09    0.59
   4  -6   3    1.13    0.44
  -5   7  -3   46.09    2.68
  -5   7  -3   47.61    3.14
   5  -7   3   48.46    2.53
  -6   8  -3   75.71    4.63
  -6   8  -3   67.18    3.94
   6  -8   3   72.85    3.68
  -7   9  -3   27.03    2.21
  -7   9  -3   23.86    1.89
   7  -9   3   25.03    1.63
  -8  10  -3    9.35    1.23
  -8  10  -3   10.12    1.46
   8 -10   3   12.41    1.19
  -9  11  -3   20.55    2.09
  10  -9  -2   25.69    1.77
 -10   9   2   27.02    2.30
   9  -8  -2   40.94    2.31
  -9   8   2   43.24    3.04
   8  -7  -2   13.24    1.16
  -8   7   2   16.09    1.55
   7  -6  -2    1.41    0.49
  -7   6   2    2.19    0.73
  -7   6   2    1.05    0.38
   6  -5  -2    5.58    0.57
   6  -5  -2    6.33    0.65
   6  -5  -2    5.37    0.71
  -6   5   2    6.35    0.84
   5  -4  -2   19.15    1.27
   5  -4  -2   17.50    1.14
   5  -4  -2   20.25    1.16
  -5   4   2   19.72    1.49
   4  -3  -2    0.65    0.34
   4  -3  -2    0.11    0.32
   4  -3  -2    0.21    0.26
   4  -3  -2    0.12    0.25
  -4   3   2    0.22    0.38
   3  -2  -2   85.99    3.91
   3  -2  -2   75.36    3.80
   3  -2  -2   71.19    3.60
   3  -2  -2   75.33    3.40
  -3   2   2   69.81    4.50
  -3   2   2   76.28    3.39
  -3   2   2   74.34    4.82
   2  -1  -2   85.88    4.19
   2  -1  -2   79.66    3.72
  -2   1   2   87.22    5.33
  -2   1   2   82.60    4.94
   1   0  -2   17.41    1.16
   1   0  -2   17.97    0.84
   1   0  -2   16.05    0.84
   1   0  -2   17.75    0.99
   1   0  -2   19.14    1.25
   1   0  -2   20.01    0.96
  -1   0   2   20.03    1.24
  -1   0   2   19.04    1.17
   0   1  -2  337.79   20.79
   0  -1   2  326.73   20.80
  -1   2  -2  925.85   52.37
  -1   2  -2 1000.00   45.19
  -1   2  -2  792.27   39.51
  -2   3  -2  196.58    8.94
  -2   3  -2  173.82   10.37
   2  -3   2  163.06    8.34
  -3   4  -2   11.12    0.97
  -3   4  -2   10.79    0.76
   3  -4   2    9.47    0.74
  -4   5  -2   82.24    5.36
  -4   5  -2   98.43    4.63
   4  -5   2   86.55    4.03
   4  -5   2   87.80    4.33
  -5   6  -2  121.86    5.98
  -5   6  -2  113.50    6.93
   5  -6   2  108.66    5.56
  -6   7  -2   17.18    1.60
  -6   7  -2   16.06    1.31
   6  -7   2   17.05    1.21
  -7   8  -2   -0.06    0.59
  -7   8  -2    0.31    0.79
   7  -8   2    0.25    0.60
  -8   9  -2   -0.06    0.85
  -8   9  -2    0.83    0.75
   8  -9   2    1.22    0.69
  -9  10  -2    0.90    1.00
 -10  11  -2    4.14    1.23
  10 -10  -1    1.26    0.71
 -10  10   1   -0.12    0.99
   9  -9  -1    7.18    0.91
  -9   9   1    7.16    1.22
   8  -8  -1   22.47    1.55
  -8   8   1   26.35    2.09
   7  -7  -1   32.78    1.90
  -7   7   1   37.92    2.55
   6  -6  -1   49.75    2.51
  -6   6   1   51.52    3.31
   5  -5  -1  126.53    5.52
   5  -5  -1  109.45    6.05
   5  -5  -1  119.42    6.28
   5  -5  -1  119.69    5.86
  -5   5   1  122.20    7.27
  -5   5   1  131.42    6.27
   4  -4  -1  214.74   10.10
   4  -4  -1  183.39    9.82
   4  -4  -1  210.58    8.84
   4  -4  -1  182.42    9.41
  -4   4   1  188.75   11.68
  -4   4   1  214.21   10.07
   3  -3  -1  118.46    4.81
   3  -3  -1  102.55    5.31
   3  -3  -1  120.58    5.49
   3  -3  -1   97.10    5.11
  -3   3   1  107.86    5.45
  -3   3   1  104.77    4.76
  -3   3   1  100.05    6.32
  -3   3   1  104.53    6.77
   2  -2  -1   51.26    2.21
   2  -2  -1   51.36    2.51
   2  -2  -1   44.59    2.42
   2  -2  -1   47.50    2.34
  -2   2   1   44.73    2.89
  -2   2   1   47.79    2.18
  -2   2   1   49.83    2.49
   1  -1  -1   54.57    2.80
   1  -1  -1   60.19    2.64
   1  -1  -1   63.12    3.02
   0   0  -1    6.97    0.38
  -1   1  -1    0.18    0.10
  -2   2  -1    1.93    0.19
  -2   2  -1    2.89    0.34
  -2   2  -1    2.48    0.24
   2  -2   1    2.56    0.28
  -3   3  -1   19.78    1.08
  -3   3  -1   16.38    1.17
  -3   3  -1   17.84    1.32
  -3   3  -1   15.39    0.94
   3  -3   1   20.15    1.11
   3  -3   1   19.52    0.97
   3  -3   1   18.06    1.05
  -4   4  -1   71.93    3.58
  -4   4  -1   59.20    3.27
  -4   4  -1   65.07    4.17
   4  -4   1   74.08    3.37
   4  -4   1   72.81    3.15
  -5   5  -1  118.31    5.90
  -5   5  -1  106.03    6.84
   5  -5   1  115.17    5.17
   5  -5   1  116.13    5.51
  -6   6  -1  108.89    6.56
  -6   6  -1  113.08    5.66
   6  -6   1  105.99    5.27
   6  -6   1  102.59    4.93
  -7   7  -1   43.53    2.87
  -7   7  -1   39.28    2.42
   7  -7   1   41.62    2.25
   7  -7   1   36.22    2.05
  -8   8  -1   19.56    1.81
  -9   9  -1   26.89    2.26
 -10  10  -1   17.59    1.91
 -10  11   0   11.94    1.63
  -9  10   0   13.21    1.69
   8  -9   0    1.55    0.59
  -8   9   0    2.64    0.94
   7  -8   0    2.12    0.58
  -7   8   0    1.40    0.77
   6  -7   0    2.91    0.53
   6  -7   0    2.37    0.61
  -6   7   0    1.93    0.71
   5  -6   0    5.37    0.66
   5  -6   0    6.22    0.59
  -5   6   0    5.32    0.80
  -5   6   0    6.13    0.67
   4  -5   0   45.32    2.44
   4  -5   0   41.22    2.42
   4  -5   0   48.73    2.61
   4  -5   0   50.16    2.28
  -4   5   0   49.33    2.25
  -4   5   0   49.28    2.58
  -4   5   0   49.88    3.03
   3  -4   0   58.98    2.90
   3  -4   0   56.24    2.72
   3  -4   0   54.17    2.52
   3  -4   0   49.62    2.73
  -3   4   0   53.31    2.49
  -3   4   0   53.03    3.34
  -3   4   0   55.34    2.86
   2  -3   0   95.68    5.05
   2  -3   0   98.61    4.88
   2  -3   0  113.19    5.21
   2  -3   0  103.76    4.56
  -2   3   0  107.55    5.19
  -2   3   0   96.85    6.02
  -2   3   0   99.91    4.54
   1  -2   0  309.76   14.36
   1  -2   0  281.55   12.57
   1  -2   0  257.64   13.42
  -1   2   0  306.80   14.35
  -1   2   0  283.61   12.56
  -1   2   0  282.39   16.64
   0  -1   0  413.97   19.34
  -1   0   0  409.83   21.10
  -1   0   0  418.55   19.71
   1   0   0  440.19   19.76
  -2   1   0  212.88   12.29
  -2   1   0  205.37   10.58
  -2   1   0  206.01    9.89
   2  -1   0  209.16    9.90
   2  -1   0  208.38   10.58
   2  -1   0  226.96    9.28
  -3   2   0   73.20    4.47
  -3   2   0   73.20    3.74
  -3   2   0   68.11    3.56
  -3   2   0   75.98    3.83
   3  -2   0   72.45    4.72
   3  -2   0   75.68    3.60
   3  -2   0   79.83    3.85
   3  -2   0   80.63    3.37
  -4   3   0   83.48    4.07
  -4   3   0   75.22    3.94
  -4   3   0   70.58    3.76
  -4   3   0   75.70    4.74
   4  -3   0   82.00    4.09
   4  -3   0   82.71    3.84
   4  -3   0   81.63    3.58
  -5   4   0   35.75    2.30
  -5   4   0   37.75    1.95
  -5   4   0   30.41    1.81
  -5   4   0   31.38    1.73
   5  -4   0   36.40    1.85
   5  -4   0   36.46    1.73
   5  -4   0   32.90    1.95
  -6   5   0    0.70    0.45
  -6   5   0    0.75    0.62
   6  -5   0    0.36    0.39
   6  -5   0    0.32    0.46
  -7   6   0    0.44    0.66
   7  -6   0    0.83    0.46
   7  -6   0    0.88    0.54
  -8   7   0    1.29    0.80
   8  -7   0    0.56    0.49
  -9   8   0    6.10    1.14
 -10   9   0   13.33    1.65
  -9  11  -1    7.03    1.29
  -8  10  -1   32.20    2.56
  -7   9  -1   50.81    3.46
   6  -8   1   46.37    2.58
   6  -8   1   42.85    2.39
  -6   8  -1   52.62    3.25
  -6   8  -1   49.09    2.76
   5  -7   1   54.78    3.08
   5  -7   1   58.98    2.88
  -5   7  -1   61.55    3.83
  -5   7  -1   64.22    3.30
   4  -6   1   73.97    3.91
   4  -6   1   80.08    3.65
  -4   6  -1   79.80    4.84
  -4   6  -1   81.27    4.16
   3  -5   1   39.46    2.20
   3  -5   1   42.80    2.03
   3  -5   1   43.27    2.33
  -3   5  -1   42.88    2.71
  -3   5  -1   42.16    2.00
  -3   5  -1   43.60    2.31
   2  -4   1   18.41    1.05
   2  -4   1   14.92    0.99
   2  -4   1   15.62    0.90
  -2   4  -1   16.01    0.89
  -2   4  -1   16.34    1.22
  -2   4  -1   17.16    1.02
   1  -3   1   36.46    1.79
   1  -3   1   35.22    1.67
  -1   3  -1   35.47    2.20
  -1   3  -1   37.76    1.90
  -1   3  -1   34.81    1.65
   0  -2   1    3.96    0.32
   0   2  -1    3.87    0.33
   0   2  -1    4.66    0.38
  -1  -1   1   60.54    2.86
   1   1  -1   56.49    2.69
   1   1  -1   64.04    3.08
  -2   0   1   89.36    5.39
  -2   0   1   97.10    4.34
  -2   0   1   90.20    4.58
   2   0  -1   89.85    4.34
   2   0  -1   97.11    4.08
   2   0  -1   89.12    4.65
  -3   1   1  140.80    6.69
  -3   1   1  141.05    7.05
  -3   1   1  133.88    7.15
  -3   1   1  138.13    8.33
   3  -1  -1  151.12    6.29
   3  -1  -1  142.86    6.71
   3  -1  -1  146.74    8.95
   3  -1  -1  142.82    7.17
  -4   2   1  166.69    9.82
  -4   2   1  163.93    8.44
  -4   2   1  161.76    7.88
  -4   2   1  155.72    8.28
   4  -2  -1  170.97    7.92
   4  -2  -1  163.26   10.52
   4  -2  -1  175.05    8.47
   4  -2  -1  180.73    7.43
  -5   3   1   96.69    5.05
  -5   3   1   97.63    5.88
  -5   3   1   93.66    4.68
  -5   3   1   96.60    4.92
   5  -3  -1   98.14    4.75
   5  -3  -1  101.33    4.45
   5  -3  -1  100.91    5.08
  -6   4   1   74.03    3.65
  -6   4   1   74.38    4.63
  -6   4   1   73.48    3.83
   6  -4  -1   79.78    3.76
   6  -4  -1   76.74    3.51
   6  -4  -1   71.11    3.98
  -7   5   1   80.12    4.78
   7  -5  -1   72.08    3.62
  -8   6   1   43.65    2.91
   8  -6  -1   40.42    2.22
  -9   7   1   17.49    1.70
   9  -7  -1   15.39    1.27
 -10   8   1    4.94    1.10
  10  -8  -1    5.69    0.86
 -11   9   1    0.90    1.02
  -9  12  -2    1.04    1.10
  -8  11  -2    1.32    1.00
  -7  10  -2   -0.29    0.84
   6  -9   2    9.98    1.00
  -6   9  -2   10.47    1.28
  -6   9  -2   10.37    1.06
   5  -8   2   12.06    1.05
  -5   8  -2   11.63    1.36
  -5   8  -2   10.57    1.05
   4  -7   2   26.72    1.58
  -4   7  -2   26.58    1.97
  -4   7  -2   24.08    1.60
   3  -6   2  126.72    5.71
   3  -6   2  132.38    6.12
  -3   6  -2  129.02    7.57
  -3   6  -2  127.66    6.51
  -3   6  -2  120.10    5.66
   2  -5   2  246.46   11.07
   2  -5   2  265.92   11.84
  -2   5  -2  239.53   11.04
  -2   5  -2  261.26   12.65
  -2   5  -2  243.21   14.65
   1  -4   2  166.65    8.34
  -1   4  -2  196.22    8.93
  -1   4  -2  173.76   10.32
  -1   4  -2  171.89    7.79
   0  -3   2  135.92    6.72
   0  -3   2  133.52    6.38
   0   3  -2  145.68    6.86
   0   3  -2  128.89    5.98
  -1  -2   2  185.46    8.54
  -1  -2   2  176.71    9.02
   1   2  -2  174.36    8.02
   1   2  -2  194.59    9.17
  -2  -1   2  161.62    8.26
  -2  -1   2  173.25    7.82
   2   1  -2  170.52    8.39
   2   1  -2  162.89    7.34
  -3   0   2   58.83    3.59
  -3   0   2   60.15    3.07
   3   0  -2   60.85    2.72
   3   0  -2   59.75    3.09
  -4   1   2   21.24    1.15
  -4   1   2   21.39    1.51
  -4   1   2   20.75    1.26
   4  -1  -2   22.60    1.54
   4  -1  -2   22.11    1.28
   4  -1  -2   22.86    1.15
   4  -1  -2   21.33    1.17
  -5   2   2    5.88    0.54
  -5   2   2    6.45    0.68
  -5   2   2    7.08    0.85
  -5   2   2    6.15    0.63
   5  -2  -2    6.41    0.66
   5  -2  -2    6.39    0.62
   5  -2  -2    6.60    0.67
   5  -2  -2    7.28    0.63
  -6   3   2    1.50    0.59
  -6   3   2    1.55    0.38
  -6   3   2    1.84    0.35
   6  -3  -2    1.63    0.40
   6  -3  -2    1.23    0.48
  -7   4   2   16.36    1.17
  -7   4   2   17.36    1.51
  -7   4   2   17.75    1.06
   7  -4  -2   15.37    1.14
   7  -4  -2   16.61    1.30
  -8   5   2   25.61    1.98
   8  -5  -2   25.13    1.58
  -9   6   2   23.55    1.96
   9  -6  -2   23.95    1.57
 -10   7   2   16.35    1.69
  10  -7  -2   15.49    1.32
 -11   8   2   12.72    1.59
  11  -8  -2   12.49    1.21
  -8  12  -3   18.40    2.00
   7 -11   3   41.51    2.45
  -7  11  -3   41.35    2.75
  -7  11  -3   44.96    3.13
   6 -10   3   27.88    1.84
  -6  10  -3   29.18    2.08
  -6  10  -3   31.83    2.36
   5  -9   3    8.45    0.91
  -5   9  -3    8.74    1.18
  -5   9  -3    6.94    0.91
   4  -8   3   14.41    1.11
  -4   8  -3   13.00    1.17
  -4   8  -3   16.73    1.46
   3  -7   3   39.71    2.21
  -3   7  -3   44.42    2.77
  -3   7  -3   44.34    2.39
  -3   7  -3   41.17    2.03
   2  -6   3    3.39    0.43
  -2   6  -3    3.97    0.50
  -2   6  -3    4.73    0.40
  -2   6  -3    3.54    0.53
   1  -5   3   28.05    1.53
  -1   5  -3   29.25    1.42
  -1   5  -3   29.60    1.87
  -1   5  -3   32.95    1.66
   0  -4   3   20.06    1.05
   0  -4   3   21.59    1.17
   0   4  -3   19.68    1.01
   0   4  -3   20.77    1.20
  -1  -3   3   20.91    1.25
   1   3  -3   24.11    1.25
   1   3  -3   21.80    1.07
  -2  -2   3  242.22   11.20
  -2  -2   3  231.67   11.83
   2   2  -3  256.49   12.02
   2   2  -3  228.35   10.50
  -3  -1   3  332.11   15.83
  -3  -1   3  315.00   18.61
   3   1  -3  346.20   16.07
   3   1  -3  290.18   14.06
  -4   0   3  124.09    6.55
  -4   0   3  125.54    7.70
   4   0  -3  142.18    8.35
   4   0  -3  130.48    6.65
   4   0  -3  132.14    5.83
  -5   1   3   68.15    3.34
  -5   1   3   66.27    3.56
  -5   1   3   64.87    4.19
   5  -1  -3   75.71    3.65
   5  -1  -3   63.30    3.17
   5  -1  -3   75.14    4.52
  -6   2   3  104.25    5.08
  -6   2   3  102.98    5.38
  -6   2   3  104.83    6.37
   6  -2  -3  107.09    6.82
   6  -2  -3  104.81    5.53
   6  -2  -3  111.12    4.84
  -7   3   3   80.84    3.95
  -7   3   3   86.21    4.20
  -7   3   3   81.55    4.99
   7  -3  -3   79.69    4.37
   7  -3  -3   74.20    3.78
  -8   4   3   17.18    1.24
  -8   4   3   16.83    1.52
  -8   4   3   16.48    1.08
   8  -4  -3   15.10    1.21
   8  -4  -3   18.27    1.41
  -9   5   3    4.66    0.94
   9  -5  -3    4.24    0.77
 -10   6   3    3.78    0.97
  10  -6  -3    5.77    0.85
 -11   7   3    0.55    0.91
  11  -7  -3    0.37    0.64
  -7  12  -4   -0.42    1.03
  -7  12  -4    3.11    0.96
   6 -11   4   17.94    1.36
  -6  11  -4   15.51    1.56
  -6  11  -4   17.21    1.86
   5 -10   4   23.19    1.56
  -5  10  -4   22.06    1.73
  -5  10  -4   25.94    2.12
   4  -9   4   30.17    1.89
  -4   9  -4   36.32    2.45
  -4   9  -4   34.12    2.08
   3  -8   4  116.60    5.80
  -3   8  -4  121.87    6.24
  -3   8  -4  121.16    7.20
   2  -7   4  156.08    7.94
  -2   7  -4  171.58    9.85
  -2   7  -4  170.32    7.42
  -2   7  -4  171.34    8.54
   1  -6   4   43.95    2.32
  -1   6  -4   49.12    2.52
  -1   6  -4   47.78    2.16
   0  -5   4   26.79    1.39
   0   5  -4   28.97    1.56
   0   5  -4   27.31    1.31
  -1  -4   4  140.78    7.14
   1   4  -4  138.80    6.31
   1   4  -4  150.98    7.26
  -2  -3   4  126.72    6.59
  -2  -3   4  133.37    6.20
   2   3  -4  131.48    6.69
   2   3  -4  136.56    5.83
  -3  -2   4    1.82    0.30
  -3  -2   4    1.97    0.34
   3   2  -4    1.33    0.22
   3   2  -4    1.23    0.26
  -4  -1   4   10.16    0.88
  -4  -1   4   11.30    0.84
   4   1  -4    8.51    0.66
   4   1  -4   11.59    0.77
  -5   0   4    0.67    0.43
  -5   0   4    0.57    0.35
   5   0  -4    0.70    0.27
   5   0  -4    0.60    0.36
   5   0  -4    0.53    0.35
  -6   1   4    4.19    0.46
  -6   1   4    4.80    0.69
  -6   1   4    5.13    0.59
   6  -1  -4    4.91    0.63
   6  -1  -4    3.54    0.48
   6  -1  -4    5.28    0.70
  -7   2   4   82.51    5.15
  -7   2   4   83.82    4.10
  -7   2   4   85.99    4.38
   7  -2  -4   86.06    5.53
   7  -2  -4   84.49    3.92
   7  -2  -4   79.42    4.52
  -8   3   4   79.49    3.94
  -8   3   4   74.65    4.65
  -8   3   4   74.02    3.66
   8  -3  -4   70.60    3.54
   8  -3  -4   70.77    4.13
  -9   4   4   16.90    1.30
  -9   4   4   14.79    1.49
  -9   4   4   12.60    1.04
   9  -4  -4   15.33    1.22
   9  -4  -4   14.76    1.47
 -10   5   4   12.72    1.47
  10  -5  -4   14.39    1.28
 -11   6   4   24.96    2.25
  11  -6  -4   28.81    1.80
  -7  13  -5   13.43    1.52
   6 -12   5    3.11    0.83
  -6  12  -5    3.51    0.96
   5 -11   5    2.76    0.74
  -5  11  -5    1.81    0.77
   4 -10   5    5.43    0.75
  -4  10  -5    4.64    0.81
   3  -9   5    1.36    0.51
  -3   9  -5    1.23    0.56
   2  -8   5    3.96    0.52
  -2   8  -5    3.46    0.58
   1  -7   5   23.95    1.42
  -1   7  -5   26.76    1.58
  -1   7  -5   28.23    1.32
   0  -6   5   47.34    2.46
   0  -6   5   52.37    2.63
   0   6  -5   51.88    2.70
   0   6  -5   50.18    2.30
  -1  -5   5   87.26    4.05
  -1  -5   5   86.70    4.34
   1   5  -5   85.97    4.41
   1   5  -5   82.14    3.79
  -2  -4   5  219.78   10.79
  -2  -4   5  220.10   10.17
   2   4  -5  211.69   10.94
   2   4  -5  217.73    9.54
  -3  -3   5  244.42   11.44
  -3  -3   5  241.55   12.13
   3   3  -5  248.78   10.73
   3   3  -5  242.70   12.29
  -4  -2   5   83.43    4.32
   4   2  -5   86.41    4.34
   4   2  -5   81.48    3.77
  -5  -1   5   48.95    3.11
  -5  -1   5   51.84    2.48
  -5  -1   5   50.10    2.73
   5   1  -5   53.54    2.72
   5   1  -5   52.67    3.43
   5   1  -5   44.05    2.34
  -6   0   5   81.15    4.18
  -6   0   5   77.94    4.85
  -6   0   5   80.34    3.87
   6   0  -5   81.69    5.29
   6   0  -5   79.71    3.68
   6   0  -5   77.18    4.24
  -7   1   5   40.69    2.78
  -7   1   5   45.42    2.43
  -7   1   5   43.88    2.19
   7  -1  -5   41.93    2.49
   7  -1  -5   39.11    2.09
   7  -1  -5   40.60    2.99
  -8   2   5    5.87    0.87
  -8   2   5    5.06    0.72
  -8   2   5    3.78    0.56
   8  -2  -5    3.78    0.58
   8  -2  -5    4.41    0.79
   8  -2  -5    4.70    0.86
  -9   3   5    0.50    0.69
  -9   3   5    1.09    0.57
  -9   3   5    0.30    0.42
   9  -3  -5    0.72    0.81
   9  -3  -5    0.19    0.50
 -10   4   5    0.15    0.78
 -10   4   5   -0.01    0.57
  10  -4  -5   -0.37    0.58
 -11   5   5    0.61    0.89
  11  -5  -5    2.84    0.76
   6 -13   6   11.07    1.19
  -6  13  -6    9.81    1.32
   5 -12   6   23.61    1.60
  -5  12  -6   19.12    1.75
   4 -11   6   43.63    2.32
  -4  11  -6   37.64    2.53
   3 -10   6   59.63    3.08
  -3  10  -6   58.99    3.37
   2  -9   6   47.87    2.45
  -2   9  -6   45.09    2.65
   1  -8   6   33.58    1.76
  -1   8  -6   31.40    1.91
   0  -7   6   44.22    2.28
   0   7  -6   47.97    2.09
   0   7  -6   44.02    2.50
  -1  -6   6   22.77    1.18
  -1  -6   6   21.57    1.38
   1   6  -6   22.30    1.36
  -2  -5   6    0.29    0.20
  -2  -5   6    0.82    0.39
   2   5  -6    0.27    0.27
  -3  -4   6    1.18    0.24
  -3  -4   6    1.29    0.39
   3   4  -6    0.67    0.30
  -4  -3   6    0.85    0.40
  -4  -3   6    1.29    0.27
   4   3  -6    0.73    0.32
   4   3  -6    0.93    0.23
  -5  -2   6   25.33    1.65
  -5  -2   6   27.87    1.41
  -5  -2   6   25.38    1.77
   5   2  -6   25.27    1.34
   5   2  -6   26.49    2.00
   5   2  -6   27.76    1.59
  -6  -1   6   73.59    3.47
  -6  -1   6   70.45    3.78
  -6  -1   6   69.46    4.33
   6   1  -6   74.71    3.81
   6   1  -6   67.19    3.27
   6   1  -6   68.51    4.75
  -7   0   6   71.97    3.76
  -7   0   6   70.40    4.34
  -7   0   6   69.75    3.45
   7   0  -6   69.74    3.27
   7   0  -6   67.45    4.72
   7   0  -6   67.48    3.83
  -8   1   6   45.93    3.20
  -8   1   6   51.41    2.82
  -8   1   6   51.98    2.55
   8  -1  -6   50.45    2.44
   8  -1  -6   48.85    3.50
   8  -1  -6   43.15    2.90
  -9   2   6   31.23    1.71
  -9   2   6   28.08    2.21
  -9   2   6   32.12    1.99
   9  -2  -6   28.83    1.69
   9  -2  -6   25.66    2.13
 -10   3   6   17.28    1.77
 -10   3   6   23.51    1.64
 -10   3   6   20.79    1.34
  10  -3  -6   19.56    1.42
  10  -3  -6   17.35    1.82
 -11   4   6   16.09    1.80
 -11   4   6   19.87    1.62
  11  -4  -6   21.56    1.52
  -6  14  -7    1.42    0.99
   5 -13   7    0.44    0.79
  -5  13  -7    0.64    0.86
   4 -12   7    0.41    0.66
  -4  12  -7   -0.04    0.73
   3 -11   7    6.08    0.81
  -3  11  -7    4.50    0.88
   2 -10   7   13.41    1.06
  -2  10  -7   12.49    1.18
   1  -9   7   32.69    1.78
  -1   9  -7   30.48    1.93
   0  -8   7   66.47    3.43
   0   8  -7   73.78    3.76
  -1  -7   7   80.99    4.04
  -1  -7   7   84.54    4.35
   1   7  -7   86.69    4.42
  -2  -6   7   87.88    4.56
  -2  -6   7   88.05    4.21
   2   6  -7   88.83    4.60
  -3  -5   7  120.14    6.11
  -3  -5   7  120.32    5.67
   3   5  -7  118.78    6.15
  -4  -4   7   91.74    4.41
  -4  -4   7   91.07    4.79
   4   4  -7   94.04    4.80
  -5  -3   7   35.57    2.11
  -5  -3   7   37.32    1.84
   5   3  -7   37.30    2.06
   5   3  -7   32.19    2.58
  -6  -2   7   16.50    1.03
  -6  -2   7   17.30    1.35
   6   2  -7   17.01    1.21
   6   2  -7   16.50    0.97
   6   2  -7   14.87    1.45
  -7  -1   7    8.04    0.74
  -7  -1   7    5.99    0.81
   7   1  -7    6.56    0.60
   7   1  -7    7.74    0.88
   7   1  -7    7.26    1.00
  -8   0   7    1.69    0.48
  -8   0   7    1.65    0.72
  -8   0   7    0.97    0.62
   8   0  -7    1.48    0.71
   8   0  -7    0.51    0.69
   8   0  -7    0.86    0.41
  -9   1   7    0.54    0.75
  -9   1   7    0.67    0.46
  -9   1   7    0.25    0.67
   9  -1  -7    0.47    0.83
   9  -1  -7    0.58    0.48
 -10   2   7    4.12    1.03
 -10   2   7    6.67    0.77
 -10   2   7    7.68    0.99
  10  -2  -7    5.78    1.20
  10  -2  -7    7.23    0.80
 -11   3   7    6.04    1.16
 -11   3   7    8.01    1.05
  11  -3  -7    7.77    0.90
  -5  14  -8   19.10    1.84
   4 -13   8   14.77    1.35
  -4  13  -8   12.39    1.41
   3 -12   8   11.94    1.19
  -3  12  -8   11.70    1.27
   2 -11   8   27.48    1.65
  -2  11  -8   24.38    1.80
   1 -10   8   22.26    1.41
  -1  10  -8   21.19    1.54
   0  -9   8    1.81    0.45
   0   9  -8    2.55    0.62
  -1  -8   8    0.46    0.36
   1   8  -8   -0.08    0.43
  -2  -7   8    0.92    0.52
  -2  -7   8    0.55    0.31
   2   7  -8    0.54    0.39
  -3  -6   8   11.71    0.76
  -3  -6   8   11.99    1.09
   3   6  -8   11.85    0.96
  -4  -5   8   46.67    2.31
  -4  -5   8   45.30    2.64
   4   5  -8   47.12    2.57
  -5  -4   8   70.75    3.38
  -5  -4   8   69.98    3.75
   5   4  -8   74.82    3.71
   5   4  -8   60.75    4.69
  -6  -3   8   48.60    2.33
  -6  -3   8   47.50    2.67
   6   3  -8   46.85    2.60
   6   3  -8   38.70    3.23
  -7  -2   8   30.16    1.65
  -7  -2   8   30.49    1.99
   7   2  -8   27.16    2.35
   7   2  -8   29.81    1.93
   7   2  -8   31.09    1.52
  -8  -1   8   43.64    2.27
  -8  -1   8   42.94    2.60
   8   1  -8   41.14    2.64
   8   1  -8   42.29    2.12
  -9   0   8   46.00    2.78
  -9   0   8   46.75    2.46
   9   0  -8   42.38    2.89
 -10   1   8   18.31    1.63
 -10   1   8   17.58    1.30
  10  -1  -8   13.07    1.67
  10  -1  -8   20.28    1.34
 -11   2   8    5.67    0.81
 -11   2   8    7.01    1.05
  11  -2  -8    6.83    0.87
  11  -2  -8    5.58    1.26
  -4  14  -9    2.01    0.93
   3 -13   9    4.72    0.93
  -3  13  -9    3.05    0.92
   2 -12   9   12.57    1.17
  -2  12  -9   11.90    1.33
   1 -11   9   49.69    2.76
  -1  11  -9   52.75    3.01
   0 -10   9   69.68    3.69
   0  10  -9   77.61    4.05
  -1  -9   9   31.45    1.82
   1   9  -9   35.12    2.06
  -2  -8   9   29.50    1.88
  -2  -8   9   30.17    1.62
   2   8  -9   28.90    1.81
  -3  -7   9   67.01    3.26
  -3  -7   9   64.40    3.59
   3   7  -9   67.58    3.58
  -4  -6   9   44.87    2.27
  -4  -6   9   45.26    2.60
   4   6  -9   44.90    2.53
  -5  -5   9    4.60    0.50
  -5  -5   9    4.22    0.72
   5   5  -9    3.52    0.59
   5   5  -9    3.87    0.79
  -6  -4   9    4.07    0.75
  -6  -4   9    2.61    0.47
   6   4  -9    2.56    0.70
   6   4  -9    3.50    0.63
  -7  -3   9    3.20    0.74
  -7  -3   9    3.18    0.53
   7   3  -9    3.77    0.72
  -8  -2   9    3.01    0.58
  -8  -2   9    2.59    0.78
   8   2  -9    3.54    0.83
  -9  -1   9   22.86    1.43
  -9  -1   9   19.52    1.76
   9   1  -9   21.77    1.82
 -10   0   9   12.43    1.33
 -10   0   9   14.64    1.18
  10   0  -9   12.96    1.54
 -11   1   9    5.83    1.03
  11  -1  -9    5.68    1.25
  -3  14 -10    3.37    1.00
   2 -13  10    6.67    0.99
  -2  13 -10    5.95    1.05
   1 -12  10    6.05    0.88
  -1  12 -10    6.26    0.98
   0 -11  10    0.27    0.54
   0  11 -10    0.14    0.69
  -1 -10  10    5.60    0.71
   1  10 -10    6.85    0.91
  -2  -9  10    4.33    0.60
   2   9 -10    5.56    0.75
  -3  -8  10   18.36    1.10
  -3  -8  10   16.41    1.39
   3   8 -10   18.15    1.27
   3   8 -10   13.38    1.56
  -4  -7  10   69.14    3.74
  -4  -7  10   68.34    3.37
   4   7 -10   66.84    3.68
  -5  -6  10   67.71    3.70
  -5  -6  10   64.86    3.30
   5   6 -10   67.38    3.63
  -6  -5  10   23.51    1.36
  -6  -5  10   24.48    1.74
   6   5 -10   20.95    1.56
  -7  -4  10   22.92    1.75
  -7  -4  10   22.81    1.37
   7   4 -10   21.06    1.60
  -8  -3  10   38.03    2.07
  -8  -3  10   37.51    2.42
   8   3 -10   36.07    2.40
  -9  -2  10   19.83    1.71
  -9  -2  10   19.75    1.36
   9   2 -10   18.98    1.74
 -10  -1  10    2.49    0.68
 -10  -1  10    1.31    0.85
  10   1 -10    2.97    1.08
  -1  13 -11   32.98    2.34
   0 -12  11   22.79    1.66
   0  12 -11   26.15    1.90
  -1 -11  11   12.67    1.14
   1  11 -11   15.22    1.40
  -2 -10  11   16.81    1.24
   2  10 -11   17.06    1.41
  -3  -9  11   21.68    1.39
   3   9 -11   24.11    1.60
  -4  -8  11    9.00    0.83
  -4  -8  11    8.93    1.03
   4   8 -11    9.71    1.03
  -5  -7  11    0.84    0.68
  -5  -7  11   -0.07    0.41
   5   7 -11    0.22    0.53
  -6  -6  11    1.19    0.72
  -6  -6  11    0.57    0.46
   6   6 -11    0.33    0.56
  -7  -5  11    0.43    0.46
  -7  -5  11    0.95    0.72
   7   5 -11    0.26    0.63
  -8  -4  11    8.56    1.09
  -8  -4  11    5.30    0.73
   8   4 -11    7.13    1.02
  -9  -3  11   18.70    1.38
  -9  -3  11   20.82    1.75
   9   3 -11   19.91    1.78
 -10  -2  11   15.30    1.62
  10   2 -11   12.90    1.57
   0  13 -12    0.47    0.89
  -1 -12  12    5.78    0.89
   1  12 -12    5.96    1.03
  -2 -11  12   18.60    1.47
   2  11 -12   24.39    1.71
  -3 -10  12   28.97    1.77
   3  10 -12   30.03    1.95
  -4  -9  12   28.22    1.69
   4   9 -12   29.68    1.92
  -5  -8  12   25.93    1.88
  -5  -8  12   23.88    1.48
   5   8 -12   24.29    1.69
  -6  -7  12   27.83    1.95
  -6  -7  12   23.95    1.49
   6   7 -12   22.92    1.71
  -7  -6  12   21.29    1.73
  -7  -6  12   18.81    1.30
   7   6 -12   18.57    1.53
  -8  -5  12    9.04    1.19
   8   5 -12    9.46    1.16
  -9  -4  12    4.23    0.99
   9   4 -12    2.89    0.98
   2  12 -13    8.07    1.11
   3  11 -13    0.68    0.71
   4  10 -13    0.10    0.63
   5   9 -13    0.35    0.57
  -6  -8  13    2.26    0.87
   6   8 -13    2.18    0.69
  -7  -7  13   12.77    1.36
   7   7 -13   11.39    1.25
   7   5 -14    2.26    0.85
  -7  -5  14    2.79    0.88
  -6  -6  14   12.32    1.29
   5   7 -14   10.84    1.03
  -5  -7  14   10.14    1.14
   8   3 -13   12.38    1.38
  -8  -3  13   13.91    1.46
   7   4 -13   14.40    1.39
  -7  -4  13   14.50    1.09
  -7  -4  13   14.16    1.46
   6   5 -13   10.81    1.11
  -6  -5  13    8.83    0.86
  -6  -5  13    9.84    1.13
   5   6 -13    6.71    0.80
  -5  -6  13    6.63    0.96
   4   7 -13    2.47    0.55
  -4  -7  13    2.33    0.70
  -1  12 -13   15.88    1.50
   9   1 -12    0.73    0.92
  -9  -1  12   -0.15    0.73
   8   2 -12    8.42    1.20
  -8  -2  12    8.95    1.16
  -8  -2  12   11.10    0.95
   7   3 -12    9.55    1.16
  -7  -3  12   11.91    1.22
  -7  -3  12   11.44    0.94
   6   4 -12   16.70    1.38
  -6  -4  12   18.04    1.52
   5   5 -12   37.78    2.30
  -5  -5  12   42.46    2.48
   4   6 -12   33.22    1.94
  -4  -6  12   33.45    2.11
   3   7 -12   20.70    1.33
  -3  -7  12   20.68    1.52
   1   9 -12   31.72    1.88
   0  10 -12   16.98    1.34
  -1  11 -12    3.51    0.86
  -2  12 -12    0.61    0.73
   2 -12  12    1.23    0.67
  -3  13 -12   -0.09    0.75
  10  -1 -11   21.52    1.96
 -10   1  11   22.69    1.82
   9   0 -11   16.36    1.64
  -9   0  11   16.12    1.52
  -9   0  11   14.99    1.17
   8   1 -11    5.03    1.01
  -8  -1  11    5.16    0.93
   7   2 -11    5.92    0.91
  -7  -2  11    5.74    0.89
   6   3 -11   13.10    1.19
  -6  -3  11   12.83    1.22
   5   4 -11    7.26    0.79
  -5  -4  11    7.45    0.91
   4   5 -11    1.94    0.75
   4   5 -11    1.51    0.45
  -4  -5  11    0.74    0.57
   3   6 -11   13.61    0.98
   3   6 -11   13.01    1.43
  -3  -6  11   14.93    1.20
   2   7 -11    9.44    1.18
   2   7 -11   10.41    0.81
  -2  -7  11    9.45    0.99
   1   8 -11   17.18    1.64
   1   8 -11   20.11    1.26
   0   9 -11   56.96    3.14
  -1  10 -11   45.69    2.68
  -2  11 -11   14.50    1.38
   2 -11  11   15.30    1.23
  -3  12 -11   16.78    1.49
   3 -12  11   15.27    1.32
  -4  13 -11   16.03    1.63
  10  -2 -10   -0.19    0.99
 -10   2  10    0.92    0.78
   9  -1 -10    7.67    1.17
  -9   1  10    6.45    0.78
  -9   1  10    7.41    1.02
   8   0 -10   17.98    1.61
  -8   0  10   18.22    1.56
   7   1 -10   22.06    1.65
  -7  -1  10   20.61    1.64
   6   2 -10   36.67    2.22
  -6  -2  10   35.43    2.25
   5   3 -10   72.38    3.89
   5   3 -10   76.63    5.05
  -5  -3  10   69.47    3.93
   4   4 -10   53.75    3.74
   4   4 -10   51.44    2.81
  -4  -4  10   51.90    2.92
   3   5 -10   18.76    1.75
   3   5 -10   21.50    1.27
  -3  -5  10   21.40    1.43
   2   6 -10   24.97    2.02
   2   6 -10   25.41    1.44
  -2  -6  10   24.33    1.58
   1   7 -10   29.71    1.64
   1   7 -10   26.54    2.17
   0   8 -10    6.93    0.72
  -1   9 -10   -0.03    0.51
  -2  10 -10    0.45    0.58
   2 -10  10   -0.32    0.46
  -3  11 -10    4.71    0.87
   3 -11  10    4.84    0.75
  -4  12 -10   11.94    1.32
   4 -12  10   11.11    1.17
  -5  13 -10   12.70    1.41
  10  -3  -9   25.35    2.13
 -10   3   9   24.37    1.89
 -10   3   9   26.01    1.60
 -10   3   9   23.78    2.13
   9  -2  -9    8.38    1.20
  -9   2   9    7.57    1.02
  -9   2   9    7.74    1.19
  -9   2   9    8.97    0.90
   8  -1  -9    1.69    0.82
  -8   1   9    1.06    0.66
  -8   1   9    1.71    0.77
   7   0  -9    7.26    0.98
  -7   0   9    7.04    0.91
  -7   0   9    6.77    0.98
   6   1  -9    5.75    0.81
   6   1  -9    6.50    0.99
  -6  -1   9    6.55    0.87
  -6  -1   9    6.48    0.82
   5   2  -9    5.03    0.74
   5   2  -9    5.56    0.87
   5   2  -9    4.95    0.67
  -5  -2   9    6.44    0.77
   4   3  -9   24.70    1.62
   4   3  -9   24.62    1.49
   4   3  -9   25.70    2.01
  -4  -3   9   25.67    1.65
   3   4  -9   20.95    1.25
   3   4  -9   20.54    1.73
  -3  -4   9   21.63    1.44
   2   5  -9   25.65    2.02
   2   5  -9   26.01    1.46
  -2  -5   9   26.41    1.59
   1   6  -9   67.91    4.54
  -1  -6   9   66.78    3.52
   0   7  -9  130.05    6.65
  -1   8  -9   65.08    3.49
  -2   9  -9   17.02    1.29
   2  -9   9   17.89    1.13
  -3  10  -9   19.15    1.53
   3 -10   9   21.39    1.35
  -4  11  -9   23.20    1.79
   4 -11   9   24.59    1.58
  -5  12  -9    2.96    0.89
   5 -12   9    4.73    0.83
  -6  13  -9    0.06    0.86
  10  -4  -8    8.59    0.90
  10  -4  -8    5.37    1.22
 -10   4   8    6.88    0.84
 -10   4   8    8.04    1.04
 -10   4   8    6.96    1.23
   9  -3  -8   26.64    2.08
   9  -3  -8   31.97    1.63
  -9   3   8   24.35    2.17
  -9   3   8   25.23    1.87
   8  -2  -8   37.18    1.73
   8  -2  -8   31.87    2.21
  -8   2   8   30.57    2.05
  -8   2   8   28.54    2.37
   7  -1  -8   27.88    1.99
  -7   1   8   30.81    1.94
  -7   1   8   29.83    2.20
   6   0  -8   54.04    3.12
   6   0  -8   56.22    3.18
  -6   0   8   57.66    3.62
  -6   0   8   58.53    3.16
   5   1  -8   79.36    4.30
   5   1  -8   80.13    5.49
   5   1  -8   83.14    4.34
  -5  -1   8   84.54    4.99
  -5  -1   8   81.46    4.31
   4   2  -8   38.58    2.33
   4   2  -8   39.23    2.95
   4   2  -8   42.40    2.28
  -4  -2   8   45.44    2.66
  -4  -2   8   40.94    2.34
   3   3  -8   23.35    1.84
   3   3  -8   22.99    1.36
   3   3  -8   24.61    1.49
  -3  -3   8   22.79    1.61
  -3  -3   8   25.02    1.51
   2   4  -8   39.64    2.04
   2   4  -8   39.54    2.13
   2   4  -8   36.10    2.69
   2   4  -8   36.44    2.02
  -2  -4   8   38.88    2.13
   1   5  -8   15.98    1.30
  -1  -5   8   13.92    1.04
   0   6  -8    5.48    0.59
   0  -6   8    4.15    0.47
  -1   7  -8   10.18    0.86
  -1   7  -8   11.35    1.00
  -2   8  -8    5.50    0.64
  -3   9  -8   18.19    1.43
   3  -9   8   20.18    1.24
  -4  10  -8   31.47    2.15
   4 -10   8   35.07    1.93
  -5  11  -8   20.39    1.73
   5 -11   8   23.41    1.52
  -6  12  -8   14.63    1.60
   6 -12   8   16.49    1.40
  -7  13  -8   10.68    1.39
  10  -5  -7    7.56    0.86
  10  -5  -7    6.17    1.18
 -10   5   7    6.87    0.95
 -10   5   7    3.85    0.71
 -10   5   7    4.98    1.12
   9  -4  -7    4.51    1.05
   9  -4  -7    4.89    0.73
  -9   4   7    3.59    0.97
  -9   4   7    4.48    0.78
   8  -3  -7    1.50    0.51
   8  -3  -7    1.64    0.79
  -8   3   7    1.73    0.76
  -8   3   7    0.84    0.60
   7  -2  -7    0.71    0.64
   7  -2  -7   -0.02    0.47
   7  -2  -7    0.73    0.38
  -7   2   7    0.36    0.53
  -7   2   7    0.26    0.65
   6  -1  -7    2.52    0.57
   6  -1  -7    2.55    0.67
   6  -1  -7    2.30    0.37
  -6   1   7    1.54    0.56
  -6   1   7    1.80    0.62
   5   0  -7   24.94    1.57
   5   0  -7   24.61    1.57
   5   0  -7   23.53    1.91
  -5   0   7   24.84    1.78
   4   1  -7   55.42    3.91
   4   1  -7   54.47    3.06
   4   1  -7   58.04    3.09
  -4  -1   7   63.11    3.58
   3   2  -7   79.73    5.17
   3   2  -7   76.32    4.05
   3   2  -7   76.69    4.01
   3   2  -7   79.63    4.02
  -3  -2   7   78.77    4.70
   2   3  -7   99.07    6.15
   2   3  -7  105.01    6.75
   2   3  -7  107.30    5.28
  -2  -3   7  104.85    6.15
   1   4  -7  127.69    6.51
   1   4  -7  123.67    7.63
   1   4  -7  138.57    8.35
   0   5  -7  101.24    5.06
   0   5  -7  103.68    5.06
   0   5  -7  104.07    6.42
   0   5  -7   96.14    5.89
   0  -5   7   92.34    4.99
  -1   6  -7   66.93    4.04
  -1   6  -7   69.94    4.37
  -1   6  -7   63.36    3.46
  -2   7  -7   56.22    3.44
  -2   7  -7   57.25    3.63
  -2   7  -7   52.44    2.99
  -3   8  -7   32.72    2.02
  -3   8  -7   37.55    2.33
   3  -8   7   31.33    1.79
  -4   9  -7   10.23    1.29
  -4   9  -7    8.34    0.96
   4  -9   7   10.01    0.90
  -5  10  -7    0.15    0.65
  -5  10  -7    0.00    0.84
   5 -10   7   -0.05    0.52
  -6  11  -7    0.99    0.98
  -6  11  -7    0.53    0.81
   6 -11   7    0.69    0.69
  -7  12  -7    2.04    0.98
   7 -12   7    1.25    0.79
  -8  13  -7    1.94    1.05
  10  -6  -6    8.38    0.97
 -10   6   6    7.69    1.26
   9  -5  -6   23.59    1.54
   9  -5  -6   20.33    1.83
  -9   5   6   22.74    1.42
  -9   5   6   22.51    1.62
  -9   5   6   21.84    1.95
   8  -4  -6   56.27    3.49
   8  -4  -6   64.94    3.02
  -8   4   6   60.04    3.30
  -8   4   6   59.74    3.95
   7  -3  -6   57.99    2.75
   7  -3  -6   53.08    3.21
   7  -3  -6   52.23    3.06
  -7   3   6   61.06    3.10
  -7   3   6   57.06    3.66
   6  -2  -6   27.35    1.48
   6  -2  -6   24.93    1.76
   6  -2  -6   28.56    1.71
  -6   2   6   30.05    2.02
   5  -1  -6   36.72    2.18
   5  -1  -6   39.81    2.16
   5  -1  -6   36.92    1.83
  -5   1   6   38.67    2.51
   4   0  -6   69.80    4.66
   4   0  -6   68.71    3.68
   4   0  -6   70.67    3.66
  -4   0   6   71.55    4.27
   3   1  -6   31.39    2.26
   3   1  -6   32.73    1.74
   3   1  -6   32.29    1.80
  -3  -1   6   31.54    2.05
   2   2  -6    0.35    0.31
   2   2  -6    0.09    0.14
   2   2  -6    0.42    0.27
   2   2  -6    0.08    0.18
   2   2  -6    0.05    0.30
  -2  -2   6    0.36    0.30
   1   3  -6    2.94    0.37
   1   3  -6    3.21    0.48
   1   3  -6    2.43    0.37
   0   4  -6    6.24    0.65
   0   4  -6    6.00    0.62
   0   4  -6    5.33    0.52
  -1   5  -6   52.10    3.36
  -1   5  -6   59.78    2.89
  -1   5  -6   57.96    3.63
  -1   5  -6   52.51    2.88
  -2   6  -6  101.95    6.16
  -2   6  -6   95.55    5.76
  -2   6  -6   91.97    4.98
  -3   7  -6   63.96    3.68
  -3   7  -6   56.70    3.18
   3  -7   6   55.77    2.89
  -4   8  -6   42.79    2.70
  -4   8  -6   38.92    2.34
   4  -8   6   37.32    2.10
  -5   9  -6   47.04    2.90
  -5   9  -6   36.69    2.48
   5  -9   6   38.76    2.22
  -6  10  -6   41.24    2.84
  -6  10  -6   32.32    2.39
   6 -10   6   37.77    2.17
  -7  11  -6   19.96    2.06
  -7  11  -6   15.64    1.68
   7 -11   6   18.60    1.44
  -8  12  -6    5.92    1.21
  -8  12  -6    4.12    1.40
   8 -12   6    5.84    0.95
  10  -7  -5    1.53    0.72
 -10   7   5    0.81    0.93
   9  -6  -5    4.27    1.00
   9  -6  -5    3.57    0.74
  -9   6   5    4.34    0.65
  -9   6   5    4.01    1.01
   8  -5  -5    0.73    0.55
   8  -5  -5   -0.06    0.70
  -8   5   5    1.27    0.75
  -8   5   5    0.60    0.52
   7  -4  -5   16.38    1.26
   7  -4  -5   17.40    1.42
   7  -4  -5   18.74    1.23
  -7   4   5   18.51    1.31
  -7   4   5   18.47    1.60
   6  -3  -5   33.44    2.13
   6  -3  -5   38.14    2.05
   6  -3  -5   34.16    1.82
  -6   3   5   35.99    2.44
   5  -2  -5   21.96    1.28
   5  -2  -5   24.54    1.48
   5  -2  -5   23.78    1.52
  -5   2   5   25.89    1.76
   4  -1  -5   98.91    5.43
   4  -1  -5  102.24    4.71
   4  -1  -5  112.62    5.37
  -4   1   5  108.59    6.30
   3   0  -5  278.43   13.57
   3   0  -5  292.91   17.31
   3   0  -5  254.11   13.75
  -3   0   5  271.69   15.97
   2   1  -5  129.96    6.30
   2   1  -5  122.78    6.30
   2   1  -5  130.36    7.99
   2   1  -5  121.30    6.26
  -2  -1   5  121.31    7.35
   1   2  -5   39.75    2.51
   1   2  -5   36.76    1.97
   1   2  -5   34.95    2.29
   0   3  -5  160.04    9.37
   0   3  -5  139.29    8.64
   0   3  -5  144.71    7.33
  -1   4  -5  219.48   13.11
  -1   4  -5  213.94   10.45
  -1   4  -5  222.63   10.45
  -1   4  -5  177.89   12.13
  -2   5  -5   35.11    2.28
  -2   5  -5   33.61    2.22
  -2   5  -5   35.97    1.91
  -3   6  -5    0.46    0.39
  -3   6  -5    0.62    0.47
  -3   6  -5    0.32    0.25
   3  -6   5    0.41    0.30
  -4   7  -5    0.83    0.50
  -4   7  -5    1.10    0.64
   4  -7   5    1.73    0.44
  -5   8  -5    1.04    0.76
  -5   8  -5    0.46    0.58
   5  -8   5    1.27    0.53
  -6   9  -5    9.32    1.32
  -6   9  -5   11.15    1.18
   6  -9   5   11.41    1.06
  -7  10  -5   28.89    2.30
  -7  10  -5   21.74    1.90
   7 -10   5   24.03    1.64
  -8  11  -5   11.05    1.33
  -8  11  -5    7.45    1.50
   8 -11   5   11.89    1.19
  -9  12  -5    3.90    1.31
  -9  12  -5    5.78    1.23
  10  -8  -4   14.18    1.32
 -10   8   4   12.72    1.64
   9  -7  -4   42.58    2.35
  -9   7   4   41.63    3.02
   8  -6  -4   52.48    3.31
   8  -6  -4   58.20    2.88
  -8   6   4   55.37    3.07
  -8   6   4   60.26    3.78
   7  -5  -4   17.17    1.45
   7  -5  -4   20.93    1.33
   7  -5  -4   19.11    1.35
  -7   5   4   21.38    1.69
   6  -4  -4    9.64    0.98
   6  -4  -4    9.14    0.79
   6  -4  -4    9.55    0.85
  -6   4   4    9.48    1.12
   5  -3  -4   30.81    1.90
   5  -3  -4   34.46    1.81
   5  -3  -4   28.86    1.62
  -5   3   4   33.62    2.18
   4  -2  -4   36.28    1.89
   4  -2  -4   42.83    2.15
   4  -2  -4   39.31    2.20
  -4   2   4   41.00    2.55
   3  -1  -4    4.85    0.48
   3  -1  -4    4.67    0.37
   3  -1  -4    4.42    0.47
  -3   1   4    5.40    0.65
   2   0  -4   18.08    0.98
   2   0  -4   17.19    0.98
   2   0  -4   16.58    1.04
   2   0  -4   18.19    1.29
  -2   0   4   16.30    1.25
  -2   0   4   16.13    1.20
   1   1  -4   66.25    3.40
   1   1  -4   64.75    3.99
   1   1  -4   71.52    4.33
  -1  -1   4   65.60    4.30
   0   2  -4   78.32    4.67
   0   2  -4   72.53    3.66
   0   2  -4   68.16    4.31
  -1   3  -4  159.61    7.59
  -1   3  -4  144.55    7.46
  -1   3  -4  164.82    7.59
  -1   3  -4  132.57    8.82
  -1   3  -4  154.72    9.52
  -2   4  -4  205.61   13.05
  -2   4  -4  227.15   14.02
  -2   4  -4  239.10   11.26
  -3   5  -4  104.00    5.03
  -3   5  -4   99.30    5.83
   3  -5   4   89.53    4.65
  -4   6  -4   53.64    3.38
  -4   6  -4   54.61    2.91
   4  -6   4   50.66    2.67
  -5   7  -4   75.74    4.29
  -5   7  -4   82.16    4.99
   5  -7   4   81.78    3.99
  -6   8  -4   61.58    3.84
  -6   8  -4   54.12    3.25
   6  -8   4   56.51    3.00
  -7   9  -4   10.54    1.22
  -7   9  -4   13.61    1.60
   7  -9   4   12.59    1.12
  -8  10  -4    2.56    0.93
  -8  10  -4    3.31    1.16
   8 -10   4    2.03    0.79
  -9  11  -4    2.46    1.19
  10  -9  -3    0.60    0.70
 -10   9   3    0.19    0.99
   9  -8  -3   -0.28    0.59
  -9   8   3    0.83    0.87
   8  -7  -3    7.63    0.84
  -8   7   3    7.19    1.13
   7  -6  -3   18.16    1.54
   7  -6  -3   21.55    1.38
  -7   6   3   24.88    1.85
   6  -5  -3   33.10    2.08
   6  -5  -3   33.79    1.84
   6  -5  -3   34.47    1.94
  -6   5   3   36.69    2.43
   5  -4  -3   81.13    3.63
   5  -4  -3   77.54    4.13
   5  -4  -3   73.86    3.96
  -5   4   3   77.51    4.75
   4  -3  -3  194.80    8.71
   4  -3  -3  196.03    9.96
   4  -3  -3  199.10    9.74
  -4   3   3  199.67    8.68
  -4   3   3  191.35   11.53
   3  -2  -3  184.45    9.28
   3  -2  -3  215.38   10.44
   3  -2  -3  239.35   10.65
  -3   2   3  204.16   12.32
   2  -1  -3   61.53    2.84
   2  -1  -3   68.32    3.28
   2  -1  -3   67.45    3.25
   2  -1  -3   58.56    2.84
  -2   1   3   65.34    4.11
  -2   1   3   61.07    3.81
   1   0  -3   63.87    4.33
   1   0  -3   75.90    3.70
   1   0  -3   80.78    3.71
   1   0  -3   77.93    3.70
  -1   0   3   68.19    4.67
   0   1  -3  241.32   11.23
   0   1  -3  233.13   14.29
   0   1  -3  218.46   13.23
   0  -1   3  219.02   14.28
  -1   2  -3   72.33    4.63
  -1   2  -3   74.04    3.68
  -2   3  -3    0.34    0.17
  -2   3  -3    0.31    0.20
  -2   3  -3    0.11    0.34
  -3   4  -3   -0.41    0.24
  -3   4  -3   -0.03    0.38
   3  -4   3    0.26    0.26
  -4   5  -3    0.48    0.50
  -4   5  -3    1.00    0.35
   4  -5   3    0.43    0.37
  -5   6  -3   22.85    1.49
  -5   6  -3   20.82    1.77
   5  -6   3   24.16    1.39
  -6   7  -3   56.28    3.29
  -6   7  -3   60.54    3.85
   6  -7   3   59.72    3.04
  -7   8  -3   46.02    2.86
  -7   8  -3   52.92    3.37
   7  -8   3   45.64    2.59
  -8   9  -3   15.69    1.57
  -8   9  -3   18.33    1.84
   8  -9   3   16.17    1.31
  -9  10  -3   12.09    1.63
  10 -10  -2    8.77    1.06
 -10  10   2    9.01    1.44
   9  -9  -2   22.82    1.63
  -9   9   2   25.09    2.17
   8  -8  -2   34.28    1.99
  -8   8   2   35.52    2.61
   7  -7  -2   10.02    0.99
  -7   7   2   11.68    1.35
   6  -6  -2    4.11    0.69
   6  -6  -2    4.67    0.60
  -6   6   2    3.90    0.80
   5  -5  -2   14.20    1.08
   5  -5  -2   12.23    0.91
   5  -5  -2   13.39    0.97
  -5   5   2   12.75    1.25
   4  -4  -2    2.08    0.38
   4  -4  -2    1.33    0.29
   4  -4  -2    1.30    0.41
   4  -4  -2    1.61    0.42
  -4   4   2    2.24    0.34
  -4   4   2    1.08    0.47
   3  -3  -2   37.45    1.88
   3  -3  -2   41.36    1.79
   3  -3  -2   33.99    1.92
   3  -3  -2   39.98    2.03
  -3   3   2   34.12    2.31
  -3   3   2   35.12    1.73
  -3   3   2   34.71    2.44
   2  -2  -2   93.40    4.41
   2  -2  -2   89.94    3.86
   2  -2  -2   83.41    4.31
  -2   2   2   77.73    5.09
   1  -1  -2   91.27    3.99
   1  -1  -2   82.83    3.48
   1  -1  -2   77.17    3.93
   1  -1  -2   72.25    4.63
  -1   1   2   69.50    4.62
   0   0  -2  130.50    6.70
   0   0  -2  147.74    6.78
   0   0  -2  127.23    7.90
   0   0  -2  137.04    6.78
  -1   1  -2  240.24   12.07
  -1   1  -2  230.94   14.03
  -1   1  -2  254.63   12.07
  -2   2  -2  415.55   19.45
  -2   2  -2  377.48   22.58
   2  -2   2  375.26   18.17
  -3   3  -2  189.81   11.59
  -3   3  -2  208.45    9.98
   3  -3   2  196.34    9.34
  -4   4  -2   60.00    3.08
  -4   4  -2   55.36    3.59
   4  -4   2   58.39    2.89
   4  -4   2   59.19    2.70
  -5   5  -2   64.72    3.31
  -5   5  -2   56.41    3.84
   5  -5   2   60.61    2.90
   5  -5   2   64.28    3.10
  -6   6  -2   39.83    2.81
  -6   6  -2   40.87    2.42
   6  -6   2   43.92    2.25
  -7   7  -2    5.50    0.83
  -7   7  -2    5.30    1.01
   7  -7   2    5.19    0.74
  -8   8  -2   -0.61    0.83
  -8   8  -2    0.37    0.70
   8  -8   2    0.42    0.63
  -9   9  -2   -0.95    0.89
 -10  10  -2    0.67    1.04
 -10  11   1    1.00    1.08
   9 -10  -1    5.33    0.88
  -9  10   1    3.40    1.10
   8  -9  -1    9.49    1.00
  -8   9   1   11.94    1.50
   7  -8  -1   32.05    1.89
  -7   8   1   35.26    2.50
   6  -7  -1   68.49    3.44
  -6   7   1   75.19    4.56
   5  -6  -1   71.93    3.28
   5  -6  -1   64.36    3.72
  -5   6   1   71.08    4.33
   4  -5  -1   64.20    3.33
   4  -5  -1   71.59    3.58
   4  -5  -1   60.89    3.40
   4  -5  -1   68.93    3.13
  -4   5   1   69.48    3.55
  -4   5   1   66.29    4.13
  -4   5   1   68.11    3.09
   3  -4  -1  144.99    6.16
   3  -4  -1  136.58    6.56
   3  -4  -1  146.95    7.04
   3  -4  -1  135.30    6.84
  -3   4   1  128.34    8.13
  -3   4   1  139.07    7.01
  -3   4   1  133.74    6.12
   2  -3  -1  175.42    7.53
   2  -3  -1  189.20    8.61
   2  -3  -1  166.51    8.04
   2  -3  -1  159.56    8.41
  -2   3   1  158.04    9.95
  -2   3   1  175.43    8.59
  -2   3   1  168.13    7.51
   1  -2  -1   88.03    3.88
   1  -2  -1   82.76    4.35
   1  -2  -1   86.70    4.15
   1  -2  -1   95.60    4.44
  -1   2   1   83.81    5.13
  -1   2   1   87.75    3.88
   0  -1  -1   65.07    2.95
   0  -1  -1   65.28    3.33
   0  -1  -1   67.87    3.37
   0   1   1   65.64    3.14
  -1   0  -1    0.52    0.13
   1   0   1    0.46    0.11
   1   0   1    0.40    0.14
  -2   1  -1   39.76    2.18
  -2   1  -1   49.26    2.36
  -2   1  -1   46.23    2.76
   2  -1   1   47.76    2.21
  -3   2  -1   15.13    0.86
  -3   2  -1   12.43    0.76
  -3   2  -1   14.34    1.07
  -3   2  -1   11.68    0.85
   3  -2   1   16.16    0.81
   3  -2   1   13.94    0.93
   3  -2   1   16.21    0.88
  -4   3  -1   31.63    1.69
  -4   3  -1   29.46    1.99
  -4   3  -1   25.53    1.51
   4  -3   1   33.47    1.62
   4  -3   1   31.88    1.49
  -5   4  -1  101.75    5.17
  -5   4  -1   96.05    6.01
   5  -4   1   99.37    4.53
   5  -4   1  101.53    4.84
  -6   5  -1   80.00    4.12
  -6   5  -1   75.92    4.79
   6  -5   1   77.21    3.61
   6  -5   1   75.35    3.83
  -7   6  -1   45.61    2.64
  -7   6  -1   46.48    3.09
   7  -6   1   45.74    2.44
   7  -6   1   42.96    2.29
  -8   7  -1   52.94    3.39
   8  -7   1   44.89    2.66
  -9   8  -1   38.70    2.88
 -10   9  -1   15.69    1.82
 -11  10  -1    4.37    1.23
  -9  11   0    5.59    1.29
   8 -10   0    5.89    0.85
  -8  10   0    6.67    1.22
   7  -9   0    9.82    0.96
  -7   9   0    9.88    1.28
   6  -8   0    1.47    0.51
  -6   8   0    1.46    0.74
   5  -7   0    2.79    0.58
   5  -7   0    2.37    0.50
  -5   7   0    2.79    0.69
   4  -6   0   14.83    0.94
   4  -6   0   12.79    1.00
   4  -6   0   11.29    0.82
   4  -6   0   12.72    1.02
  -4   6   0   13.98    0.99
  -4   6   0   14.09    1.22
  -4   6   0   12.76    0.90
   3  -5   0   46.08    2.41
   3  -5   0   38.91    2.24
   3  -5   0   44.72    2.28
   3  -5   0   45.75    2.11
  -3   5   0   45.94    2.37
  -3   5   0   43.15    2.76
  -3   5   0   42.63    2.07
   2  -4   0  155.38    6.71
   2  -4   0  161.09    7.68
   2  -4   0  137.06    7.18
   2  -4   0  143.18    7.47
  -2   4   0  142.03    8.86
  -2   4   0  152.00    6.69
  -2   4   0  167.78    7.67
   1  -3   0  266.79   13.37
   1  -3   0  290.69   13.62
   1  -3   0  274.53   11.93
   1  -3   0  275.97   12.74
  -1   3   0  254.38   15.77
  -1   3   0  266.81   11.91
  -1   3   0  272.88   13.61
   0  -2   0  210.15   10.09
   0  -2   0  195.60    8.97
   0  -2   0  213.33    9.58
   0  -2   0  204.84   10.24
   0   2   0  190.88    8.96
   0   2   0  210.01   10.24
  -1  -1   0  125.00    5.84
  -1  -1   0  130.43    6.25
  -1  -1   0  118.83    6.17
   1   1   0  114.15    5.47
   1   1   0  132.62    6.26
  -2   0   0  256.41   11.54
  -2   0   0  232.74   14.31
  -2   0   0  246.68   12.34
  -2   0   0  227.11   12.15
   2   0   0  244.66   12.34
   2   0   0  259.76   11.55
   2   0   0  258.64   10.82
  -3   1   0  269.97   15.72
  -3   1   0  285.83   12.65
  -3   1   0  262.39   13.32
  -3   1   0  259.19   13.53
   3  -1   0  254.06   13.53
   3  -1   0  290.42   11.88
   3  -1   0  270.66   12.67
  -4   2   0   83.20    4.23
  -4   2   0   82.53    4.95
  -4   2   0   82.21    3.93
  -4   2   0   77.94    4.15
   4  -2   0   79.87    5.21
   4  -2   0   83.33    4.24
   4  -2   0   87.00    3.73
   4  -2   0   83.19    3.98
  -5   3   0   29.15    1.64
  -5   3   0   27.45    1.48
  -5   3   0   27.97    1.94
  -5   3   0   25.79    1.57
   5  -3   0   28.77    1.65
   5  -3   0   30.55    1.49
   5  -3   0   30.47    1.60
  -6   4   0   13.21    1.06
  -6   4   0   15.29    0.98
  -6   4   0   18.20    1.43
  -6   4   0   18.56    1.20
   6  -4   0   17.98    1.17
   6  -4   0   17.62    1.08
  -7   5   0    0.22    0.50
  -7   5   0    0.12    0.64
   7  -5   0    0.16    0.42
   7  -5   0    0.35    0.50
  -8   6   0    9.23    1.17
   8  -6   0    7.14    0.79
  -9   7   0    7.92    1.18
   9  -7   0    6.95    0.82
 -10   8   0    3.76    1.06
 -11   9   0    6.12    1.26
  -9  12  -1    6.53    1.32
  -8  11  -1    9.76    1.46
  -7  10  -1   35.53    2.68
   6  -9   1   72.06    3.64
  -6   9  -1   78.82    4.82
   5  -8   1   46.20    2.28
   5  -8   1   41.33    2.40
  -5   8  -1   44.88    2.97
  -5   8  -1   43.80    2.55
   4  -7   1   17.43    1.25
   4  -7   1   18.72    1.14
  -4   7  -1   15.92    1.07
  -4   7  -1   17.66    1.48
  -4   7  -1   17.82    1.23
   3  -6   1   72.38    3.27
   3  -6   1   74.00    3.76
   3  -6   1   64.86    3.49
  -3   6  -1   69.21    4.30
  -3   6  -1   73.66    3.71
  -3   6  -1   66.84    3.21
   2  -5   1  144.49    6.68
   2  -5   1  139.37    6.24
   2  -5   1  143.61    7.14
   2  -5   1  128.83    6.92
  -2   5  -1  137.07    6.21
  -2   5  -1  148.39    7.13
  -2   5  -1  138.78    8.25
   1  -4   1    9.91    0.71
   1  -4   1    8.91    0.64
   1  -4   1    9.62    0.67
   1  -4   1    9.16    0.70
  -1   4  -1    9.99    0.70
  -1   4  -1    9.23    0.62
  -1   4  -1    8.52    0.81
   0  -3   1   33.74    1.63
   0  -3   1   31.24    1.53
   0  -3   1   33.39    1.73
   0  -3   1   32.39    1.75
   0   3  -1   33.20    1.75
   0   3  -1   31.70    1.53
  -1  -2   1    0.34    0.24
  -1  -2   1    0.48    0.19
  -1  -2   1    0.21    0.14
  -1  -2   1    0.33    0.17
   1   2  -1    0.49    0.18
   1   2  -1    0.31    0.14
  -2  -1   1    4.85    0.37
  -2  -1   1    3.44    0.32
  -2  -1   1    3.67    0.38
   2   1  -1    3.82    0.34
   2   1  -1    3.53    0.37
  -3   0   1  259.05   11.67
  -3   0   1  242.78   14.48
  -3   0   1  240.62   12.29
  -3   0   1  241.75   12.48
   3   0  -1  259.32   10.95
   3   0  -1  247.67   12.49
   3   0  -1  252.83   11.68
  -4   1   1  270.90   16.25
  -4   1   1  285.81   13.08
  -4   1   1  271.26   13.99
  -4   1   1  265.67   13.77
   4  -1  -1  280.46   14.01
   4  -1  -1  282.85   13.09
   4  -1  -1  296.09   12.29
  -5   2   1   65.02    4.08
  -5   2   1   62.17    3.43
  -5   2   1   65.64    3.50
  -5   2   1   63.46    3.24
   5  -2  -1   70.61    3.10
   5  -2  -1   70.29    3.29
   5  -2  -1   70.55    3.53
   5  -2  -1   66.46    4.30
  -6   3   1   37.27    1.93
  -6   3   1   39.73    2.15
  -6   3   1   36.57    2.07
  -6   3   1   38.87    2.52
   6  -3  -1   37.23    2.03
   6  -3  -1   41.30    1.93
   6  -3  -1   39.76    2.16
   6  -3  -1   32.29    2.49
  -7   4   1   96.69    5.77
  -7   4   1   90.20    4.55
   7  -4  -1   95.31    4.38
  -8   5   1   87.98    5.18
   8  -5  -1   76.09    3.92
  -9   6   1   19.95    1.76
   9  -6  -1   16.67    1.35
 -10   7   1    4.54    1.03
  10  -7  -1    2.30    0.67
 -11   8   1    4.01    1.07
  -8  12  -2    0.81    1.01
  -7  11  -2    1.35    0.96
   6 -10   2    3.07    0.75
  -6  10  -2    2.50    0.90
   5  -9   2   21.56    1.48
  -5   9  -2   23.62    1.88
  -5   9  -2   21.44    1.58
   4  -8   2   23.72    1.54
  -4   8  -2   27.39    1.93
  -4   8  -2   24.13    1.63
  -4   8  -2   23.47    1.36
   3  -7   2   49.04    2.52
   3  -7   2   48.56    2.36
  -3   7  -2   47.35    2.31
  -3   7  -2   49.01    2.68
  -3   7  -2   48.26    3.12
   2  -6   2  177.55    8.60
   2  -6   2  179.49    8.06
  -2   6  -2  173.71    8.02
  -2   6  -2  188.99    9.20
  -2   6  -2  186.47   10.66
   1  -5   2  250.77   12.26
   1  -5   2  246.95   10.95
   1  -5   2  238.85   11.69
  -1   5  -2  251.29   14.47
  -1   5  -2  240.43   10.93
  -1   5  -2  262.95   12.51
   0  -4   2   82.15    4.07
   0  -4   2   79.42    3.64
   0  -4   2   78.08    3.86
   0   4  -2   79.17    3.62
   0   4  -2   84.95    4.16
  -1  -3   2   72.74    3.35
  -1  -3   2   68.18    3.57
   1   3  -2   72.20    3.62
   1   3  -2   68.23    3.16
  -2  -2   2  263.90   13.79
  -2  -2   2  285.21   13.08
   2   2  -2  274.28   12.26
   2   2  -2  295.43   14.02
  -3  -1   2  210.85   12.91
  -3  -1   2  217.81   11.00
  -3  -1   2  234.06   10.42
   3   1  -2  225.68    9.78
   3   1  -2  222.48   11.16
  -4   0   2   14.40    1.08
  -4   0   2   14.04    0.98
  -4   0   2   13.97    0.82
   4   0  -2   13.06    0.82
   4   0  -2   14.57    0.83
   4   0  -2   13.53    0.90
  -5   1   2    0.76    0.25
  -5   1   2    0.22    0.29
  -5   1   2    0.68    0.44
  -5   1   2    0.31    0.25
   5  -1  -2    1.24    0.30
   5  -1  -2    0.64    0.26
   5  -1  -2    0.73    0.32
   5  -1  -2    0.21    0.30
  -6   2   2    3.15    0.63
  -6   2   2    3.63    0.48
  -6   2   2    2.73    0.39
   6  -2  -2    3.08    0.45
   6  -2  -2    3.38    0.46
   6  -2  -2    3.07    0.53
   6  -2  -2    3.96    0.53
  -7   3   2    1.20    0.63
  -7   3   2    1.40    0.38
  -7   3   2    0.84    0.44
   7  -3  -2    1.03    0.53
   7  -3  -2    0.89    0.45
  -8   4   2   34.65    1.96
  -8   4   2   39.39    2.60
  -8   4   2   39.27    2.14
   8  -4  -2   34.12    1.99
  -9   5   2   35.33    2.51
   9  -5  -2   31.53    1.95
 -10   6   2   12.11    1.43
  10  -6  -2    9.55    1.03
 -11   7   2   14.86    1.61
  11  -7  -2   11.72    1.18
  -8  13  -3   16.73    1.92
  -7  12  -3   37.98    2.90
   6 -11   3   24.10    1.66
  -6  11  -3   25.83    2.11
  -6  11  -3   23.04    1.85
   5 -10   3   10.22    1.03
  -5  10  -3    9.17    1.05
  -5  10  -3   10.27    1.29
   4  -9   3   20.62    1.38
  -4   9  -3   18.64    1.46
  -4   9  -3   21.76    1.79
   3  -8   3   27.18    1.72
  -3   8  -3   36.79    2.23
  -3   8  -3   27.22    1.85
  -3   8  -3   32.17    1.59
   2  -7   3    6.66    0.63
  -2   7  -3    7.07    0.54
  -2   7  -3    6.09    0.73
  -2   7  -3    6.99    0.69
   1  -6   3    0.80    0.27
   1  -6   3    0.39    0.31
  -1   6  -3    0.75    0.31
  -1   6  -3    0.69    0.39
  -1   6  -3    0.70    0.24
   0  -5   3    8.36    0.61
   0  -5   3    9.19    0.68
   0   5  -3    8.91    0.72
   0   5  -3    9.17    0.62
  -1  -4   3   66.23    3.40
  -1  -4   3   68.12    3.18
   1   4  -3   66.70    3.45
   1   4  -3   64.20    2.99
  -2  -3   3  171.24    8.03
  -2  -3   3  167.94    8.51
   2   3  -3  168.49    7.54
   2   3  -3  176.46    8.63
  -3  -2   3  208.71   10.64
  -3  -2   3  216.90   10.07
   3   2  -3  221.66   10.80
   3   2  -3  210.64    9.44
  -4  -1   3  128.82    7.99
  -4  -1   3  133.50    6.85
  -4  -1   3  141.94    6.45
   4   1  -3  137.74    6.07
   4   1  -3  139.51    6.93
  -5   0   3   86.50    4.48
  -5   0   3   87.31    4.20
  -5   0   3   78.64    5.22
   5   0  -3   91.64    4.54
   5   0  -3   90.45    3.98
   5   0  -3   89.35    5.66
  -6   1   3  109.49    6.79
  -6   1   3  109.88    5.43
  -6   1   3  109.54    5.77
   6  -1  -3  112.30    7.31
   6  -1  -3  120.92    5.16
   6  -1  -3  119.08    5.91
  -7   2   3   98.17    4.86
  -7   2   3   97.20    6.09
  -7   2   3   98.10    5.16
   7  -2  -3  102.52    6.53
   7  -2  -3  102.62    4.64
   7  -2  -3  104.25    5.34
  -8   3   3   30.55    1.67
  -8   3   3   29.18    2.18
  -8   3   3   30.79    1.87
   8  -3  -3   29.09    1.71
   8  -3  -3   29.27    1.99
  -9   4   3    6.47    0.76
  -9   4   3    6.09    1.01
   9  -4  -3    4.77    0.77
 -10   5   3    5.00    1.04
  10  -5  -3    4.94    0.86
 -11   6   3    2.11    0.92
  11  -6  -3    2.30    0.72
 -12   7   3    0.38    0.95
  12  -7  -3   -0.06    0.66
   6 -12   4    5.89    0.90
  -6  12  -4    5.22    1.04
   5 -11   4   15.69    1.26
  -5  11  -4   12.97    1.39
   4 -10   4   35.61    1.94
  -4  10  -4   30.03    2.09
   3  -9   4   64.46    3.31
  -3   9  -4   64.13    3.56
  -3   9  -4   65.54    3.05
   2  -8   4  116.86    5.59
  -2   8  -4  114.78    5.19
  -2   8  -4  114.39    5.99
   1  -7   4   88.28    4.52
  -1   7  -4   99.16    4.87
  -1   7  -4   92.25    4.20
   0  -6   4   50.60    2.58
   0  -6   4   49.21    2.44
   0   6  -4   47.67    2.28
   0   6  -4   49.46    2.65
  -1  -5   4   86.18    4.35
  -1  -5   4   88.46    4.09
   1   5  -4   84.46    4.42
   1   5  -4   82.79    3.84
  -2  -4   4  112.81    5.29
  -2  -4   4  109.61    5.63
   2   4  -4  109.12    4.97
   2   4  -4  115.01    5.71
  -3  -3   4   14.39    1.03
  -3  -3   4   15.44    0.85
   3   3  -4   14.56    0.84
   3   3  -4   16.23    0.99
  -4  -2   4    0.43    0.22
  -4  -2   4    0.70    0.33
  -4  -2   4    0.41    0.32
   4   2  -4    0.14    0.22
   4   2  -4    0.43    0.25
  -5  -1   4    0.56    0.26
  -5  -1   4    0.35    0.36
  -5  -1   4    0.38    0.41
   5   1  -4    0.38    0.25
   5   1  -4    0.38    0.31
  -6   0   4    8.53    0.96
  -6   0   4    8.47    0.68
  -6   0   4    8.08    0.78
   6   0  -4    9.12    0.87
   6   0  -4    8.59    0.74
   6   0  -4    7.56    0.90
  -7   1   4   34.34    2.49
  -7   1   4   37.44    2.17
  -7   1   4   35.61    1.94
   7  -1  -4   38.24    2.24
   7  -1  -4   38.74    1.91
   7  -1  -4   37.53    2.65
  -8   2   4   50.83    3.40
  -8   2   4   53.87    2.92
  -8   2   4   52.04    2.67
   8  -2  -4   52.54    3.61
   8  -2  -4   54.12    3.08
   8  -2  -4   49.41    2.59
  -9   3   4   44.17    2.34
  -9   3   4   40.88    2.72
  -9   3   4   35.94    2.08
   9  -3  -4   35.34    2.08
   9  -3  -4   37.49    2.53
 -10   4   4   21.36    1.60
 -10   4   4   23.11    1.93
  10  -4  -4   20.31    1.51
 -11   5   4   15.42    1.65
  11  -5  -4   16.06    1.38
 -12   6   4   14.86    1.70
  12  -6  -4   14.93    1.39
   6 -13   5   17.87    1.43
  -6  13  -5   13.63    1.54
   5 -12   5    9.12    1.05
  -5  12  -5    9.17    1.18
   4 -11   5    1.92    0.67
  -4  11  -5    1.82    0.73
   3 -10   5    0.51    0.54
  -3  10  -5   -0.04    0.58
   2  -9   5   -0.18    0.43
  -2   9  -5    0.12    0.48
  -2   9  -5    0.19    0.34
   1  -8   5    9.54    0.81
  -1   8  -5    8.37    0.88
  -1   8  -5    9.25    0.70
   0  -7   5   53.22    2.69
   0  -7   5   57.66    2.85
   0   7  -5   52.51    2.50
   0   7  -5   52.93    2.93
  -1  -6   5  107.84    4.97
  -1  -6   5  105.12    5.27
   1   6  -5   99.08    4.63
   1   6  -5  103.27    5.36
  -2  -5   5   82.96    4.39
  -2  -5   5   89.20    4.10
   2   5  -5   82.74    3.84
   2   5  -5   87.05    4.44
  -3  -4   5  106.91    5.04
  -3  -4   5  101.55    5.39
   3   4  -5  107.20    5.45
   3   4  -5  107.74    4.74
  -4  -3   5  201.45    9.30
  -4  -3   5  191.19    9.88
   4   3  -5  195.93    9.99
   4   3  -5  200.55    8.73
  -5  -2   5  146.17    6.92
  -5  -2   5  141.65    7.38
   5   2  -5  149.04    6.52
   5   2  -5  146.04    7.45
  -6  -1   5   41.72    2.77
  -6  -1   5   43.47    2.48
  -6  -1   5   45.67    2.22
   6   1  -5   40.26    2.13
   6   1  -5   46.74    2.46
   6   1  -5   42.97    3.06
  -7   0   5   22.22    1.55
  -7   0   5   20.82    1.67
  -7   0   5   21.82    1.28
   7   0  -5   23.74    1.80
   7   0  -5   23.88    1.55
   7   0  -5   18.99    1.27
  -8   1   5   20.34    1.46
  -8   1   5   18.58    1.18
  -8   1   5   16.07    1.56
   8  -1  -5   16.79    1.47
   8  -1  -5   18.77    1.63
   8  -1  -5   18.10    1.18
  -9   2   5    7.81    1.03
  -9   2   5    7.76    0.89
  -9   2   5    4.96    0.66
   9  -2  -5    7.23    1.00
   9  -2  -5    5.67    1.03
   9  -2  -5    5.70    0.71
 -10   3   5   -0.09    0.59
 -10   3   5    0.29    0.49
 -10   3   5    0.50    0.78
  10  -3  -5   -0.27    0.55
 -11   4   5    2.50    0.93
  11  -4  -5    2.35    0.75
 -12   5   5    3.57    1.08
  12  -5  -5    4.01    0.86
  -6  14  -6    3.53    1.11
   5 -13   6   21.69    1.58
  -5  13  -6   17.00    1.78
   4 -12   6   45.11    2.39
  -4  12  -6   36.40    2.59
   3 -11   6   25.24    1.58
  -3  11  -6   21.64    1.76
   2 -10   6   20.60    1.35
  -2  10  -6   19.49    1.48
   1  -9   6   60.84    3.20
  -1   9  -6   62.18    3.44
  -1   9  -6   65.66    2.92
   0  -8   6   69.45    3.48
   0   8  -6   70.82    3.78
   0   8  -6   71.00    3.21
  -1  -7   6   18.22    1.10
  -1  -7   6   19.33    1.28
   1   7  -6   17.89    1.26
   1   7  -6   18.23    0.99
  -2  -6   6    3.19    0.55
  -2  -6   6    2.13    0.36
   2   6  -6    2.67    0.46
   2   6  -6    2.16    0.30
  -3  -5   6   -0.36    0.36
  -3  -5   6    0.12    0.23
   3   5  -6    0.28    0.31
   3   5  -6    0.22    0.23
  -4  -4   6    7.42    0.60
  -4  -4   6    6.76    0.73
   4   4  -6    7.71    0.63
   4   4  -6    7.22    0.73
  -5  -3   6   24.65    1.32
  -5  -3   6   22.45    1.57
   5   3  -6   23.46    1.27
   5   3  -6   23.72    1.48
  -6  -2   6   41.73    2.14
  -6  -2   6   42.56    2.43
   6   2  -6   42.47    2.37
   6   2  -6   39.39    2.95
   6   2  -6   40.54    2.03
  -7  -1   6   45.03    2.27
  -7  -1   6   44.41    2.56
   7   1  -6   42.43    2.17
   7   1  -6   45.93    2.56
   7   1  -6   39.89    3.10
  -8   0   6   41.75    2.36
  -8   0   6   38.82    2.06
  -8   0   6   37.22    2.60
   8   0  -6   34.28    2.37
   8   0  -6   36.01    2.83
   8   0  -6   40.36    2.01
  -9   1   6   50.37    2.72
  -9   1   6   48.11    2.41
  -9   1   6   42.99    3.02
   9  -1  -6   41.48    2.83
   9  -1  -6   41.68    3.29
   9  -1  -6   44.19    2.32
 -10   2   6   34.80    2.02
 -10   2   6   32.44    2.61
 -10   2   6   41.74    2.34
  10  -2  -6   38.68    2.04
  10  -2  -6   31.21    2.51
 -11   3   6   16.70    1.50
 -11   3   6   13.01    1.60
  11  -3  -6   13.92    1.29
 -12   4   6    6.64    1.22
  12  -4  -6    7.53    0.98
   5 -14   7    2.52    0.95
  -5  14  -7    1.78    0.98
   4 -13   7    0.02    0.73
  -4  13  -7   -0.09    0.79
   3 -12   7    2.42    0.74
  -3  12  -7    2.90    0.87
   2 -11   7    6.32    0.81
  -2  11  -7    6.50    0.90
   1 -10   7   22.16    1.41
  -1  10  -7   20.45    1.52
   0  -9   7   75.24    3.76
   0   9  -7   75.69    4.07
  -1  -8   7   98.96    4.72
   1   8  -7   94.85    5.11
  -2  -7   7   43.99    2.54
  -2  -7   7   46.13    2.30
   2   7  -7   44.74    2.53
  -3  -6   7   53.07    2.92
  -3  -6   7   53.53    2.62
   3   6  -7   51.20    2.87
  -4  -5   7  141.34    6.68
  -4  -5   7  135.35    7.15
   4   5  -7  144.51    7.22
  -5  -4   7   90.22    4.51
  -5  -4   7   93.31    4.90
   5   4  -7   93.67    4.90
   5   4  -7   96.38    4.22
  -6  -3   7    7.72    0.89
  -6  -3   7    8.58    0.75
   6   3  -7    7.34    1.02
   6   3  -7    9.65    0.91
   6   3  -7    9.97    0.74
  -7  -2   7    6.05    0.83
  -7  -2   7    5.93    0.61
   7   2  -7    6.09    0.91
   7   2  -7    6.04    0.77
   7   2  -7    6.50    0.59
  -8  -1   7   13.34    0.99
  -8  -1   7   12.57    1.33
   8   1  -7   12.88    1.40
   8   1  -7   10.99    1.24
   8   1  -7   13.53    1.01
  -9   0   7    0.52    0.51
  -9   0   7   -0.20    0.64
   9   0  -7    0.67    0.81
   9   0  -7    0.72    0.47
 -10   1   7   15.73    1.22
 -10   1   7   17.53    1.59
  10  -1  -7   14.96    1.66
  10  -1  -7   16.49    1.26
 -11   2   7    4.15    0.90
  11  -2  -7    4.46    1.22
  11  -2  -7    6.13    0.82
  -4  14  -8   16.75    1.71
   3 -13   8   11.01    1.20
  -3  13  -8   13.18    1.36
   2 -12   8   10.14    1.06
  -2  12  -8   10.62    1.17
   1 -11   8   25.43    1.64
  -1  11  -8   26.14    1.80
   0 -10   8   19.72    1.28
   0  10  -8   16.90    1.41
  -1  -9   8    0.47    0.41
   1   9  -8    0.19    0.50
  -2  -8   8    2.38    0.46
  -2  -8   8    2.45    0.65
   2   8  -8    2.24    0.55
  -3  -7   8   -0.14    0.51
  -3  -7   8   -0.09    0.35
   3   7  -8    0.60    0.42
  -4  -6   8   19.76    1.53
  -4  -6   8   19.65    1.19
   4   6  -8   21.30    1.38
  -5  -5   8   85.62    4.48
  -5  -5   8   84.81    4.09
   5   5  -8   80.79    4.43
  -6  -4   8   63.71    2.98
  -6  -4   8   62.03    3.31
   6   4  -8   48.95    4.08
   6   4  -8   60.92    3.26
  -7  -3   8   21.99    1.33
  -7  -3   8   20.89    1.65
   7   3  -8   19.92    1.85
   7   3  -8   21.31    1.53
   7   3  -8   23.71    1.23
  -8  -2   8   27.74    1.64
  -8  -2   8   28.55    1.96
   8   2  -8   26.86    1.92
   8   2  -8   28.17    1.52
  -9  -1   8   53.82    2.98
  -9  -1   8   49.01    2.62
   9   1  -8   44.70    3.02
 -10   0   8   33.67    2.19
 -10   0   8   29.00    1.83
  10   0  -8   27.54    2.28
 -11   1   8    4.54    0.78
 -11   1   8    5.94    1.05
  11  -1  -8    6.02    0.82
  11  -1  -8    3.94    1.25
  -3  14  -9    5.52    1.10
   2 -13   9   11.71    1.20
  -2  13  -9    9.40    1.21
   1 -12   9   28.19    1.83
  -1  12  -9   29.89    2.04
   0 -11   9   46.83    2.56
   0  11  -9   45.90    2.80
  -1 -10   9   36.15    2.06
   1  10  -9   38.05    2.30
  -2  -9   9   36.77    2.01
   2   9  -9   35.89    2.22
  -3  -8   9   50.36    2.55
  -3  -8   9   50.06    2.85
   3   8  -9   47.29    2.79
  -4  -7   9   44.47    2.69
  -4  -7   9   45.03    2.37
   4   7  -9   47.60    2.62
  -5  -6   9   17.65    1.10
  -5  -6   9   17.25    1.44
   5   6  -9   19.25    1.29
   5   6  -9   13.32    1.53
  -6  -5   9    2.12    0.47
  -6  -5   9    2.56    0.72
   6   5  -9    2.39    0.59
  -7  -4   9    1.09    0.69
  -7  -4   9    0.60    0.45
   7   4  -9    1.13    0.58
  -8  -3   9    0.41    0.68
  -8  -3   9   -0.21    0.46
   8   3  -9   -0.04    0.66
  -9  -2   9    7.89    0.83
  -9  -2   9    7.59    1.08
   9   2  -9    7.66    1.14
 -10  -1   9   14.53    1.56
 -10  -1   9   14.52    1.21
  10   1  -9   11.63    1.51
 -11   0   9    7.86    1.17
  11   0  -9    7.48    1.35
  -2  14 -10    5.99    1.07
   1 -13  10    2.26    0.80
  -1  13 -10    3.59    0.93
   0 -12  10    0.11    0.64
   0  12 -10   -0.01    0.71
  -1 -11  10    0.11    0.56
   1  11 -10    0.40    0.69
  -2 -10  10    4.33    0.69
   2  10 -10    5.51    0.84
  -3  -9  10   24.45    1.54
   3   9 -10   26.89    1.76
  -4  -8  10   44.51    2.30
  -4  -8  10   42.71    2.63
   4   8 -10   42.20    2.54
  -5  -7  10   33.35    1.86
  -5  -7  10   33.72    2.22
   5   7 -10   34.63    2.09
  -6  -6  10   28.14    1.62
  -6  -6  10   31.87    2.02
   6   6 -10   25.48    1.82
  -7  -5  10   38.26    2.08
  -7  -5  10   40.31    2.47
   7   5 -10   35.22    2.32
  -8  -4  10   37.49    2.44
  -8  -4  10   36.59    2.07
   8   4 -10   36.04    2.36
  -9  -3  10   18.38    1.67
  -9  -3  10   17.60    1.32
   9   3 -10   17.47    1.65
 -10  -2  10    5.90    1.08
 -10  -2  10    4.76    0.80
  10   2 -10    6.44    1.19
   0  13 -11   22.87    1.90
  -1 -12  11   25.52    1.79
   1  12 -11   28.21    2.03
  -2 -11  11   16.55    1.31
   2  11 -11   19.22    1.57
  -3 -10  11   12.34    1.10
   3  10 -11   12.45    1.26
  -4  -9  11    8.80    0.89
  -4  -9  11    8.93    1.10
   4   9 -11   10.20    1.12
  -5  -8  11    4.72    0.90
  -5  -8  11    3.78    0.62
   5   8 -11    3.27    0.71
  -6  -7  11   -0.54    0.68
  -6  -7  11   -0.03    0.47
   6   7 -11    1.12    0.60
  -7  -6  11    3.43    0.61
  -7  -6  11    2.98    0.88
   7   6 -11    4.29    0.80
  -8  -5  11    5.72    0.78
  -8  -5  11    6.91    1.08
   8   5 -11    7.25    1.00
  -9  -4  11    7.07    1.13
   9   4 -11    6.93    1.12
 -10  -3  11   10.82    1.34
  10   3 -11   10.70    1.40
   1  13 -12    2.98    1.00
   2  12 -12   22.11    1.80
  -3 -11  12   22.79    1.61
   3  11 -12   25.56    1.83
  -4 -10  12   10.92    1.07
   4  10 -12   12.65    1.27
  -5  -9  12   18.81    1.36
  -5  -9  12   24.03    1.78
   5   9 -12   20.83    1.63
  -6  -8  12   42.63    2.48
  -6  -8  12   49.05    2.93
   6   8 -12   48.44    2.78
  -7  -7  12   30.61    2.14
   7   7 -12   25.84    1.94
  -8  -6  12    4.14    1.02
   8   6 -12    5.62    0.96
  -6  -9  13    2.79    0.89
  -5  -7  15   10.33    1.17
   7   4 -14    3.10    0.85
  -7  -4  14    3.08    0.87
   6   5 -14    4.87    0.85
  -6  -5  14    2.69    0.55
  -6  -5  14    4.81    0.91
  -5  -6  14    8.33    1.06
  -4  -7  14   24.10    1.80
   8   2 -13   16.82    1.58
  -8  -2  13   15.03    1.57
   7   3 -13    8.02    1.06
  -7  -3  13    9.01    1.11
   6   4 -13   10.46    1.14
  -6  -4  13   10.75    1.17
  -5  -5  13   16.32    1.49
  -4  -6  13    7.38    0.94
  -2  12 -13   23.67    1.83
   9   0 -12    0.07    0.89
  -9   0  12    0.40    0.77
   8   1 -12    4.14    0.96
  -8  -1  12    5.84    0.98
   7   2 -12    7.91    1.05
  -7  -2  12    9.77    1.12
   6   3 -12   13.96    1.26
  -6  -3  12   14.56    1.38
   5   4 -12   30.84    1.87
  -5  -4  12   28.70    1.99
  -4  -5  12   46.91    2.76
  -3  -6  12   27.92    1.82
   2   7 -12   17.01    1.66
  -2  11 -12    0.78    0.69
   2 -11  12   -0.14    0.56
  -3  12 -12    0.61    0.73
   3 -12  12    0.42    0.64
   9  -1 -11   33.62    2.37
  -9   1  11   32.32    2.20
   8   0 -11   11.68    1.28
  -8   0  11   10.90    1.16
   7   1 -11    1.58    0.76
  -7  -1  11    1.41    0.72
   6   2 -11   13.39    1.22
  -6  -2  11   13.32    1.31
   5   3 -11   14.91    1.16
  -5  -3  11   13.79    1.31
   4   4 -11    1.02    0.65
   4   4 -11    0.58    0.45
  -4  -4  11    1.61    0.59
   3   5 -11   13.07    1.37
  -3  -5  11   11.20    1.13
   2   6 -11    5.52    0.88
  -2  -6  11    4.08    0.63
   1   7 -11    8.73    1.09
  -1   9 -11   71.69    3.86
  -2  10 -11   33.01    2.07
  -3  11 -11   11.52    1.25
   3 -11  11   10.92    1.07
  -4  12 -11   14.97    1.52
   4 -12  11   15.13    1.30
  -5  13 -11   11.77    1.39
  10  -3 -10    0.60    1.01
 -10   3  10    0.76    0.77
 -10   3  10   -0.25    0.88
   9  -2 -10    6.07    1.13
  -9   2  10    6.59    1.16
  -9   2  10    7.63    1.00
   8  -1 -10   14.51    1.48
  -8   1  10   15.90    1.61
  -8   1  10   15.66    1.41
   7   0 -10   19.83    1.59
  -7   0  10   20.40    1.58
   6   1 -10   26.36    1.83
   6   1 -10   28.80    1.90
  -6  -1  10   26.48    1.85
   5   2 -10   49.98    2.88
   5   2 -10   51.56    2.81
   5   2 -10   52.90    3.65
  -5  -2  10   44.98    2.84
   4   3 -10   70.30    4.63
   4   3 -10   66.92    3.52
   4   3 -10   66.10    3.62
  -4  -3  10   62.42    3.58
   3   4 -10   53.71    2.87
   3   4 -10   48.95    3.61
  -3  -4  10   50.35    2.83
   2   5 -10   31.38    2.39
  -2  -5  10   30.99    1.86
   1   6 -10   28.26    2.17
  -1  -6  10   28.19    1.67
  -1   8 -10   -0.13    0.44
  -2   9 -10   -0.34    0.51
  -3  10 -10    0.02    0.59
   3 -10  10    0.30    0.49
  -4  11 -10    6.81    1.05
   4 -11  10    9.65    0.94
  -5  12 -10   14.32    1.55
   5 -12  10   17.38    1.35
  -6  13 -10    6.61    1.16
  10  -4  -9   11.40    1.48
 -10   4   9   10.99    1.20
 -10   4   9   10.31    1.43
   9  -3  -9   10.63    1.32
  -9   3   9   10.23    1.36
  -9   3   9   11.75    1.26
   8  -2  -9   11.14    1.23
  -8   2   9   11.22    1.43
  -8   2   9   11.39    1.24
   7  -1  -9    9.39    1.05
   7  -1  -9    8.62    0.97
  -7   1   9    7.64    1.08
  -7   1   9    8.37    0.96
   6   0  -9    1.96    0.66
   6   0  -9    1.80    0.63
  -6   0   9    2.95    0.73
  -6   0   9    2.32    0.66
   5   1  -9    1.36    0.59
   5   1  -9    0.70    0.51
  -5  -1   9    1.00    0.59
   4   2  -9   12.39    1.30
   4   2  -9   13.91    1.00
   4   2  -9   12.96    1.15
  -4  -2   9   13.69    1.19
   3   3  -9   24.30    1.96
   3   3  -9   27.25    1.63
   3   3  -9   23.57    1.41
  -3  -3   9   24.91    1.72
   2   4  -9   35.27    2.63
   2   4  -9   38.86    2.11
   2   4  -9   35.10    2.34
   1   5  -9   63.52    3.10
   1   5  -9   56.56    3.94
  -1  -5   9   54.18    3.06
  -1   7  -9   58.23    3.89
  -2   8  -9   52.39    2.87
  -3   9  -9   36.59    2.19
   3  -9   9   35.50    1.94
  -4  10  -9   14.89    1.39
   4 -10   9   17.26    1.20
  -5  11  -9    4.82    0.97
   5 -11   9    6.44    0.85
  -6  12  -9    0.27    0.82
   6 -12   9    0.66    0.76
  -7  13  -9   -0.39    0.85
  10  -5  -8    9.18    0.90
  10  -5  -8    7.30    1.28
 -10   5   8    9.01    1.07
 -10   5   8    5.82    0.83
 -10   5   8    6.64    1.23
   9  -4  -8    7.96    1.22
   9  -4  -8   11.37    1.06
  -9   4   8    9.28    1.32
  -9   4   8    9.81    1.07
   8  -3  -8   18.61    1.69
   8  -3  -8   20.30    1.55
  -8   3   8   21.77    1.88
  -8   3   8   22.60    1.58
   7  -2  -8   53.66    3.04
   7  -2  -8   57.28    3.16
  -7   2   8   52.36    3.55
  -7   2   8   52.41    3.02
   6  -1  -8   54.51    3.16
   6  -1  -8   53.88    3.10
  -6   1   8   59.25    3.63
   5   0  -8   33.89    2.05
   5   0  -8   29.71    1.99
  -5   0   8   36.72    2.32
   4   1  -8   57.38    3.02
   4   1  -8   52.00    2.96
   4   1  -8   53.34    3.80
  -4  -1   8   57.78    3.46
   3   2  -8   91.96    4.51
   3   2  -8   80.70    4.43
   3   2  -8   85.11    5.72
  -3  -2   8   88.75    5.21
   2   3  -8   35.32    2.29
   2   3  -8   33.40    2.52
   2   3  -8   36.89    2.03
  -2  -3   8   36.34    2.29
   1   4  -8    2.68    0.45
   1   4  -8    2.42    0.48
   1   4  -8    2.31    0.50
   0   5  -8    1.09    0.40
   0   5  -8    0.89    0.36
   0   5  -8    0.90    0.46
  -1   6  -8    0.54    0.34
  -1   6  -8    0.31    0.32
  -1   6  -8    0.59    0.47
  -2   7  -8   23.15    1.62
  -2   7  -8   19.39    1.36
  -3   8  -8   29.60    1.93
  -3   8  -8   36.66    2.29
   3  -8   8   30.39    1.70
  -4   9  -8   17.06    1.45
  -4   9  -8   23.85    1.77
   4  -9   8   18.40    1.26
  -5  10  -8   15.00    1.46
   5 -10   8   18.34    1.25
  -6  11  -8   20.29    1.83
   6 -11   8   23.00    1.58
  -7  12  -8   17.66    1.87
   7 -12   8   20.84    1.57
  10  -6  -7    3.91    0.79
  10  -6  -7    3.83    1.12
 -10   6   7    3.67    1.06
   9  -5  -7   11.01    1.01
   9  -5  -7    8.77    1.29
  -9   5   7    9.97    1.34
  -9   5   7   10.03    1.05
   8  -4  -7   11.67    1.16
   8  -4  -7   10.83    1.23
   8  -4  -7   12.65    1.08
  -8   4   7   12.36    1.23
  -8   4   7   10.22    1.32
   7  -3  -7    0.10    0.41
   7  -3  -7    0.58    0.65
   7  -3  -7   -0.05    0.52
  -7   3   7    0.15    0.67
   6  -2  -7   10.47    1.07
   6  -2  -7   11.95    0.80
   6  -2  -7    9.70    1.03
  -6   2   7   11.40    1.24
   5  -1  -7   11.59    1.04
   5  -1  -7   12.71    1.08
  -5   1   7   13.78    1.22
   4   0  -7   17.32    1.18
   4   0  -7   13.93    1.08
  -4   0   7   15.51    1.29
   3   1  -7   76.96    5.16
   3   1  -7   72.58    4.02
   3   1  -7   83.03    4.08
  -3  -1   7   80.73    4.73
   2   2  -7  162.61    9.87
   2   2  -7  176.76    8.43
   2   2  -7  166.37   10.72
  -2  -2   7  166.25    9.86
   1   3  -7   92.28    6.00
   1   3  -7   90.04    5.52
   1   3  -7   95.42    4.72
   0   4  -7   53.38    2.79
   0   4  -7   53.11    3.28
   0   4  -7   53.96    3.55
  -1   5  -7  110.79    6.72
  -1   5  -7  115.86    7.24
  -2   6  -7  119.55    7.35
  -2   6  -7  109.92    5.92
  -2   6  -7  117.31    6.89
  -3   7  -7   32.19    2.10
  -3   7  -7   27.96    1.81
  -4   8  -7    2.37    0.64
  -4   8  -7    2.73    0.72
   4  -8   7    2.85    0.53
  -5   9  -7    3.98    0.79
  -5   9  -7    4.87    1.00
   5  -9   7    4.20    0.66
  -6  10  -7    0.60    0.72
  -6  10  -7    0.68    0.93
   6 -10   7    1.42    0.65
  -7  11  -7    1.37    0.86
  -7  11  -7    1.21    1.09
   7 -11   7    2.69    0.78
  -8  12  -7    4.66    1.43
  -8  12  -7    5.75    1.22
   8 -12   7    7.61    1.01
  10  -7  -6    9.85    1.05
 -10   7   6    8.89    1.37
   9  -6  -6   13.78    1.23
   9  -6  -6   12.02    1.41
  -9   6   6   14.00    1.31
  -9   6   6   12.93    1.56
   8  -5  -6   42.46    2.50
   8  -5  -6   48.66    2.34
   8  -5  -6   41.36    2.71
  -8   5   6   39.66    3.00
  -8   5   6   42.42    2.51
   7  -4  -6   62.80    3.45
   7  -4  -6   58.70    3.58
   7  -4  -6   66.16    3.11
  -7   4   6   66.97    4.14
   6  -3  -6   31.23    1.64
   6  -3  -6   30.57    1.95
   6  -3  -6   29.09    1.84
  -6   3   6   31.79    2.21
   5  -2  -6   27.42    1.40
   5  -2  -6   25.00    1.68
   5  -2  -6   27.24    1.64
  -5   2   6   28.22    1.95
   4  -1  -6   65.96    3.80
   4  -1  -6   77.05    3.80
   4  -1  -6   70.64    3.25
   4  -1  -6   72.27    3.25
  -4   1   6   76.42    4.44
   3   0  -6   63.66    3.40
   3   0  -6   67.76    3.43
  -3   0   6   64.38    3.97
   2   1  -6    8.03    0.72
   2   1  -6    6.90    0.53
   2   1  -6    7.12    0.54
   2   1  -6    6.81    0.76
   2   1  -6    7.05    0.77
  -2  -1   6    6.83    0.75
   1   2  -6    3.40    0.50
   1   2  -6    3.48    0.46
   1   2  -6    3.61    0.43
   0   3  -6   13.94    0.92
   0   3  -6   14.84    1.12
   0   3  -6   14.07    1.08
  -1   4  -6   25.56    1.73
  -1   4  -6   26.81    1.81
  -1   4  -6   26.73    1.43
  -2   5  -6   59.86    3.90
  -2   5  -6   70.28    4.14
  -2   5  -6   62.56    3.35
  -3   6  -6   83.23    4.85
  -3   6  -6   76.16    4.18
  -4   7  -6   50.34    2.85
  -4   7  -6   52.99    3.29
   4  -7   6   49.28    2.57
  -5   8  -6   47.04    2.92
  -5   8  -6   36.70    2.48
   5  -8   6   42.66    2.26
  -6   9  -6   49.82    3.23
  -6   9  -6   42.57    2.77
   6  -9   6   44.51    2.50
  -7  10  -6   20.56    1.88
  -7  10  -6   27.28    2.22
   7 -10   6   23.39    1.60
  -8  11  -6    7.55    1.21
  -8  11  -6    7.68    1.51
   8 -11   6    8.07    1.01
  -9  12  -6    3.05    1.30
  -9  12  -6    3.19    1.11
  10  -8  -5    1.48    0.77
 -10   8   5    0.21    0.90
   9  -7  -5    4.93    0.80
  -9   7   5    3.62    1.07
   8  -6  -5    0.64    0.54
   8  -6  -5    1.00    0.77
  -8   6   5    0.66    0.55
  -8   6   5    0.82    0.79
   7  -5  -5    5.59    0.72
   7  -5  -5    6.27    0.77
   7  -5  -5    6.54    0.93
  -7   5   5    7.21    1.03
   6  -4  -5   19.44    1.25
   6  -4  -5   19.71    1.43
   6  -4  -5   18.70    1.34
  -6   4   5   21.81    1.67
   5  -3  -5   25.95    1.70
   5  -3  -5   25.35    1.44
   5  -3  -5   29.06    1.65
  -5   3   5   28.23    1.97
   4  -2  -5   71.75    3.57
   4  -2  -5   62.80    3.12
   4  -2  -5   68.29    3.63
  -4   2   5   71.26    4.21
   3  -1  -5  186.93    9.58
   3  -1  -5  174.43    8.32
   3  -1  -5  189.84    8.32
   3  -1  -5  205.00    9.46
  -3   1   5  191.87   11.12
   2   0  -5  213.46    9.82
   2   0  -5  185.68   11.52
   2   0  -5  193.74    9.90
  -2   0   5  195.18   11.52
   1   1  -5   61.38    3.81
   1   1  -5   64.86    3.26
   0   2  -5   80.98    3.99
   0   2  -5   87.18    5.08
   0   2  -5   76.63    4.69
   0  -2   5   70.73    5.02
  -1   3  -5  230.16   10.54
  -1   3  -5  187.66   12.43
  -1   3  -5  222.42   13.42
  -2   4  -5   94.50    4.48
  -2   4  -5   80.82    5.21
  -3   5  -5    1.27    0.36
  -3   5  -5    1.20    0.47
  -4   6  -5    0.14    0.42
  -4   6  -5    0.24    0.54
   4  -6   5   -0.03    0.35
  -5   7  -5    2.79    0.80
  -5   7  -5    1.80    0.61
   5  -7   5    1.96    0.53
  -6   8  -5    2.99    0.74
  -6   8  -5    1.74    0.87
   6  -8   5    2.17    0.60
  -7   9  -5   21.54    1.86
  -7   9  -5   28.60    2.21
   7  -9   5   25.40    1.62
  -8  10  -5   17.45    1.81
  -8  10  -5   23.48    2.15
   8 -10   5   19.88    1.49
  -9  11  -5    6.50    1.41
  -9  11  -5    3.35    1.06
   9 -11   5    4.99    0.93
  10  -9  -4   13.63    1.29
 -10   9   4   13.55    1.71
   9  -8  -4   14.79    1.29
  -9   8   4   12.48    1.61
   8  -7  -4   36.32    2.05
  -8   7   4   36.62    2.71
   7  -6  -4   60.04    2.98
   7  -6  -4   58.39    3.24
   7  -6  -4   58.92    3.42
  -7   6   4   62.94    3.96
   6  -5  -4   23.63    1.43
   6  -5  -4   23.84    1.66
   6  -5  -4   23.48    1.52
  -6   5   4   26.19    1.91
   5  -4  -4   11.64    0.92
   5  -4  -4   10.94    0.90
   5  -4  -4    9.77    0.97
  -5   4   4   11.39    1.19
   4  -3  -4   32.73    1.96
   4  -3  -4   34.45    1.70
   4  -3  -4   36.60    1.90
  -4   3   4   32.31    2.26
   3  -2  -4   16.98    1.02
   3  -2  -4   15.58    1.03
   3  -2  -4   14.02    0.85
  -3   2   4   16.11    1.19
   2  -1  -4   10.64    0.66
   2  -1  -4   14.49    0.88
   2  -1  -4   13.39    0.82
   2  -1  -4   11.61    0.66
  -2   1   4   13.33    1.00
   1   0  -4   44.39    2.10
   1   0  -4   42.81    2.16
   1   0  -4   40.58    2.09
   1   0  -4   37.79    2.50
  -1   0   4   36.36    2.66
   0   1  -4   33.42    2.12
   0   1  -4   36.08    1.82
   0  -1   4   32.78    2.24
  -1   2  -4   83.92    5.42
  -1   2  -4  103.67    4.61
   1  -2   4   88.91    5.81
  -2   3  -4  182.01    8.54
  -2   3  -4  157.88    9.94
  -3   4  -4  170.87    7.92
  -3   4  -4  174.74   10.55
  -3   4  -4  194.03    9.08
  -4   5  -4  108.97    5.50
  -4   5  -4  105.38    6.40
   4  -5   4  105.41    5.11
  -5   6  -4   52.16    2.96
  -5   6  -4   56.32    3.49
   5  -6   4   52.32    2.75
  -6   7  -4   45.32    2.63
  -6   7  -4   44.96    3.07
   6  -7   4   43.80    2.39
  -7   8  -4   27.35    2.00
  -7   8  -4   32.19    2.34
   7  -8   4   26.92    1.71
  -8   9  -4    7.25    1.30
  -8   9  -4    7.50    1.12
   8  -9   4    8.77    0.97
  -9  10  -4    1.22    0.91
  -9  10  -4    0.85    1.11
   9 -10   4    2.83    0.80
 -10  11  -4   -0.47    1.07
  10 -10  -3    0.99    0.76
 -10  10   3   -0.33    0.99
   9  -9  -3    1.32    0.70
  -9   9   3    0.73    0.94
   8  -8  -3    7.12    0.89
  -8   8   3    7.83    1.24
   7  -7  -3   10.67    1.06
  -7   7   3   13.57    1.43
   6  -6  -3   22.99    1.65
   6  -6  -3   24.24    1.52
   6  -6  -3   24.70    1.46
  -6   6   3   27.85    2.00
   5  -5  -3   71.40    3.50
   5  -5  -3   75.02    4.01
   5  -5  -3   76.98    3.86
  -5   5   3   74.10    4.62
   4  -4  -3  101.94    4.61
   4  -4  -3   92.93    5.26
   4  -4  -3  107.14    5.13
  -4   4   3   98.77    6.08
  -4   4   3  103.83    4.56
   3  -3  -3  103.76    5.28
   3  -3  -3  106.91    5.41
   3  -3  -3  110.31    4.74
  -3   3   3   98.60    6.24
   2  -2  -3  182.73    9.19
   2  -2  -3  191.28    9.36
   2  -2  -3  194.46    8.18
  -2   2   3  172.38   10.83
   1  -1  -3  245.97   11.34
   1  -1  -3  255.94   11.50
   1  -1  -3  200.94   10.04
   1  -1  -3  226.16   13.36
   1  -1  -3  219.02   10.04
   0   0  -3  134.03    6.40
   0   0  -3  123.33    6.34
   0   0  -3  116.80    7.47
   0   0  -3  136.03    6.40
  -1   1  -3   40.54    1.91
  -1   1  -3   36.74    2.24
  -1   1  -3   34.66    1.88
  -1   1  -3   35.62    1.88
  -2   2  -3    4.75    0.42
  -2   2  -3    5.13    0.39
  -2   2  -3    5.11    0.61
  -2   2  -3    5.54    0.43
  -2   2  -3    5.77    0.49
   2  -2   3    4.67    0.41
  -3   3  -3    0.16    0.21
  -3   3  -3    0.36    0.38
   3  -3   3    0.13    0.24
  -4   4  -3    0.32    0.46
  -4   4  -3   -0.02    0.28
   4  -4   3    0.15    0.32
  -5   5  -3    8.56    0.84
  -5   5  -3    8.10    0.94
   5  -5   3    7.30    0.76
  -6   6  -3   47.84    2.70
  -6   6  -3   46.00    3.15
   6  -6   3   47.69    2.48
  -7   7  -3   46.38    3.10
  -7   7  -3   43.30    2.64
   7  -7   3   43.04    2.40
  -8   8  -3   21.99    1.85
  -8   8  -3   27.40    2.17
   8  -8   3   23.56    1.58
  -9   9  -3   26.18    2.26
  -9   9  -3   20.68    1.95
   9  -9   3   24.84    1.71
   9 -10  -2   16.81    1.45
  -9  10   2   17.30    1.88
   8  -9  -2    9.82    1.03
  -8   9   2    9.62    1.35
   7  -8  -2   19.61    1.41
  -7   8   2   24.45    1.93
   6  -7  -2   32.36    1.85
  -6   7   2   34.56    2.44
   5  -6  -2    7.30    0.71
   5  -6  -2    6.34    0.63
   5  -6  -2    6.66    0.80
  -5   6   2    9.09    0.80
  -5   6   2    8.44    1.07
   4  -5  -2    0.96    0.35
   4  -5  -2    1.03    0.46
   4  -5  -2    0.93    0.36
  -4   5   2    1.15    0.34
  -4   5   2    1.42    0.50
   3  -4  -2    7.13    0.66
   3  -4  -2    8.16    0.67
   3  -4  -2    7.80    0.72
  -3   4   2    7.44    0.61
  -3   4   2    7.41    0.85
   2  -3  -2   29.78    1.64
   2  -3  -2   30.86    1.49
   2  -3  -2   33.25    1.71
  -2   3   2   28.30    1.94
  -2   3   2   28.83    1.45
   1  -2  -2   98.81    5.13
   1  -2  -2  110.20    4.58
   1  -2  -2   98.15    6.05
   1  -2  -2  108.89    5.22
  -1   2   2   97.86    6.05
   0  -1  -2  181.21   11.00
   0  -1  -2  185.00    9.35
   0  -1  -2  189.53    8.29
   0  -1  -2  200.60    9.48
  -1   0  -2  130.77    6.75
  -1   0  -2  151.53    8.97
  -1   0  -2  156.47    7.72
  -1   0  -2  172.09    7.65
  -1   0  -2  153.11    6.76
  -1   0  -2  160.39    7.72
  -2   1  -2  109.44    5.84
  -2   1  -2  127.23    5.80
  -2   1  -2  110.74    6.80
   2  -1   2  104.07    5.43
   2  -1   2  128.66    5.46
  -3   2  -2  235.76   12.07
  -3   2  -2  227.05   14.03
  -3   2  -2  247.43   11.91
   3  -2   2  252.23   11.30
  -4   3  -2  251.35   15.25
  -4   3  -2  264.31   13.13
   4  -3   2  267.58   12.28
  -5   4  -2   68.03    3.49
  -5   4  -2   66.01    4.08
   5  -4   2   65.49    3.25
   5  -4   2   63.08    3.05
  -6   5  -2   15.59    1.46
  -6   5  -2   17.10    1.24
   6  -5   2   15.76    1.11
  -7   6  -2   19.84    1.79
  -7   6  -2   22.08    1.56
   7  -6   2   21.58    1.38
  -8   7  -2    4.08    0.86
  -8   7  -2    4.28    0.99
   8  -7   2    5.27    0.79
  -9   8  -2    1.66    0.97
  -9   8  -2    1.92    0.89
   9  -8   2    1.72    0.71
 -10   9  -2    0.65    1.02
 -11  10  -2    0.94    1.10
   9 -11  -1    7.01    1.02
  -9  11   1    8.51    1.40
   8 -10  -1    7.95    0.94
  -8  10   1    7.40    1.32
   7  -9  -1   14.00    1.22
  -7   9   1   14.02    1.58
   6  -8  -1   50.28    2.70
  -6   8   1   57.13    3.60
   5  -7  -1   99.82    4.81
  -5   7   1  107.16    4.77
  -5   7   1  104.89    6.37
   4  -6  -1   62.42    2.86
   4  -6  -1   54.18    3.06
   4  -6  -1   58.25    3.25
   4  -6  -1   62.22    3.03
  -4   6   1   59.70    3.75
  -4   6   1   59.92    2.80
   3  -5  -1   42.85    2.38
   3  -5  -1   42.06    2.21
   3  -5  -1   41.29    2.24
   3  -5  -1   47.50    2.10
  -3   5   1   40.44    2.71
  -3   5   1   43.28    2.34
  -3   5   1   41.28    2.03
   2  -4  -1  186.56    8.10
   2  -4  -1  173.13    9.03
   2  -4  -1  208.39    9.27
   2  -4  -1  170.61    8.63
  -2   4   1  172.12   10.69
  -2   4   1  189.24    9.23
  -2   4   1  178.38    8.06
   1  -3  -1  261.14   13.10
   1  -3  -1  267.57   12.48
   1  -3  -1  268.87   11.68
   1  -3  -1  281.50   13.34
  -1   3   1  258.44   11.66
  -1   3   1  271.32   13.33
  -1   3   1  251.21   15.44
   0  -2  -1   11.42    0.86
   0  -2  -1   12.20    0.68
   0  -2  -1   11.83    0.72
   0  -2  -1   12.32    0.81
   0  -2  -1   13.91    0.77
   0   2   1   11.61    0.65
  -1  -1  -1    4.55    0.39
  -1  -1  -1    4.18    0.35
  -1  -1  -1    4.42    0.37
  -1  -1  -1    3.25    0.43
  -1  -1  -1    4.85    0.43
   1   1   1    4.77    0.36
  -2   0  -1   24.67    1.37
  -2   0  -1   23.05    1.52
  -2   0  -1   24.15    1.31
  -2   0  -1   23.56    1.20
   2   0   1   24.93    1.23
  -3   1  -1    3.68    0.40
  -3   1  -1    4.30    0.45
  -3   1  -1    3.59    0.36
  -3   1  -1    4.97    0.50
   3  -1   1    3.77    0.33
   3  -1   1    4.65    0.40
  -4   2  -1  117.09    6.32
  -4   2  -1  126.12    6.69
  -4   2  -1  141.27    6.81
  -4   2  -1  137.71    7.93
   4  -2   1  139.01    6.38
   4  -2   1  144.92    5.99
  -5   3  -1   80.17    4.92
  -5   3  -1   97.52    5.89
  -5   3  -1  102.77    5.05
   5  -3   1  100.72    4.44
   5  -3   1  108.76    4.76
  -6   4  -1   28.86    2.19
  -6   4  -1   32.15    1.86
   6  -4   1   32.30    1.78
   6  -4   1   31.05    1.64
  -7   5  -1   36.41    2.65
  -7   5  -1   39.42    2.30
   7  -5   1   38.90    2.12
   7  -5   1   37.61    1.99
  -8   6  -1   72.94    4.60
  -8   6  -1   73.01    3.98
   8  -6   1   67.85    3.65
  -9   7  -1   55.14    3.78
 -11   9  -1    2.74    1.11
  -9  12   0    3.34    1.19
  -8  11   0    6.34    1.23
   7 -10   0   16.45    1.33
  -7  10   0   16.54    1.77
   6  -9   0    4.67    0.68
  -6   9   0    3.73    0.93
   5  -8   0    5.14    0.71
   5  -8   0    6.18    0.70
  -5   8   0    4.80    0.63
  -5   8   0    5.47    0.90
   4  -7   0   15.13    1.15
   4  -7   0   15.58    1.11
  -4   7   0   14.89    1.39
  -4   7   0   16.49    1.16
  -4   7   0   15.10    1.06
   3  -6   0    7.92    0.68
   3  -6   0    7.93    0.84
   3  -6   0    9.25    0.78
   3  -6   0    8.97    0.84
  -3   6   0    8.56    0.78
  -3   6   0    8.17    0.94
  -3   6   0    9.24    0.74
   2  -5   0   58.87    2.68
   2  -5   0   57.38    2.87
   2  -5   0   54.14    2.91
   2  -5   0   59.29    3.05
  -2   5   0   54.98    3.50
  -2   5   0   58.53    3.02
  -2   5   0   57.36    2.64
   1  -4   0  265.79   11.55
   1  -4   0  258.38   12.94
   1  -4   0  272.88   13.19
   1  -4   0  262.21   12.33
  -1   4   0  263.53   13.17
  -1   4   0  263.61   11.53
  -1   4   0  248.95   15.25
   0  -3   0  281.93   12.54
   0  -3   0  286.19   14.10
   0  -3   0  294.18   13.40
   0  -3   0  293.77   14.33
   0   3   0  269.44   16.57
   0   3   0  275.37   12.53
   0   3   0  299.47   14.33
  -1  -2   0  106.54    4.99
  -1  -2   0  112.14    5.35
  -1  -2   0  104.02    5.29
  -1  -2   0   99.68    6.15
  -1  -2   0  102.60    4.67
   1   2   0  109.01    5.34
   1   2   0  101.99    4.67
  -2  -1   0  158.29    7.23
  -2  -1   0  162.34    7.75
  -2  -1   0  149.95    7.64
  -2  -1   0  138.76    8.94
   2   1   0  156.19    7.74
   2   1   0  156.54    7.24
   2   1   0  154.12    6.78
  -3   0   0  308.91   15.51
  -3   0   0  314.24   14.49
  -3   0   0  292.90   17.98
  -3   0   0  305.59   15.28
   3   0   0  322.03   13.59
   3   0   0  307.41   15.51
   3   0   0  316.84   14.51
  -4   1   0  170.52    7.61
  -4   1   0  158.97    9.46
  -4   1   0  141.92    8.02
  -4   1   0  158.31    8.14
   4  -1   0  160.20    8.15
   4  -1   0  171.99    7.16
   4  -1   0  166.69    7.63
  -5   2   0   21.43    1.31
  -5   2   0   21.24    1.58
  -5   2   0   20.19    1.31
  -5   2   0   21.14    1.17
   5  -2   0   21.60    1.32
   5  -2   0   23.38    1.20
   5  -2   0   22.01    1.50
   5  -2   0   22.70    1.26
  -6   3   0    7.47    0.79
  -6   3   0    7.77    0.89
  -6   3   0    8.34    0.80
  -6   3   0    6.59    0.62
   6  -3   0    6.13    0.60
   6  -3   0    8.01    0.72
   6  -3   0    6.37    0.64
  -7   4   0   12.34    1.08
  -7   4   0   11.48    1.27
   7  -4   0   10.94    1.03
   7  -4   0   12.70    0.98
  -8   5   0   -0.29    0.71
   8  -5   0    0.21    0.55
   8  -5   0    0.45    0.48
  -9   6   0   17.85    1.69
   9  -6   0   15.33    1.29
 -10   7   0   13.17    1.61
 -11   8   0    3.44    1.08
  -8  12  -1    8.38    1.38
  -7  11  -1   21.53    2.00
  -6  10  -1   51.40    3.50
   5  -9   1   48.72    2.48
   5  -9   1   47.26    2.62
  -5   9  -1   45.32    2.40
  -5   9  -1   50.65    3.24
   4  -8   1   28.30    1.82
   4  -8   1   32.70    1.74
  -4   8  -1   31.92    1.91
  -4   8  -1   31.63    1.68
  -4   8  -1   31.06    2.23
   3  -7   1   51.80    2.83
   3  -7   1   58.55    2.65
  -3   7  -1   54.15    2.59
  -3   7  -1   54.02    3.45
  -3   7  -1   54.68    2.98
   2  -6   1   79.67    4.18
   2  -6   1   85.72    3.81
   2  -6   1   84.56    4.35
   2  -6   1   83.10    4.07
  -2   6  -1   78.66    4.99
  -2   6  -1   85.83    4.33
  -2   6  -1   83.66    3.78
   1  -5   1   24.33    1.31
   1  -5   1   25.92    1.50
   1  -5   1   27.21    1.42
   1  -5   1   25.39    1.43
  -1   5  -1   25.07    1.30
  -1   5  -1   27.51    1.49
  -1   5  -1   24.69    1.68
   0  -4   1   -0.08    0.26
   0  -4   1   -0.33    0.29
   0  -4   1    0.20    0.30
   0  -4   1    0.11    0.25
   0   4  -1    0.04    0.20
   0   4  -1   -0.20    0.21
   0   4  -1    0.29    0.26
  -1  -3   1    1.74    0.27
  -1  -3   1    2.30    0.33
  -1  -3   1    1.76    0.32
  -1  -3   1    2.12    0.26
   1   3  -1    2.38    0.26
   1   3  -1    2.73    0.34
  -2  -2   1   22.05    1.15
  -2  -2   1   23.29    1.26
  -2  -2   1   21.54    1.31
   2   2  -1   21.08    1.10
   2   2  -1   23.75    1.27
  -3  -1   1  119.64    5.40
  -3  -1   1  113.20    5.79
  -3  -1   1  113.35    5.73
  -3  -1   1  108.57    6.67
   3   1  -1  115.30    5.08
   3   1  -1  110.96    5.40
   3   1  -1  116.78    5.80
  -4   0   1  166.30    7.54
  -4   0   1  152.34    9.35
  -4   0   1  160.93    7.98
  -4   0   1  154.12    8.07
   4   0  -1  161.77    7.55
   4   0  -1  153.06    8.08
   4   0  -1  169.43    7.10
  -5   1   1   90.88    4.82
  -5   1   1   90.00    4.88
  -5   1   1   95.56    5.68
  -5   1   1   99.15    4.56
   5  -1  -1   95.27    4.57
   5  -1  -1   92.05    4.90
   5  -1  -1  100.81    4.32
  -6   2   1   70.08    3.83
  -6   2   1   75.78    4.49
  -6   2   1   69.43    3.54
  -6   2   1   69.47    3.77
   6  -2  -1   75.00    3.87
   6  -2  -1   73.13    4.70
   6  -2  -1   77.59    3.41
   6  -2  -1   70.74    3.58
  -7   3   1  101.67    5.06
  -7   3   1   93.71    4.76
  -7   3   1  101.78    6.01
   7  -3  -1  102.23    4.57
   7  -3  -1   90.02    6.29
   7  -3  -1  102.16    4.84
  -8   4   1   76.45    4.61
   8  -4  -1   68.72    3.51
  -9   5   1   25.01    2.00
   9  -5  -1   23.36    1.58
 -10   6   1    7.76    1.21
  10  -6  -1    6.57    0.90
 -11   7   1    6.47    1.21
  11  -7  -1    7.77    0.96
  -8  13  -2    0.82    1.08
  -7  12  -2   -0.07    0.94
  -6  11  -2    0.36    0.84
   5 -10   2    4.85    0.78
  -5  10  -2    5.40    0.97
   4  -9   2   18.60    1.31
  -4   9  -2   15.60    1.32
  -4   9  -2   18.93    1.19
  -4   9  -2   19.02    1.61
   3  -8   2   47.04    2.54
   3  -8   2   51.10    2.42
  -3   8  -2   49.62    2.35
  -3   8  -2   47.67    2.71
  -3   8  -2   46.46    3.14
   2  -7   2   98.61    4.28
   2  -7   2   90.19    4.67
   2  -7   2   87.09    4.54
  -2   7  -2   94.14    5.62
  -2   7  -2   92.63    4.86
  -2   7  -2   96.10    4.23
   1  -6   2  170.01    8.23
   1  -6   2  165.65    7.38
   1  -6   2  166.87    7.87
  -1   6  -2  163.61    7.35
  -1   6  -2  160.79    9.71
  -1   6  -2  166.41    8.42
   0  -5   2  178.86    8.24
   0  -5   2  171.21    7.73
   0  -5   2  178.80    8.67
   0   5  -2  165.26    7.71
   0   5  -2  176.41    8.83
  -1  -4   2   89.79    4.12
  -1  -4   2   88.51    4.64
  -1  -4   2   94.12    4.38
   1   4  -2   90.89    4.11
   1   4  -2   94.82    4.72
  -2  -3   2  132.91    6.55
  -2  -3   2  123.53    6.47
  -2  -3   2  126.15    6.10
   2   3  -2  124.72    5.73
   2   3  -2  138.03    6.57
  -3  -2   2  210.36    9.51
  -3  -2   2  205.57   10.19
  -3  -2   2  194.81   10.05
  -3  -2   2  186.71   11.74
   3   2  -2  204.08    8.92
   3   2  -2  211.71   10.19
  -4  -1   2   56.34    2.97
  -4  -1   2   59.98    2.75
  -4  -1   2   51.25    3.37
   4   1  -2   57.20    2.60
   4   1  -2   56.22    2.96
  -5   0   2    1.57    0.39
  -5   0   2    1.65    0.31
  -5   0   2    1.15    0.29
  -5   0   2    2.04    0.43
   5   0  -2    1.72    0.31
   5   0  -2    1.96    0.33
   5   0  -2    1.27    0.34
  -6   1   2    0.00    0.45
  -6   1   2    0.14    0.40
  -6   1   2    0.02    0.27
   6  -1  -2    0.20    0.30
   6  -1  -2    0.33    0.32
   6  -1  -2    0.42    0.39
   6  -1  -2    0.03    0.35
  -7   2   2    0.43    0.33
  -7   2   2    0.63    0.61
  -7   2   2   -0.18    0.44
   7  -2  -2    0.49    0.52
   7  -2  -2    0.65    0.41
   7  -2  -2    0.44    0.39
  -8   3   2   10.28    1.05
  -8   3   2   11.24    0.87
  -8   3   2    9.80    1.27
   8  -3  -2   10.50    1.00
  -9   4   2   30.34    2.18
   9  -4  -2   24.66    1.68
 -10   5   2   27.37    2.15
  10  -5  -2   24.51    1.73
 -11   6   2   12.96    1.57
  11  -6  -2   12.92    1.23
 -12   7   2    9.89    1.43
  12  -7  -2   10.16    1.12
   5 -11   3   38.14    2.21
  -5  11  -3   35.98    2.39
   4 -10   3   21.79    1.54
  -4  10  -3   25.71    1.97
  -4  10  -3   23.77    1.43
  -4  10  -3   22.48    1.67
   3  -9   3    7.22    0.77
  -3   9  -3    6.24    0.79
  -3   9  -3    6.87    0.64
   2  -8   3    4.81    0.62
  -2   8  -3    5.31    0.66
  -2   8  -3    4.37    0.49
   1  -7   3    1.96    0.34
   1  -7   3    1.57    0.42
  -1   7  -3    2.35    0.45
  -1   7  -3    2.03    0.35
   0  -6   3    2.28    0.36
   0  -6   3    1.83    0.38
   0   6  -3    2.31    0.41
   0   6  -3    2.24    0.32
  -1  -5   3   42.93    2.03
  -1  -5   3   39.81    2.18
   1   5  -3   39.19    2.21
   1   5  -3   38.97    1.91
  -2  -4   3  109.34    5.72
  -2  -4   3  116.23    5.38
   2   4  -3  109.46    5.06
   2   4  -3  118.02    5.80
  -3  -3   3   99.64    5.30
  -3  -3   3  106.60    4.97
   3   3  -3  104.46    4.68
   3   3  -3  106.78    5.36
  -4  -2   3  102.27    6.41
  -4  -2   3  116.56    5.22
  -4  -2   3  107.45    5.56
   4   2  -3  108.99    5.61
   4   2  -3  111.62    4.91
  -5  -1   3  173.97   10.61
  -5  -1   3  182.88    9.09
  -5  -1   3  186.68    8.58
   5   1  -3  182.88    8.06
   5   1  -3  179.51    9.20
  -6   0   3  144.65    7.35
  -6   0   3  145.62    6.92
  -6   0   3  139.13    8.60
   6   0  -3  150.24    6.53
   6   0  -3  145.97    7.45
  -7   1   3   53.58    3.61
  -7   1   3   56.38    2.86
  -7   1   3   55.33    3.10
   7  -1  -3   58.85    3.19
   7  -1  -3   58.00    2.76
   7  -1  -3   59.36    3.85
  -8   2   3   28.07    2.17
  -8   2   3   29.44    1.87
  -8   2   3   28.69    1.64
   8  -2  -3   30.43    1.98
   8  -2  -3   29.83    1.68
   8  -2  -3   30.33    2.20
  -9   3   3   24.85    1.95
  -9   3   3   25.86    1.68
   9  -3  -3   21.08    1.48
 -10   4   3   11.82    1.40
  10  -4  -3    9.98    1.01
 -11   5   3    1.20    0.90
  11  -5  -3    0.69    0.67
 -12   6   3   -0.01    0.92
  12  -6  -3    0.91    0.70
   5 -12   4    6.96    0.96
  -5  12  -4    7.13    1.06
   4 -11   4   24.91    1.59
  -4  11  -4   21.28    1.69
   3 -10   4   62.20    3.11
  -3  10  -4   58.38    3.37
  -3  10  -4   57.92    2.86
   2  -9   4   47.18    2.49
  -2   9  -4   44.21    2.67
  -2   9  -4   48.55    2.28
   1  -8   4   51.13    2.65
  -1   8  -4   51.35    2.84
  -1   8  -4   51.93    2.45
   0  -7   4  150.28    7.51
   0  -7   4  152.21    7.15
   0   7  -4  150.96    7.67
   0   7  -4  145.40    6.67
  -1  -6   4  164.98    7.56
  -1  -6   4  161.43    7.99
   1   6  -4  155.12    7.07
   1   6  -4  154.87    8.11
  -2  -5   4   35.40    1.79
  -2  -5   4   34.66    1.98
   2   5  -4   37.26    1.99
   2   5  -4   32.91    1.70
  -3  -4   4    9.38    0.66
  -3  -4   4    8.56    0.86
   3   4  -4   10.39    0.79
   3   4  -4    9.47    0.67
  -4  -3   4    9.60    0.94
  -4  -3   4    8.72    0.67
   4   3  -4    8.43    0.69
   4   3  -4   10.19    0.79
  -5  -2   4    0.27    0.27
  -5  -2   4    0.25    0.37
  -5  -2   4    0.03    0.39
   5   2  -4    0.17    0.26
   5   2  -4   -0.12    0.30
  -6  -1   4    9.81    1.00
  -6  -1   4   10.97    0.79
  -6  -1   4   10.00    1.02
   6   1  -4    8.79    0.80
   6   1  -4    9.85    0.89
  -7   0   4   21.82    1.78
  -7   0   4   25.16    1.64
  -7   0   4   23.95    1.39
   7   0  -4   23.89    1.87
   7   0  -4   24.35    1.61
   7   0  -4   24.93    1.40
  -8   1   4   29.45    2.26
  -8   1   4   32.69    1.99
  -8   1   4   31.08    1.74
   8  -1  -4   34.17    2.38
   8  -1  -4   30.83    2.05
   8  -1  -4   30.45    1.72
  -9   2   4   35.94    2.15
  -9   2   4   33.29    1.91
  -9   2   4   34.05    2.47
   9  -2  -4   35.14    1.90
   9  -2  -4   33.08    2.32
 -10   3   4   35.77    2.67
 -10   3   4   41.23    2.36
  10  -3  -4   34.48    2.07
 -11   4   4   23.20    2.07
  11  -4  -4   25.77    1.68
 -12   5   4    9.19    1.38
  12  -5  -4    8.42    1.05
   5 -13   5   21.85    1.61
  -5  13  -5   19.42    1.81
   4 -12   5   12.94    1.19
  -4  12  -5   10.87    1.27
   3 -11   5    0.32    0.59
  -3  11  -5   -0.82    0.61
   2 -10   5    1.94    0.58
  -2  10  -5    1.50    0.44
  -2  10  -5    2.09    0.62
   1  -9   5    2.36    0.52
  -1   9  -5    2.40    0.43
  -1   9  -5    2.37    0.57
   0  -8   5   24.73    1.42
   0   8  -5   22.70    1.54
   0   8  -5   24.51    1.30
  -1  -7   5  100.49    4.72
  -1  -7   5   97.89    5.01
   1   7  -5   95.27    5.09
   1   7  -5   95.63    4.40
  -2  -6   5  109.60    5.09
  -2  -6   5  103.04    5.42
   2   6  -5  106.21    5.49
   2   6  -5  104.19    4.76
  -3  -5   5   53.89    2.65
  -3  -5   5   52.18    2.90
   3   5  -5   52.07    2.89
   3   5  -5   54.68    2.51
  -4  -4   5   85.99    4.63
  -4  -4   5   88.07    4.29
   4   4  -5   90.24    4.06
   4   4  -5   91.32    4.65
  -5  -3   5  202.85   10.74
  -5  -3   5  212.76   10.12
   5   3  -5  219.67   10.88
   5   3  -5  220.90    9.51
  -6  -2   5  125.12    6.01
  -6  -2   5  124.05    6.44
   6   2  -5  124.72    6.48
   6   2  -5  126.50    5.67
  -7  -1   5   12.00    1.22
  -7  -1   5   13.24    1.22
  -7  -1   5   12.54    0.93
   7   1  -5   12.47    1.25
   7   1  -5   14.02    1.10
   7   1  -5   11.62    0.95
  -8   0   5   10.08    1.22
  -8   0   5   10.85    1.19
  -8   0   5   11.10    0.91
   8   0  -5   11.27    1.22
   8   0  -5   10.51    1.15
   8   0  -5   11.72    0.97
  -9   1   5   24.75    1.74
  -9   1   5   21.27    1.42
  -9   1   5   22.14    1.84
   9  -1  -5   22.46    1.80
   9  -1  -5   22.86    1.94
   9  -1  -5   23.90    1.45
 -10   2   5    0.18    0.49
 -10   2   5    0.24    0.79
 -10   2   5    0.27    0.65
  10  -2  -5    0.39    0.87
  10  -2  -5    0.06    0.54
 -11   3   5    3.39    0.79
 -11   3   5    2.76    0.98
  11  -3  -5    4.12    0.77
 -12   4   5    1.08    0.96
  12  -4  -5    0.51    0.71
  -5  14  -6   11.05    1.41
   4 -13   6   28.70    1.89
  -4  13  -6   27.32    2.10
   3 -12   6   30.66    1.90
  -3  12  -6   29.52    2.12
   2 -11   6   22.39    1.45
  -2  11  -6   17.77    1.52
   1 -10   6   35.34    1.97
  -1  10  -6   33.23    1.76
  -1  10  -6   35.12    2.13
   0  -9   6   79.55    3.86
   0   9  -6   75.07    4.14
   0   9  -6   75.96    3.54
  -1  -8   6   38.45    2.04
  -1  -8   6   38.57    2.20
   1   8  -6   36.81    1.87
   1   8  -6   39.15    2.25
  -2  -7   6    0.98    0.53
  -2  -7   6    1.00    0.37
   2   7  -6    0.42    0.30
   2   7  -6    0.87    0.43
  -3  -6   6    1.13    0.54
  -3  -6   6    1.37    0.35
   3   6  -6    1.64    0.43
   3   6  -6    1.76    0.34
  -4  -5   6    2.26    0.37
  -4  -5   6    2.39    0.58
   4   5  -6    2.59    0.36
   4   5  -6    2.58    0.46
  -5  -4   6   25.29    1.42
  -5  -4   6   23.52    1.72
   5   4  -6   25.92    1.61
   5   4  -6   26.74    1.39
  -6  -3   6   77.95    3.89
  -6  -3   6   78.94    4.25
   6   3  -6   77.80    4.22
   6   3  -6   81.77    3.68
  -7  -2   6   31.34    2.06
  -7  -2   6   33.09    1.78
   7   2  -6   32.11    1.98
   7   2  -6   30.30    2.42
   7   2  -6   33.10    1.72
  -8  -1   6   20.73    1.26
  -8  -1   6   19.74    1.55
   8   1  -6   18.67    1.50
   8   1  -6   20.33    1.28
   8   1  -6   16.42    1.68
  -9   0   6   42.88    2.27
  -9   0   6   44.14    2.60
   9   0  -6   43.86    2.22
   9   0  -6   37.91    2.62
   9   0  -6   38.70    3.09
 -10   1   6   48.94    2.68
 -10   1   6   52.14    3.02
  10  -1  -6   47.46    3.16
  10  -1  -6   50.45    2.61
 -11   2   6   26.67    1.93
  11  -2  -6   22.03    1.65
 -12   3   6    6.24    1.19
  12  -3  -6    6.37    0.95
   4 -14   7   -0.11    0.82
  -4  14  -7   -0.73    0.81
   3 -13   7    2.52    0.81
  -3  13  -7    2.83    0.92
   2 -12   7    2.94    0.76
  -2  12  -7    2.72    0.80
   1 -11   7    7.46    0.87
  -1  11  -7    8.37    0.97
   0 -10   7   44.23    2.33
   0  10  -7   41.46    2.05
   0  10  -7   41.47    2.52
  -1  -9   7   80.95    3.77
   1   9  -7   71.54    3.42
   1   9  -7   72.76    4.08
  -2  -8   7   63.42    3.17
  -2  -8   7   65.83    3.42
   2   8  -7   62.31    3.44
   2   8  -7   59.19    2.87
  -3  -7   7   64.74    3.12
  -3  -7   7   61.54    3.42
   3   7  -7   58.93    2.87
   3   7  -7   64.17    3.41
  -4  -6   7   85.28    4.16
  -4  -6   7   87.57    4.53
   4   6  -7   82.74    3.87
   4   6  -7   85.13    4.52
  -5  -5   7   71.19    4.01
  -5  -5   7   72.83    3.65
   5   5  -7   75.30    3.42
   5   5  -7   76.52    3.99
  -6  -4   7   32.20    1.80
  -6  -4   7   32.14    2.11
   6   4  -7   34.85    1.72
   6   4  -7   32.86    2.00
  -7  -3   7    9.92    0.89
  -7  -3   7   11.50    1.21
   7   3  -7    9.33    1.17
   7   3  -7   11.85    0.90
   7   3  -7    9.33    1.06
  -8  -2   7    7.07    0.94
  -8  -2   7    6.84    0.72
   8   2  -7    6.50    0.88
   8   2  -7    6.72    1.01
   8   2  -7    6.57    0.66
  -9  -1   7    1.02    0.53
  -9  -1   7    0.86    0.71
   9   1  -7    1.68    0.52
   9   1  -7    1.05    0.78
 -10   0   7    4.35    0.71
 -10   0   7    3.66    0.89
  10   0  -7    5.11    0.72
  10   0  -7    4.73    1.05
 -11   1   7   11.87    1.26
  11  -1  -7    8.86    0.95
 -12   2   7    3.44    0.90
  12  -2  -7    2.76    0.79
   3 -14   8   16.46    1.50
  -3  14  -8   14.70    1.59
   2 -13   8   20.67    1.52
  -2  13  -8   16.53    1.62
   1 -12   8   17.01    1.35
  -1  12  -8   16.74    1.48
   0 -11   8    9.48    0.98
   0  11  -8    8.65    1.03
  -1 -10   8    2.80    0.61
   1  10  -8    3.17    0.71
  -2  -9   8    0.26    0.44
   2   9  -8    0.75    0.54
  -3  -8   8    3.31    0.53
  -3  -8   8    1.80    0.70
   3   8  -8    2.24    0.58
  -4  -7   8   19.94    1.23
  -4  -7   8   19.18    1.57
   4   7  -8   19.79    1.41
  -5  -6   8   37.45    2.33
  -5  -6   8   36.40    1.99
   5   6  -8   38.06    2.24
  -6  -5   8   41.00    2.47
  -6  -5   8   38.77    2.10
   6   5  -8   40.31    1.92
   6   5  -8   36.97    2.32
  -7  -4   8   40.94    2.52
  -7  -4   8   37.60    2.16
   7   4  -8   41.36    2.01
   7   4  -8   40.68    2.41
  -8  -3   8   45.77    2.44
  -8  -3   8   46.62    2.80
   8   3  -8   42.05    2.70
   8   3  -8   47.29    2.28
  -9  -2   8   37.64    2.12
  -9  -2   8   41.37    2.49
   9   2  -8   33.44    2.41
 -10  -1   8   22.01    1.81
 -10  -1   8   20.83    1.43
  10   1  -8   16.94    1.78
 -11   0   8   11.63    1.29
 -11   0   8    7.28    0.91
  11   0  -8    9.42    1.39
  -2  14  -9   10.86    1.31
   1 -13   9   19.36    1.55
  -1  13  -9   21.00    1.72
   0 -12   9   21.64    1.59
   0  12  -9   22.60    1.76
  -1 -11   9   34.46    2.06
   1  11  -9   35.20    2.28
  -2 -10   9   54.33    2.89
   2  10  -9   54.83    3.17
  -3  -9   9   41.50    2.23
   3   9  -9   38.84    2.42
  -4  -8   9   23.43    1.45
  -4  -8   9   23.76    1.77
   4   8  -9   24.40    1.67
  -5  -7   9   23.29    1.40
  -5  -7   9   22.81    1.77
   5   7  -9   21.86    1.58
  -6  -6   9   17.13    1.52
  -6  -6   9   16.77    1.13
   6   6  -9   14.72    1.29
  -7  -5   9    1.70    0.77
  -7  -5   9    1.43    0.52
   7   5  -9    1.04    0.60
  -8  -4   9    2.78    0.83
  -8  -4   9    1.45    0.56
   8   4  -9    1.18    0.67
  -9  -3   9    2.48    0.90
  -9  -3   9    2.25    0.63
   9   3  -9    2.16    0.85
 -10  -2   9    2.64    0.67
 -10  -2   9    2.54    0.92
  10   2  -9    1.67    0.98
 -11  -1   9    9.11    1.30
  11   1  -9    9.47    1.41
  -1  14 -10    0.95    0.78
   0 -13  10    0.46    0.73
   0  13 -10    1.23    0.80
  -1 -12  10   -0.39    0.65
   1  12 -10    1.12    0.78
  -2 -11  10    1.79    0.65
   2  11 -10    2.80    0.81
  -3 -10  10   21.88    1.47
   3  10 -10   22.28    1.67
  -4  -9  10   29.58    2.10
  -4  -9  10   30.09    1.79
   4   9 -10   30.48    1.97
  -5  -8  10   18.03    1.61
  -5  -8  10   18.26    1.24
   5   8 -10   18.64    1.47
  -6  -7  10   30.17    1.77
  -6  -7  10   31.44    2.18
   6   7 -10   30.59    2.01
  -7  -6  10   59.52    3.40
  -7  -6  10   54.89    2.98
   7   6 -10   57.31    3.28
  -8  -5  10   32.18    1.96
  -8  -5  10   35.81    2.38
   8   5 -10   33.92    2.22
  -9  -4  10    8.80    1.20
  -9  -4  10    7.44    0.91
   9   4 -10    9.36    1.19
 -10  -3  10    8.45    1.25
  10   3 -10    9.31    1.31
   1  13 -11   23.27    1.93
  -2 -12  11   32.73    2.12
   2  12 -11   35.70    2.38
  -3 -11  11   13.99    1.28
   3  11 -11   17.61    1.53
  -4 -10  11    2.45    0.66
   4  10 -11    3.34    0.78
  -5  -9  11    2.94    0.90
  -5  -9  11    2.88    0.64
   5   9 -11    2.89    0.74
  -6  -8  11    1.58    0.83
  -6  -8  11    1.57    0.53
   6   8 -11    1.31    0.66
  -7  -7  11    1.28    0.89
  -7  -7  11    1.58    0.59
   7   7 -11    0.96    0.66
  -8  -6  11    7.02    1.13
  -8  -6  11    5.96    0.80
   8   6 -11    5.74    0.96
  -9  -5  11    3.39    1.03
   9   5 -11    4.98    1.00
   3  12 -12   18.04    1.68
   4  11 -12   14.92    1.50
   5  10 -12   14.49    1.42
  -6  -9  12   28.75    2.20
   6   9 -12   30.33    2.06
  -7  -8  12   38.96    2.56
   7   8 -12   36.05    2.41
  -8  -7  12   17.19    1.75
  -5  -6  15   11.97    1.25
   7   3 -14    3.20    0.86
  -7  -3  14    3.30    0.88
  -6  -4  14    4.58    0.91
  -5  -5  14    5.13    0.92
  -4  -6  14   18.15    1.55
   8   1 -13   25.30    1.95
  -8  -1  13   24.97    1.89
   7   2 -13   12.16    1.32
  -7  -2  13   12.07    1.28
   6   3 -13    5.10    0.87
  -6  -3  13    4.40    0.87
  -5  -4  13   14.34    1.39
  -4  -5  13   12.80    1.28
  -3  -6  13    0.02    0.59
  -3  12 -13   13.32    1.40
   9  -1 -12    0.29    0.87
  -9   1  12    0.15    0.71
   8   0 -12    5.20    1.01
  -8   0  12    3.51    0.84
   7   1 -12    6.27    0.98
  -7  -1  12    6.60    0.95
   6   2 -12    9.16    1.01
  -6  -2  12    7.99    1.02
   5   3 -12   23.03    1.57
  -5  -3  12   22.28    1.69
  -4  -4  12   41.05    2.47
  -3  -5  12   44.63    2.60
   2   6 -12   34.19    2.60
  -2  -6  12   30.61    1.95
  -3  11 -12    0.41    0.68
   3 -11  12    0.31    0.58
  -4  12 -12   -0.31    0.74
   9  -2 -11   12.14    1.41
  -9   2  11   13.75    1.36
  -9   2  11   12.80    1.59
   8  -1 -11   18.00    1.62
  -8   1  11   17.05    1.51
   7   0 -11   22.22    1.69
   7   0 -11   21.73    1.65
  -7   0  11   19.58    1.63
   6   1 -11   11.89    1.20
   6   1 -11   11.12    1.16
  -6  -1  11   11.28    1.16
   5   2 -11    3.12    0.78
   5   2 -11    2.34    0.63
  -5  -2  11    2.40    0.69
   4   3 -11    0.03    0.47
   4   3 -11   -0.26    0.61
  -4  -3  11   -0.07    0.56
   3   4 -11    1.29    0.67
   3   4 -11    2.61    0.67
  -3  -4  11    0.67    0.55
   2   5 -11    7.04    1.00
   2   5 -11    7.64    0.84
  -2  -5  11    5.70    0.74
   1   6 -11   12.40    1.24
  -1  -6  11   10.04    0.99
  -2   9 -11   36.17    2.14
  -3  10 -11   31.13    2.00
  -4  11 -11   19.97    1.65
   4 -11  11   21.22    1.45
  -5  12 -11    6.60    1.09
   9  -3 -10    5.25    1.12
  -9   3  10    4.64    1.10
  -9   3  10    4.21    0.88
   8  -2 -10    5.92    0.93
   8  -2 -10    4.96    0.99
  -8   2  10    5.15    0.87
  -8   2  10    3.99    1.03
   7  -1 -10   15.45    1.39
   7  -1 -10   16.71    1.43
  -7   1  10   15.60    1.38
  -7   1  10   13.71    1.53
   6   0 -10   39.86    2.43
   6   0 -10   39.98    2.39
  -6   0  10   37.16    2.70
   5   1 -10   47.32    2.67
   5   1 -10   47.49    2.78
  -5  -1  10   45.53    3.07
   4   2 -10   38.33    2.31
   4   2 -10   36.26    2.15
  -4  -2  10   38.18    2.51
   3   3 -10   54.76    3.07
   2   4 -10   76.46    3.93
   2   4 -10   70.01    4.95
   1   5 -10   38.82    2.09
   1   5 -10   32.07    2.58
  -2   8 -10    0.65    0.47
  -3   9 -10    3.93    0.68
  -4  10 -10    5.80    0.90
   4 -10  10    6.88    0.78
  -5  11 -10    2.70    0.83
   5 -11  10    5.81    0.81
  -6  12 -10    7.73    1.14
 -10   5   9   11.44    1.20
 -10   5   9    8.08    1.37
   9  -4  -9   10.29    1.35
  -9   4   9    9.09    1.10
  -9   4   9   10.29    1.39
   8  -3  -9   18.97    1.64
   8  -3  -9   18.71    1.52
  -8   3   9   19.18    1.81
  -8   3   9   18.31    1.52
   7  -2  -9   15.15    1.33
   7  -2  -9   13.18    1.35
  -7   2   9   14.45    1.51
   6  -1  -9    0.82    0.60
   6  -1  -9    0.64    0.62
  -6   1   9    0.14    0.63
   5   0  -9    1.97    0.58
   5   0  -9    2.86    0.65
  -5   0   9    2.42    0.70
   4   1  -9    0.27    0.53
   4   1  -9   -0.31    0.43
  -4  -1   9    0.63    0.53
   3   2  -9    6.98    0.81
  -3  -2   9    7.51    0.90
   2   3  -9   62.09    3.79
   2   3  -9   58.25    4.14
   2   3  -9   62.43    3.29
  -2  -3   9   60.01    3.75
   1   4  -9   83.63    5.84
   1   4  -9   88.70    5.38
   1   4  -9   94.10    4.62
   0   5  -9   49.06    2.65
   0   5  -9   49.38    3.13
  -1   6  -9   41.10    2.90
  -1   6  -9   43.75    2.78
  -2   7  -9   81.82    4.65
  -2   7  -9   67.87    3.89
  -3   8  -9   72.24    4.20
  -3   8  -9   59.14    3.54
  -4   9  -9   16.18    1.43
   4  -9   9   21.45    1.26
  -5  10  -9    5.52    0.91
   5 -10   9    5.46    0.77
  -6  11  -9    2.22    0.90
   6 -11   9    5.53    0.86
  -7  12  -9    0.64    0.88
  10  -6  -8    9.18    1.39
  10  -6  -8   12.99    1.11
 -10   6   8    8.58    1.40
   9  -5  -8    6.63    1.16
   9  -5  -8    7.61    0.84
  -9   5   8    8.00    1.01
  -9   5   8    7.66    1.27
   8  -4  -8   10.70    0.93
   8  -4  -8    8.69    1.20
   8  -4  -8    7.55    1.00
  -8   4   8    8.22    1.25
  -8   4   8    8.60    1.02
   7  -3  -8   40.31    2.59
   7  -3  -8   42.38    2.50
  -7   3   8   42.53    2.92
   6  -2  -8   76.09    4.22
   6  -2  -8   74.91    4.12
  -6   2   8   79.75    4.85
   5  -1  -8   41.02    2.32
   5  -1  -8   35.72    2.30
  -5   1   8   41.40    2.68
   4   0  -8   33.21    1.99
   4   0  -8   30.92    1.91
  -4   0   8   34.05    2.24
   3   1  -8   79.63    4.27
   3   1  -8   83.19    4.33
  -3  -1   8   84.59    5.01
   2   2  -8   75.57    4.67
   2   2  -8   80.01    4.03
  -2  -2   8   74.53    4.65
   1   3  -8    9.87    0.88
   1   3  -8    8.36    0.95
   1   3  -8    8.20    0.96
   0   4  -8    0.23    0.44
   0   4  -8    0.83    0.40
   0   4  -8    0.15    0.37
  -1   5  -8    0.09    0.46
  -1   5  -8   -0.03    0.32
  -2   6  -8    2.45    0.45
  -2   6  -8    2.19    0.58
  -3   7  -8   36.13    2.29
  -3   7  -8   29.02    1.90
  -4   8  -8   30.90    2.27
  -4   8  -8   46.93    2.73
   4  -8   8   38.56    2.03
  -5   9  -8   21.50    1.75
  -5   9  -8   14.73    1.46
   5  -9   8   17.15    1.22
  -6  10  -8   14.94    1.57
  -6  10  -8   20.69    1.90
   6 -10   8   17.66    1.35
  -7  11  -8   21.18    1.86
   7 -11   8   21.88    1.58
  -8  12  -8   11.11    1.44
  10  -7  -7    4.49    0.82
 -10   7   7    5.05    1.18
   9  -6  -7    4.79    0.80
   9  -6  -7    4.53    1.05
  -9   6   7    4.47    1.11
  -9   6   7    4.64    0.85
   8  -5  -7    9.76    1.21
   8  -5  -7   11.32    1.21
   8  -5  -7   11.64    1.11
  -8   5   7   10.42    1.36
  -8   5   7   10.74    1.10
   7  -4  -7    3.90    0.63
   7  -4  -7    5.03    0.77
   7  -4  -7    3.67    0.84
  -7   4   7    4.88    0.94
   6  -3  -7    3.13    0.47
   6  -3  -7    2.27    0.60
   6  -3  -7    2.26    0.65
  -6   3   7    2.24    0.72
   5  -2  -7   11.21    1.04
   5  -2  -7   11.19    1.05
  -5   2   7   12.12    1.22
   4  -1  -7   12.96    1.08
   4  -1  -7   16.90    1.18
  -4   1   7   16.34    1.33
   3   0  -7   42.68    2.46
   3   0  -7   47.26    2.55
  -3   0   7   47.49    2.91
   2   1  -7  132.90    7.77
   2   1  -7  120.96    6.61
   2   1  -7  143.94    6.66
  -2  -1   7  126.92    7.75
   1   2  -7  138.73    8.48
   1   2  -7  148.36    7.23
   0   3  -7   61.50    3.80
   0   3  -7   62.85    3.24
  -1   4  -7   76.30    4.80
  -1   4  -7   82.81    4.06
  -2   5  -7  125.77    6.57
  -2   5  -7  133.08    7.69
  -3   6  -7   60.86    3.31
  -3   6  -7   62.66    3.85
  -4   7  -7    6.51    0.85
  -4   7  -7    4.43    0.70
   4  -7   7    5.14    0.57
  -5   8  -7    1.67    0.64
  -5   8  -7    2.34    0.81
   5  -8   7    1.83    0.51
  -6   9  -7    3.12    0.79
  -6   9  -7    4.94    1.08
   6  -9   7    3.62    0.71
  -7  10  -7   -0.12    0.98
  -7  10  -7    0.16    0.80
   7 -10   7   -0.84    0.60
  -8  11  -7    7.57    1.24
  -8  11  -7    6.19    1.41
   8 -11   7    8.85    1.01
  -9  12  -7    6.62    1.25
  10  -8  -6    7.40    1.01
 -10   8   6    7.03    1.30
   9  -7  -6   14.88    1.32
  -9   7   6   15.86    1.70
   8  -6  -6   27.86    1.82
   8  -6  -6   27.59    1.67
   8  -6  -6   23.83    1.92
  -8   6   6   25.13    2.16
   7  -5  -6   55.82    2.61
   7  -5  -6   51.82    2.86
   7  -5  -6   44.77    2.96
  -7   5   6   49.10    3.41
   6  -4  -6   62.56    3.56
   6  -4  -6   65.60    3.05
   6  -4  -6   59.92    3.41
  -6   4   6   65.17    4.08
   5  -3  -6   34.05    1.74
   5  -3  -6   34.95    2.03
   5  -3  -6   31.54    2.06
  -5   3   6   37.27    2.41
   4  -2  -6   32.98    1.89
   4  -2  -6   33.14    1.57
   4  -2  -6   29.65    1.87
  -4   2   6   32.21    2.19
   3  -1  -6   54.10    3.14
   3  -1  -6   63.93    3.17
  -3   1   6   60.58    3.68
   2   0  -6   22.54    1.24
   2   0  -6   20.82    1.54
   2   0  -6   24.20    1.37
   2   0  -6   21.01    1.24
  -2   0   6   19.79    1.51
   1   1  -6    0.70    0.41
   1   1  -6    1.61    0.37
   0   2  -6    2.56    0.38
   0   2  -6    1.89    0.40
  -1   3  -6   10.47    0.93
  -1   3  -6   11.33    0.79
  -2   4  -6   63.08    3.24
  -2   4  -6   63.00    3.84
  -3   5  -6   86.56    4.86
  -3   5  -6   73.56    4.14
  -4   6  -6   60.52    3.62
  -4   6  -6   52.90    3.08
   4  -6   6   57.21    2.81
  -5   7  -6   43.38    2.62
  -5   7  -6   47.88    3.05
   5  -7   6   44.79    2.38
  -6   8  -6   45.55    2.93
  -6   8  -6   38.85    2.51
   6  -8   6   38.58    2.24
  -7   9  -6   27.28    2.07
  -7   9  -6   31.32    2.40
   7  -9   6   29.05    1.79
  -8  10  -6   17.46    1.89
  -8  10  -6   12.25    1.47
   8 -10   6   16.40    1.31
  -9  11  -6    4.53    1.37
  -9  11  -6    2.99    1.08
   9 -11   6    6.43    0.96
   9  -8  -5    1.04    0.69
  -9   8   5    0.08    0.92
   8  -7  -5    0.07    0.78
   8  -7  -5   -0.21    0.55
  -8   7   5   -0.10    0.81
   7  -6  -5    2.12    0.77
   7  -6  -5    4.39    0.64
   7  -6  -5    3.26    0.64
  -7   6   5    2.11    0.82
   6  -5  -5    6.97    0.89
   6  -5  -5    8.27    0.83
   6  -5  -5    7.89    0.75
  -6   5   5    8.29    1.05
   5  -4  -5   16.85    1.12
   5  -4  -5   15.03    1.25
   5  -4  -5   17.22    1.21
  -5   4   5   17.08    1.48
   4  -3  -5   61.60    3.36
   4  -3  -5   58.34    2.88
   4  -3  -5   66.94    3.30
  -4   3   5   61.36    3.87
   3  -2  -5  102.78    4.72
   3  -2  -5  115.33    5.41
   3  -2  -5  103.38    5.46
   3  -2  -5   98.78    4.72
  -3   2   5  110.91    6.35
   2  -1  -5  121.96    6.42
   2  -1  -5  134.95    6.42
   2  -1  -5  134.30    6.38
  -2   1   5  114.40    7.47
   1   0  -5  192.25    9.28
   1   0  -5  172.67   10.91
   1   0  -5  173.40    9.34
   1   0  -5  206.04    9.35
   0   1  -5  200.29    9.48
   0   1  -5  191.38   11.16
   0  -1   5  180.42   12.02
  -1   2  -5   84.94    5.13
  -1   2  -5   93.79    4.37
   1  -2   5   80.11    5.47
  -2   3  -5   52.55    2.57
  -2   3  -5   52.03    2.57
  -2   3  -5   46.32    3.06
  -2   3  -5   48.69    2.57
  -3   4  -5   32.37    2.12
  -3   4  -5   32.35    1.77
  -4   5  -5    6.78    0.76
  -4   5  -5    7.51    0.94
   4  -5   5    8.03    0.64
  -5   6  -5    0.31    0.46
  -5   6  -5   -0.04    0.60
   5  -6   5    0.44    0.43
  -6   7  -5    3.03    0.69
  -6   7  -5    2.94    0.85
   6  -7   5    2.09    0.55
  -7   8  -5   16.49    1.63
  -7   8  -5   12.78    1.39
   7  -8   5   13.01    1.11
  -8   9  -5   16.15    1.75
  -8   9  -5   11.77    1.38
   8  -9   5   15.48    1.24
  -9  10  -5    6.94    1.24
  -9  10  -5    8.41    1.51
   9 -10   5   10.73    1.09
 -10  11  -5   11.26    1.68
 -10  11  -5    7.90    1.43
   9  -9  -4   26.80    1.77
  -9   9   4   23.75    2.24
   8  -8  -4   19.09    1.43
  -8   8   4   20.19    1.91
   7  -7  -4   17.08    1.29
   7  -7  -4   16.53    1.50
  -7   7   4   19.01    1.72
   6  -6  -4   59.45    2.91
   6  -6  -4   58.63    3.19
   6  -6  -4   56.15    3.34
  -6   6   4   61.58    3.87
   5  -5  -4   76.34    3.79
   5  -5  -4   68.47    3.39
   5  -5  -4   68.23    3.89
  -5   5   4   74.39    4.52
   4  -4  -4    7.64    0.73
   4  -4  -4    7.41    0.75
   4  -4  -4    8.60    0.80
  -4   4   4    7.19    0.86
   3  -3  -4    0.96    0.32
   3  -3  -4    1.38    0.35
   3  -3  -4    0.64    0.36
  -3   3   4    0.62    0.39
   2  -2  -4    1.41    0.25
   2  -2  -4    1.18    0.32
   2  -2  -4    1.05    0.32
  -2   2   4    1.22    0.38
   1  -1  -4    0.84    0.14
   1  -1  -4    0.78    0.39
   1  -1  -4    0.94    0.30
   1  -1  -4    1.54    0.27
   1  -1  -4    0.96    0.26
   0   0  -4   71.40    3.46
   0   0  -4   60.97    4.07
   0   0  -4   67.31    3.48
   0   0  -4   71.34    3.46
  -1   1  -4  126.56    5.86
  -1   1  -4  111.00    6.88
  -1   1  -4  112.89    5.87
  -1   1  -4  110.79    5.87
   1  -1   4  123.82    7.42
  -2   2  -4   85.27    5.40
  -2   2  -4   88.79    4.61
  -2   2  -4   99.03    4.61
  -2   2  -4   96.27    4.58
   2  -2   4   86.06    5.75
  -3   3  -4   97.97    4.74
  -3   3  -4   87.70    5.54
  -4   4  -4  154.35    7.54
  -4   4  -4  136.38    8.76
   4  -4   4  153.77    7.03
  -5   5  -4  136.55    6.99
  -5   5  -4  136.74    8.13
   5  -5   4  134.21    6.50
  -6   6  -4   37.72    2.41
  -6   6  -4   44.15    2.88
   6  -6   4   42.79    2.22
  -7   7  -4   12.04    1.29
  -7   7  -4   14.14    1.49
   7  -7   4   12.97    1.06
  -8   8  -4   20.10    1.85
  -8   8  -4   15.72    1.59
   8  -8   4   15.55    1.26
  -9   9  -4    6.94    1.19
  -9   9  -4    7.69    1.42
   9  -9   4    7.77    0.98
 -10  10  -4   -0.67    1.10
   9 -10  -3    0.03    0.70
  -9  10   3    0.82    1.03
   8  -9  -3    4.54    0.85
  -8   9   3    7.03    1.25
   7  -8  -3    6.37    0.80
  -7   8   3    5.23    1.06
   6  -7  -3   16.62    1.39
   6  -7  -3   16.97    1.24
  -6   7   3   18.05    1.67
   5  -6  -3   60.07    3.47
   5  -6  -3   62.64    3.04
   5  -6  -3   61.43    3.32
  -5   6   3   66.58    4.02
   4  -5  -3  101.95    4.97
   4  -5  -3   93.77    4.46
   4  -5  -3   94.06    5.11
  -4   5   3   98.74    5.91
   3  -4  -3   85.45    4.02
   3  -4  -3   75.71    3.58
   3  -4  -3   72.58    4.10
  -3   4   3   77.76    4.74
  -3   4   3   78.17    3.56
   2  -3  -3   95.07    4.82
   2  -3  -3   96.73    4.21
   2  -3  -3   94.82    4.72
  -2   3   3   85.95    5.55
   1  -2  -3  251.67   12.61
   1  -2  -3  265.88   11.21
   1  -2  -3  241.79   14.86
   1  -2  -3  260.29   12.80
   0  -1  -3  246.96   12.36
   0  -1  -3  212.27   10.94
   0  -1  -3  255.59   14.57
   0  -1  -3  263.39   10.96
   0  -1  -3  272.85   12.54
  -1   0  -3   30.32    1.56
  -1   0  -3   30.01    1.28
  -1   0  -3   27.20    1.48
  -1   0  -3   26.30    1.27
  -1   0  -3   26.58    1.48
  -1   0  -3   27.24    1.77
  -2   1  -3   11.12    0.57
  -2   1  -3    9.71    0.84
  -2   1  -3    8.51    0.56
  -2   1  -3   10.51    0.66
  -2   1  -3   12.19    0.81
  -3   2  -3   35.47    2.40
  -3   2  -3   39.58    2.06
  -3   2  -3   37.68    2.03
   3  -2   3   39.90    1.89
  -4   3  -3    2.52    0.49
  -4   3  -3    3.04    0.38
   4  -3   3    3.50    0.41
  -5   4  -3   55.39    3.52
  -5   4  -3   57.43    3.01
   5  -4   3   54.24    2.78
  -6   5  -3   20.57    1.43
  -6   5  -3   21.38    1.72
   6  -5   3   20.09    1.29
  -7   6  -3   10.13    1.24
  -7   6  -3   11.25    1.14
   7  -6   3    9.93    0.93
  -8   7  -3   36.79    2.60
  -8   7  -3   30.99    2.23
   8  -7   3   32.15    1.94
  -9   8  -3   45.23    3.14
  -9   8  -3   41.07    2.75
   9  -8   3   38.99    2.39
 -10   9  -3   22.91    2.23
 -11  10  -3    5.81    1.32
   9 -11  -2   14.27    1.40
  -9  11   2   15.35    1.85
   8 -10  -2    9.01    1.04
  -8  10   2    9.66    1.42
   7  -9  -2   17.50    1.41
  -7   9   2   20.43    1.86
   6  -8  -2   39.55    2.18
  -6   8   2   41.68    2.88
  -6   8   2   39.16    2.14
   5  -7  -2   13.34    1.19
   5  -7  -2   12.53    1.06
  -5   7   2   14.46    1.05
  -5   7   2   14.26    1.42
   4  -6  -2    3.62    0.56
   4  -6  -2    3.40    0.50
   4  -6  -2    3.61    0.63
  -4   6   2    4.49    0.51
  -4   6   2    4.04    0.71
   3  -5  -2    2.13    0.38
   3  -5  -2    1.74    0.47
   3  -5  -2    1.76    0.41
  -3   5   2    2.05    0.49
  -3   5   2    2.78    0.36
   2  -4  -2    0.96    0.35
   2  -4  -2    0.92    0.30
   2  -4  -2    0.60    0.26
  -2   4   2    0.58    0.33
  -2   4   2    0.66    0.24
   1  -3  -2   70.61    3.62
   1  -3  -2   71.54    3.67
   1  -3  -2   74.84    3.23
  -1   3   2   69.28    3.19
  -1   3   2   67.19    4.24
   0  -2  -2  349.41   17.07
   0  -2  -2  326.51   20.08
   0  -2  -2  360.11   17.32
   0  -2  -2  347.91   15.16
  -1  -1  -2  191.69   11.83
  -1  -1  -2  207.65   10.20
  -1  -1  -2  201.36    8.93
  -1  -1  -2  203.37   10.10
   1   1   2  211.85    9.51
  -2   0  -2   52.04    3.38
  -2   0  -2   59.98    2.97
  -2   0  -2   52.99    2.53
  -2   0  -2   57.76    2.91
   2   0   2   58.61    2.70
  -3   1  -2  122.16    7.72
  -3   1  -2  141.23    6.63
  -3   1  -2  127.76    6.64
   3  -1   2  134.85    6.21
  -4   2  -2  235.08   11.64
  -4   2  -2  228.68   13.70
  -4   2  -2  237.81   11.79
   4  -2   2  235.51   11.03
  -5   3  -2  137.73    7.05
  -5   3  -2  136.02    8.21
   5  -3   2  135.61    6.18
   5  -3   2  142.70    6.61
  -6   4  -2   31.10    1.83
  -6   4  -2   28.45    2.13
   6  -4   2   29.68    1.69
  -7   5  -2   16.21    1.55
  -7   5  -2   14.62    1.27
   7  -5   2   15.74    1.15
  -8   6  -2   16.01    1.61
  -8   6  -2   15.67    1.39
   8  -6   2   15.25    1.22
  -9   7  -2   -0.51    0.86
  -9   7  -2    0.42    0.75
   9  -7   2   -0.28    0.60
 -10   8  -2    8.44    1.42
 -11   9  -2    2.45    1.13
   8 -11  -1   11.08    1.14
  -8  11   1   11.07    1.54
   7 -10  -1   12.14    1.14
  -7  10   1   11.37    1.46
   6  -9  -1   20.43    1.45
  -6   9   1   23.27    1.96
   5  -8  -1   64.05    3.23
  -5   8   1   67.90    3.18
   4  -7  -1   90.30    4.28
   4  -7  -1   89.00    4.67
   4  -7  -1   91.76    4.90
  -4   7   1   93.18    5.63
  -4   7   1   93.71    4.22
   3  -6  -1   72.51    3.59
   3  -6  -1   71.30    3.88
   3  -6  -1   76.24    3.41
   3  -6  -1   68.09    3.70
  -3   6   1   71.20    3.33
  -3   6   1   73.10    4.45
   2  -5  -1   78.27    4.11
   2  -5  -1   84.71    3.72
   2  -5  -1   82.86    3.97
   2  -5  -1   81.02    4.24
  -2   5   1   77.09    4.87
  -2   5   1   78.12    3.67
  -2   5   1   84.37    4.21
   1  -4  -1  115.05    5.90
   1  -4  -1  120.63    5.64
   1  -4  -1  117.92    5.27
   1  -4  -1  121.43    6.02
  -1   4   1  113.33    6.93
  -1   4   1  111.61    5.24
  -1   4   1  123.18    6.01
   0  -3  -1   91.84    4.66
   0  -3  -1   97.78    4.72
   0  -3  -1   93.08    4.13
   0  -3  -1   86.11    5.42
   0  -3  -1   88.57    4.39
   0   3   1   97.22    4.71
   0   3   1   88.40    4.10
  -1  -2  -1   14.94    0.80
  -1  -2  -1   15.54    0.91
  -1  -2  -1   14.05    0.85
  -1  -2  -1   16.41    1.02
  -1  -2  -1   13.13    1.03
   1   2   1   13.66    0.78
   1   2   1   15.98    0.91
  -2  -1  -1    0.38    0.35
  -2  -1  -1    0.40    0.24
  -2  -1  -1    0.31    0.21
  -2  -1  -1    0.29    0.29
   2   1   1    0.56    0.23
   2   1   1    0.19    0.19
  -3   0  -1    0.56    0.22
  -3   0  -1    0.84    0.37
  -3   0  -1    0.92    0.38
  -3   0  -1    0.40    0.22
   3   0   1    0.83    0.21
   3   0   1    1.27    0.29
  -4   1  -1   35.59    2.26
  -4   1  -1   32.36    1.96
  -4   1  -1   34.95    1.93
   4  -1   1   37.74    1.73
   4  -1   1   37.25    1.83
  -5   2  -1  103.24    6.19
  -5   2  -1  105.97    5.32
  -5   2  -1   95.17    5.24
   5  -2   1  109.92    4.68
   5  -2   1  102.17    4.98
  -6   3  -1   59.32    3.41
  -6   3  -1   71.66    3.51
  -6   3  -1   67.03    4.10
   6  -3   1   57.32    4.15
   6  -3   1   70.73    3.10
   6  -3   1   67.67    3.29
  -7   4  -1   42.08    2.37
  -7   4  -1   38.47    2.77
   7  -4   1   39.75    2.08
   7  -4   1   40.84    2.23
  -8   5  -1   59.08    3.22
  -8   5  -1   53.50    3.66
   8  -5   1   53.73    2.93
  -9   6  -1   50.71    3.36
   9  -6   1   45.98    2.66
 -10   7  -1   23.06    2.14
 -11   8  -1    9.30    1.45
  -8  12   0    7.38    1.37
   7 -11   0    6.71    0.92
  -7  11   0    4.75    1.17
   6 -10   0    4.35    0.75
  -6  10   0    3.12    0.94
   5  -9   0    0.29    0.52
  -5   9   0    0.27    0.70
  -5   9   0   -0.26    0.41
   4  -8   0    2.19    0.55
  -4   8   0    3.26    0.72
  -4   8   0    1.90    0.45
   3  -7   0   14.04    1.00
   3  -7   0   12.72    1.06
   3  -7   0   12.48    0.94
  -3   7   0   12.91    0.93
  -3   7   0   14.21    1.05
  -3   7   0   13.19    1.25
   2  -6   0   51.29    2.38
   2  -6   0   50.56    2.54
   2  -6   0   48.66    2.57
   2  -6   0   49.59    2.70
  -2   6   0   48.60    2.66
  -2   6   0   46.07    3.07
  -2   6   0   48.67    2.34
   1  -5   0  124.51    6.37
   1  -5   0  126.42    5.70
   1  -5   0  130.57    6.09
   1  -5   0  128.57    6.51
  -1   5   0  123.62    7.49
  -1   5   0  126.56    5.68
  -1   5   0  129.81    6.50
   0  -4   0  193.71    8.70
   0  -4   0  188.59    9.30
   0  -4   0  179.89    8.14
   0  -4   0  187.40    9.16
   0   4   0  188.91    9.30
   0   4   0  175.54    8.12
   0   4   0  173.13   10.72
  -1  -3   0  164.54   10.26
  -1  -3   0  179.79    8.32
  -1  -3   0  177.67    8.80
  -1  -3   0  183.49    8.91
  -1  -3   0  174.80    7.80
   1   3   0  171.79    7.78
   1   3   0  181.62    8.91
  -2  -2   0  155.02    7.98
  -2  -2   0  169.54    8.07
  -2  -2   0  162.91    7.53
  -2  -2   0  162.33    7.07
  -2  -2   0  145.57    9.30
   2   2   0  165.56    8.07
   2   2   0  157.11    7.06
  -3  -1   0  186.17    9.28
  -3  -1   0  178.82    9.17
  -3  -1   0  170.68   10.73
  -3  -1   0  188.19    8.66
   3   1   0  188.28    9.29
   3   1   0  189.95    8.68
   3   1   0  186.04    8.13
  -4   0   0  164.36    8.52
  -4   0   0  158.49    9.87
  -4   0   0  172.66    7.95
  -4   0   0  168.54    8.43
   4   0   0  166.23    8.53
   4   0   0  176.14    7.49
   4   0   0  173.94    7.98
  -5   1   0   66.05    3.38
  -5   1   0   61.52    3.37
  -5   1   0   63.08    3.93
  -5   1   0   62.30    3.13
   5  -1   0   65.16    3.16
   5  -1   0   64.77    3.39
   5  -1   0   67.05    2.99
  -6   2   0   16.08    1.36
  -6   2   0   15.51    1.11
  -6   2   0   14.23    0.96
  -6   2   0   14.79    1.15
   6  -2   0   15.90    1.07
   6  -2   0   17.22    1.06
   6  -2   0   16.37    1.19
  -7   3   0    5.06    0.67
  -7   3   0    4.19    0.60
  -7   3   0    5.51    0.87
   7  -3   0    4.51    0.58
   7  -3   0    4.36    0.59
   7  -3   0    5.19    0.66
  -8   4   0   -0.22    0.72
   8  -4   0    0.10    0.53
   8  -4   0    0.15    0.47
  -9   5   0    4.16    0.98
   9  -5   0    3.88    0.70
 -10   6   0   12.85    1.59
 -11   7   0   10.82    1.49
 -12   8   0    3.29    1.12
  -7  12  -1   20.51    2.00
  -6  11  -1   31.21    2.45
   5 -10   1   39.83    2.26
  -5  10  -1   46.67    2.94
  -5  10  -1   37.95    2.20
   4  -9   1   61.08    3.00
   4  -9   1   63.03    3.17
  -4   9  -1   56.70    2.90
  -4   9  -1   59.77    3.87
   3  -8   1   44.02    2.22
   3  -8   1   40.96    2.36
  -3   8  -1   45.66    2.51
  -3   8  -1   45.89    2.18
  -3   8  -1   42.15    2.88
   2  -7   1   30.32    1.70
   2  -7   1   29.60    1.68
   2  -7   1   31.70    1.61
  -2   7  -1   27.62    2.04
  -2   7  -1   29.32    1.57
  -2   7  -1   32.38    1.80
   1  -6   1   33.56    1.82
   1  -6   1   36.06    1.79
   1  -6   1   33.44    1.90
   1  -6   1   33.34    1.67
  -1   6  -1   30.81    2.12
  -1   6  -1   31.31    1.87
  -1   6  -1   32.33    1.64
   0  -5   1   15.42    0.92
   0  -5   1   16.25    1.04
   0  -5   1   16.16    1.04
   0  -5   1   16.01    0.97
   0   5  -1   14.79    1.10
   0   5  -1   15.03    0.90
   0   5  -1   16.23    1.04
  -1  -4   1    0.30    0.29
  -1  -4   1    0.58    0.35
  -1  -4   1    0.57    0.25
  -1  -4   1    0.48    0.20
  -1  -4   1    0.30    0.28
   1   4  -1    0.49    0.22
   1   4  -1    0.23    0.25
  -2  -3   1   10.51    0.80
  -2  -3   1   11.02    0.72
  -2  -3   1   10.98    0.80
  -2  -3   1   11.46    0.87
  -2  -3   1   11.32    0.70
   2   3  -1   11.43    0.71
   2   3  -1   12.16    0.81
  -3  -2   1   82.95    3.79
  -3  -2   1   69.39    4.63
  -3  -2   1   79.94    4.07
  -3  -2   1   78.39    4.06
   3   2  -1   82.62    4.08
   3   2  -1   80.10    3.57
  -4  -1   1  110.14    5.53
  -4  -1   1  116.54    5.19
  -4  -1   1  107.62    5.56
  -4  -1   1   99.96    6.40
   4   1  -1  109.28    5.57
   4   1  -1  108.08    5.19
   4   1  -1  109.75    4.88
  -5   0   1   93.62    4.27
  -5   0   1   84.99    4.57
  -5   0   1   85.56    4.56
  -5   0   1   85.18    5.29
   5   0  -1   91.47    4.28
   5   0  -1   88.29    4.03
   5   0  -1   89.64    4.60
  -6   1   1  107.43    5.58
  -6   1   1  112.31    5.19
  -6   1   1  108.02    6.49
  -6   1   1   99.67    5.52
   6  -1  -1  109.19    5.61
   6  -1  -1  106.66    5.21
   6  -1  -1  111.46    4.92
  -7   2   1  102.34    6.14
  -7   2   1   89.33    5.19
  -7   2   1  100.86    4.88
   7  -2  -1  106.43    4.67
   7  -2  -1  104.84    6.49
   7  -2  -1  100.36    4.93
  -8   3   1   61.02    3.91
  -8   3   1   62.66    3.31
   8  -3  -1   57.79    2.99
  -9   4   1   30.75    2.36
   9  -4  -1   31.69    1.85
 -10   5   1   22.40    1.98
  10  -5  -1   21.19    1.58
 -11   6   1   10.99    1.43
  11  -6  -1    8.80    1.05
 -12   7   1    1.35    1.01
  -5  11  -2    1.38    0.86
   4 -10   2    5.26    0.78
  -4  10  -2    4.98    0.90
  -4  10  -2    4.53    0.65
  -4  10  -2    5.37    0.78
   3  -9   2   37.50    2.07
   3  -9   2   38.04    1.98
  -3   9  -2   34.89    2.52
  -3   9  -2   37.22    2.21
  -3   9  -2   36.02    1.91
   2  -8   2   88.01    4.28
   2  -8   2   92.94    4.04
  -2   8  -2   82.25    4.57
  -2   8  -2   81.66    5.25
  -2   8  -2   87.59    3.99
   1  -7   2   78.67    3.83
   1  -7   2   76.17    3.69
   1  -7   2   74.35    3.47
  -1   7  -2   67.81    4.49
  -1   7  -2   76.49    3.45
  -1   7  -2   72.84    3.93
   0  -6   2  108.47    4.97
   0  -6   2  108.10    5.28
   0  -6   2  108.92    5.56
   0   6  -2  112.81    5.67
   0   6  -2  110.03    4.94
  -1  -5   2  266.68   13.32
  -1  -5   2  280.84   12.64
  -1  -5   2  264.22   11.85
   1   5  -2  267.42   11.84
   1   5  -2  263.05   13.53
  -2  -4   2  189.62    8.57
  -2  -4   2  183.54    9.65
  -2  -4   2  198.87    9.13
   2   4  -2  204.22    9.80
   2   4  -2  190.98    8.56
  -3  -3   2   30.90    1.82
  -3  -3   2   32.91    1.64
  -3  -3   2   30.44    1.77
   3   3  -2   33.96    1.80
   3   3  -2   30.67    1.56
  -4  -2   2   32.47    2.19
  -4  -2   2   34.74    2.02
  -4  -2   2   36.10    1.98
  -4  -2   2   37.50    1.83
   4   2  -2   37.40    1.99
   4   2  -2   36.73    1.75
  -5  -1   2   60.60    2.87
  -5  -1   2   58.49    3.12
  -5  -1   2   57.02    3.07
  -5  -1   2   54.22    3.52
   5   1  -2   58.36    3.10
   5   1  -2   58.70    2.72
  -6   0   2    5.90    0.71
  -6   0   2    6.73    0.70
   6   0  -2    4.78    0.59
   6   0  -2    5.70    0.54
   6   0  -2    3.98    0.49
  -7   1   2    7.62    0.80
  -7   1   2    8.33    0.95
  -7   1   2    6.94    0.73
   7  -1  -2    8.75    0.94
   7  -1  -2    7.83    0.88
   7  -1  -2    6.15    0.64
  -8   2   2   11.69    0.93
  -8   2   2   12.18    1.33
  -8   2   2   10.74    1.17
   8  -2  -2   12.22    1.02
   8  -2  -2   13.47    1.16
  -9   3   2    9.61    1.19
  -9   3   2    9.09    0.96
   9  -3  -2    8.67    0.89
 -10   4   2   16.87    1.69
  10  -4  -2   15.87    1.34
 -11   5   2   25.01    2.15
  11  -5  -2   23.78    1.71
 -12   6   2   14.02    1.68
  12  -6  -2   14.64    1.37
   4 -11   3   53.09    2.83
  -4  11  -3   49.79    3.04
  -4  11  -3   51.10    2.62
   3 -10   3   32.72    1.89
  -3  10  -3   31.51    1.78
  -3  10  -3   31.56    2.05
   2  -9   3    0.67    0.53
  -2   9  -3    0.86    0.38
  -2   9  -3    0.58    0.51
   1  -8   3    0.22    0.43
  -1   8  -3    0.29    0.33
  -1   8  -3    0.20    0.41
   0  -7   3    2.57    0.46
   0  -7   3    2.02    0.42
   0   7  -3    2.50    0.48
   0   7  -3    3.03    0.39
  -1  -6   3   12.82    1.03
  -1  -6   3   13.48    0.88
  -1  -6   3   13.52    0.90
   1   6  -3   13.39    0.88
   1   6  -3   12.89    0.99
  -2  -5   3   98.71    4.48
  -2  -5   3   97.91    5.08
  -2  -5   3   99.90    4.77
   2   5  -3  100.58    5.14
   2   5  -3   98.20    4.48
  -3  -4   3   94.95    4.41
  -3  -4   3   87.29    4.71
   3   4  -3   93.62    4.75
   3   4  -3   90.05    4.15
  -4  -3   3   58.85    3.20
  -4  -3   3   61.61    2.95
   4   3  -3   57.96    2.79
   4   3  -3   60.25    3.19
  -5  -2   3  111.47    5.77
  -5  -2   3  104.78    6.63
  -5  -2   3  117.26    5.40
   5   2  -3  116.36    5.10
   5   2  -3  112.59    5.81
  -6  -1   3  212.05    9.63
  -6  -1   3  190.29   11.90
  -6  -1   3  201.58   10.22
   6   1  -3  205.53    9.05
   6   1  -3  205.68   10.34
  -7   0   3  101.58    5.40
  -7   0   3  100.96    6.25
  -7   0   3  104.14    5.03
   7   0  -3  105.83    5.46
   7   0  -3  105.54    4.77
  -8   1   3   18.10    1.50
  -8   1   3   18.81    1.67
  -8   1   3   19.48    1.25
   8  -1  -3   21.01    1.65
   8  -1  -3   21.59    1.55
   8  -1  -3   19.97    1.28
  -9   2   3   19.55    1.75
  -9   2   3   22.23    1.58
   9  -2  -3   19.34    1.35
 -10   3   3   27.67    1.82
 -10   3   3   23.12    2.03
  10  -3  -3   22.98    1.59
 -11   4   3    1.25    0.95
  11  -4  -3    1.75    0.74
 -12   5   3    0.80    0.97
  12  -5  -3    0.02    0.65
   4 -12   4   22.79    1.64
  -4  12  -4   23.54    1.81
   3 -11   4   42.53    2.32
  -3  11  -4   39.52    2.52
  -3  11  -4   39.21    2.13
   2 -10   4   34.08    1.99
  -2  10  -4   37.81    1.87
  -2  10  -4   32.73    2.15
   1  -9   4   43.36    2.26
  -1   9  -4   40.96    2.08
  -1   9  -4   40.49    2.41
   0  -8   4   97.74    4.90
   0  -8   4   97.71    4.68
   0   8  -4   96.16    4.36
   0   8  -4   88.91    5.00
  -1  -7   4  159.90    7.34
  -1  -7   4  152.76    7.74
   1   7  -4  147.53    7.86
   1   7  -4  152.36    6.86
  -2  -6   4   63.88    3.09
  -2  -6   4   62.93    3.34
   2   6  -4   60.39    2.90
   2   6  -4   61.46    3.35
  -3  -5   4   11.00    0.90
  -3  -5   4    9.92    0.74
   3   5  -4    9.06    0.84
   3   5  -4    8.76    0.75
  -4  -4   4   18.86    1.42
  -4  -4   4   21.08    1.20
   4   4  -4   20.00    1.17
   4   4  -4   22.82    1.36
  -5  -3   4    9.59    1.05
  -5  -3   4   10.31    0.79
   5   3  -4   11.28    0.92
   5   3  -4   10.44    0.83
  -6  -2   4   24.88    1.41
  -6  -2   4   24.11    1.70
   6   2  -4   24.76    1.39
   6   2  -4   23.28    1.55
  -7  -1   4   45.79    2.72
  -7  -1   4   42.99    2.99
  -7  -1   4   48.46    2.43
   7   1  -4   47.43    2.34
   7   1  -4   49.20    2.67
  -8   0   4    8.14    0.81
  -8   0   4    7.48    0.95
  -8   0   4    7.22    0.91
   8   0  -4    8.20    1.02
   8   0  -4    9.35    0.88
   8   0  -4    7.44    0.91
  -9   1   4   12.76    1.33
  -9   1   4   11.23    0.98
  -9   1   4   11.52    1.35
   9  -1  -4   11.88    1.28
   9  -1  -4   11.86    1.03
   9  -1  -4   12.43    1.32
 -10   2   4   49.99    2.73
 -10   2   4   42.03    3.07
  10  -2  -4   41.42    2.36
 -11   3   4   42.56    2.45
 -11   3   4   33.86    2.77
  11  -3  -4   36.64    2.17
 -12   4   4   10.88    1.46
  12  -4  -4   10.09    1.12
   4 -13   5   13.07    1.29
  -4  13  -5   10.66    1.29
   3 -12   5    1.45    0.72
  -3  12  -5    1.70    0.77
   2 -11   5    1.22    0.63
  -2  11  -5    1.24    0.50
  -2  11  -5    1.26    0.66
   1 -10   5    0.10    0.51
  -1  10  -5    0.67    0.54
  -1  10  -5    0.47    0.41
   0  -9   5    4.76    0.67
   0   9  -5    5.74    0.57
   0   9  -5    5.68    0.74
  -1  -8   5   63.00    3.13
  -1  -8   5   63.87    3.33
   1   8  -5   60.76    2.90
   1   8  -5   57.80    3.36
  -2  -7   5  111.00    5.68
  -2  -7   5  111.47    5.34
   2   7  -5  112.56    4.99
   2   7  -5  104.64    5.74
  -3  -6   5   72.19    3.55
  -3  -6   5   72.19    3.84
   3   6  -5   70.52    3.34
   3   6  -5   72.11    3.85
  -4  -5   5   69.09    3.82
  -4  -5   5   74.01    3.53
   4   5  -5   70.21    3.82
   4   5  -5   71.51    3.33
  -5  -4   5  105.29    5.11
  -5  -4   5  104.83    5.50
   5   4  -5  106.84    4.82
   5   4  -5  105.30    5.52
  -6  -3   5  101.37    5.41
  -6  -3   5  103.77    5.01
   6   3  -5  105.36    4.74
   6   3  -5  101.10    5.40
  -7  -2   5   59.67    3.41
  -7  -2   5   60.88    3.09
   7   2  -5   60.69    3.37
   7   2  -5   62.59    2.97
  -8  -1   5   22.22    1.38
  -8  -1   5   21.60    1.65
   8   1  -5   25.31    1.41
   8   1  -5   18.80    1.80
   8   1  -5   22.27    1.60
  -9   0   5    9.74    0.93
  -9   0   5    9.86    1.09
   9   0  -5    8.35    0.82
   9   0  -5    8.85    1.17
   9   0  -5    8.84    1.11
 -10   1   5    2.99    0.60
 -10   1   5    3.37    0.84
  10  -1  -5    3.14    0.65
 -11   2   5    0.26    0.87
 -11   2   5    0.92    0.74
  11  -2  -5    0.56    0.61
 -12   3   5    3.21    1.08
  12  -3  -5    5.38    0.86
   4 -14   6   11.30    1.25
  -4  14  -6    9.60    1.30
   3 -13   6   19.64    1.54
  -3  13  -6   18.59    1.71
   2 -12   6   39.55    2.26
  -2  12  -6   36.44    2.42
   1 -11   6   44.79    2.39
  -1  11  -6   38.23    2.53
  -1  11  -6   43.59    2.15
   0 -10   6   29.04    1.73
   0  10  -6   26.17    1.83
   0  10  -6   29.10    1.54
  -1  -9   6   21.18    1.35
   1   9  -6   19.63    1.51
   1   9  -6   20.43    1.22
  -2  -8   6   23.03    1.54
  -2  -8   6   22.28    1.35
   2   8  -6   20.33    1.24
   2   8  -6   19.64    1.49
  -3  -7   6    8.58    0.82
  -3  -7   6   10.26    0.97
   3   7  -6    9.18    0.80
   3   7  -6    8.89    0.87
  -4  -6   6   -0.17    0.50
  -4  -6   6    0.16    0.34
   4   6  -6    0.24    0.31
   4   6  -6    0.25    0.40
  -5  -5   6   11.00    0.88
  -5  -5   6   11.43    1.09
   5   5  -6   12.12    1.04
   5   5  -6   11.18    0.88
  -6  -4   6   27.19    1.91
  -6  -4   6   28.00    1.58
   6   4  -6   26.89    1.76
   6   4  -6   27.95    1.53
  -7  -3   6   34.96    2.32
  -7  -3   6   35.24    1.98
   7   3  -6   37.22    1.93
   7   3  -6   37.14    2.21
  -8  -2   6   36.64    2.04
  -8  -2   6   36.76    2.37
   8   2  -6   41.12    2.00
   8   2  -6   36.34    2.28
   8   2  -6   33.36    2.76
  -9  -1   6   38.84    2.15
  -9  -1   6   38.19    2.49
   9   1  -6   41.38    2.11
   9   1  -6   35.34    2.45
 -10   0   6   34.19    2.25
  10   0  -6   29.30    2.29
  10   0  -6   32.90    1.89
 -11   1   6   23.51    1.86
  11  -1  -6   20.44    1.54
 -12   2   6   16.56    1.62
  12  -2  -6   16.35    1.47
   3 -14   7   -0.97    0.81
  -3  14  -7    0.27    0.82
   2 -13   7    1.27    0.79
  -2  13  -7    0.53    0.76
   1 -12   7   10.82    1.09
  -1  12  -7   10.80    1.17
   0 -11   7   25.55    1.61
   0  11  -7   22.44    1.72
   0  11  -7   23.73    1.35
  -1 -10   7   38.71    2.10
   1  10  -7   36.07    1.82
   1  10  -7   33.92    2.24
  -2  -9   7   58.91    2.98
  -2  -9   7   61.78    3.23
   2   9  -7   55.95    3.23
   2   9  -7   52.36    2.69
  -3  -8   7   82.61    4.32
  -3  -8   7   83.82    4.01
   3   8  -7   74.57    3.67
   3   8  -7   79.06    4.33
  -4  -7   7   72.30    3.85
  -4  -7   7   68.14    3.49
   4   7  -7   68.59    3.80
   4   7  -7   69.58    3.24
  -5  -6   7   48.78    2.59
  -5  -6   7   48.42    2.91
   5   6  -7   50.47    2.42
   5   6  -7   51.97    2.86
  -6  -5   7   37.34    2.38
  -6  -5   7   36.98    2.03
   6   5  -7   37.48    1.92
   6   5  -7   37.52    2.26
  -7  -4   7   27.38    1.63
  -7  -4   7   27.56    1.98
   7   4  -7   27.43    1.84
   7   4  -7   29.04    1.57
  -8  -3   7    7.15    1.01
  -8  -3   7    8.84    0.88
   8   3  -7    7.56    0.92
   8   3  -7    6.07    0.69
  -9  -2   7   -0.44    0.48
  -9  -2   7   -0.34    0.73
   9   2  -7    0.40    0.47
   9   2  -7   -0.38    0.69
 -10  -1   7    1.07    0.57
 -10  -1   7    0.83    0.82
  10   1  -7    0.80    0.86
  10   1  -7    1.09    0.57
 -11   0   7    1.56    0.90
  11   0  -7    1.09    0.63
  12  -1  -7    4.94    0.83
   2 -14   8   18.96    1.61
  -2  14  -8   18.35    1.75
   1 -13   8   10.79    1.17
  -1  13  -8    9.95    1.20
   0 -12   8    4.35    0.82
   0  12  -8    4.39    0.88
  -1 -11   8    7.19    0.91
   1  11  -8    6.03    0.91
  -2 -10   8    6.12    0.81
   2  10  -8    6.46    0.90
  -3  -9   8    0.46    0.50
  -3  -9   8    1.56    0.71
   3   9  -8    1.37    0.59
  -4  -8   8   20.74    1.35
  -4  -8   8   20.04    1.63
   4   8  -8   20.51    1.51
  -5  -7   8   22.96    1.43
  -5  -7   8   23.09    1.77
   5   7  -8   22.90    1.25
   5   7  -8   24.07    1.63
  -6  -6   8   20.66    1.34
  -6  -6   8   22.51    1.72
   6   6  -8   20.02    1.53
   6   6  -8   20.68    1.19
  -7  -5   8   39.87    2.52
  -7  -5   8   39.08    2.14
   7   5  -8   36.30    2.36
   7   5  -8   39.56    1.98
  -8  -4   8   54.39    2.84
  -8  -4   8   54.63    3.22
   8   4  -8   51.91    3.11
   8   4  -8   53.40    2.64
  -9  -3   8   33.98    1.95
  -9  -3   8   32.57    2.32
   9   3  -8   31.47    2.23
   9   3  -8   33.12    1.83
 -10  -2   8   18.10    1.70
  10   2  -8   14.95    1.64
 -11  -1   8   12.58    1.29
 -11  -1   8   20.37    1.77
  11   1  -8   15.46    1.74
  11   1  -8   16.76    1.31
  -1  14  -9   15.11    1.58
   0 -13   9   20.57    1.58
   0  13  -9   18.95    1.68
  -1 -12   9   18.68    1.48
   1  12  -9   17.72    1.60
  -2 -11   9   42.29    2.43
   2  11  -9   42.49    2.65
  -3 -10   9   66.12    3.53
   3  10  -9   69.11    3.83
  -4  -9   9   25.57    1.64
  -4  -9   9   26.15    1.93
   4   9  -9   25.65    1.81
  -5  -8   9    5.78    0.73
  -5  -8   9    6.09    1.00
   5   8  -9    5.92    0.84
  -6  -7   9   16.76    1.22
  -6  -7   9   18.46    1.61
   6   7  -9   17.03    1.40
  -7  -6   9   15.49    1.58
  -7  -6   9   14.52    1.15
   7   6  -9   14.52    1.33
  -8  -5   9    0.01    0.80
  -8  -5   9    0.54    0.54
   8   5  -9    0.14    0.67
  -9  -4   9    6.01    0.80
  -9  -4   9    5.36    1.03
   9   4  -9    5.50    0.99
 -10  -3   9    1.67    0.66
 -10  -3   9    1.29    0.90
  10   3  -9    2.49    0.96
 -11  -2   9    4.33    1.13
  11   2  -9    4.24    1.13
   0  14 -10   -0.46    0.80
   1  13 -10    0.93    0.81
  -2 -12  10    0.44    0.73
   2  12 -10    0.54    0.77
  -3 -11  10    9.93    1.08
   3  11 -10   11.52    1.23
  -4 -10  10   19.05    1.42
   4  10 -10   19.48    1.61
  -5  -9  10   15.63    1.26
  -5  -9  10   16.17    1.58
   5   9 -10   17.20    1.45
  -6  -8  10   19.52    1.41
  -6  -8  10   23.75    1.86
   6   8 -10   21.09    1.64
  -7  -7  10   41.61    2.43
  -7  -7  10   47.15    2.86
   7   7 -10   44.97    2.71
  -8  -6  10   49.21    2.91
  -8  -6  10   43.06    2.45
   8   6 -10   40.79    2.71
  -9  -5  10   18.68    1.70
  -9  -5  10   12.93    1.24
   9   5 -10   13.26    1.44
 -10  -4  10    5.21    1.14
  10   4 -10    7.23    1.17
   3  12 -11   19.15    1.72
   4  11 -11    9.28    1.15
  -5 -10  11    3.02    0.71
   5  10 -11    2.86    0.79
  -6  -9  11    3.43    0.97
  -6  -9  11    2.11    0.66
   6   9 -11    2.90    0.80
  -7  -8  11    0.37    0.88
   7   8 -11    0.75    0.66
  -8  -7  11    8.24    1.24
   8   7 -11    7.77    1.09
  -9  -6  11    5.13    1.11
  -5  -5  15    9.02    1.13
  -4  -6  15   17.79    1.60
   7   2 -14    2.81    0.83
  -7  -2  14    1.78    0.82
  -6  -3  14    2.25    0.82
  -5  -4  14    2.92    0.82
  -4  -5  14   14.28    1.42
  -3  -6  14   28.13    1.94
   8   0 -13   11.32    1.33
  -8   0  13    9.93    1.16
   7   1 -13   25.85    1.78
  -7  -1  13   19.77    1.74
   6   2 -13   27.97    1.82
  -6  -2  13   24.18    1.93
  -5  -3  13    8.66    1.07
  -4  -4  13    4.05    0.82
  -3  -5  13    3.28    0.74
   8  -1 -12    1.46    0.94
  -8   1  12    0.94    0.75
   7   0 -12    4.00    0.86
   7   0 -12    4.16    0.93
  -7   0  12    3.22    0.81
   6   1 -12   11.12    1.25
   6   1 -12   10.32    1.16
  -6  -1  12    9.84    1.14
   5   2 -12   22.39    1.80
   5   2 -12   22.63    1.54
  -5  -2  12   20.23    1.68
   4   3 -12   33.53    2.15
  -4  -3  12   28.82    2.04
   3   4 -12   35.49    2.15
  -3  -4  12   28.47    2.02
   2   5 -12   42.82    2.38
  -2  -5  12   34.31    2.26
  -4  11 -12    0.66    0.72
   4 -11  12    0.21    0.61
  -5  12 -12    0.64    0.83
   9  -3 -11    9.83    1.27
  -9   3  11    9.36    1.35
  -9   3  11   10.00    1.13
   8  -2 -11   14.03    1.41
   8  -2 -11   13.15    1.40
  -8   2  11   11.44    1.45
  -8   2  11   11.71    1.21
   7  -1 -11   23.98    1.82
   7  -1 -11   26.70    1.86
  -7   1  11   22.43    1.75
  -7   1  11   24.64    2.04
   6   0 -11   21.16    1.58
   6   0 -11   21.58    1.70
  -6   0  11   20.63    1.79
   5   1 -11    2.96    0.81
   5   1 -11    2.42    0.67
  -5  -1  11    2.47    0.74
   4   2 -11   -0.45    0.64
  -4  -2  11    0.16    0.56
   3   3 -11    1.62    0.69
   2   4 -11    1.01    0.64
   1   5 -11   36.55    2.19
   4 -10  11   35.61    2.00
   5 -11  11   13.26    1.18
  -6  12 -11    2.21    0.85
   9  -4 -10    5.47    1.09
  -9   4  10    4.91    1.19
  -9   4  10    6.14    0.98
   8  -3 -10    3.03    0.85
   8  -3 -10    3.64    0.92
  -8   3  10    2.85    0.80
  -8   3  10    1.36    0.92
   7  -2 -10    5.67    0.92
   7  -2 -10    6.79    1.02
  -7   2  10    4.98    1.02
   6  -1 -10   37.69    2.38
   6  -1 -10   38.87    2.40
  -6   1  10   38.54    2.72
   5   0 -10   65.25    3.53
   5   0 -10   64.11    3.58
  -5   0  10   62.51    4.07
   4   1 -10   34.36    2.19
   4   1 -10   35.41    2.01
  -4  -1  10   32.71    2.36
   3   2 -10   29.09    1.86
  -3  -2  10   27.32    1.99
   2   3 -10   70.77    4.40
   2   3 -10   72.45    3.82
  -2  -3  10   68.91    4.37
   1   4 -10   73.00    4.62
   1   4 -10   76.01    3.97
   0   5 -10   17.07    1.48
   0   5 -10   17.93    1.26
  -1   6 -10    1.80    0.69
  -2   7 -10    2.97    0.78
  -3   8 -10   -0.26    0.71
  -3   8 -10    0.18    0.52
  -4   9 -10   11.54    1.16
  -5  10 -10    9.74    1.12
   5 -10  10   11.79    1.04
  -6  11 -10    2.59    0.89
   6 -11  10    4.37    0.83
  -7  12 -10    4.89    1.10
   9  -5  -9    7.92    1.27
   9  -5  -9    8.77    1.13
  -9   5   9    8.19    1.33
  -9   5   9    9.01    1.09
   8  -4  -9   12.30    1.21
   8  -4  -9    8.75    1.17
  -8   4   9    9.53    1.34
  -8   4   9    8.94    1.08
   7  -3  -9   19.03    1.65
   7  -3  -9   20.87    1.57
  -7   3   9   19.05    1.78
   6  -2  -9    6.50    0.89
   6  -2  -9    8.36    0.95
  -6   2   9    6.26    1.00
   5  -1  -9    0.07    0.56
   5  -1  -9    0.71    0.57
  -5   1   9    1.26    0.65
   4   0  -9    1.64    0.50
   4   0  -9    2.68    0.67
  -4   0   9    1.62    0.61
   3   1  -9    4.09    0.70
   3   1  -9    2.87    0.48
  -3  -1   9    3.96    0.68
   2   2  -9   32.51    2.18
   2   2  -9   30.22    1.92
  -2  -2   9   30.49    2.14
   1   3  -9   85.88    5.34
   1   3  -9   89.19    4.58
   0   4  -9   66.43    4.29
   0   4  -9   72.13    3.66
  -1   5  -9   43.83    2.88
  -2   6  -9   69.40    4.36
  -3   7  -9   59.85    3.69
  -3   7  -9   80.80    4.44
  -4   8  -9   25.62    1.72
  -5   9  -9   12.22    1.48
  -5   9  -9    8.04    1.00
   5  -9   9    8.61    0.90
  -6  10  -9    3.18    0.86
  -6  10  -9    7.95    1.30
   6 -10   9    5.19    0.81
  -7  11  -9    2.40    0.88
  -7  11  -9    1.12    1.15
   7 -11   9    2.44    0.77
  -8  12  -9   -0.36    0.91
   9  -6  -8    3.58    1.06
   9  -6  -8    4.24    0.69
   9  -6  -8    3.57    0.90
  -9   6   8    4.32    1.11
  -9   6   8    4.29    0.88
   8  -5  -8   11.24    1.38
   8  -5  -8   17.42    1.16
   8  -5  -8   14.37    1.39
  -8   5   8   12.13    1.55
   7  -4  -8   33.80    2.08
   7  -4  -8   29.19    2.10
  -7   4   8   31.88    2.40
   6  -3  -8   48.35    2.99
   6  -3  -8   50.94    2.91
  -6   3   8   53.52    3.42
   5  -2  -8   43.97    2.63
   5  -2  -8   45.95    2.66
  -5   2   8   47.71    3.07
   4  -1  -8   36.82    2.26
   4  -1  -8   39.49    2.22
  -4   1   8   38.97    2.60
   3   0  -8   58.65    3.21
   3   0  -8   62.98    3.32
  -3   0   8   60.34    3.79
   2   1  -8   79.07    4.05
   2   1  -8   76.60    4.69
  -2  -1   8   73.33    4.66
   1   2  -8   28.62    1.73
   1   2  -8   26.84    1.96
   0   3  -8    2.22    0.52
   0   3  -8    1.91    0.49
  -1   4  -8    1.02    0.53
  -1   4  -8    0.93    0.41
  -2   5  -8    1.45    0.59
  -3   6  -8   29.00    1.97
  -3   6  -8   24.39    1.60
  -4   7  -8   23.87    1.79
  -4   7  -8   34.62    2.17
  -5   8  -8   18.57    1.61
  -5   8  -8   13.64    1.32
   5  -8   8   15.47    1.10
  -6   9  -8   16.69    1.60
  -6   9  -8   23.50    1.93
   6  -9   8   19.40    1.38
  -7  10  -8   29.85    2.40
  -7  10  -8   24.86    2.05
   7 -10   8   25.56    1.73
  -8  11  -8   12.25    1.50
   8 -11   8   16.76    1.35
   9  -7  -7    8.06    0.92
   9  -7  -7    4.94    1.18
  -9   7   7    6.10    1.24
   8  -6  -7    3.12    0.70
   8  -6  -7    3.93    0.96
   8  -6  -7    1.92    0.76
  -8   6   7    2.12    0.94
   7  -5  -7    2.79    0.64
   7  -5  -7    1.74    0.67
   7  -5  -7    1.28    0.80
  -7   5   7    1.55    0.80
   6  -4  -7    0.51    0.56
   6  -4  -7    0.83    0.63
   6  -4  -7    0.56    0.45
  -6   4   7    0.67    0.66
   5  -3  -7    1.93    0.64
   5  -3  -7    2.88    0.61
   5  -3  -7    2.34    0.40
  -5   3   7    2.26    0.70
   4  -2  -7   13.49    1.14
   4  -2  -7   13.69    1.12
  -4   2   7   15.28    1.30
   3  -1  -7   49.87    2.59
   3  -1  -7   40.85    2.50
  -3   1   7   48.23    2.97
   2   0  -7   75.59    4.10
   2   0  -7   79.85    4.88
   2   0  -7   83.21    4.18
  -2   0   7   80.92    4.86
   1   1  -7  106.73    5.30
   1   1  -7   99.16    6.18
   0   2  -7  139.49    6.85
   0   2  -7  131.45    8.03
  -1   3  -7  115.83    7.13
  -1   3  -7  123.58    6.05
  -2   4  -7   61.45    3.81
  -3   5  -7   52.48    3.05
  -3   5  -7   42.94    2.54
  -4   6  -7   41.18    2.56
  -4   6  -7   34.36    2.15
  -5   7  -7    7.79    0.90
  -5   7  -7   10.99    1.22
   5  -7   7    8.40    0.82
  -6   8  -7    1.19    0.71
  -6   8  -7    0.40    0.78
   6  -8   7   -0.05    0.52
  -7   9  -7    0.39    0.76
  -7   9  -7    0.26    0.91
   7  -9   7    0.93    0.62
  -8  10  -7    1.17    0.88
  -8  10  -7    0.05    1.05
   8 -10   7    1.03    0.69
  -9  11  -7    3.51    1.17
  -9  11  -7    2.44    1.28
   9  -8  -6   16.89    1.40
  -9   8   6   13.39    1.70
   8  -7  -6   36.33    1.97
   8  -7  -6   30.29    2.30
  -8   7   6   31.01    2.54
   7  -6  -6   18.84    1.71
   7  -6  -6   23.07    1.62
   7  -6  -6   24.99    1.50
  -7   6   6   22.11    1.93
   6  -5  -6   24.34    1.44
   6  -5  -6   23.49    1.61
   6  -5  -6   22.05    1.68
  -6   5   6   22.83    1.88
   5  -4  -6   85.58    4.55
   5  -4  -6   90.37    4.03
   5  -4  -6   81.31    4.63
  -5   4   6   89.04    5.37
   4  -3  -6   92.72    4.77
   4  -3  -6   83.83    4.80
   4  -3  -6   91.74    4.16
  -4   3   6   98.67    5.62
   3  -2  -6    8.99    0.60
   3  -2  -6   10.50    0.90
   3  -2  -6    8.67    0.80
  -3   2   6   10.60    1.01
   2  -1  -6    2.20    0.51
   2  -1  -6    2.14    0.44
   2  -1  -6    1.86    0.37
  -2   1   6    2.47    0.54
   1   0  -6   23.44    1.68
   1   0  -6   24.74    1.33
   1   0  -6   24.84    1.47
   1   0  -6   22.28    1.31
   0   1  -6    2.66    0.48
   0   1  -6    3.33    0.46
  -1   2  -6   37.26    1.88
  -1   2  -6   29.98    2.16
  -2   3  -6   54.13    2.69
  -2   3  -6   48.66    3.19
  -3   4  -6   37.11    2.35
  -3   4  -6   34.49    1.93
  -4   5  -6   48.62    3.01
  -4   5  -6   44.42    2.54
  -5   6  -6   76.75    4.31
  -5   6  -6   57.83    3.64
   5  -6   6   68.82    3.37
  -6   7  -6   46.33    2.91
   6  -7   6   54.34    2.65
  -7   8  -6   23.09    1.88
  -7   8  -6   27.10    2.15
   7  -8   6   25.15    1.56
  -8   9  -6   15.28    1.77
  -8   9  -6   12.58    1.41
   8  -9   6   14.99    1.22
  -9  10  -6   13.27    1.74
  -9  10  -6    9.52    1.38
   9 -10   6   11.07    1.13
   9  -9  -5    6.35    0.96
  -9   9   5    4.55    1.18
   8  -8  -5    0.19    0.61
  -8   8   5    0.14    0.90
   7  -7  -5    1.01    0.79
   7  -7  -5    1.37    0.59
  -7   7   5    1.69    0.85
   6  -6  -5    2.16    0.63
   6  -6  -5    1.76    0.72
   6  -6  -5    2.53    0.57
  -6   6   5    2.65    0.80
   5  -5  -5   18.12    1.16
   5  -5  -5   15.29    1.32
   5  -5  -5   17.84    1.30
  -5   5   5   17.70    1.52
   4  -4  -5   51.52    3.06
   4  -4  -5   58.53    3.02
   4  -4  -5   54.29    2.66
  -4   4   5   57.55    3.56
   3  -3  -5   65.46    3.14
   3  -3  -5   63.81    3.63
   3  -3  -5   76.81    3.62
  -3   3   5   67.82    4.21
   2  -2  -5   72.12    3.34
   2  -2  -5   82.54    3.90
   2  -2  -5   69.17    3.34
   2  -2  -5   77.00    3.90
  -2   2   5   73.66    4.54
   1  -1  -5  139.01    6.95
   1  -1  -5  132.31    8.18
   1  -1  -5  129.72    6.99
   1  -1  -5  151.52    7.01
   0   0  -5  251.14   12.31
   0   0  -5  228.11   14.36
   0   0  -5  245.55   12.20
   0   0  -5  257.53   12.32
  -1   1  -5  171.58    8.69
  -1   1  -5  164.57    8.69
  -1   1  -5  183.17    8.65
  -1   1  -5  174.61   10.18
  -2   2  -5   35.05    2.03
  -2   2  -5   38.19    2.45
  -2   2  -5   39.21    2.03
  -2   2  -5   43.74    2.11
  -3   3  -5   25.36    1.36
  -3   3  -5   26.20    1.35
  -3   3  -5   24.77    1.67
   3  -3   5   20.43    1.56
  -4   4  -5   31.11    2.23
  -4   4  -5   32.72    1.88
   4  -4   5   36.35    1.73
  -5   5  -5   -0.11    0.41
  -5   5  -5    0.00    0.56
   5  -5   5    0.23    0.38
  -6   6  -5   15.68    1.46
  -6   6  -5   13.39    1.21
   6  -6   5   12.75    1.00
  -7   7  -5    1.97    0.87
  -7   7  -5    1.56    0.70
   7  -7   5    4.46    0.65
  -8   8  -5    0.78    0.79
  -8   8  -5    1.08    0.92
   8  -8   5    2.31    0.64
  -9   9  -5   16.84    1.86
  -9   9  -5   14.77    1.59
   9  -9   5   15.80    1.33
 -10  10  -5   19.80    2.10
 -10  10  -5   14.69    1.70
  10 -10   5   18.89    1.54
   9 -10  -4   23.92    1.73
  -9  10   4   23.62    2.21
   8  -9  -4   20.89    1.54
  -8   9   4   19.87    1.98
   7  -8  -4   12.60    1.40
   7  -8  -4   15.21    1.24
  -7   8   4   13.97    1.61
   6  -7  -4   30.35    1.74
   6  -7  -4   30.67    1.89
   6  -7  -4   28.89    2.02
  -6   7   4   30.38    2.30
   5  -6  -4   65.75    3.95
   5  -6  -4   75.17    3.83
   5  -6  -4   71.98    3.46
  -5   6   4   74.31    4.56
   4  -5  -4   35.80    1.85
   4  -5  -4   33.03    2.11
   4  -5  -4   36.55    2.05
  -4   5   4   35.65    2.42
   3  -4  -4    0.31    0.41
   3  -4  -4    0.39    0.43
   3  -4  -4    0.25    0.34
  -3   4   4   -0.03    0.41
   2  -3  -4    0.25    0.32
   2  -3  -4    0.37    0.35
   2  -3  -4    0.38    0.27
  -2   3   4    0.06    0.34
   1  -2  -4    3.73    0.46
   1  -2  -4    4.40    0.45
   1  -2  -4    4.04    0.55
   1  -2  -4    4.29    0.37
   0  -1  -4   38.48    2.14
   0  -1  -4   37.16    2.48
   0  -1  -4   41.86    1.80
   0  -1  -4   39.06    2.09
  -1   0  -4  191.37    9.60
  -1   0  -4  196.82    9.52
  -1   0  -4  187.38   11.19
  -1   0  -4  189.40    9.60
  -2   1  -4   87.23    4.26
  -2   1  -4   82.87    4.99
  -2   1  -4   74.75    4.24
  -2   1  -4   89.65    4.27
  -3   2  -4   32.53    1.70
  -3   2  -4   32.48    1.43
  -3   2  -4   31.69    1.64
  -3   2  -4   28.87    1.96
  -3   2  -4   25.55    1.39
  -4   3  -4   92.47    4.72
  -4   3  -4   84.89    5.58
  -4   3  -4   97.21    4.79
   4  -3   4   96.89    4.46
  -5   4  -4  166.52    8.27
  -5   4  -4  155.78    9.61
   5  -4   4  163.52    7.70
  -6   5  -4   98.53    5.27
  -6   5  -4  105.84    6.16
   6  -5   4   96.57    4.88
  -7   6  -4   22.91    1.70
  -7   6  -4   26.88    2.02
   7  -6   4   23.63    1.49
  -8   7  -4    9.05    1.14
  -8   7  -4   11.23    1.40
   8  -7   4    9.26    0.98
  -9   8  -4    9.87    1.29
  -9   8  -4   11.17    1.53
   9  -8   4   10.79    1.13
 -10   9  -4    0.37    0.95
 -10   9  -4    0.57    1.04
  10  -9   4    0.74    0.74
   8 -10  -3    2.52    0.77
  -8  10   3    2.48    1.07
   7  -9  -3    7.57    0.94
  -7   9   3    7.93    1.27
   6  -8  -3    9.34    0.95
  -6   8   3    8.41    1.21
   5  -7  -3   28.63    1.66
   5  -7  -3   27.90    1.90
   5  -7  -3   27.80    1.76
  -5   7   3   30.11    2.18
   4  -6  -3   90.73    4.20
   4  -6  -3   93.71    4.65
   4  -6  -3   83.28    4.79
  -4   6   3   91.05    5.52
   3  -5  -3   99.68    4.65
   3  -5  -3  105.64    5.20
   3  -5  -3  101.00    5.33
  -3   5   3   99.63    6.13
   2  -4  -3   89.56    4.71
   2  -4  -3   92.94    4.13
   2  -4  -3   93.55    4.62
  -2   4   3   84.56    5.41
   1  -3  -3  114.67    6.06
   1  -3  -3  119.23    5.99
   1  -3  -3  113.15    7.03
   1  -3  -3  128.67    5.32
  -1   3   3  116.92    7.03
   0  -2  -3  170.79    8.29
   0  -2  -3  164.33    7.24
   0  -2  -3  158.90    9.62
   0  -2  -3  161.34    8.20
  -1  -1  -3  149.33    7.52
  -1  -1  -3  147.85    7.47
  -1  -1  -3  140.78    8.74
  -1  -1  -3  149.86    6.58
   1   1   3  156.37    6.99
  -2   0  -3   49.21    2.79
  -2   0  -3   56.56    2.87
  -2   0  -3   54.10    2.44
  -2   0  -3   50.69    3.26
   2   0   3   58.27    2.58
  -3   1  -3    6.64    0.75
  -3   1  -3    7.33    0.79
  -3   1  -3    6.98    0.58
   3  -1   3    6.96    0.53
  -4   2  -3    0.43    0.39
  -4   2  -3   -0.04    0.41
  -4   2  -3   -0.09    0.23
   4  -2   3    0.28    0.29
  -5   3  -3   13.26    1.25
  -5   3  -3   15.25    1.04
  -5   3  -3   15.05    1.21
   5  -3   3   15.74    1.01
  -6   4  -3   44.98    3.06
  -6   4  -3   48.27    2.61
   6  -4   3   45.43    2.42
  -7   5  -3   21.70    1.56
  -7   5  -3   22.75    1.86
   7  -5   3   21.41    1.39
  -8   6  -3   13.25    1.52
  -8   6  -3   12.54    1.35
   8  -6   3   11.17    1.08
  -9   7  -3   31.88    2.41
  -9   7  -3   25.84    2.11
   9  -7   3   27.20    1.79
 -10   8  -3   37.00    2.90
 -11   9  -3   17.88    2.01
   8 -11  -2   14.01    1.35
  -8  11   2   15.38    1.78
   7 -10  -2   14.22    1.34
  -7  10   2   16.75    1.75
   6  -9  -2   19.87    1.44
  -6   9   2   20.13    1.87
   5  -8  -2   16.52    1.22
  -5   8   2   16.02    1.20
  -5   8   2   16.77    1.62
   4  -7  -2    1.31    0.60
   4  -7  -2    1.35    0.52
   4  -7  -2    2.07    0.52
  -4   7   2    2.70    0.74
  -4   7   2    2.37    0.46
   3  -6  -2    0.51    0.44
   3  -6  -2    1.12    0.42
   3  -6  -2    1.26    0.52
  -3   6   2    0.17    0.47
  -3   6   2    1.14    0.36
   2  -5  -2    3.08    0.46
   2  -5  -2    3.43    0.46
   2  -5  -2    3.61    0.55
  -2   5   2    3.10    0.37
  -2   5   2    3.84    0.57
   1  -4  -2   29.40    1.39
   1  -4  -2   26.50    1.54
   1  -4  -2   26.71    1.54
  -1   4   2   25.73    1.76
  -1   4   2   24.50    1.32
   0  -3  -2  143.16    7.13
   0  -3  -2  144.90    6.31
   0  -3  -2  150.93    7.22
   0  -3  -2  136.26    8.34
   0   3   2  134.07    6.28
  -1  -2  -2  190.90    9.57
  -1  -2  -2  194.31    9.65
  -1  -2  -2  188.62   11.19
  -1  -2  -2  191.91    8.45
  -2  -1  -2   96.12    4.98
  -2  -1  -2   96.24    4.36
  -2  -1  -2   89.43    5.78
  -2  -1  -2  103.27    5.02
   2   1   2  104.12    4.66
  -3   0  -2  122.51    7.74
  -3   0  -2  139.16    6.68
  -3   0  -2  126.81    6.67
   3   0   2  138.21    6.24
  -4   1  -2  187.39   11.59
  -4   1  -2  196.76    9.98
  -4   1  -2  197.42    9.90
   4  -1   2  209.94    9.35
  -5   2  -2  117.91    7.16
  -5   2  -2  109.50    6.11
  -5   2  -2  125.96    6.16
   5  -2   2  126.96    5.78
  -6   3  -2   41.61    2.66
  -6   3  -2   52.74    2.70
  -6   3  -2   52.83    3.18
   6  -3   2   44.38    3.09
   6  -3   2   52.70    2.54
  -7   4  -2   32.65    2.38
  -7   4  -2   33.47    2.02
   7  -4   2   31.67    1.87
  -8   5  -2   12.02    1.42
  -8   5  -2   11.06    1.20
   8  -5   2   11.17    1.07
  -9   6  -2    0.58    0.72
  -9   6  -2   -0.46    0.83
   9  -6   2    0.23    0.61
 -10   7  -2    0.65    0.94
 -11   8  -2    1.17    1.07
   8 -12  -1    2.35    0.78
  -8  12   1    1.43    1.09
   7 -11  -1   10.06    1.11
  -7  11   1   10.55    1.46
   6 -10  -1   28.34    1.73
  -6  10   1   28.81    2.25
  -6  10   1   24.35    1.68
   5  -9  -1   37.04    2.09
  -5   9   1   34.16    2.00
  -5   9   1   40.88    2.72
   4  -8  -1   54.21    2.89
  -4   8   1   57.65    2.82
  -4   8   1   61.28    3.77
   3  -7  -1   91.26    4.63
   3  -7  -1   90.09    4.23
   3  -7  -1   92.56    4.85
  -3   7   1   89.88    5.52
  -3   7   1   87.46    4.15
   2  -6  -1   79.10    4.16
   2  -6  -1   86.05    3.78
   2  -6  -1   79.68    4.30
   2  -6  -1   76.98    4.00
  -2   6   1   81.65    3.73
  -2   6   1   83.05    4.94
   1  -5  -1   77.12    4.01
   1  -5  -1   75.79    3.51
   1  -5  -1   75.74    3.93
   1  -5  -1   77.54    3.75
  -1   5   1   79.01    3.98
  -1   5   1   74.58    3.48
  -1   5   1   73.05    4.58
   0  -4  -1   89.62    4.31
   0  -4  -1   89.49    4.05
   0  -4  -1   84.39    5.31
   0  -4  -1   89.20    4.58
   0  -4  -1   94.65    4.64
   0   4   1   86.51    4.03
   0   4   1   95.48    4.63
   0   4   1   86.17    5.31
  -1  -3  -1   49.23    2.35
  -1  -3  -1   51.60    2.72
  -1  -3  -1   49.44    3.07
  -1  -3  -1   51.06    2.68
  -1  -3  -1   53.06    2.50
   1   3   1   48.64    2.33
  -2  -2  -1    2.89    0.31
  -2  -2  -1    3.12    0.40
  -2  -2  -1    3.25    0.37
  -2  -2  -1    2.81    0.44
  -2  -2  -1    3.40    0.35
   2   2   1    2.62    0.28
   2   2   1    2.96    0.34
  -3  -1  -1    4.53    0.51
  -3  -1  -1    5.63    0.55
  -3  -1  -1    5.07    0.55
  -3  -1  -1    4.65    0.47
   3   1   1    5.58    0.54
   3   1   1    5.13    0.49
  -4   0  -1   27.02    1.85
  -4   0  -1   26.48    1.44
  -4   0  -1   29.35    1.67
  -4   0  -1   29.15    1.59
   4   0   1   28.93    1.41
   4   0   1   28.45    1.49
  -5   1  -1   44.84    2.96
  -5   1  -1   44.62    2.57
  -5   1  -1   47.06    2.55
   5  -1   1   49.83    2.26
   5  -1   1   49.32    2.40
  -6   2  -1   45.87    3.09
  -6   2  -1   45.87    2.64
  -6   2  -1   48.19    2.62
   6  -2   1   48.71    2.47
   6  -2   1   49.81    2.34
  -7   3  -1   58.26    3.72
  -7   3  -1   59.37    3.18
   7  -3   1   54.34    2.97
   7  -3   1   57.96    2.82
  -8   4  -1   65.67    3.56
  -8   4  -1   61.74    4.10
   8  -4   1   62.00    3.29
  -9   5  -1   51.28    3.41
   9  -5   1   46.62    2.67
 -10   6  -1   29.31    2.42
  -7  12   0    8.94    1.41
   6 -11   0    0.63    0.63
  -6  11   0    0.43    0.88
   5 -10   0    0.96    0.59
  -5  10   0   -0.15    0.74
  -5  10   0    0.42    0.48
   4  -9   0    2.18    0.62
  -4   9   0    1.85    0.78
  -4   9   0    1.75    0.47
   3  -8   0    3.55    0.58
  -3   8   0    3.83    0.52
  -3   8   0    4.14    0.73
   2  -7   0   70.53    3.39
   2  -7   0   67.83    3.17
   2  -7   0   65.04    3.46
   2  -7   0   62.02    3.60
  -2   7   0   68.53    3.58
  -2   7   0   66.21    3.12
  -2   7   0   65.48    4.12
   1  -6   0   97.81    5.13
   1  -6   0  100.91    4.50
   1  -6   0   96.08    5.01
   1  -6   0  101.60    4.80
  -1   6   0   97.78    4.47
  -1   6   0   94.84    5.88
  -1   6   0  100.19    5.11
   0  -5   0   58.56    3.06
   0  -5   0   58.59    3.10
   0  -5   0   58.03    2.88
   0  -5   0   58.34    2.71
   0   5   0   59.74    3.09
   0   5   0   55.44    2.68
   0   5   0   56.56    3.51
  -1  -4   0  124.79    6.35
  -1  -4   0  127.09    6.30
  -1  -4   0  113.46    7.29
  -1  -4   0  125.98    5.93
  -1  -4   0  126.87    5.57
   1   4   0  131.40    6.36
   1   4   0  120.65    5.55
  -2  -3   0  316.25   13.87
  -2  -3   0  302.73   18.31
  -2  -3   0  309.11   15.83
  -2  -3   0  325.39   14.80
  -2  -3   0  317.05   15.63
   2   3   0  332.93   15.85
   2   3   0  304.13   13.86
  -3  -2   0  180.39    9.07
  -3  -2   0  183.96    8.55
  -3  -2   0  188.13    9.16
  -3  -2   0  166.17   10.56
   3   2   0  184.10    8.03
   3   2   0  183.98    9.16
  -4  -1   0   43.74    2.80
  -4  -1   0   44.50    2.45
  -4  -1   0   44.70    2.49
  -4  -1   0   47.82    2.26
   4   1   0   46.78    2.29
   4   1   0   45.25    2.45
   4   1   0   45.04    2.15
  -5   0   0   76.29    4.92
  -5   0   0   85.74    3.96
  -5   0   0   83.56    4.27
  -5   0   0   77.76    4.26
   5   0   0   84.26    3.99
   5   0   0   82.78    3.75
   5   0   0   83.38    4.28
  -6   1   0   89.33    4.73
  -6   1   0   92.67    5.50
  -6   1   0   84.16    4.69
   6  -1   0   89.98    4.42
   6  -1   0   96.69    4.18
  -7   2   0    7.58    0.94
  -7   2   0    5.73    0.67
  -7   2   0    4.77    0.72
   7  -2   0    6.83    0.73
   7  -2   0    5.30    0.61
   7  -2   0    6.34    0.67
  -8   3   0    3.30    0.67
  -8   3   0    4.63    0.92
   8  -3   0    4.11    0.64
   8  -3   0    4.00    0.66
  -9   4   0    1.33    0.87
   9  -4   0    0.81    0.55
 -10   5   0    1.81    0.93
 -11   6   0    5.78    1.22
 -12   7   0   11.58    1.57
  -6  12  -1   30.26    2.45
  -5  11  -1   18.88    1.71
  -5  11  -1   14.78    1.32
   4 -10   1   30.32    1.81
  -4  10  -1   32.15    2.30
  -4  10  -1   28.88    1.77
   3  -9   1  104.67    4.70
   3  -9   1   94.55    4.97
  -3   9  -1  101.44    4.64
  -3   9  -1  100.23    6.12
   2  -8   1   64.01    3.13
   2  -8   1   60.53    3.19
   2  -8   1   64.79    2.97
  -2   8  -1   57.74    3.80
  -2   8  -1   58.21    3.32
  -2   8  -1   60.42    2.91
   1  -7   1    1.71    0.38
   1  -7   1    0.96    0.40
   1  -7   1    2.23    0.52
  -1   7  -1    2.12    0.46
  -1   7  -1    1.98    0.38
  -1   7  -1    2.14    0.55
   0  -6   1    7.18    0.68
   0  -6   1    6.95    0.70
   0  -6   1    7.42    0.61
   0  -6   1    7.35    0.78
   0   6  -1    6.04    0.76
   0   6  -1    6.89    0.74
   0   6  -1    7.51    0.57
  -1  -5   1   30.01    1.73
  -1  -5   1   30.99    1.59
  -1  -5   1   30.09    1.51
  -1  -5   1   28.83    1.71
   1   5  -1   27.55    1.86
   1   5  -1   29.60    1.72
   1   5  -1   29.99    1.50
  -2  -4   1    6.17    0.58
  -2  -4   1    5.98    0.56
  -2  -4   1    6.74    0.64
  -2  -4   1    6.09    0.64
  -2  -4   1    5.88    0.60
   2   4  -1    6.83    0.51
   2   4  -1    6.66    0.60
  -3  -3   1   76.78    4.92
  -3  -3   1   81.60    4.32
  -3  -3   1   84.44    4.33
  -3  -3   1   88.46    4.04
   3   3  -1   85.86    4.34
   3   3  -1   84.25    3.80
  -4  -2   1   46.94    3.10
  -4  -2   1   51.55    2.78
  -4  -2   1   53.42    2.56
  -4  -2   1   51.34    2.75
   4   2  -1   52.39    2.76
   4   2  -1   52.65    2.43
  -5  -1   1   43.49    2.05
  -5  -1   1   40.84    2.28
  -5  -1   1   36.40    2.51
  -5  -1   1   40.29    2.21
   5   1  -1   39.53    2.06
   5   1  -1   39.86    1.96
   5   1  -1   39.73    2.22
  -6   0   1  101.56    6.37
  -6   0   1  113.97    5.14
  -6   0   1  102.23    5.50
  -6   0   1  106.01    5.50
   6   0  -1  108.11    5.14
   6   0  -1  104.12    5.52
   6   0  -1  107.85    4.85
  -7   1   1  146.79    7.12
  -7   1   1  147.03    7.59
  -7   1   1  147.70    8.88
   7  -1  -1  146.81    7.14
   7  -1  -1  155.85    6.75
  -8   2   1   70.03    3.79
  -8   2   1   68.23    4.43
   8  -2  -1   71.12    3.38
  -9   3   1   26.04    1.72
  -9   3   1   24.33    2.00
   9  -3  -1   22.14    1.53
 -10   4   1   28.52    2.24
  10  -4  -1   25.81    1.74
 -11   5   1   17.97    1.82
  11  -5  -1   16.17    1.45
 -12   6   1    0.45    0.99
  -4  11  -2    6.03    0.75
   3 -10   2   37.40    2.18
  -3  10  -2   37.87    2.02
   2  -9   2   49.96    2.40
   2  -9   2   43.38    2.49
  -2   9  -2   48.36    2.35
  -2   9  -2   45.70    2.67
   1  -8   2   42.94    2.07
   1  -8   2   38.72    2.15
   1  -8   2   39.37    2.21
  -1   8  -2   38.47    2.29
  -1   8  -2   40.85    2.04
   0  -7   2   76.83    3.60
   0  -7   2   76.96    3.82
   0  -7   2   77.12    4.02
   0   7  -2   79.40    3.58
   0   7  -2   75.93    4.11
  -1  -6   2  174.09    8.82
  -1  -6   2  178.42    8.36
  -1  -6   2  173.97    7.84
   1   6  -2  173.91    7.82
   1   6  -2  176.22    8.95
  -2  -5   2  215.00    9.68
  -2  -5   2  220.21   10.92
  -2  -5   2  226.46   10.33
   2   5  -2  213.26   11.06
   2   5  -2  216.38    9.68
  -3  -4   2   99.84    4.65
  -3  -4   2   96.19    4.96
  -3  -4   2   95.32    4.37
  -3  -4   2   94.99    4.98
   3   4  -2   95.04    4.37
   3   4  -2   95.95    4.99
  -4  -3   2   25.05    1.35
  -4  -3   2   24.47    1.55
  -4  -3   2   25.05    1.47
  -4  -3   2   21.55    1.53
   4   3  -2   24.42    1.48
   4   3  -2   25.55    1.31
  -5  -2   2   38.32    2.22
  -5  -2   2   40.77    1.96
  -5  -2   2   34.18    2.34
   5   2  -2   36.73    2.12
   5   2  -2   37.57    1.88
  -6  -1   2   23.03    1.57
  -6  -1   2   23.07    1.29
  -6  -1   2   19.39    1.56
   6   1  -2   21.84    1.42
   6   1  -2   21.69    1.27
  -7   0   2    7.85    0.87
  -7   0   2    7.15    0.81
  -7   0   2    5.68    0.59
   7   0  -2    4.72    0.58
   7   0  -2    6.31    0.73
  -8   1   2   18.01    1.23
  -8   1   2   17.55    1.50
  -8   1   2   20.41    1.67
   8  -1  -2   19.78    1.58
   8  -1  -2   20.27    1.29
  -9   2   2    1.70    0.78
  -9   2   2    0.67    0.63
   9  -2  -2    2.05    0.56
 -10   3   2    3.97    0.97
 -10   3   2    4.51    0.82
  10  -3  -2    4.64    0.76
 -11   4   2   30.00    2.43
  11  -4  -2   30.19    1.91
 -12   5   2   22.11    2.15
  12  -5  -2   25.68    1.75
  -4  12  -3   21.29    1.48
   3 -11   3   30.35    1.90
  -3  11  -3   31.92    1.79
  -3  11  -3   30.22    2.07
   2 -10   3   13.96    1.10
  -2  10  -3   11.07    1.12
  -2  10  -3   11.98    1.04
   1  -9   3    0.81    0.51
  -1   9  -3    0.87    0.39
  -1   9  -3    0.30    0.45
   0  -8   3   -0.31    0.35
   0  -8   3    0.44    0.44
   0   8  -3   -0.07    0.32
   0   8  -3   -0.17    0.40
  -1  -7   3    4.02    0.54
  -1  -7   3    3.19    0.55
   1   7  -3    3.97    0.57
   1   7  -3    4.47    0.49
  -2  -6   3   54.43    3.03
  -2  -6   3   54.30    2.64
  -2  -6   3   58.31    2.81
   2   6  -3   54.19    3.03
   2   6  -3   55.38    2.64
  -3  -5   3   93.02    4.20
  -3  -5   3   93.87    4.45
  -3  -5   3   88.76    4.77
   3   5  -3   91.31    4.79
   3   5  -3   90.31    4.19
  -4  -4   3   57.15    3.15
  -4  -4   3   58.63    2.89
   4   4  -3   59.89    2.75
   4   4  -3   55.24    3.12
  -5  -3   3   77.57    3.72
  -5  -3   3   76.04    4.04
   5   3  -3   75.58    3.52
   5   3  -3   72.47    4.01
  -6  -2   3  115.66    6.12
  -6  -2   3  122.32    5.72
   6   2  -3  117.88    5.39
   6   2  -3  117.06    6.15
  -7  -1   3  117.63    5.45
  -7  -1   3  111.87    5.86
  -7  -1   3  103.48    6.70
   7   1  -3  110.90    5.87
   7   1  -3  116.38    5.16
  -8   0   3   70.97    3.97
  -8   0   3   72.89    3.65
  -8   0   3   70.47    4.54
   8   0  -3   76.25    4.03
   8   0  -3   72.12    4.87
   8   0  -3   73.88    3.49
  -9   1   3   31.71    2.00
  -9   1   3   27.90    2.18
   9  -1  -3   27.53    1.69
 -10   2   3    6.49    1.12
 -10   2   3   10.24    1.08
  10  -2  -3    8.20    0.89
 -11   3   3    2.95    1.01
  11  -3  -3    3.52    0.78
 -12   4   3   -0.36    0.97
  12  -4  -3    0.32    0.65
   3 -12   4   19.68    1.48
  -3  12  -4   19.97    1.66
  -3  12  -4   20.93    1.43
   2 -11   4   32.49    1.96
  -2  11  -4   33.57    1.84
  -2  11  -4   32.67    2.15
   1 -10   4   56.89    2.87
  -1  10  -4   56.14    2.67
  -1  10  -4   48.24    3.04
   0  -9   4   75.24    3.67
   0   9  -4   76.87    3.43
   0   9  -4   65.01    3.91
  -1  -8   4   67.66    3.65
  -1  -8   4   69.48    3.45
   1   8  -4   65.85    3.70
   1   8  -4   68.28    3.21
  -2  -7   4   52.81    3.03
  -2  -7   4   54.80    2.80
   2   7  -4   55.75    2.65
   2   7  -4   54.84    3.04
  -3  -6   4   52.37    2.62
  -3  -6   4   51.50    2.87
   3   6  -4   50.67    2.48
   3   6  -4   49.17    2.82
  -4  -5   4   26.35    1.71
  -4  -5   4   26.22    1.48
   4   5  -4   25.98    1.64
   4   5  -4   25.25    1.45
  -5  -4   4    1.14    0.37
  -5  -4   4    1.77    0.58
   5   4  -4    1.68    0.39
   5   4  -4    1.12    0.40
  -6  -3   4    5.43    0.77
  -6  -3   4    5.33    0.57
   6   3  -4    3.66    0.50
   6   3  -4    4.29    0.61
  -7  -2   4   18.88    1.20
  -7  -2   4   16.79    1.53
   7   2  -4   17.33    1.20
   7   2  -4   18.01    1.36
  -8  -1   4   19.86    1.36
  -8  -1   4   22.33    1.71
   8   1  -4   22.02    1.56
   8   1  -4   22.39    1.39
  -9   0   4   15.75    1.54
  -9   0   4   15.56    1.20
  -9   0   4   20.06    1.56
   9   0  -4   16.03    1.52
   9   0  -4   17.79    1.26
 -10   1   4   25.67    1.87
 -10   1   4   22.83    1.97
  10  -1  -4   23.45    1.57
 -11   2   4   31.59    2.02
 -11   2   4   24.59    2.18
  11  -2  -4   23.42    1.69
 -12   3   4   15.99    1.77
  12  -3  -4   16.27    1.41
   3 -13   5    3.67    0.86
  -3  13  -5    2.21    0.86
   2 -12   5    1.07    0.68
  -2  12  -5    0.82    0.70
  -2  12  -5    1.38    0.56
   1 -11   5    0.58    0.63
  -1  11  -5    0.32    0.59
  -1  11  -5    0.30    0.47
   0 -10   5    9.54    0.93
   0  10  -5   10.52    0.96
   0  10  -5    9.44    1.05
  -1  -9   5   21.48    1.40
   1   9  -5   21.81    1.31
   1   9  -5   19.86    1.53
  -2  -8   5   49.36    2.50
  -2  -8   5   46.85    2.71
   2   8  -5   44.98    2.69
   2   8  -5   45.94    2.32
  -3  -7   5   81.77    4.07
  -3  -7   5   81.74    4.39
   3   7  -5   84.07    3.82
   3   7  -5   79.84    4.39
  -4  -6   5   89.97    4.79
  -4  -6   5   93.16    4.45
   4   6  -5   87.79    4.79
   4   6  -5   89.54    4.18
  -5  -5   5   84.45    4.19
  -5  -5   5   88.10    4.58
   5   5  -5   85.35    3.97
   5   5  -5   82.43    4.53
  -6  -4   5   73.92    4.10
  -6  -4   5   74.62    3.74
   6   4  -5   79.27    3.57
   6   4  -5   71.65    4.05
  -7  -3   5   55.75    3.15
  -7  -3   5   54.34    2.79
   7   3  -5   53.20    2.68
   7   3  -5   51.80    3.04
  -8  -2   5   41.70    2.57
  -8  -2   5   40.05    2.20
   8   2  -5   40.19    2.13
   8   2  -5   38.83    2.43
  -9  -1   5   17.78    1.62
  -9  -1   5   18.41    1.27
   9   1  -5   15.23    1.62
   9   1  -5   19.97    1.33
   9   1  -5   17.06    1.55
 -10   0   5    1.23    0.79
  10   0  -5    0.77    0.56
 -11   1   5    0.02    0.77
  11  -1  -5   -0.58    0.58
 -12   2   5    0.20    0.78
  12  -2  -5    0.88    0.69
  -3  14  -6    8.94    1.27
   2 -13   6   23.21    1.69
  -2  13  -6   22.83    1.85
   1 -12   6   47.30    2.64
  -1  12  -6   47.62    2.40
  -1  12  -6   44.46    2.82
   0 -11   6   28.94    1.78
   0  11  -6   24.56    1.87
   0  11  -6   29.83    1.59
  -1 -10   6   13.92    1.16
   1  10  -6   14.12    1.05
   1  10  -6   11.68    1.23
  -2  -9   6   25.44    1.57
  -2  -9   6   27.10    1.80
   2   9  -6   22.75    1.71
   2   9  -6   24.63    1.44
  -3  -8   6   22.34    1.65
  -3  -8   6   22.95    1.42
   3   8  -6   21.75    1.57
   3   8  -6   21.31    1.31
  -4  -7   6    0.14    0.40
  -4  -7   6   -0.38    0.58
   4   7  -6    0.50    0.34
   4   7  -6    0.25    0.46
  -5  -6   6   16.62    1.15
  -5  -6   6   17.18    1.50
   5   6  -6   17.63    1.15
   5   6  -6   17.78    1.34
  -6  -5   6   10.33    1.10
  -6  -5   6    8.44    0.88
   6   5  -6   11.11    0.91
   6   5  -6    9.71    1.04
  -7  -4   6   11.26    1.17
  -7  -4   6   10.87    0.96
   7   4  -6    9.78    1.07
   7   4  -6    9.98    0.97
  -8  -3   6   41.32    2.63
  -8  -3   6   41.59    2.27
   8   3  -6   39.18    2.52
   8   3  -6   42.68    2.20
  -9  -2   6   52.73    3.12
  -9  -2   6   48.25    2.72
   9   2  -6   49.41    3.04
   9   2  -6   53.80    2.66
 -10  -1   6   25.71    1.73
 -10  -1   6   29.50    2.12
  10   1  -6   29.47    1.78
  10   1  -6   27.84    2.12
 -11   0   6   23.07    1.95
  11   0  -6   23.14    1.63
 -12   1   6   19.77    1.80
  12  -1  -6   19.41    1.57
   2 -14   7   -0.20    0.80
  -2  14  -7    1.33    0.81
   1 -13   7    6.50    0.99
  -1  13  -7    5.82    1.01
   0 -12   7   28.79    1.81
   0  12  -7   26.55    1.54
   0  12  -7   25.26    1.93
  -1 -11   7   25.54    1.64
   1  11  -7   20.23    1.68
   1  11  -7   23.59    1.35
  -2 -10   7   21.36    1.45
   2  10  -7   20.72    1.25
   2  10  -7   18.95    1.57
  -3  -9   7   72.32    3.79
  -3  -9   7   68.00    3.48
   3   9  -7   64.71    3.75
   3   9  -7   64.69    3.17
  -4  -8   7  110.66    5.85
  -4  -8   7  114.21    5.46
   4   8  -7  109.04    5.87
   4   8  -7  108.01    5.04
  -5  -7   7   38.15    2.15
  -5  -7   7   38.51    2.44
   5   7  -7   38.91    1.99
   5   7  -7   38.41    2.37
  -6  -6   7   15.27    1.13
  -6  -6   7   16.69    1.53
   6   6  -7   15.22    1.31
   6   6  -7   15.96    1.11
  -7  -5   7   45.08    2.77
  -7  -5   7   42.93    2.38
   7   5  -7   44.51    2.26
   7   5  -7   43.55    2.63
  -8  -4   7   27.78    1.70
  -8  -4   7   26.81    2.04
   8   4  -7   27.44    1.92
   8   4  -7   28.26    1.63
  -9  -3   7    0.36    0.81
  -9  -3   7   -0.11    0.51
   9   3  -7    0.39    0.71
   9   3  -7    0.38    0.50
 -10  -2   7    3.40    0.94
 -10  -2   7    3.66    0.69
  10   2  -7    3.81    0.97
  10   2  -7    3.56    0.68
 -11  -1   7    0.54    0.84
  11   1  -7    0.30    0.60
  -1  14  -8   16.50    1.64
   0 -13   8    7.15    1.01
   0  13  -8    7.69    1.07
  -1 -12   8    2.23    0.77
   1  12  -8    1.78    0.46
   1  12  -8    1.67    0.78
  -2 -11   8    4.16    0.82
   2  11  -8    4.15    0.51
   2  11  -8    5.29    0.89
  -3 -10   8    0.35    0.59
   3  10  -8    0.36    0.38
   3  10  -8    0.11    0.61
  -4  -9   8   10.49    1.05
  -4  -9   8   10.64    1.21
   4   9  -8   10.47    1.10
   4   9  -8   10.11    0.82
  -5  -8   8   19.18    1.33
  -5  -8   8   20.06    1.66
   5   8  -8   19.00    1.49
   5   8  -8   17.06    1.13
  -6  -7   8   15.77    1.52
  -6  -7   8   13.08    1.09
   6   7  -8   12.88    0.96
   6   7  -8   12.21    1.26
  -7  -6   8   27.11    1.95
  -7  -6   8   22.97    1.51
   7   6  -8   22.07    1.69
   7   6  -8   23.28    1.40
  -8  -5   8   52.33    3.18
  -8  -5   8   51.04    2.78
   8   5  -8   51.68    2.58
   8   5  -8   51.13    3.07
  -9  -4   8   47.91    2.89
  -9  -4   8   43.40    2.47
   9   4  -8   41.05    2.73
   9   4  -8   44.71    2.32
 -10  -3   8   16.84    1.40
 -10  -3   8   20.05    1.85
  10   3  -8   19.69    1.37
  10   3  -8   18.05    1.72
  11   2  -8   11.60    1.47
   0  14  -9    7.45    1.14
  -1 -13   9   13.73    1.34
   1  13  -9   11.99    1.36
  -2 -12   9   34.13    2.12
   2  12  -9   31.07    2.25
  -3 -11   9   44.46    2.59
   3  11  -9   45.01    2.79
  -4 -10   9   38.57    2.51
  -4 -10   9   37.42    2.23
   4  10  -9   37.08    2.43
  -5  -9   9   19.86    1.47
  -5  -9   9   22.28    1.81
   5   9  -9   20.94    1.66
  -6  -8   9   10.73    1.08
  -6  -8   9   11.30    1.31
   6   8  -9   11.33    1.24
  -7  -7   9    4.83    0.73
  -7  -7   9    6.58    1.09
   7   7  -9    4.33    0.83
  -8  -6   9    0.18    0.86
  -8  -6   9    0.28    0.54
   8   6  -9    0.03    0.68
  -9  -5   9    2.26    0.96
  -9  -5   9    1.64    0.64
   9   5  -9    1.20    0.77
 -10  -4   9    1.64    0.68
 -10  -4   9    3.18    1.03
  10   4  -9    1.88    0.91
   2  13 -10    1.87    0.86
   3  12 -10    5.54    1.05
  -4 -11  10    9.00    1.09
   4  11 -10   10.23    1.23
  -5 -10  10   11.99    1.26
  -5 -10  10   15.79    1.59
   5  10 -10   14.41    1.43
  -6  -9  10   23.63    1.92
  -6  -9  10   21.72    1.57
   6   9 -10   21.72    1.74
  -7  -8  10   34.39    2.35
  -7  -8  10   30.24    1.95
   7   8 -10   31.34    2.16
  -8  -7  10   21.41    1.58
  -8  -7  10   26.29    2.06
   8   7 -10   23.58    1.85
  -9  -6  10   25.82    2.07
   9   6 -10   21.50    1.84
   5  11 -11   12.00    1.34
  -6 -10  11    1.35    0.90
   6  10 -11    2.12    0.81
  -7  -9  11    0.90    0.93
   7   9 -11    0.17    0.69
  -5  -4  15   17.96    1.67
  -4  -5  15    8.51    1.12
   7   1 -14   -0.37    0.76
  -7  -1  14   -0.45    0.72
  -6  -2  14    0.98    0.80
  -5  -3  14    4.56    0.93
   4   4 -14   11.34    1.32
  -4  -4  14   11.04    1.21
  -3  -5  14   15.65    1.47
   7   0 -13   11.33    1.31
   7   0 -13   12.09    1.29
  -7   0  13   10.33    1.19
   6   1 -13   26.85    1.81
   6   1 -13   30.23    2.09
  -6  -1  13   22.93    1.93
   5   2 -13   32.57    2.24
  -5  -2  13   26.06    2.07
   4   3 -13    5.92    1.02
  -4  -3  13    5.25    0.93
   3   4 -13    0.30    0.76
  -3  -4  13   -1.04    0.64
   2   5 -13    0.85    0.72
  -2  -5  13    0.94    0.66
   8  -2 -12    1.86    0.88
   8  -2 -12    1.03    0.93
  -8   2  12    1.83    0.93
  -8   2  12    2.32    0.79
   7  -1 -12   -0.38    0.75
   7  -1 -12    0.97    0.84
  -7   1  12    0.85    0.75
  -7   1  12    0.31    0.80
   6   0 -12    6.06    0.91
   6   0 -12    7.49    1.06
  -6   0  12    5.26    0.99
   5   1 -12   29.58    1.87
   5   1 -12   32.81    2.16
  -5  -1  12   26.86    2.18
   4   2 -12   33.53    2.28
   3   3 -12   19.09    1.60
   2   4 -12   36.78    2.32
   1   5 -12   61.29    3.42
  -4  10 -12    0.44    0.67
  -5  11 -12    1.55    0.82
   8  -3 -11   10.04    1.20
   8  -3 -11    7.99    1.19
  -8   3  11    7.92    1.31
  -8   3  11    9.74    1.11
   7  -2 -11   19.18    1.61
   7  -2 -11   21.28    1.67
  -7   2  11   16.87    1.77
   6  -1 -11   30.38    2.06
   6  -1 -11   29.77    1.97
  -6   1  11   28.03    2.24
   5   0 -11    9.15    1.08
   5   0 -11    9.74    1.05
  -5   0  11    9.74    1.17
   4   1 -11    0.50    0.50
   4   1 -11    0.08    0.68
  -4  -1  11    0.47    0.61
   3   2 -11    0.05    0.62
  -3  -2  11   -0.03    0.59
   2   3 -11    0.21    0.60
   2   3 -11    0.02    0.63
  -2  -3  11    0.11    0.62
   1   4 -11   15.28    1.30
   1   4 -11   16.72    1.52
   0   5 -11   45.98    3.10
   0   5 -11   46.42    2.62
  -1   6 -11   25.71    2.06
  -2   7 -11   21.14    1.92
   5 -10  11   15.03    1.18
  -6  11 -11    6.14    1.02
   8  -4 -10    4.79    1.04
   8  -4 -10    3.86    0.94
  -8   4  10    3.04    1.02
   7  -3 -10    9.34    1.15
   7  -3 -10    9.46    1.11
  -7   3  10    8.73    1.27
   6  -2 -10   18.16    1.54
   6  -2 -10   19.98    1.61
  -6   2  10   22.50    1.79
   5  -1 -10   34.14    2.17
   5  -1 -10   36.22    2.28
  -5   1  10   36.97    2.55
   4   0 -10   38.94    2.28
   4   0 -10   41.46    2.47
  -4   0  10   39.77    2.71
   3   1 -10   41.69    2.29
   3   1 -10   41.94    2.55
  -3  -1  10   42.80    2.82
   2   2 -10   63.14    3.49
   2   2 -10   63.12    4.02
  -2  -2  10   62.01    3.96
   1   3 -10   65.80    3.65
   1   3 -10   68.68    4.27
   0   4 -10   30.25    1.83
   0   4 -10   27.92    2.11
  -1   5 -10    7.90    1.01
  -2   6 -10    3.28    0.81
  -3   7 -10    0.03    0.71
  -4   8 -10    6.82    1.15
  -4   8 -10    4.30    0.72
  -5   9 -10    4.51    0.84
  -5   9 -10    8.84    1.30
   5  -9  10    5.81    0.72
  -6  10 -10    3.93    0.90
  -6  10 -10    4.78    1.24
   6 -10  10    3.88    0.76
  -7  11 -10    5.47    1.05
   9  -6  -9   16.46    1.54
   9  -6  -9   14.39    1.62
  -9   6   9   14.83    1.50
  -9   6   9   13.33    1.69
   8  -5  -9   12.69    1.45
   8  -5  -9   17.66    1.50
  -8   5   9   12.15    1.61
   7  -4  -9    5.92    0.93
   7  -4  -9    4.77    0.97
  -7   4   9    5.23    1.06
   6  -3  -9    5.75    0.88
   6  -3  -9    6.98    0.95
  -6   3   9    7.41    1.08
   5  -2  -9    6.00    0.84
   5  -2  -9    6.96    0.81
  -5   2   9    5.58    0.92
   4  -1  -9    0.36    0.47
   4  -1  -9    0.11    0.55
  -4   1   9   -0.57    0.55
   3   0  -9   12.14    0.93
   3   0  -9   11.74    1.19
  -3   0   9   12.69    1.24
   2   1  -9   26.61    1.79
   2   1  -9   27.85    2.01
  -2  -1   9   26.32    1.95
   1   2  -9   35.29    2.10
   1   2  -9   33.98    2.40
   0   3  -9   52.30    2.85
   0   3  -9   50.58    3.31
  -1   4  -9   81.88    4.25
  -1   4  -9   81.29    5.04
  -2   5  -9   74.19    4.63
  -3   6  -9   57.03    3.28
  -3   6  -9   42.14    2.64
  -4   7  -9   47.09    2.89
  -4   7  -9   35.83    2.35
  -5   8  -9   19.43    1.60
  -5   8  -9   28.43    2.03
   5  -8   9   21.49    1.37
  -6   9  -9    5.32    1.15
  -6   9  -9    3.97    0.87
   6  -9   9    5.69    0.78
  -7  10  -9    0.88    0.86
  -7  10  -9    0.84    1.06
   7 -10   9    1.05    0.67
  -8  11  -9   -1.43    1.07
  -8  11  -9    0.52    0.89
   9  -7  -8    1.07    1.00
  -9   7   8    1.09    0.97
   8  -6  -8   16.71    1.16
   8  -6  -8   11.98    1.31
   8  -6  -8   13.28    1.49
  -8   6   8   12.13    1.59
   7  -5  -8   32.58    2.08
   7  -5  -8   30.42    2.16
  -7   5   8   29.19    2.37
   6  -4  -8   28.61    1.91
   6  -4  -8   27.59    1.95
  -6   4   8   28.26    2.19
   5  -3  -8   27.57    1.88
   5  -3  -8   29.34    1.88
  -5   3   8   28.65    2.13
   4  -2  -8   76.84    4.25
   4  -2  -8   76.82    4.25
  -4   2   8   85.06    4.97
   3  -1  -8   84.72    4.60
   3  -1  -8   86.30    4.56
  -3   1   8   90.50    5.35
   2   0  -8   22.01    1.56
   2   0  -8   22.65    1.37
   2   0  -8   25.03    1.81
  -2   0   8   23.72    1.77
   1   1  -8   17.84    1.49
   1   1  -8   17.05    1.32
   0   2  -8   34.33    2.45
   0   2  -8   38.92    2.14
  -1   3  -8    4.08    0.68
  -1   3  -8    3.88    0.56
  -2   4  -8   11.27    1.18
  -2   4  -8   11.86    0.94
  -3   5  -8   11.89    1.16
  -3   5  -8    9.37    0.83
  -4   6  -8    6.85    0.74
  -4   6  -8    9.25    1.05
  -5   7  -8   24.97    1.87
  -5   7  -8   18.43    1.52
   5  -7   8   22.10    1.32
  -6   8  -8   41.35    2.64
  -6   8  -8   28.60    2.18
   6  -8   8   32.07    1.91
  -7   9  -8   29.13    2.27
  -7   9  -8   21.46    1.88
   7  -9   8   23.12    1.57
  -8  10  -8    9.98    1.35
  -8  10  -8   15.96    1.84
   8 -10   8   13.74    1.23
  -9  11  -8    8.57    1.54
  -9  11  -8    8.54    1.36
   9  -8  -7   16.53    1.37
  -9   8   7   12.71    1.68
   8  -7  -7    8.39    1.25
   8  -7  -7    9.55    0.97
  -8   7   7   10.81    1.43
   7  -6  -7   -0.40    0.55
   7  -6  -7   -0.42    0.82
   7  -6  -7    0.88    0.68
  -7   6   7   -0.20    0.74
   6  -5  -7    0.62    0.62
   6  -5  -7   -0.07    0.69
   6  -5  -7    0.02    0.50
  -6   5   7    0.26    0.70
   5  -4  -7   -0.01    0.40
   5  -4  -7    0.39    0.59
   5  -4  -7   -0.36    0.54
  -5   4   7   -0.11    0.58
   4  -3  -7   10.29    1.07
   4  -3  -7   11.22    1.01
  -4   3   7   10.42    1.18
   3  -2  -7   36.78    2.19
   3  -2  -7   38.90    2.27
  -3   2   7   40.95    2.61
   2  -1  -7   44.19    2.47
   2  -1  -7   44.63    2.87
   2  -1  -7   41.17    2.36
  -2   1   7   44.60    2.86
   1   0  -7   57.70    3.00
   1   0  -7   54.19    2.86
   1   0  -7   52.73    3.47
   0   1  -7  125.02    6.05
   0   1  -7  111.38    7.06
  -1   2  -7  201.45    9.75
  -1   2  -7  187.53   11.46
  -2   3  -7  133.94    6.64
  -2   3  -7  129.53    7.85
  -3   4  -7   27.38    1.61
  -3   4  -7   31.01    2.04
  -4   5  -7   15.29    1.12
  -4   5  -7   18.06    1.46
  -5   6  -7   32.23    2.08
  -5   6  -7   21.44    1.68
   5  -6   7   26.96    1.50
  -6   7  -7    4.30    0.79
  -6   7  -7    5.71    1.02
   6  -7   7    4.58    0.64
  -7   8  -7    2.28    0.80
  -7   8  -7    1.61    0.93
   7  -8   7    1.30    0.56
  -8   9  -7   -0.34    0.94
  -8   9  -7    0.31    0.84
   8  -9   7    0.64    0.65
  -9  10  -7    0.06    1.08
  -9  10  -7    0.01    0.88
   9 -10   7    0.29    0.70
   8  -8  -6   30.80    1.84
   8  -8  -6   24.79    2.17
  -8   8   6   28.70    2.38
   7  -7  -6   25.17    1.52
   7  -7  -6   20.28    1.65
   7  -7  -6   20.16    1.79
  -7   7   6   24.18    2.05
   6  -6  -6   16.33    1.50
   6  -6  -6   19.98    1.28
   6  -6  -6   17.47    1.44
  -6   6   6   18.22    1.71
   5  -5  -6   41.88    2.64
   5  -5  -6   44.60    2.59
   5  -5  -6   46.13    2.26
  -5   5   6   44.66    3.01
   4  -4  -6  100.86    4.52
   4  -4  -6   93.74    5.21
   4  -4  -6   98.20    5.13
  -4   4   6  100.58    6.03
   3  -3  -6   62.14    2.97
   3  -3  -6   63.19    3.49
   3  -3  -6   68.96    3.50
  -3   3   6   65.62    4.05
   2  -2  -6    5.06    0.64
   2  -2  -6    5.01    0.57
  -2   2   6    5.12    0.71
   1  -1  -6    1.25    0.33
   1  -1  -6    0.27    0.49
   1  -1  -6    0.64    0.41
   0   0  -6    6.77    0.76
   0   0  -6    7.24    0.78
   0   0  -6    6.70    0.59
   0   0  -6    6.63    0.60
  -1   1  -6    5.22    0.58
  -1   1  -6    4.63    0.41
  -1   1  -6    6.22    0.68
  -1   1  -6    4.89    0.48
  -2   2  -6   51.49    2.66
  -2   2  -6   51.74    3.22
  -2   2  -6   55.51    2.75
  -2   2  -6   46.67    2.65
  -3   3  -6   29.78    1.66
  -3   3  -6   31.24    1.71
  -3   3  -6   29.03    2.04
  -4   4  -6   22.93    1.68
  -4   4  -6   22.04    1.38
  -5   5  -6   66.29    3.95
  -5   5  -6   59.53    3.34
   5  -5   6   59.94    3.06
  -6   6  -6   90.64    4.99
  -6   6  -6   70.08    4.22
   6  -6   6   75.41    3.88
  -7   7  -6   37.96    2.40
   7  -7   6   38.29    2.10
  -8   8  -6   12.56    1.41
  -8   8  -6   18.72    1.80
   8  -8   6   14.55    1.19
  -9   9  -6    5.14    1.31
  -9   9  -6    7.13    1.25
   9  -9   6    7.66    0.94
 -10  10  -6    3.81    1.34
 -10  10  -6    4.52    1.22
   8  -9  -5    2.74    0.76
  -8   9   5    3.60    1.12
   7  -8  -5    0.34    0.85
   7  -8  -5    0.44    0.59
  -7   8   5    0.33    0.84
   6  -7  -5    2.09    0.68
   6  -7  -5    2.19    0.82
   6  -7  -5    1.73    0.60
  -6   7   5    3.04    0.87
   5  -6  -5    5.38    0.77
   5  -6  -5    5.75    0.67
   5  -6  -5    4.90    0.84
  -5   6   5    4.53    0.89
   4  -5  -5   42.62    2.17
   4  -5  -5   45.86    2.47
   4  -5  -5   38.76    2.49
  -4   5   5   44.12    2.87
   3  -4  -5   89.34    4.41
   3  -4  -5   81.19    4.45
   3  -4  -5   80.66    3.86
  -3   4   5   83.68    5.13
   2  -3  -5   50.25    2.77
   2  -3  -5   49.96    2.39
   2  -3  -5   52.82    2.78
  -2   3   5   49.51    3.20
   1  -2  -5   77.77    3.54
   1  -2  -5   77.35    4.10
   1  -2  -5   81.78    4.12
   1  -2  -5   78.87    4.82
   0  -1  -5  218.88   13.01
   0  -1  -5  222.91   11.16
   0  -1  -5  223.32   11.07
  -1   0  -5  194.36   11.46
  -1   0  -5  198.86    9.81
  -1   0  -5  192.63    9.81
  -1   0  -5  194.35    9.75
  -2   1  -5   69.21    3.86
  -2   1  -5   76.72    3.88
  -2   1  -5   76.53    4.57
  -2   1  -5   80.25    3.92
  -3   2  -5   38.91    2.12
  -3   2  -5   40.04    2.56
  -3   2  -5   40.55    2.20
  -4   3  -5   22.22    1.70
  -4   3  -5   23.07    1.39
  -4   3  -5   24.24    1.46
   4  -3   5   24.40    1.28
  -5   4  -5    2.44    0.49
  -5   4  -5    3.70    0.69
   5  -4   5    2.86    0.47
  -6   5  -5    4.44    0.87
  -6   5  -5    3.14    0.64
   6  -5   5    3.72    0.55
  -7   6  -5    8.64    1.00
  -7   6  -5    9.86    1.20
   7  -6   5    7.41    0.79
  -8   7  -5    2.79    0.95
  -8   7  -5    1.62    0.77
   8  -7   5    2.07    0.61
  -9   8  -5    1.98    0.94
  -9   8  -5    3.46    1.09
   9  -8   5    3.26    0.74
 -10   9  -5   21.14    2.04
 -10   9  -5   14.26    1.74
  10  -9   5   17.31    1.47
   8 -10  -4   21.23    1.58
  -8  10   4   18.74    1.96
   7  -9  -4   21.15    1.53
  -7   9   4   20.90    2.00
   6  -8  -4   21.97    1.85
   6  -8  -4   24.49    1.59
  -6   8   4   26.75    2.11
   5  -7  -4   39.55    2.35
   5  -7  -4   40.29    2.16
   5  -7  -4   37.49    2.49
  -5   7   4   42.09    2.83
   4  -6  -4   45.12    2.40
   4  -6  -4   38.98    2.48
   4  -6  -4   39.86    2.14
  -4   6   4   41.43    2.81
   3  -5  -4   12.16    1.04
   3  -5  -4   10.51    1.04
   3  -5  -4   11.35    0.91
  -3   5   4   12.22    1.21
   2  -4  -4    0.19    0.41
   2  -4  -4    0.50    0.35
   2  -4  -4    0.56    0.44
  -2   4   4    0.29    0.41
   1  -3  -4   -0.26    0.26
   1  -3  -4    0.15    0.37
   1  -3  -4    0.66    0.44
   1  -3  -4    0.37    0.34
  -1   3   4    0.54    0.42
   0  -2  -4    3.89    0.46
   0  -2  -4    4.40    0.38
   0  -2  -4    3.22    0.49
   0  -2  -4    4.52    0.58
  -1  -1  -4   70.15    3.74
  -1  -1  -4   69.27    4.39
  -1  -1  -4   75.56    3.26
  -1  -1  -4   72.49    3.79
   1   1   4   74.94    3.45
  -2   0  -4  134.35    5.58
  -2   0  -4  122.58    7.46
  -2   0  -4  132.31    6.41
  -2   0  -4  115.65    6.38
  -3   1  -4   58.28    2.75
  -3   1  -4   63.53    3.25
  -3   1  -4   58.44    3.74
  -3   1  -4   61.02    3.18
   3  -1   4   64.14    2.94
  -4   2  -4   73.29    3.79
  -4   2  -4   73.29    3.84
  -4   2  -4   67.34    4.44
   4  -2   4   77.33    3.54
  -5   3  -4  130.24    8.22
  -5   3  -4  138.73    7.01
  -5   3  -4  137.76    7.06
   5  -3   4  144.93    6.60
  -6   4  -4   93.67    4.85
  -6   4  -4   91.22    5.65
   6  -4   4   91.00    4.51
  -7   5  -4   36.93    2.33
  -7   5  -4   40.44    2.73
   7  -5   4   37.76    2.11
  -8   6  -4   29.68    2.22
  -8   6  -4   24.45    1.90
   8  -6   4   24.85    1.63
  -9   7  -4    8.22    1.18
  -9   7  -4   10.47    1.42
   9  -7   4    8.91    0.97
 -10   8  -4    0.08    0.98
 -10   8  -4   -0.13    0.90
  10  -8   4    0.11    0.67
 -11   9  -4   -0.63    1.05
   8 -11  -3   -0.26    0.73
  -8  11   3   -0.90    0.95
   7 -10  -3    0.79    0.68
  -7  10   3    1.96    1.01
   6  -9  -3   17.50    1.37
  -6   9   3   17.65    1.84
   5  -8  -3   30.64    1.78
   5  -8  -3   28.10    2.04
  -5   8   3   32.33    2.34
   4  -7  -3   24.92    1.54
   4  -7  -3   26.65    1.69
   4  -7  -3   23.31    1.75
  -4   7   3   27.57    2.01
   3  -6  -3   60.68    3.38
   3  -6  -3   61.98    3.27
   3  -6  -3   59.24    2.96
  -3   6   3   61.25    3.84
   2  -5  -3  150.44    7.38
   2  -5  -3  149.40    6.59
   2  -5  -3  140.80    7.51
  -2   5   3  143.06    8.66
   1  -4  -3  154.38    6.63
   1  -4  -3  149.44    7.46
   1  -4  -3  145.31    7.57
  -1   4   3  142.52    8.74
   0  -3  -3   93.71    4.86
   0  -3  -3   95.38    4.89
   0  -3  -3   95.62    4.27
   0  -3  -3   93.36    5.67
  -1  -2  -3   87.07    4.51
  -1  -2  -3   88.78    4.49
  -1  -2  -3   85.57    5.22
  -1  -2  -3   88.66    3.92
   1   2   3   85.19    4.15
  -2  -1  -3   85.90    3.74
  -2  -1  -3   83.69    4.27
  -2  -1  -3   75.59    4.95
  -2  -1  -3   82.48    4.32
   2   1   3   86.89    3.97
  -3   0  -3   19.11    1.05
  -3   0  -3   21.66    1.22
  -3   0  -3   18.25    1.43
  -3   0  -3   22.49    1.42
   3   0   3   21.94    1.12
  -4   1  -3    0.79    0.45
  -4   1  -3    0.87    0.47
  -4   1  -3    0.47    0.25
   4  -1   3    0.24    0.30
  -5   2  -3    5.04    0.71
  -5   2  -3    4.16    0.50
  -5   2  -3    4.79    0.68
   5  -2   3    5.65    0.55
  -6   3  -3    7.28    0.92
  -6   3  -3    7.74    0.83
   6  -3   3    7.27    0.72
  -7   4  -3   19.55    1.71
  -7   4  -3   19.11    1.42
   7  -4   3   21.56    1.36
  -8   5  -3   31.38    2.05
  -8   5  -3   30.52    2.34
   8  -5   3   29.12    1.82
  -9   6  -3   26.71    2.07
  -9   6  -3   30.30    2.36
   9  -6   3   28.94    1.81
 -10   7  -3   21.13    2.04
 -10   7  -3   27.62    2.27
  10  -7   3   25.18    1.71
 -11   8  -3   15.86    1.89
   7 -11  -2   26.04    1.83
  -7  11   2   27.96    2.38
   6 -10  -2   17.30    1.41
  -6  10   2   19.75    1.89
   5  -9  -2    4.01    0.72
  -5   9   2    3.19    0.92
   4  -8  -2    5.25    0.83
   4  -8  -2    4.55    0.69
   4  -8  -2    3.99    0.66
  -4   8   2    4.88    0.87
   3  -7  -2    9.43    1.07
   3  -7  -2   10.04    0.99
   3  -7  -2   10.14    0.95
  -3   7   2   10.71    0.94
  -3   7   2   10.78    1.22
   2  -6  -2    0.98    0.45
   2  -6  -2    1.37    0.45
   2  -6  -2    1.17    0.50
  -2   6   2    1.46    0.35
  -2   6   2    1.50    0.51
   1  -5  -2   59.08    3.29
   1  -5  -2   63.72    2.89
   1  -5  -2   62.14    3.24
  -1   5   2   61.42    2.85
  -1   5   2   59.03    3.75
   0  -4  -2   64.21    3.33
   0  -4  -2   59.33    3.82
   0  -4  -2   64.07    3.34
   0  -4  -2   63.41    2.92
   0   4   2   62.74    2.90
  -1  -3  -2   28.65    1.68
  -1  -3  -2   28.18    1.85
  -1  -3  -2   28.23    1.61
  -1  -3  -2   28.83    1.41
   1   3   2   26.08    1.38
  -2  -2  -2  123.94    6.22
  -2  -2  -2  121.35    5.45
  -2  -2  -2  126.27    6.23
  -2  -2  -2  115.43    7.19
  -2  -2  -2  129.53    6.24
   2   2   2  123.76    5.79
   2   2   2  114.10    5.43
  -3  -1  -2  265.03   16.77
  -3  -1  -2  300.51   14.36
  -3  -1  -2  294.47   14.49
  -3  -1  -2  292.42   12.68
   3   1   2  304.48   13.54
   3   1   2  272.60   12.67
  -4   0  -2  159.18    8.04
  -4   0  -2  161.48    8.06
  -4   0  -2  147.16    9.34
   4   0   2  167.12    7.53
  -5   1  -2   60.21    3.22
  -5   1  -2   57.19    3.28
  -5   1  -2   58.39    3.76
   5  -1   2   65.01    3.03
   5  -1   2   61.51    2.83
  -6   2  -2   89.02    4.47
  -6   2  -2   82.03    4.48
  -6   2  -2   81.72    5.19
   6  -2   2   86.98    4.19
  -7   3  -2   67.61    4.33
  -7   3  -2   69.67    3.71
   7  -3   2   67.48    3.47
  -8   4  -2    6.12    1.03
  -8   4  -2    5.28    0.81
   8  -4   2    4.55    0.77
  -9   5  -2   -0.04    0.70
  -9   5  -2   -1.54    0.76
   9  -5   2    0.99    0.62
 -10   6  -2    0.33    0.92
 -11   7  -2    0.96    0.99
   7 -12  -1    4.89    0.92
  -7  12   1    4.54    1.19
   6 -11  -1   20.09    1.56
  -6  11   1   24.38    2.08
   5 -10  -1   29.01    1.80
  -5  10   1   30.90    2.34
  -5  10   1   27.20    1.73
   4  -9  -1   31.12    1.87
  -4   9   1   32.85    1.84
  -4   9   1   32.75    2.41
   3  -8  -1   68.92    3.55
   3  -8  -1   61.49    3.24
   3  -8  -1   63.51    3.72
  -3   8   1   68.83    3.21
  -3   8   1   69.99    4.23
   2  -7  -1  136.20    6.20
   2  -7  -1  139.04    7.09
   2  -7  -1  136.62    6.89
  -2   7   1  133.48    6.14
  -2   7   1  135.75    8.13
   1  -6  -1   78.79    4.33
   1  -6  -1   83.41    4.25
   1  -6  -1   83.74    3.80
  -1   6   1   79.28    4.95
  -1   6   1   83.53    3.77
   0  -5  -1   18.46    1.07
   0  -5  -1   20.05    1.15
   0  -5  -1   17.49    1.24
   0  -5  -1   19.16    1.24
   0   5   1   19.84    1.21
   0   5   1   18.81    1.07
   0   5   1   16.25    1.36
  -1  -4  -1   38.47    2.52
  -1  -4  -1   40.09    2.22
  -1  -4  -1   43.19    1.96
  -1  -4  -1   40.62    2.25
  -1  -4  -1   40.35    2.05
   1   4   1   38.77    1.93
   1   4   1   40.21    2.20
  -2  -3  -1   53.93    2.88
  -2  -3  -1   53.21    2.61
  -2  -3  -1   49.45    3.23
  -2  -3  -1   56.10    2.84
  -2  -3  -1   53.26    2.83
  -2  -3  -1   54.23    2.48
   2   3   1   51.06    2.46
   2   3   1   53.41    2.82
  -3  -2  -1    2.71    0.38
  -3  -2  -1    3.36    0.35
  -3  -2  -1    2.66    0.35
  -3  -2  -1    2.78    0.47
  -3  -2  -1    3.11    0.43
   3   2   1    2.39    0.31
   3   2   1    3.25    0.41
  -4  -1  -1   45.99    2.23
  -4  -1  -1   42.47    2.49
  -4  -1  -1   40.74    2.77
  -4  -1  -1   45.50    2.43
   4   1   1   45.13    2.14
   4   1   1   48.01    2.27
  -5   0  -1   11.73    0.90
  -5   0  -1   11.79    1.09
  -5   0  -1   11.56    1.08
   5   0   1   12.29    0.84
   5   0   1   13.66    0.89
  -6   1  -1   13.07    1.16
  -6   1  -1   12.56    1.19
  -6   1  -1   12.04    0.98
   6  -1   1   13.03    0.95
   6  -1   1   12.65    0.94
  -7   2  -1   66.57    3.84
  -7   2  -1   73.93    3.86
  -7   2  -1   72.99    4.50
   7  -2   1   72.79    3.60
  -8   3  -1  108.00    5.51
  -8   3  -1  106.40    6.42
   8  -3   1   97.25    5.11
  -9   4  -1   42.64    3.00
   9  -4   1   41.25    2.37
 -10   5  -1   16.62    1.77
 -11   6  -1   23.11    2.15
 -12   7  -1   12.85    1.70
   6 -12   0    1.98    0.74
  -6  12   0    1.30    0.98
   5 -11   0    0.30    0.62
  -5  11   0   -0.60    0.79
  -5  11   0   -0.31    0.54
   4 -10   0   -0.18    0.54
  -4  10   0    0.95    0.47
  -4  10   0    0.80    0.75
   3  -9   0    1.26    0.54
  -3   9   0    0.74    0.43
  -3   9   0    0.99    0.70
   2  -8   0   35.02    1.90
   2  -8   0   35.03    2.02
  -2   8   0   36.02    2.42
  -2   8   0   34.79    1.85
   1  -7   0   47.78    2.56
   1  -7   0   47.55    2.31
   1  -7   0   46.16    2.64
   1  -7   0   45.57    2.44
  -1   7   0   45.60    2.96
  -1   7   0   47.24    2.30
   0  -6   0   36.54    2.14
   0  -6   0   38.66    2.01
   0  -6   0   40.58    2.19
   0  -6   0   36.78    1.89
   0   6   0   37.64    1.90
   0   6   0   39.10    2.16
   0   6   0   35.62    2.40
  -1  -5   0   98.85    5.00
  -1  -5   0   97.79    5.05
  -1  -5   0   97.80    4.68
  -1  -5   0   89.07    5.74
  -1  -5   0  100.68    4.43
   1   5   0   95.88    5.75
   1   5   0   96.85    4.40
   1   5   0   98.94    5.04
  -2  -4   0  225.60   10.38
  -2  -4   0  223.61    9.74
  -2  -4   0  222.77   11.13
  -2  -4   0  213.12   11.11
  -2  -4   0  211.13   12.81
  -2  -4   0  219.63   11.00
   2   4   0  222.81    9.73
   2   4   0  219.25   11.12
  -3  -3   0  239.34   11.97
  -3  -3   0  223.31   13.94
  -3  -3   0  239.62   12.09
  -3  -3   0  251.53   10.61
  -3  -3   0  242.35   11.29
   3   3   0  240.56   12.09
   3   3   0  239.70   10.59
  -4  -2   0  117.43    6.09
  -4  -2   0  109.62    6.99
  -4  -2   0  119.18    6.07
  -4  -2   0  122.83    5.67
   4   2   0  121.16    5.35
   4   2   0  121.51    6.10
  -5  -1   0   34.16    2.35
  -5  -1   0   38.23    1.90
  -5  -1   0   35.63    2.07
  -5  -1   0   37.10    2.17
   5   1   0   37.41    2.07
   5   1   0   38.94    1.94
   5   1   0   36.20    1.84
  -6   0   0   35.72    2.06
  -6   0   0   32.70    2.34
  -6   0   0   37.86    2.16
   6   0   0   37.14    1.84
   6   0   0   35.71    1.93
  -7   1   0   26.45    1.86
  -7   1   0   28.30    1.76
  -7   1   0   27.93    2.07
   7  -1   0   29.31    1.65
   7  -1   0   30.24    1.60
  -8   2   0    0.48    0.71
  -8   2   0    0.08    0.57
   8  -2   0    0.48    0.48
   8  -2   0   -0.07    0.47
  -9   3   0    2.56    0.88
   9  -3   0    1.96    0.60
 -10   4   0    1.13    0.90
 -11   5   0    1.77    0.99
 -12   6   0   14.86    1.81
  -5  12  -1   14.83    1.36
  -4  11  -1   20.89    1.44
   3 -10   1   44.38    2.38
  -3  10  -1   46.13    2.34
   2  -9   1   68.26    3.57
   2  -9   1   74.21    3.41
  -2   9  -1   69.04    3.35
  -2   9  -1   69.10    4.38
   1  -8   1   38.14    2.13
   1  -8   1   39.99    2.22
   1  -8   1   41.35    2.05
  -1   8  -1   39.37    2.01
  -1   8  -1   37.96    2.28
   0  -7   1    3.99    0.57
   0  -7   1    4.31    0.55
   0  -7   1    4.55    0.57
   0   7  -1    4.59    0.60
   0   7  -1    5.02    0.52
  -1  -6   1    1.02    0.38
  -1  -6   1    0.44    0.39
  -1  -6   1    0.24    0.37
  -1  -6   1    1.11    0.37
   1   6  -1    0.41    0.36
   1   6  -1    0.97    0.32
  -2  -5   1    1.04    0.34
  -2  -5   1    0.65    0.39
  -2  -5   1    1.18    0.39
  -2  -5   1    1.27    0.38
  -2  -5   1    1.25    0.37
  -2  -5   1    1.44    0.37
   2   5  -1    1.35    0.36
   2   5  -1    1.11    0.32
  -3  -4   1   28.73    1.45
  -3  -4   1   27.39    1.51
  -3  -4   1   26.33    1.77
  -3  -4   1   27.30    1.64
  -3  -4   1   29.17    1.74
   3   4  -1   27.99    1.64
   3   4  -1   27.88    1.46
  -4  -3   1   32.22    1.63
  -4  -3   1   30.53    1.76
  -4  -3   1   27.50    1.91
  -4  -3   1   28.70    1.85
   4   3  -1   31.42    1.56
   4   3  -1   30.79    1.77
  -5  -2   1   25.96    1.38
  -5  -2   1   25.33    1.64
  -5  -2   1   25.50    1.52
  -5  -2   1   22.06    1.65
   5   2  -1   23.89    1.35
   5   2  -1   25.20    1.52
  -6  -1   1   84.34    4.40
  -6  -1   1   88.29    4.05
  -6  -1   1   80.26    4.34
  -6  -1   1   76.64    4.97
   6   1  -1   82.73    3.83
  -7   0   1  118.65    7.69
  -7   0   1  131.79    6.66
   7   0  -1  129.57    6.22
   7   0  -1  135.85    5.88
  -8   1   1   74.05    4.15
  -8   1   1   77.41    4.82
   8  -1  -1   79.15    3.69
  -9   2   1   47.63    3.18
  -9   2   1   48.24    2.76
   9  -2  -1   43.09    2.42
 -10   3   1   27.23    2.23
  10  -3  -1   26.99    1.73
 -11   4   1   10.25    1.42
  11  -4  -1   10.57    1.09
 -12   5   1    4.30    1.19
  -4  12  -2    3.21    0.71
  -3  11  -2   11.61    1.14
   2 -10   2   33.93    2.08
  -2  10  -2   39.60    1.99
   1  -9   2   48.69    2.43
   1  -9   2   46.83    2.54
  -1   9  -2   46.85    2.72
  -1   9  -2   47.74    2.38
   0  -8   2   41.39    2.35
   0  -8   2   46.75    2.51
   0  -8   2   45.13    2.27
   0   8  -2   44.13    2.56
   0   8  -2   46.25    2.26
  -1  -7   2  101.43    5.37
  -1  -7   2  103.04    4.78
  -1  -7   2  105.26    5.07
   1   7  -2  105.29    5.45
   1   7  -2  103.39    4.75
  -2  -6   2  165.70    7.55
  -2  -6   2  167.02    8.04
  -2  -6   2  172.12    8.53
   2   6  -2  166.05    7.54
   2   6  -2  170.43    8.63
  -3  -5   2  111.57    5.09
  -3  -5   2  112.66    5.79
  -3  -5   2  114.19    5.41
   3   5  -2  111.53    5.81
   3   5  -2  109.31    5.08
  -4  -4   2   55.40    3.12
  -4  -4   2   56.84    2.86
   4   4  -2   59.09    2.74
   4   4  -2   55.84    3.10
  -5  -3   2   35.44    1.83
  -5  -3   2   36.49    2.10
   5   3  -2   31.43    1.99
   5   3  -2   32.49    1.76
  -6  -2   2   11.48    0.86
  -6  -2   2   10.41    1.02
  -6  -2   2   12.13    1.22
   6   2  -2   10.77    0.97
   6   2  -2   10.53    0.90
  -7  -1   2   -0.51    0.52
  -7  -1   2   -0.05    0.58
  -7  -1   2    0.06    0.33
   7   1  -2   -0.21    0.36
  -8   0   2    6.29    0.89
  -8   0   2    5.99    0.87
   8   0  -2    4.60    0.62
  -9   1   2    6.39    1.01
  -9   1   2    6.04    0.90
   9  -1  -2    6.82    0.76
 -10   2   2    4.88    1.03
 -10   2   2    3.82    0.85
  10  -2  -2    4.18    0.74
 -11   3   2   11.85    1.50
  11  -3  -2   13.12    1.26
 -12   4   2   19.22    1.96
  12  -4  -2   20.06    1.56
  -4  13  -3   15.70    1.42
  -3  12  -3   11.50    1.02
   2 -11   3   13.50    1.22
  -2  11  -3   16.09    1.19
  -2  11  -3   13.45    1.33
   1 -10   3   12.67    1.12
  -1  10  -3   12.08    1.17
  -1  10  -3   14.53    1.12
   0  -9   3    0.09    0.50
   0  -9   3    0.64    0.45
   0   9  -3    0.21    0.39
   0   9  -3   -0.04    0.46
  -1  -8   3   12.24    1.12
  -1  -8   3   12.25    1.02
   1   8  -3   13.47    1.00
   1   8  -3   11.74    1.10
  -2  -7   3    8.64    0.90
  -2  -7   3    8.55    0.87
   2   7  -3   10.02    0.76
   2   7  -3    9.61    0.96
  -3  -6   3   24.08    1.67
  -3  -6   3   25.55    1.45
  -3  -6   3   24.76    1.39
   3   6  -3   23.55    1.59
   3   6  -3   24.52    1.39
  -4  -5   3   86.77    4.75
  -4  -5   3   93.28    4.18
  -4  -5   3   90.63    4.42
   4   5  -3   86.84    4.75
   4   5  -3   92.54    4.18
  -5  -4   3  109.89    5.26
  -5  -4   3  106.12    5.65
   5   4  -3  105.42    5.65
   5   4  -3  110.67    4.97
  -6  -3   3   78.50    3.87
  -6  -3   3   77.80    4.23
   6   3  -3   80.16    3.70
   6   3  -3   75.68    4.20
  -7  -2   3   70.93    3.59
  -7  -2   3   69.29    3.95
   7   2  -3   72.52    3.43
   7   2  -3   72.52    3.91
  -8  -1   3   63.41    3.65
  -8  -1   3   63.55    3.31
   8   1  -3   67.16    3.18
  -9   0   3   51.09    2.96
  -9   0   3   48.98    3.26
   9   0  -3   48.29    3.46
   9   0  -3   48.50    2.55
 -10   1   3   21.17    1.83
 -10   1   3   20.53    1.69
  10  -1  -3   17.94    1.42
 -11   2   3    1.28    0.81
 -11   2   3    1.65    0.94
  11  -2  -3    1.85    0.69
 -12   3   3   -0.13    0.93
  12  -3  -3   -0.29    0.70
  -3  13  -4   15.32    1.33
   2 -12   4    8.92    1.04
  -2  12  -4   10.92    0.93
  -2  12  -4    7.84    1.08
   1 -11   4   40.51    2.22
  -1  11  -4   39.37    2.07
  -1  11  -4   33.94    2.34
   0 -10   4  104.79    5.15
   0  10  -4  108.79    4.82
   0  10  -4   97.25    5.51
  -1  -9   4   70.02    3.58
  -1  -9   4   70.73    3.79
   1   9  -4   73.01    3.35
   1   9  -4   65.32    3.82
  -2  -8   4   25.64    1.73
  -2  -8   4   24.73    1.54
   2   8  -4   24.31    1.69
   2   8  -4   25.31    1.48
  -3  -7   4   40.71    2.19
  -3  -7   4   40.67    2.44
   3   7  -4   39.05    2.36
   3   7  -4   41.16    2.09
  -4  -6   4   50.94    2.67
  -4  -6   4   50.44    2.94
   4   6  -4   52.65    2.54
   4   6  -4   50.93    2.89
  -5  -5   4    2.53    0.66
  -5  -5   4    2.50    0.49
   5   5  -4    2.61    0.46
   5   5  -4    3.52    0.56
  -6  -4   4    7.39    0.71
  -6  -4   4   10.79    1.06
   6   4  -4    6.75    0.78
   6   4  -4    7.48    0.71
  -7  -3   4    1.81    0.70
  -7  -3   4    1.52    0.45
   7   3  -4    1.22    0.44
   7   3  -4    1.68    0.53
  -8  -2   4    2.54    0.80
  -8  -2   4    2.78    0.53
   8   2  -4    2.38    0.52
   8   2  -4    1.95    0.63
  -9  -1   4   33.69    1.99
  -9  -1   4   34.10    2.34
   9   1  -4   36.66    1.98
 -10   0   4   41.58    2.69
  10   0  -4   41.93    2.33
 -11   1   4   16.32    1.63
  11  -1  -4   16.98    1.43
  12  -2  -4   15.72    1.47
   2 -13   5    1.75    0.83
  -2  13  -5    3.46    0.70
  -2  13  -5    3.36    0.88
   1 -12   5    0.69    0.72
  -1  12  -5    0.83    0.55
  -1  12  -5    0.22    0.66
   0 -11   5    9.03    0.96
   0  11  -5    8.41    1.00
   0  11  -5    8.86    0.82
  -1 -10   5   25.53    1.65
   1  10  -5   27.69    1.54
   1  10  -5   22.32    1.73
  -2  -9   5   17.94    1.26
  -2  -9   5   16.29    1.43
   2   9  -5   15.63    1.37
   2   9  -5   16.29    1.21
  -3  -8   5   28.52    1.65
  -3  -8   5   27.28    1.90
   3   8  -5   26.76    1.55
   3   8  -5   24.47    1.76
  -4  -7   5  109.97    5.75
  -4  -7   5  113.40    5.37
   4   7  -5  112.03    5.05
   4   7  -5  101.14    5.76
  -5  -6   5  131.48    6.40
  -5  -6   5  132.78    6.87
   5   6  -5  128.46    6.88
   5   6  -5  134.08    6.03
  -6  -5   5   45.30    2.40
  -6  -5   5   46.77    2.73
   6   5  -5   44.95    2.32
   6   5  -5   42.29    2.62
  -7  -4   5   32.64    2.21
  -7  -4   5   32.44    1.84
   7   4  -5   31.80    1.83
   7   4  -5   31.67    2.05
  -8  -3   5   62.20    3.27
  -8  -3   5   61.08    3.65
   8   3  -5   66.15    3.15
   8   3  -5   62.32    3.58
  -9  -2   5   24.59    1.69
  -9  -2   5   27.95    2.08
   9   2  -5   29.64    1.74
   9   2  -5   27.74    1.95
 -10  -1   5    0.37    0.82
  10   1  -5    0.18    0.55
 -11   0   5    1.49    0.87
  11   0  -5    0.05    0.59
 -12   1   5    1.23    0.87
  12  -1  -5    1.21    0.69
   1 -13   6   34.49    2.19
  -1  13  -6   32.37    2.30
  -1  13  -6   35.61    1.95
   0 -12   6   33.55    2.03
   0  12  -6   29.43    2.15
   0  12  -6   32.83    1.82
  -1 -11   6   15.55    1.30
   1  11  -6   15.35    1.16
   1  11  -6   13.66    1.36
  -2 -10   6   12.09    1.15
   2  10  -6   12.41    1.24
   2  10  -6   11.57    1.03
  -3  -9   6   17.98    1.60
  -3  -9   6   19.59    1.37
   3   9  -6   17.83    1.49
   3   9  -6   19.88    1.29
  -4  -8   6    2.59    0.74
  -4  -8   6    2.53    0.61
   4   8  -6    3.24    0.53
   4   8  -6    3.53    0.70
  -5  -7   6    7.55    0.80
  -5  -7   6    7.12    0.97
   5   7  -6    5.95    0.81
   5   7  -6    7.89    0.73
  -6  -6   6   11.54    1.22
  -6  -6   6   10.05    0.97
   6   6  -6   11.20    1.00
   6   6  -6    8.92    0.99
  -7  -5   6    5.14    0.67
  -7  -5   6    7.05    1.02
   7   5  -6    5.15    0.80
   7   5  -6    5.77    0.68
  -8  -4   6   19.51    1.40
  -8  -4   6   22.12    1.83
   8   4  -6   20.46    1.62
   8   4  -6   21.21    1.43
  -9  -3   6   50.77    3.13
  -9  -3   6   48.44    2.72
   9   3  -6   51.87    2.64
   9   3  -6   49.33    3.02
 -10  -2   6   45.04    2.99
  10   2  -6   48.45    2.56
 -11  -1   6   22.44    1.98
  11   1  -6   23.53    1.65
 -12   0   6   13.60    1.46
  12   0  -6   11.05    1.11
   1 -14   7    3.13    0.96
  -1  14  -7    1.96    0.86
   0 -13   7   10.44    1.18
   0  13  -7   10.84    1.02
   0  13  -7    9.40    1.17
  -1 -12   7   11.22    1.19
   1  12  -7   11.46    0.93
   1  12  -7   11.49    1.25
  -2 -11   7   23.99    1.67
   2  11  -7   23.50    1.39
   2  11  -7   20.31    1.73
  -3 -10   7   60.29    3.13
   3  10  -7   54.98    3.34
   3  10  -7   56.79    2.80
  -4  -9   7   69.03    3.46
  -4  -9   7   68.01    3.79
   4   9  -7   63.33    3.72
   4   9  -7   62.83    3.16
  -5  -8   7   52.93    3.03
  -5  -8   7   49.12    2.69
   5   8  -7   50.36    2.50
   5   8  -7   46.13    2.90
  -6  -7   7   41.99    2.59
  -6  -7   7   38.90    2.23
   6   7  -7   38.16    2.07
   6   7  -7   38.54    2.44
  -7  -6   7   23.34    1.52
  -7  -6   7   22.65    1.88
   7   6  -7   22.88    1.44
   7   6  -7   23.46    1.72
  -8  -5   7    9.76    0.99
  -8  -5   7    9.45    1.23
   8   5  -7    8.63    0.83
   8   5  -7    7.44    1.02
  -9  -4   7    1.42    0.58
  -9  -4   7    2.75    0.96
   9   4  -7    1.27    0.54
   9   4  -7    2.85    0.83
 -10  -3   7    0.39    0.89
 -10  -3   7   -0.39    0.53
  10   3  -7    0.13    0.57
  10   3  -7    1.11    0.86
 -11  -2   7    0.54    0.90
  11   2  -7    0.71    0.62
   0  14  -8   13.76    1.49
  -1 -13   8   10.27    1.19
   1  13  -8    9.84    0.87
   1  13  -8    9.17    1.20
  -2 -12   8    0.35    0.77
   2  12  -8    0.64    0.75
   2  12  -8    0.82    0.44
  -3 -11   8    1.35    0.74
   3  11  -8    0.81    0.70
   3  11  -8    0.65    0.44
  -4 -10   8    2.92    0.76
  -4 -10   8    2.88    0.88
   4  10  -8    3.45    0.80
   4  10  -8    2.92    0.53
  -5  -9   8    7.09    0.89
  -5  -9   8    7.94    1.13
   5   9  -8    6.37    0.93
   5   9  -8    6.94    0.68
  -6  -8   8    8.24    0.92
  -6  -8   8    7.74    1.17
   6   8  -8    8.62    0.77
   6   8  -8    7.91    1.01
  -7  -7   8   18.39    1.41
  -7  -7   8   21.67    1.82
   7   7  -8   20.29    1.62
   7   7  -8   18.23    1.25
  -8  -6   8   49.48    2.99
  -8  -6   8   42.42    2.53
   8   6  -8   46.19    2.36
   8   6  -8   44.50    2.80
  -9  -5   8   43.82    2.74
  -9  -5   8   35.96    2.27
   9   5  -8   40.06    2.58
   9   5  -8   39.54    2.15
 -10  -4   8   20.90    1.94
  10   4  -8   21.65    1.84
  10   4  -8   21.15    1.46
 -11  -3   8   20.26    1.94
   2  13  -9   17.48    1.68
  -3 -12   9   25.28    1.84
   3  12  -9   23.81    1.93
  -4 -11   9   30.17    2.01
   4  11  -9   30.11    2.18
  -5 -10   9   32.44    2.01
  -5 -10   9   31.23    2.32
   5  10  -9   30.68    2.20
  -6  -9   9   15.68    1.36
  -6  -9   9   18.70    1.74
   6   9  -9   16.76    1.56
  -7  -8   9    1.17    0.64
  -7  -8   9    1.20    0.91
   7   8  -9    2.56    0.78
  -8  -7   9   -0.41    0.56
  -8  -7   9   -0.45    0.87
   8   7  -9    0.66    0.72
  -9  -6   9   -0.25    0.88
  -9  -6   9    0.28    0.61
   9   6  -9    0.54    0.78
 -10  -5   9    0.23    0.95
  10   5  -9    0.23    0.82
   4  12 -10    1.73    0.82
   5  11 -10    6.84    1.08
  -6 -10  10   32.52    2.46
   6  10 -10   36.01    2.39
  -7  -9  10   37.39    2.58
   7   9 -10   34.82    2.42
  -8  -8  10   16.19    1.73
   8   8 -10   15.12    1.56
  -5  -3  15   22.82    1.92
  -4  -4  15   23.53    1.93
  -3  -5  15    5.70    0.97
   6   1 -14   -0.75    0.85
  -6  -1  14   -0.65    0.79
   5   2 -14    4.30    1.12
  -5  -2  14    4.57    1.02
   4   3 -14   14.63    1.52
  -4  -3  14   15.17    1.45
   3   4 -14    8.94    1.20
  -3  -4  14    7.12    1.07
   2   5 -14   12.13    1.26
  -2  -5  14    9.26    1.10
   7  -1 -13    8.04    1.14
   7  -1 -13    8.72    1.22
  -7   1  13    8.63    1.27
  -7   1  13    7.16    1.05
   6   0 -13   24.76    1.77
   6   0 -13   24.74    2.00
   5   1 -13   38.62    2.62
   4   2 -13   11.89    1.35
   3   3 -13    0.77    0.79
   2   4 -13    1.93    0.81
   1   5 -13    1.84    0.76
   7  -2 -12    3.72    0.94
   7  -2 -12    2.96    0.96
  -7   2  12    1.94    0.95
   6  -1 -12    5.25    0.90
   6  -1 -12    4.70    1.01
  -6   1  12    5.49    1.04
   5   0 -12    9.46    1.15
   5   0 -12    8.18    0.91
  -5   0  12    8.32    1.13
   4   1 -12   24.22    1.90
   4   1 -12   27.52    1.56
  -4  -1  12   20.92    1.91
   3   2 -12   39.88    2.50
  -3  -2  12   37.43    2.66
   2   3 -12   39.81    2.49
  -2  -3  12   40.58    2.78
   1   4 -12   41.87    2.56
   1   4 -12   42.91    2.98
   0   5 -12   40.71    2.45
   0   5 -12   41.52    2.93
  -1   6 -12   26.58    2.19
  -2   7 -12   14.10    1.69
  -5  10 -12   -0.30    0.72
   5 -10  12    0.07    0.58
  -6  11 -12    0.37    0.78
   8  -4 -11   17.78    1.67
   8  -4 -11   17.92    1.71
  -8   4  11   15.67    1.78
   7  -3 -11   28.32    1.97
   7  -3 -11   23.96    1.90
  -7   3  11   21.45    2.07
   6  -2 -11   13.67    1.42
   6  -2 -11   14.21    1.37
  -6   2  11   13.38    1.49
   5  -1 -11    7.81    1.01
   5  -1 -11    7.83    0.91
  -5   1  11    6.85    1.06
   4   0 -11    7.95    1.03
   4   0 -11    6.56    0.77
  -4   0  11    7.25    1.03
   3   1 -11    1.64    0.77
  -3  -1  11    2.36    0.72
   2   2 -11    2.31    0.79
   2   2 -11    1.86    0.73
  -2  -2  11    2.73    0.75
   1   3 -11    8.14    0.94
   1   3 -11    7.41    1.07
   0   4 -11   11.89    1.39
   0   4 -11   10.48    1.13
  -1   5 -11   28.05    2.21
  -2   6 -11   46.89    3.25
  -3   7 -11   48.00    3.40
  -4   8 -11   38.16    2.91
  -5   9 -11   14.82    1.36
   5  -9  11   19.19    1.24
  -6  10 -11    8.33    1.07
   6 -10  11   10.18    1.00
  -7  11 -11    2.45    0.92
   8  -5 -10    1.58    1.00
   8  -5 -10    1.99    0.92
  -8   5  10    1.62    0.97
   7  -4 -10    7.31    1.12
   7  -4 -10    7.41    1.08
  -7   4  10    6.81    1.20
   6  -3 -10   18.10    1.55
   6  -3 -10   18.10    1.55
  -6   3  10   17.34    1.70
   5  -2 -10   25.58    1.88
   5  -2 -10   26.02    1.79
  -5   2  10   27.10    2.08
   4  -1 -10   34.63    2.10
   4  -1 -10   35.40    2.27
  -4   1  10   35.26    2.50
   3   0 -10   57.13    3.50
   3   0 -10   66.49    3.36
  -3   0  10   62.73    3.99
   2   1 -10   68.63    3.91
   2   1 -10   71.73    4.52
  -2  -1  10   72.21    4.48
   1   2 -10   33.90    2.26
   1   2 -10   38.90    2.62
   0   3 -10   26.98    1.80
   0   3 -10   28.29    2.10
  -1   4 -10   30.17    2.23
  -1   4 -10   29.69    1.85
  -2   5 -10    7.03    1.03
  -3   6 -10    0.52    0.72
  -4   7 -10    0.28    0.77
  -4   7 -10    0.14    0.55
  -5   8 -10    0.24    0.61
  -5   8 -10    1.93    0.95
   5  -8  10    0.52    0.48
  -6   9 -10   10.87    1.51
  -6   9 -10    4.73    0.93
   6  -9  10    8.51    0.88
  -7  10 -10   11.62    1.40
  -7  10 -10   19.64    2.08
   7 -10  10   16.84    1.29
   8  -6  -9   25.41    2.08
   8  -6  -9   26.71    1.97
  -8   6   9   22.15    2.14
   7  -5  -9   10.97    1.31
   7  -5  -9   13.85    1.41
  -7   5   9   11.32    1.45
   6  -4  -9    0.31    0.75
   6  -4  -9    1.05    0.73
  -6   4   9    0.60    0.74
   5  -3  -9    2.52    0.72
   5  -3  -9    1.88    0.71
  -5   3   9    1.47    0.72
   4  -2  -9    5.60    0.75
   4  -2  -9    6.24    0.87
  -4   2   9    6.71    0.94
   3  -1  -9    2.09    0.68
   3  -1  -9    2.68    0.53
  -3   1   9    2.36    0.69
   2   0  -9   29.81    1.91
   2   0  -9   28.41    1.64
   2   0  -9   28.38    2.15
  -2   0   9   28.15    2.11
   1   1  -9   26.60    1.97
   1   1  -9   23.62    1.72
   0   2  -9   30.97    1.91
   0   2  -9   29.33    2.18
  -1   3  -9   75.39    3.98
  -1   3  -9   74.91    4.70
  -2   4  -9  127.79    7.72
  -3   5  -9   82.94    5.18
  -4   6  -9   14.97    1.13
  -5   7  -9   10.38    1.08
   5  -7   9   10.28    0.88
  -6   8  -9   17.54    1.54
   6  -8   9   17.90    1.24
  -7   9  -9   12.48    1.59
  -7   9  -9    6.29    1.08
   7  -9   9    7.56    0.88
  -8  10  -9    0.33    0.86
  -8  10  -9   -1.43    0.98
   8  -7  -8    6.18    1.22
  -8   7   8    6.36    1.26
   7  -6  -8   26.33    1.85
   7  -6  -8   23.75    1.95
  -7   6   8   22.00    2.05
   6  -5  -8   20.86    1.70
   6  -5  -8   22.00    1.69
  -6   5   8   21.35    1.88
   5  -4  -8   23.32    1.69
   5  -4  -8   21.81    1.64
  -5   4   8   22.29    1.85
   4  -3  -8   55.60    3.27
   4  -3  -8   59.50    3.32
  -4   3   8   61.84    3.82
   3  -2  -8   96.47    5.35
   3  -2  -8  105.42    5.37
  -3   2   8  104.42    6.24
   2  -1  -8   62.06    3.50
   2  -1  -8   69.97    4.12
   2  -1  -8   64.04    3.40
  -2   1   8   60.26    4.04
   1   0  -8   12.31    1.26
   1   0  -8   10.35    0.80
   1   0  -8   11.06    1.12
   0   1  -8    6.99    0.89
   0   1  -8    7.28    0.82
  -1   2  -8   10.26    1.21
  -1   2  -8   13.52    1.13
  -2   3  -8    0.14    0.44
  -2   3  -8    0.83    0.57
  -3   4  -8    7.87    0.94
  -3   4  -8    6.30    0.66
  -4   5  -8    5.11    0.62
  -4   5  -8    6.45    0.92
  -5   6  -8   18.79    1.55
  -5   6  -8   12.61    1.18
   5  -6   8   14.68    1.01
  -6   7  -8   31.23    2.14
   6  -7   8   35.63    1.88
  -7   8  -8   25.30    1.92
   7  -8   8   25.96    1.58
  -8   9  -8   12.10    1.45
  -8   9  -8   17.52    1.86
   8  -9   8   13.09    1.19
  -9  10  -8   11.91    1.70
  -9  10  -8    6.40    1.26
   8  -8  -7   13.91    1.22
   8  -8  -7    9.96    1.42
  -8   8   7   10.11    1.50
   7  -7  -7    4.79    0.90
   7  -7  -7    3.82    1.05
   7  -7  -7    4.67    0.75
  -7   7   7    3.20    1.01
   6  -6  -7   -0.21    0.67
   6  -6  -7    0.58    0.79
   6  -6  -7    0.55    0.53
  -6   6   7   -0.23    0.73
   5  -5  -7   -0.08    0.66
   5  -5  -7   -0.45    0.59
   5  -5  -7   -0.24    0.48
  -5   5   7   -0.02    0.64
   4  -4  -7    1.67    0.61
   4  -4  -7    1.46    0.61
   4  -4  -7    0.86    0.39
  -4   4   7    1.30    0.64
   3  -3  -7   38.05    2.20
   3  -3  -7   35.76    2.24
  -3   3   7   37.33    2.54
   2  -2  -7   57.08    3.15
   2  -2  -7   55.14    3.06
  -2   2   7   57.37    3.63
   1  -1  -7   17.46    1.31
   1  -1  -7   15.11    1.46
   1  -1  -7   18.05    1.11
   0   0  -7   67.86    4.23
   0   0  -7   64.60    3.61
   0   0  -7   69.52    3.51
  -1   1  -7  231.38   12.42
  -1   1  -7  240.64   14.56
  -1   1  -7  257.95   12.44
  -1   1  -7  262.11   12.40
  -2   2  -7  144.74    7.80
  -2   2  -7  168.81    7.85
  -2   2  -7  151.79    9.19
  -3   3  -7   29.71    1.75
  -3   3  -7   30.38    2.12
  -3   3  -7   28.99    1.66
  -4   4  -7   22.94    1.75
  -4   4  -7   22.03    1.39
  -5   5  -7   29.26    1.84
  -5   5  -7   33.25    2.23
   5  -5   7   28.38    1.61
  -6   6  -7   10.65    1.29
  -6   6  -7    6.48    0.88
   6  -6   7    7.50    0.79
  -7   7  -7    0.43    0.82
  -7   7  -7   -0.75    0.64
   7  -7   7    0.56    0.51
  -8   8  -7    0.63    0.94
  -8   8  -7   -0.12    0.76
   8  -8   7    0.60    0.57
  -9   9  -7   -0.89    0.99
  -9   9  -7   -0.49    0.89
   9  -9   7    0.28    0.65
 -10  10  -7    1.90    1.07
   8  -9  -6   14.26    1.33
  -8   9   6   14.57    1.74
   7  -8  -6   26.97    1.66
   7  -8  -6   23.43    2.02
  -7   8   6   25.42    2.21
   6  -7  -6   24.60    2.00
   6  -7  -6   25.90    1.89
   6  -7  -6   30.03    1.67
  -6   7   6   27.13    2.21
   5  -6  -6   33.02    1.78
   5  -6  -6   29.46    2.05
   5  -6  -6   31.39    2.12
  -5   6   6   33.04    2.38
   4  -5  -6   52.60    2.96
   4  -5  -6   48.14    3.00
   4  -5  -6   52.41    2.56
  -4   5   6   55.17    3.44
   3  -4  -6   63.70    3.42
   3  -4  -6   61.68    2.92
   3  -4  -6   59.94    3.41
  -3   4   6   61.79    3.92
   2  -3  -6   32.03    1.89
   2  -3  -6   29.78    1.56
   2  -3  -6   34.12    1.99
  -2   3   6   32.37    2.24
   1  -2  -6    3.34    0.61
   1  -2  -6    3.55    0.50
   1  -2  -6    3.46    0.66
   0  -1  -6    0.06    0.42
   0  -1  -6    0.04    0.50
   0  -1  -6    0.31    0.32
  -1   0  -6    0.10    0.27
  -1   0  -6    0.26    0.43
  -1   0  -6    0.48    0.49
  -1   0  -6    0.51    0.28
  -2   1  -6    9.04    0.91
  -2   1  -6    7.99    0.67
  -2   1  -6    9.48    0.97
  -2   1  -6    7.98    0.69
  -3   2  -6   57.83    3.04
  -3   2  -6   55.38    3.54
  -3   2  -6   55.42    2.95
  -4   3  -6   51.55    2.66
  -4   3  -6   47.32    3.12
  -4   3  -6   46.62    2.61
  -5   4  -6   36.98    2.14
  -5   4  -6   39.12    2.55
   5  -4   6   35.25    1.93
  -6   5  -6   70.20    3.90
  -6   5  -6   55.61    3.28
   6  -5   6   53.18    2.97
  -7   6  -6   45.44    2.84
  -7   6  -6   56.88    3.36
   7  -6   6   42.67    2.50
  -8   7  -6   29.01    2.17
  -8   7  -6   19.60    1.82
   8  -7   6   21.62    1.49
  -9   8  -6   17.68    1.88
  -9   8  -6   12.28    1.55
   9  -8   6   16.26    1.32
 -10   9  -6    3.33    1.27
 -10   9  -6    3.75    1.18
  10  -9   6    6.22    0.96
   8 -10  -5    0.71    0.71
  -8  10   5    0.82    0.98
   7  -9  -5    2.41    0.73
  -7   9   5    1.28    0.95
   6  -8  -5   -0.60    0.76
   6  -8  -5    0.52    0.59
  -6   8   5    0.61    0.81
   5  -7  -5   18.60    1.28
   5  -7  -5   15.88    1.41
   5  -7  -5   16.44    1.49
  -5   7   5   18.09    1.66
   4  -6  -5   25.07    1.53
   4  -6  -5   23.79    1.76
   4  -6  -5   28.53    1.75
  -4   6   5   25.85    1.98
   3  -5  -5   13.55    0.99
   3  -5  -5   14.42    1.22
   3  -5  -5   12.73    1.16
  -3   5   5   14.98    1.33
   2  -4  -5   60.88    3.07
   2  -4  -5   51.90    3.02
   2  -4  -5   53.81    2.61
  -2   4   5   53.39    3.48
   1  -3  -5  171.13    7.81
   1  -3  -5  168.62    8.97
   1  -3  -5  183.41   10.45
   1  -3  -5  185.31    8.91
  -1   3   5  172.27   10.41
   0  -2  -5  175.21   10.34
   0  -2  -5  177.60    8.82
   0  -2  -5  173.97    7.72
   0  -2  -5  171.45    8.87
  -1  -1  -5   78.27    4.12
  -1  -1  -5   80.21    4.07
  -1  -1  -5   76.57    4.78
  -2   0  -5   61.77    3.82
  -2   0  -5   57.29    3.21
  -2   0  -5   67.24    3.34
  -3   1  -5   82.42    4.49
  -3   1  -5   86.49    4.56
  -3   1  -5   85.20    5.30
   3  -1   5   94.62    4.16
  -4   2  -5   41.99    2.88
  -4   2  -5   45.47    2.53
  -4   2  -5   44.35    2.42
   4  -2   5   47.21    2.25
  -5   3  -5    1.90    0.54
  -5   3  -5    1.91    0.43
  -5   3  -5    2.46    0.63
   5  -3   5    1.81    0.44
  -6   4  -5    0.09    0.62
  -6   4  -5    0.07    0.46
   6  -4   5   -0.02    0.44
  -7   5  -5    0.18    0.73
  -7   5  -5    0.19    0.56
   7  -5   5    0.74    0.52
  -8   6  -5    7.76    1.22
  -8   6  -5    5.96    0.98
   8  -6   5    6.61    0.81
  -9   7  -5   10.52    1.35
  -9   7  -5   14.33    1.72
   9  -7   5   14.00    1.18
 -10   8  -5   13.18    1.67
 -10   8  -5    8.16    1.36
  10  -8   5    9.12    1.06
 -11   9  -5   12.74    1.77
 -11   9  -5    8.65    1.52
   7 -10  -4   17.06    1.42
  -7  10   4   15.89    1.81
   6  -9  -4   39.72    2.32
  -6   9   4   42.91    3.06
   5  -8  -4   35.25    2.40
   5  -8  -4   37.41    2.07
  -5   8   4   37.06    2.69
   4  -7  -4   14.86    1.14
   4  -7  -4   14.88    1.27
   4  -7  -4   13.65    1.31
  -4   7   4   15.05    1.46
   3  -6  -4   11.76    1.12
   3  -6  -4   12.51    1.02
   3  -6  -4   11.46    1.14
  -3   6   4   12.31    1.28
   2  -5  -4   12.84    1.11
   2  -5  -4   15.17    1.19
   2  -5  -4   13.18    1.04
  -2   5   4   14.89    1.30
   1  -4  -4    0.59    0.49
   1  -4  -4    0.46    0.39
   1  -4  -4    0.23    0.43
   1  -4  -4    0.40    0.53
  -1   4   4    0.21    0.47
   0  -3  -4   17.01    1.26
   0  -3  -4   17.52    1.17
   0  -3  -4   16.32    1.40
   0  -3  -4   18.63    1.04
  -1  -2  -4   18.10    1.02
  -1  -2  -4   19.79    1.17
  -1  -2  -4   18.89    1.41
  -1  -2  -4   17.89    1.31
   1   2   4   17.67    1.02
  -2  -1  -4   23.64    1.16
  -2  -1  -4   21.54    1.49
  -2  -1  -4   21.59    1.32
  -2  -1  -4   20.54    1.57
   2   1   4   23.14    1.18
  -3   0  -4  120.80    5.42
  -3   0  -4  121.14    6.24
  -3   0  -4  114.47    7.23
  -3   0  -4  122.65    6.20
   3   0   4  128.15    5.78
  -4   1  -4  188.83    9.21
  -4   1  -4  166.39    8.02
  -4   1  -4  174.21   10.71
  -4   1  -4  181.67    9.20
   4  -1   4  197.54    8.60
  -5   2  -4   86.21    4.40
  -5   2  -4   81.12    5.15
   5  -2   4   85.33    4.12
  -6   3  -4   45.68    3.05
  -6   3  -4   46.77    2.58
   6  -3   4   45.83    2.43
  -7   4  -4   64.13    3.54
  -7   4  -4   66.89    4.17
   7  -4   4   61.47    3.29
  -8   5  -4   41.78    2.79
  -8   5  -4   35.37    2.36
   8  -5   4   35.12    2.12
  -9   6  -4    8.13    1.26
  -9   6  -4    4.93    1.03
   9  -6   4    6.25    0.86
 -10   7  -4    1.38    1.02
 -10   7  -4    0.53    0.89
  10  -7   4    2.76    0.76
 -11   8  -4    1.35    1.11
   7 -11  -3    0.21    0.69
  -7  11   3    0.57    0.98
   6 -10  -3    9.85    1.07
  -6  10   3    9.58    1.39
   5  -9  -3   18.32    1.39
  -5   9   3   19.16    1.81
   4  -8  -3   20.53    1.52
   4  -8  -3   19.63    1.59
   4  -8  -3   19.64    1.39
  -4   8   3   21.93    1.80
   3  -7  -3   39.76    2.51
   3  -7  -3   41.80    2.22
   3  -7  -3   43.77    2.42
  -3   7   3   41.88    2.84
   2  -6  -3  122.85    6.04
   2  -6  -3  108.25    6.14
   2  -6  -3  119.95    5.41
  -2   6   3  118.84    7.07
   1  -5  -3  153.55    8.08
   1  -5  -3  158.49    7.08
   1  -5  -3  164.10    7.97
  -1   5   3  152.79    9.31
   0  -4  -3   82.73    4.32
   0  -4  -3   81.83    5.01
   0  -4  -3   82.23    4.34
   0  -4  -3   82.34    3.79
  -1  -3  -3   43.85    2.43
  -1  -3  -3   45.23    2.83
  -1  -3  -3   43.79    2.12
  -1  -3  -3   44.63    2.50
  -2  -2  -3   83.25    3.73
  -2  -2  -3   83.05    4.26
  -2  -2  -3   79.31    4.94
  -2  -2  -3   79.38    4.25
  -2  -2  -3   84.36    4.32
   2   2   3   81.92    3.95
  -3  -1  -3   55.07    3.67
  -3  -1  -3   57.96    2.75
  -3  -1  -3   59.51    3.16
  -3  -1  -3   63.28    3.29
   3   1   3   63.46    2.94
  -4   0  -3    1.46    0.44
  -4   0  -3    1.05    0.26
  -4   0  -3    0.56    0.50
  -4   0  -3    0.64    0.30
   4   0   3    0.90    0.34
  -5   1  -3    7.67    0.84
  -5   1  -3    7.45    0.83
  -5   1  -3    7.11    0.74
   5  -1   3    7.37    0.74
  -6   2  -3    0.35    0.54
  -6   2  -3    0.99    0.61
  -6   2  -3    0.78    0.39
   6  -2   3    0.41    0.45
  -7   3  -3    3.80    0.83
  -7   3  -3    3.08    0.60
   7  -3   3    4.60    0.66
  -8   4  -3   41.74    2.49
  -8   4  -3   41.64    2.87
   8  -4   3   38.13    2.28
  -9   5  -3   58.76    3.75
  -9   5  -3   54.36    3.26
   9  -5   3   51.08    2.93
 -10   6  -3   17.10    1.81
 -10   6  -3   21.66    1.99
  10  -6   3   19.84    1.51
 -11   7  -3    7.05    1.30
   7 -12  -2   21.07    1.66
  -7  12   2   21.88    2.13
   6 -11  -2   28.41    1.86
  -6  11   2   30.46    2.48
   5 -10  -2    5.58    0.83
  -5  10   2    4.76    1.08
   4  -9  -2    0.76    0.57
  -4   9   2    0.26    0.71
   3  -8  -2    6.32    0.76
   3  -8  -2    6.51    0.91
   3  -8  -2    5.91    0.75
  -3   8   2    6.25    0.94
   2  -7  -2    3.98    0.60
   2  -7  -2    3.73    0.62
   2  -7  -2    3.72    0.71
  -2   7   2    4.61    0.52
  -2   7   2    3.86    0.70
   1  -6  -2   20.23    1.20
   1  -6  -2   17.59    1.32
   1  -6  -2   18.34    1.32
  -1   6   2   18.22    1.47
  -1   6   2   19.33    1.14
   0  -5  -2   48.90    2.73
   0  -5  -2   46.18    3.09
   0  -5  -2   51.27    2.38
   0  -5  -2   47.91    2.71
   0   5   2   49.42    3.10
   0   5   2   50.33    2.35
  -1  -4  -2   32.93    2.26
  -1  -4  -2   34.31    1.72
  -1  -4  -2   35.66    2.04
  -1  -4  -2   34.78    1.98
   1   4   2   34.10    1.71
  -2  -3  -2   88.98    4.48
  -2  -3  -2   86.98    3.92
  -2  -3  -2   86.98    4.47
  -2  -3  -2   82.20    5.16
  -2  -3  -2   87.41    4.50
   2   3   2   82.93    3.90
  -3  -2  -2  197.95   12.28
  -3  -2  -2  210.70   10.55
  -3  -2  -2  212.55    9.30
  -3  -2  -2  211.85   10.62
   3   2   2  208.00    9.29
   3   2   2  217.80    9.91
  -4  -1  -2  194.05    9.87
  -4  -1  -2  199.52    8.69
  -4  -1  -2  196.18    9.92
  -4  -1  -2  182.72   11.48
   4   1   2  202.06    9.27
   4   1   2  198.86    8.69
  -5   0  -2   89.96    4.79
  -5   0  -2   92.30    4.73
  -5   0  -2   86.40    5.48
   5   0   2   94.17    4.42
  -6   1  -2   39.62    2.33
  -6   1  -2   41.22    2.75
  -6   1  -2   43.26    2.49
   6  -1   2   43.19    2.21
  -7   2  -2   35.87    2.33
  -7   2  -2   38.91    2.23
  -7   2  -2   38.03    2.62
   7  -2   2   38.86    2.10
  -8   3  -2   28.08    1.87
  -8   3  -2   29.67    2.20
   8  -3   2   28.46    1.75
  -9   4  -2    6.10    1.11
  -9   4  -2    5.34    0.91
   9  -4   2    5.87    0.85
 -10   5  -2   -0.11    0.86
 -11   6  -2   -0.61    0.90
 -12   7  -2   -0.44    0.99
   6 -12  -1    8.19    1.03
  -6  12   1   10.43    1.41
   5 -11  -1   20.32    1.57
  -5  11   1   23.58    2.03
   4 -10  -1   28.25    1.81
  -4  10   1   31.38    2.32
  -4  10   1   27.79    1.76
   3  -9  -1   46.78    2.63
  -3   9   1   53.29    2.58
  -3   9   1   53.17    3.40
   2  -8  -1   84.81    4.17
   2  -8  -1   86.85    4.61
  -2   8   1   89.63    5.44
  -2   8   1   92.79    4.14
   1  -7  -1   90.51    4.99
   1  -7  -1   96.48    4.37
   1  -7  -1   97.04    4.88
  -1   7   1   93.67    4.34
  -1   7   1   92.28    5.70
   0  -6  -1   50.28    2.73
   0  -6  -1   49.84    2.69
   0  -6  -1   48.44    2.37
   0   6   1   48.40    2.37
   0   6   1   45.57    3.05
  -1  -5  -1   13.33    1.21
  -1  -5  -1   15.71    0.99
  -1  -5  -1   15.56    1.22
  -1  -5  -1   17.54    1.15
   1   5   1   16.21    0.98
  -2  -4  -1   16.19    1.07
  -2  -4  -1   15.82    0.95
  -2  -4  -1   13.55    1.06
  -2  -4  -1   14.13    1.16
  -2  -4  -1   14.42    1.17
   2   4   1   15.11    0.92
  -3  -3  -1    3.73    0.48
  -3  -3  -1    3.79    0.56
  -3  -3  -1    3.71    0.43
  -3  -3  -1    4.13    0.51
   3   3   1    2.95    0.37
  -4  -2  -1    5.57    0.69
  -4  -2  -1    7.26    0.73
  -4  -2  -1    6.11    0.53
  -4  -2  -1    6.49    0.80
   4   2   1    8.34    0.65
   4   2   1    5.58    0.51
  -5  -1  -1    6.40    0.62
  -5  -1  -1    6.11    0.76
  -5  -1  -1    6.47    0.83
   5   1   1    5.16    0.52
   5   1   1    7.82    0.66
  -6   0  -1    8.56    0.84
  -6   0  -1    9.68    0.94
  -6   0  -1    9.00    0.93
   6   0   1    7.91    0.78
   6   0   1    8.09    0.81
  -7   1  -1   70.73    3.88
  -7   1  -1   70.02    3.81
  -7   1  -1   70.61    4.43
   7  -1   1   72.08    3.57
  -8   2  -1  108.61    6.73
  -8   2  -1  116.55    5.84
   8  -2   1  105.37    5.41
  -9   3  -1   40.21    2.77
   9  -3   1   35.67    2.17
 -10   4  -1   17.80    1.81
 -11   5  -1   21.56    2.06
 -12   6  -1   15.25    1.80
   5 -12   0    2.50    0.76
  -5  12   0    1.93    0.70
   4 -11   0    0.90    0.64
  -4  11   0    0.45    0.49
  -4  11   0   -0.59    0.80
   3 -10   0    1.45    0.60
  -3  10   0    1.94    0.74
  -3  10   0    1.59    0.48
   2  -9   0    6.32    0.74
   2  -9   0    6.81    0.79
  -2   9   0    7.38    0.93
  -2   9   0    8.48    0.74
   1  -8   0   39.72    2.25
   1  -8   0   38.81    2.05
  -1   8   0   37.33    2.59
  -1   8   0   40.49    2.04
   0  -7   0   47.54    2.37
   0  -7   0   49.19    2.67
   0   7   0   45.86    3.02
   0   7   0   48.59    2.35
  -1  -6   0   40.25    2.04
  -1  -6   0   39.34    2.12
  -1  -6   0   43.39    2.34
  -1  -6   0   42.55    2.33
   1   6   0   40.25    2.03
   1   6   0   37.34    2.57
  -2  -5   0  119.56    5.92
  -2  -5   0  120.63    7.29
  -2  -5   0  118.38    6.37
  -2  -5   0  127.49    6.38
  -2  -5   0  122.27    6.33
  -2  -5   0  127.63    5.60
   2   5   0  127.15    5.58
  -3  -4   0  238.37   11.38
  -3  -4   0  237.56   12.19
  -3  -4   0  230.79   14.05
  -3  -4   0  250.75   10.69
  -3  -4   0  236.75   12.07
   3   4   0  241.39   10.68
   3   4   0  249.46   12.20
  -4  -3   0  139.74    7.22
  -4  -3   0  139.30    6.74
  -4  -3   0  144.93    6.36
  -4  -3   0  139.80    7.24
  -4  -3   0  134.01    8.31
   4   3   0  148.48    6.36
  -5  -2   0   44.29    2.57
  -5  -2   0   41.47    2.77
  -5  -2   0   44.78    2.47
   5   2   0   45.33    2.18
  -6  -1   0   28.00    1.85
  -6  -1   0   27.41    1.68
  -6  -1   0   24.97    1.90
   6   1   0   29.33    1.58
   6   1   0   27.95    1.52
  -7   0   0   23.21    1.57
  -7   0   0   23.15    1.71
  -7   0   0   22.39    1.78
   7   0   0   25.70    1.42
   7   0   0   24.52    1.45
  -8   1   0    6.74    0.92
  -8   1   0    9.16    1.08
   8  -1   0    7.11    0.75
   8  -1   0    7.39    0.78
  -9   2   0   -0.39    0.75
  -9   2   0   -0.27    0.60
   9  -2   0    0.45    0.53
 -10   3   0    1.43    0.89
 -11   4   0    1.13    0.96
 -12   5   0    5.40    1.25
  -5  13  -1   18.68    1.57
  -4  12  -1   29.55    1.87
  -3  11  -1   29.43    1.74
   2 -10   1   22.07    1.45
  -2  10  -1   20.83    1.44
   1  -9   1   43.25    2.14
   1  -9   1   37.42    2.28
  -1   9  -1   39.39    2.10
   0  -8   1   51.21    2.73
   0  -8   1   53.67    2.90
   0  -8   1   52.02    2.59
   0   8  -1   52.41    2.58
  -1  -7   1    1.06    0.43
  -1  -7   1    0.83    0.47
  -1  -7   1    0.78    0.47
   1   7  -1    1.79    0.41
  -2  -6   1   15.83    1.08
  -2  -6   1   15.55    1.29
  -2  -6   1   16.08    1.09
   2   6  -1   16.76    1.07
   2   6  -1   16.12    1.19
  -3  -5   1    0.65    0.36
  -3  -5   1    0.50    0.40
  -3  -5   1    0.64    0.36
  -3  -5   1    0.35    0.42
   3   5  -1    0.49    0.34
   3   5  -1    0.58    0.32
  -4  -4   1    2.28    0.43
  -4  -4   1    1.98    0.44
  -4  -4   1    2.42    0.55
  -4  -4   1    2.84    0.42
   4   4  -1    1.86    0.42
   4   4  -1    2.47    0.43
  -5  -3   1   74.01    4.02
  -5  -3   1   78.97    3.69
  -5  -3   1   68.37    4.47
   5   3  -1   76.55    3.50
  -6  -2   1  116.62    5.45
  -6  -2   1  104.71    6.68
  -6  -2   1  114.92    5.88
   6   2  -1  113.46    5.16
  -7  -1   1   49.67    3.38
  -7  -1   1   55.82    3.10
   7   1  -1   55.32    2.66
  -8   0   1   43.27    3.03
  -8   0   1   48.45    2.79
   8   0  -1   46.82    2.37
  -9   1   1   54.46    3.22
  -9   1   1   54.34    3.65
   9  -1  -1   58.04    2.84
 -10   2   1   44.78    3.13
 -10   2   1   47.51    2.76
  10  -2  -1   41.12    2.41
 -11   3   1   14.30    1.68
 -12   4   1    1.11    1.02
  -4  13  -2    0.46    0.65
  -3  12  -2   15.93    1.32
  -2  11  -2   14.48    1.23
  -1  10  -2   12.47    1.14
   0  -9   2   64.69    3.41
   0  -9   2   66.37    3.59
   0  -9   2   69.98    3.26
   0   9  -2   65.57    3.20
  -1  -8   2  147.99    7.26
  -1  -8   2  147.62    7.67
  -1  -8   2  152.70    6.85
   1   8  -2  149.47    7.80
   1   8  -2  154.81    6.82
  -2  -7   2   94.99    4.57
  -2  -7   2  100.37    4.85
  -2  -7   2  101.25    5.19
   2   7  -2   96.81    5.20
   2   7  -2   98.57    4.56
  -3  -6   2   38.08    2.07
  -3  -6   2   37.55    2.30
  -3  -6   2   38.63    1.97
   3   6  -2   36.70    2.22
   3   6  -2   38.72    1.96
  -4  -5   2   54.09    2.82
  -4  -5   2   56.52    2.70
  -4  -5   2   53.82    3.12
   4   5  -2   55.98    3.06
   4   5  -2   55.04    2.69
  -5  -4   2   78.19    3.84
  -5  -4   2   75.22    4.18
   5   4  -2   79.17    3.65
   5   4  -2   75.66    4.14
  -6  -3   2   16.63    1.12
  -6  -3   2   16.33    1.41
   6   3  -2   15.36    1.26
   6   3  -2   15.11    1.16
  -7  -2   2    0.33    0.40
  -7  -2   2    0.21    0.59
   7   2  -2    0.13    0.36
  -8  -1   2    0.49    0.61
  -8  -1   2    0.60    0.68
   8   1  -2   -0.04    0.43
  -9   0   2    1.39    0.73
  -9   0   2    0.37    0.69
   9   0  -2    0.32    0.50
 -10   1   2   21.17    1.89
 -10   1   2   23.68    1.82
  10  -1  -2   21.61    1.51
 -11   2   2   24.56    1.85
 -11   2   2   17.99    1.92
  11  -2  -2   22.42    1.59
 -12   3   2    4.01    1.12
  12  -3  -2    5.01    0.88
  -4  14  -3   18.22    1.58
  -3  13  -3   11.69    1.08
  -2  12  -3   10.82    0.99
   1 -11   3    9.20    0.99
  -1  11  -3   12.72    1.11
   0 -10   3    1.43    0.64
   0  10  -3    1.65    0.59
   0  10  -3    1.42    0.48
  -1  -9   3    5.20    0.71
  -1  -9   3    4.41    0.71
   1   9  -3    5.53    0.66
   1   9  -3    4.97    0.73
  -2  -8   3    7.16    0.88
  -2  -8   3    7.98    0.83
   2   8  -3    8.26    0.88
   2   8  -3    8.75    0.76
  -3  -7   3    5.50    0.80
  -3  -7   3    5.43    0.69
   3   7  -3    5.80    0.73
   3   7  -3    7.25    0.67
  -4  -6   3   39.15    2.40
  -4  -6   3   38.25    2.10
  -4  -6   3   39.82    2.02
   4   6  -3   37.13    2.28
   4   6  -3   38.67    2.03
  -5  -5   3  148.96    6.84
  -5  -5   3  144.93    6.45
  -5  -5   3  136.19    7.30
   5   5  -3  143.47    6.44
   5   5  -3  132.97    7.33
  -6  -4   3  117.24    5.70
  -6  -4   3  113.57    6.15
   6   4  -3  122.68    5.41
   6   4  -3  113.33    6.13
  -7  -3   3   37.78    2.05
  -7  -3   3   35.48    2.38
   7   3  -3   35.96    1.98
  -8  -2   3   39.24    2.55
   8   2  -3   40.19    2.16
  -9  -1   3   62.06    3.61
   9   1  -3   61.98    3.11
 -10   0   3   25.41    1.98
  10   0  -3   24.32    1.67
 -11   1   3    3.03    0.89
  11  -1  -3    1.62    0.71
  12  -2  -3    1.33    0.75
  -3  14  -4    9.79    1.01
  -2  13  -4   10.04    0.99
  -1  12  -4   35.67    2.03
   0 -11   4   74.19    3.87
   0  11  -4   82.59    3.64
   0  11  -4   67.11    4.12
  -1 -10   4   61.70    3.33
  -1 -10   4   57.85    3.15
   1  10  -4   54.50    3.35
   1  10  -4   63.94    2.98
  -2  -9   4   26.29    1.69
  -2  -9   4   28.28    1.88
   2   9  -4   23.63    1.81
   2   9  -4   27.79    1.59
  -3  -8   4   33.68    1.97
  -3  -8   4   33.66    2.21
   3   8  -4   34.92    1.88
   3   8  -4   33.25    2.11
  -4  -7   4   40.51    2.25
  -4  -7   4   40.38    2.55
   4   7  -4   40.61    2.44
   4   7  -4   42.21    2.16
  -5  -6   4    8.75    0.90
  -5  -6   4    9.75    1.04
   5   6  -4    8.60    0.91
   5   6  -4   10.26    0.96
  -6  -5   4    1.84    0.67
  -6  -5   4    0.11    0.46
   6   5  -4    0.20    0.44
   6   5  -4    0.56    0.40
  -7  -4   4    1.51    0.52
  -7  -4   4    0.78    0.68
   7   4  -4    0.81    0.44
   7   4  -4    0.96    0.53
  -8  -3   4    1.97    0.55
  -8  -3   4    3.44    0.88
   8   3  -4    1.79    0.51
  -9  -2   4   14.26    1.60
   9   2  -4   16.48    1.32
 -10  -1   4   40.10    2.65
  10   1  -4   40.41    2.29
 -11   0   4   35.13    2.40
  11   0  -4   32.01    2.05
 -12   1   4   13.39    1.45
  12  -1  -4   14.90    1.44
  -2  14  -5    0.29    0.63
  -1  13  -5    0.43    0.57
   0 -12   5   -0.09    0.71
   0  12  -5    0.46    0.53
   0  12  -5    0.61    0.66
  -1 -11   5    8.64    1.00
   1  11  -5   10.25    0.90
   1  11  -5    7.66    1.00
  -2 -10   5   18.90    1.40
   2  10  -5   15.12    1.45
   2  10  -5   17.76    1.29
  -3  -9   5   32.42    1.92
  -3  -9   5   33.30    2.16
   3   9  -5   27.95    2.03
   3   9  -5   31.60    1.79
  -4  -8   5   71.61    3.63
  -4  -8   5   69.55    3.97
   4   8  -5   67.50    3.90
   4   8  -5   71.65    3.41
  -5  -7   5   82.04    4.57
  -5  -7   5   85.70    4.21
   5   7  -5   79.88    4.51
   5   7  -5   84.25    3.97
  -6  -6   5   57.38    3.08
  -6  -6   5   56.66    3.43
   6   6  -5   59.74    3.37
   6   6  -5   60.75    2.95
  -7  -5   5   44.84    2.87
  -7  -5   5   45.88    2.51
   7   5  -5   48.06    2.43
   7   5  -5   44.06    2.75
  -8  -4   5   38.29    2.53
  -8  -4   5   36.00    2.12
   8   4  -5   35.60    2.36
   8   4  -5   38.40    2.12
  -9  -3   5   19.84    1.78
   9   3  -5   17.64    1.40
 -10  -2   5    4.13    1.02
  10   2  -5    4.45    0.75
 -11  -1   5    1.96    0.93
  11   1  -5    2.07    0.71
 -12   0   5    0.40    0.87
  12   0  -5   -0.17    0.66
  -1  14  -6   24.11    1.60
   0 -13   6   22.07    1.70
   0  13  -6   21.20    1.74
   0  13  -6   22.09    1.48
  -1 -12   6   24.46    1.75
   1  12  -6   26.94    1.58
   1  12  -6   22.78    1.84
  -2 -11   6   19.83    1.47
   2  11  -6   14.65    1.50
   2  11  -6   18.12    1.30
  -3 -10   6    6.84    0.93
  -3 -10   6    5.54    0.96
   3  10  -6    7.32    0.75
   3  10  -6    5.68    0.89
  -4  -9   6    2.24    0.70
  -4  -9   6    2.36    0.84
   4   9  -6    2.17    0.54
   4   9  -6    2.38    0.70
  -5  -8   6    1.25    0.58
  -5  -8   6    0.74    0.74
   5   8  -6    0.74    0.57
   5   8  -6    0.74    0.47
  -6  -7   6    2.45    0.59
  -6  -7   6    2.93    0.84
   6   7  -6    2.91    0.57
   6   7  -6    1.80    0.64
  -7  -6   6    4.89    0.73
  -7  -6   6    7.60    1.11
   7   6  -6    6.69    0.75
   7   6  -6    5.47    0.86
  -8  -5   6   15.09    1.55
  -8  -5   6   16.04    1.28
   8   5  -6   17.07    1.47
   8   5  -6   14.92    1.30
  -9  -4   6   45.38    2.96
  -9  -4   6   43.81    2.55
   9   4  -6   46.90    2.48
   9   4  -6   46.05    2.87
 -10  -3   6   42.69    2.92
  10   3  -6   45.72    2.47
 -11  -2   6   19.93    1.94
  11   2  -6   22.03    1.62
   0  14  -7    2.11    0.64
   0  14  -7    2.78    0.88
  -1 -13   7   11.18    1.22
   1  13  -7   10.18    1.22
   1  13  -7   10.17    1.01
  -2 -12   7   23.51    1.75
   2  12  -7   24.77    1.48
   2  12  -7   22.14    1.84
  -3 -11   7   32.04    2.02
   3  11  -7   28.17    2.13
   3  11  -7   30.52    1.74
  -4 -10   7   40.34    2.60
  -4 -10   7   38.24    2.28
   4  10  -7   35.52    2.46
   4  10  -7   37.42    2.04
  -5  -9   7   50.79    3.18
  -5  -9   7   51.85    2.83
   5   9  -7   49.25    3.05
   5   9  -7   52.30    2.61
  -6  -8   7   59.22    3.34
  -6  -8   7   53.39    2.97
   6   8  -7   50.77    3.22
   6   8  -7   55.37    2.76
  -7  -7   7   23.44    1.68
  -7  -7   7   27.48    2.08
   7   7  -7   25.57    1.60
   7   7  -7   26.44    1.91
  -8  -6   7    3.19    0.70
  -8  -6   7    5.43    1.08
   8   6  -7    2.84    0.61
   8   6  -7    3.79    0.85
  -9  -5   7    2.09    0.68
  -9  -5   7    2.02    0.98
   9   5  -7    2.46    0.63
   9   5  -7    2.49    0.85
 -10  -4   7    3.58    1.09
  10   4  -7    5.40    0.77
 -11  -3   7    0.81    0.96
  11   3  -7   -0.15    0.60
  -2 -13   8   14.89    1.50
   2  13  -8   13.10    1.04
   2  13  -8   12.36    1.38
  -3 -12   8    0.33    0.83
   3  12  -8    0.70    0.72
   3  12  -8    1.16    0.49
  -4 -11   8    8.14    1.10
   4  11  -8    8.17    1.11
   4  11  -8    8.96    0.80
  -5 -10   8   -0.34    0.67
  -5 -10   8   -0.96    0.80
   5  10  -8    0.23    0.48
   5  10  -8    0.27    0.65
  -6  -9   8    1.06    0.88
  -6  -9   8    2.98    0.77
   6   9  -8    2.65    0.58
   6   9  -8    1.58    0.73
  -7  -8   8   40.91    2.68
  -7  -8   8   37.51    2.27
   7   8  -8   37.68    2.06
   7   8  -8   38.27    2.51
  -8  -7   8   45.74    2.92
  -8  -7   8   39.86    2.50
   8   7  -8   44.83    2.76
   8   7  -8   43.26    2.28
  -9  -6   8   16.62    1.77
  -9  -6   8   14.60    1.38
   9   6  -8   16.78    1.59
   9   6  -8   16.17    1.26
 -10  -5   8   17.62    1.83
  10   5  -8   14.71    1.30
   4  12  -9   17.28    1.70
   5  11  -9   14.59    1.56
  -6 -10   9   13.60    1.53
   6  10  -9   14.20    1.53
  -7  -9   9   10.73    1.38
   7   9  -9    8.13    1.13
  -8  -8   9    1.41    0.95
   8   8  -9    2.18    0.81
  -9  -7   9    0.95    0.94
   5   2 -15   23.35    2.04
  -5  -2  15   18.26    1.88
   4   3 -15   27.65    2.15
  -4  -3  15   21.64    2.04
   3   4 -15   12.34    1.37
  -3  -4  15    8.87    1.23
   2   5 -15    1.93    0.87
   6   0 -14    0.69    0.72
   6   0 -14    0.06    0.91
   5   1 -14    1.43    1.00
   4   2 -14    1.74    1.00
   3   3 -14   14.84    1.52
   2   4 -14   26.02    1.99
   1   5 -14   28.22    2.03
   6  -1 -13   22.86    1.90
  -6   1  13   20.83    1.93
   5   0 -13   19.43    1.74
   5   0 -13   18.78    1.43
  -5   0  13   16.32    1.70
   4   1 -13    8.87    1.23
  -4  -1  13    9.07    1.17
   3   2 -13    7.33    1.15
  -3  -2  13    6.54    1.05
   2   3 -13    6.36    1.00
  -2  -3  13    6.06    1.02
   1   4 -13    1.34    0.86
   1   4 -13    0.84    0.73
   0   5 -13    0.81    0.86
  -1   6 -13    5.98    1.22
   7  -3 -12    0.70    0.91
   7  -3 -12    0.13    0.92
  -7   3  12   -0.13    0.87
   6  -2 -12    3.95    0.90
   6  -2 -12    3.56    0.97
  -6   2  12    3.05    0.96
   5  -1 -12    9.07    1.01
   5  -1 -12    8.23    1.15
  -5   1  12    8.02    1.19
   4   0 -12   17.27    1.67
   4   0 -12   21.40    1.38
  -4   0  12   17.50    1.69
   3   1 -12   31.43    2.22
  -3  -1  12   30.74    2.31
   2   2 -12   45.67    2.83
  -2  -2  12   45.31    3.12
   1   3 -12   40.40    2.61
   1   3 -12   44.85    3.05
   0   4 -12   31.69    2.39
   0   4 -12   28.56    1.98
  -1   5 -12   23.38    2.06
  -2   6 -12   24.03    2.15
  -3   7 -12   10.93    1.54
  -4   8 -12    0.55    0.99
  -5   9 -12    0.45    0.67
  -5   9 -12    0.47    1.04
  -6  10 -12    0.67    0.75
   7  -4 -11   30.92    2.26
   7  -4 -11   32.18    2.24
  -7   4  11   28.41    2.42
   6  -3 -11   11.94    1.31
   6  -3 -11   12.12    1.30
  -6   3  11   12.14    1.45
   5  -2 -11    1.18    0.71
   5  -2 -11    0.33    0.77
  -5   2  11    1.56    0.79
   4  -1 -11    7.95    1.10
   4  -1 -11    9.44    1.01
  -4   1  11    9.20    1.19
   3   0 -11   17.90    1.59
   3   0 -11   19.61    1.25
  -3   0  11   16.01    1.59
   2   1 -11   -0.04    0.70
   2   1 -11   -0.74    0.67
  -2  -1  11   -0.16    0.65
   1   2 -11   15.59    1.54
   1   2 -11   12.46    1.36
   0   3 -11    9.08    1.02
   0   3 -11    9.93    1.24
  -1   4 -11   11.53    1.40
  -1   4 -11   11.55    1.14
  -2   5 -11   47.55    3.31
  -3   6 -11   66.88    4.41
  -4   7 -11   38.00    2.87
  -5   8 -11    7.12    0.89
  -6   9 -11    6.72    1.02
  -6   9 -11    9.45    1.54
   6  -9  11   10.43    0.98
  -7  10 -11   15.09    1.91
  -7  10 -11    7.43    1.15
   7  -5 -10    3.12    1.06
   7  -5 -10    2.87    0.94
  -7   5  10    2.62    0.96
   6  -4 -10   23.35    1.82
   6  -4 -10   23.75    1.82
  -6   4  10   20.79    1.97
   5  -3 -10   17.83    1.61
   5  -3 -10   17.17    1.51
  -5   3  10   20.07    1.74
   4  -2 -10   24.59    1.89
   4  -2 -10   26.35    1.73
  -4   2  10   25.55    2.04
   3  -1 -10   64.48    3.82
   3  -1 -10   70.46    3.69
  -3   1  10   69.65    4.37
   2   0 -10   82.82    4.18
   2   0 -10   84.78    5.10
   2   0 -10   71.63    4.34
  -2   0  10   79.95    5.03
   1   1 -10   30.48    2.12
   1   1 -10   34.70    2.44
   0   2 -10   17.54    1.48
   0   2 -10   18.86    1.68
  -1   3 -10   25.37    2.00
  -1   3 -10   24.61    1.71
  -2   4 -10   23.82    1.99
  -3   5 -10   -0.15    0.70
  -4   6 -10    0.10    0.74
  -4   6 -10    0.62    0.50
  -5   7 -10    0.40    0.59
  -5   7 -10    0.66    0.89
  -6   8 -10    4.48    0.92
  -6   8 -10    9.70    1.43
   6  -8  10    6.54    0.75
  -7   9 -10   12.11    1.39
   7  -9  10   17.89    1.22
  -8  10 -10    8.59    1.57
  -8  10 -10    8.34    1.23
   7  -6  -9   14.26    1.49
   7  -6  -9   11.91    1.45
  -7   6   9   12.87    1.58
   6  -5  -9    5.47    0.99
   6  -5  -9    6.01    1.07
  -6   5   9    5.49    1.09
   5  -4  -9    2.19    0.80
   5  -4  -9    0.28    0.73
  -5   4   9    1.04    0.74
   4  -3  -9    2.28    0.76
   4  -3  -9    1.63    0.67
  -4   3   9    2.19    0.76
   3  -2  -9    0.70    0.64
   3  -2  -9   -0.30    0.51
  -3   2   9    0.95    0.65
   2  -1  -9   13.09    1.04
   2  -1  -9   16.73    1.54
   2  -1  -9   13.09    1.29
  -2   1   9   14.60    1.45
   1   0  -9   28.97    2.07
   1   0  -9   33.44    1.84
   1   0  -9   34.10    2.39
   0   1  -9   11.65    1.26
   0   1  -9   14.36    1.39
  -1   2  -9   48.29    3.31
  -1   2  -9   52.07    2.90
  -2   3  -9  156.08    9.31
  -2   3  -9  153.87    7.88
  -3   4  -9   67.83    3.54
  -4   5  -9   12.02    1.05
  -4   5  -9   17.06    1.53
  -5   6  -9    9.67    1.04
  -6   7  -9   18.91    1.57
   6  -7   9   22.36    1.33
  -7   8  -9    7.06    1.10
  -7   8  -9   13.24    1.60
   7  -8   9    8.93    0.92
  -8   9  -9    0.91    0.91
  -8   9  -9   -0.25    1.06
   8  -9   9   -0.09    0.62
   7  -7  -8   12.03    1.28
   7  -7  -8    9.88    1.38
  -7   7   8   10.33    1.44
   6  -6  -8   22.36    1.87
   6  -6  -8   23.57    1.84
  -6   6   8   23.96    2.06
   5  -5  -8   31.84    2.12
   5  -5  -8   29.30    2.10
  -5   5   8   31.70    2.35
   4  -4  -8   37.59    2.36
   4  -4  -8   38.37    2.42
  -4   4   8   39.25    2.73
   3  -3  -8   50.95    3.00
   3  -3  -8   51.64    3.06
  -3   3   8   56.35    3.50
   2  -2  -8   56.75    3.21
   2  -2  -8   60.28    3.36
  -2   2   8   61.05    3.84
   1  -1  -8   54.75    2.93
   1  -1  -8   53.39    3.08
   1  -1  -8   54.72    3.57
   0   0  -8   16.34    1.32
   0   0  -8   15.73    1.48
   0   0  -8   16.30    1.07
  -1   1  -8    0.80    0.58
  -1   1  -8    1.51    0.59
  -1   1  -8    0.60    0.29
  -2   2  -8    3.29    0.64
  -2   2  -8    2.59    0.67
  -2   2  -8    1.84    0.35
  -3   3  -8   -0.08    0.58
  -3   3  -8    0.20    0.32
  -3   3  -8    1.32    0.52
  -4   4  -8   16.72    1.47
  -4   4  -8   13.39    1.04
  -5   5  -8   21.23    1.44
   5  -5   8   21.15    1.23
  -6   6  -8   20.02    1.69
  -6   6  -8   14.01    1.33
   6  -6   8   15.00    1.08
  -7   7  -8   26.19    2.06
  -7   7  -8   16.19    1.65
   7  -7   8   22.85    1.41
  -8   8  -8   24.22    2.15
  -8   8  -8   17.95    1.77
   8  -8   8   20.21    1.42
  -9   9  -8   15.58    1.87
  -9   9  -8   10.03    1.47
   7  -8  -7    2.32    0.71
   7  -8  -7    3.36    1.09
  -7   8   7    1.69    0.94
   6  -7  -7    6.25    1.12
   6  -7  -7    6.10    1.01
   6  -7  -7    7.42    0.82
  -6   7   7    5.81    1.18
   5  -6  -7    1.55    0.80
   5  -6  -7    1.59    0.52
   5  -6  -7    0.61    0.72
  -5   6   7    0.22    0.70
   4  -5  -7    6.92    0.91
   4  -5  -7    6.89    0.68
   4  -5  -7    6.59    0.92
  -4   5   7    6.57    0.99
   3  -4  -7   12.85    1.19
   3  -4  -7   12.78    1.29
  -3   4   7   14.13    1.35
   2  -3  -7   12.56    1.23
   2  -3  -7   11.73    1.01
  -2   3   7   10.86    1.24
   1  -2  -7   52.67    3.01
   1  -2  -7   52.72    2.90
   1  -2  -7   53.47    3.47
   0  -1  -7  133.99    6.84
   0  -1  -7  131.85    7.99
   0  -1  -7  131.99    6.78
  -1   0  -7  109.38    6.68
  -1   0  -7  113.44    5.74
  -1   0  -7  108.17    5.64
  -2   1  -7   59.74    3.35
  -2   1  -7   70.13    3.53
  -2   1  -7   64.44    4.05
  -3   2  -7   66.08    3.54
  -3   2  -7   64.05    3.41
  -3   2  -7   65.05    4.11
  -4   3  -7   63.71    4.05
  -5   4  -7   30.88    1.99
  -5   4  -7   39.39    2.49
   5  -4   7   33.08    1.80
  -6   5  -7    8.01    1.10
  -6   5  -7    5.53    0.81
   6  -5   7    6.88    0.70
  -7   6  -7    1.05    0.85
  -7   6  -7    0.58    0.66
   7  -6   7    0.61    0.49
  -8   7  -7   -0.34    0.73
  -8   7  -7   -0.32    0.91
   8  -7   7   -0.10    0.53
  -9   8  -7    0.76    0.93
  -9   8  -7    1.89    1.08
   9  -8   7    1.09    0.67
 -10   9  -7    3.07    1.22
 -10   9  -7    2.14    1.10
   7  -9  -6   13.58    1.28
  -7   9   6   13.49    1.70
   6  -8  -6   33.84    1.90
   6  -8  -6   26.73    2.25
   6  -8  -6   31.76    2.16
  -6   8   6   32.99    2.50
   5  -7  -6   48.46    2.40
   5  -7  -6   43.75    2.83
   5  -7  -6   44.00    2.73
  -5   7   6   44.76    3.15
   4  -6  -6   35.41    2.21
   4  -6  -6   32.61    2.24
   4  -6  -6   33.28    1.85
  -4   6   6   37.37    2.54
   3  -5  -6   25.40    1.78
   3  -5  -6   25.89    1.48
   3  -5  -6   27.24    1.82
  -3   5   6   26.61    2.02
   2  -4  -6   26.01    1.72
   2  -4  -6   27.71    1.83
   2  -4  -6   26.10    1.44
  -2   4   6   27.66    2.00
   1  -3  -6   23.02    1.65
   1  -3  -6   22.98    1.50
   1  -3  -6   23.24    1.83
  -1   3   6   23.89    1.84
   0  -2  -6    5.68    0.78
   0  -2  -6    6.79    0.68
   0  -2  -6    7.73    0.92
  -1  -1  -6    0.90    0.36
  -1  -1  -6    0.67    0.50
  -1  -1  -6    0.20    0.52
  -2   0  -6    3.46    0.44
  -2   0  -6    4.40    0.69
  -2   0  -6    4.10    0.65
  -3   1  -6   14.64    1.23
  -3   1  -6   14.18    0.97
  -3   1  -6   13.78    1.31
  -4   2  -6   71.34    3.74
  -4   2  -6   70.51    3.83
  -4   2  -6   69.91    4.44
   4  -2   6   72.19    3.45
  -5   3  -6   88.73    4.50
  -5   3  -6   86.78    5.30
   5  -3   6   81.30    4.16
  -6   4  -6   34.65    2.02
  -6   4  -6   33.29    2.37
   6  -4   6   29.94    1.79
  -7   5  -6   24.83    1.94
  -7   5  -6   22.45    1.66
   7  -5   6   20.23    1.40
  -8   6  -6   28.59    2.15
   8  -6   6   32.52    1.86
  -9   7  -6   29.12    2.28
  -9   7  -6   19.64    1.97
   9  -7   6   22.29    1.59
 -10   8  -6    6.52    1.34
 -10   8  -6    6.80    1.39
  10  -8   6    9.73    1.04
   7 -10  -5    3.11    0.78
  -7  10   5    1.97    1.03
   6  -9  -5    0.49    0.63
  -6   9   5    0.92    0.92
   5  -8  -5    6.78    1.09
   5  -8  -5    6.13    0.94
   5  -8  -5    6.62    0.86
  -5   8   5    6.37    1.11
   4  -7  -5   18.71    1.24
   4  -7  -5   15.24    1.38
   4  -7  -5   13.62    1.41
  -4   7   5   17.41    1.59
   3  -6  -5   13.02    1.02
   3  -6  -5   12.52    1.21
   3  -6  -5   12.81    1.26
  -3   6   5   12.86    1.35
   2  -5  -5   38.20    2.36
   2  -5  -5   37.87    2.04
   2  -5  -5   41.03    2.39
  -2   5   5   41.62    2.69
   1  -4  -5  147.32    8.53
   1  -4  -5  145.68    7.28
   1  -4  -5  138.85    6.39
   1  -4  -5  136.22    7.32
  -1   4   5  141.11    8.48
   0  -3  -5  165.56    9.64
   0  -3  -5  160.62    8.27
   0  -3  -5  165.23    8.23
   0  -3  -5  154.85    7.20
  -1  -2  -5   63.25    3.45
  -1  -2  -5   65.73    2.91
  -1  -2  -5   65.25    3.97
  -1  -2  -5   62.02    3.36
   1   2   5   59.56    3.07
  -2  -1  -5   51.09    3.30
  -2  -1  -5   50.95    2.78
  -2  -1  -5   51.87    2.40
  -2  -1  -5   50.01    2.92
   2   1   5   54.43    2.55
  -3   0  -5   96.05    4.07
  -3   0  -5   88.03    5.51
  -3   0  -5   81.94    4.67
  -3   0  -5   90.34    4.79
   3   0   5   96.06    4.36
  -4   1  -5   57.57    3.15
  -4   1  -5   55.93    3.73
  -4   1  -5   61.47    3.30
  -4   1  -5   58.69    2.72
   4  -1   5   62.35    2.94
  -5   2  -5    7.98    0.78
  -5   2  -5    9.59    0.96
  -5   2  -5    8.75    1.07
  -5   2  -5    6.69    0.61
   5  -2   5    7.82    0.77
  -6   3  -5    0.06    0.62
  -6   3  -5    0.37    0.45
   6  -3   5    0.34    0.46
  -7   4  -5   -0.09    0.51
  -7   4  -5   -0.15    0.68
   7  -4   5    0.15    0.52
  -8   5  -5    1.59    0.89
  -8   5  -5    1.36    0.70
   8  -5   5    1.56    0.65
  -9   6  -5   12.18    1.38
   9  -6   5   14.64    1.22
 -10   7  -5   15.89    1.85
 -10   7  -5   22.05    2.06
  10  -7   5   19.39    1.48
 -11   8  -5    5.24    1.32
 -11   8  -5    6.22    1.33
   7 -11  -4   12.05    1.16
  -7  11   4    8.75    1.47
   6 -10  -4   33.93    2.05
  -6  10   4   32.04    2.63
   5  -9  -4   43.36    2.35
   5  -9  -4   36.82    2.71
  -5   9   4   45.97    3.06
   4  -8  -4    7.95    0.88
   4  -8  -4    8.69    0.99
   4  -8  -4    9.27    1.12
  -4   8   4    8.70    1.14
   3  -7  -4    1.55    0.73
   3  -7  -4    1.42    0.61
   3  -7  -4    2.38    0.61
  -3   7   4    2.70    0.73
   2  -6  -4   25.34    1.70
   2  -6  -4   24.15    1.50
   2  -6  -4   23.91    1.68
  -2   6   4   25.59    1.91
   1  -5  -4   18.82    1.38
   1  -5  -4   19.49    1.46
   1  -5  -4   19.70    1.25
  -1   5   4   19.83    1.56
   0  -4  -4    8.05    0.87
   0  -4  -4    8.63    1.07
   0  -4  -4    8.20    0.69
   0  -4  -4    8.44    0.87
  -1  -3  -4   34.10    2.32
  -1  -3  -4   33.21    1.97
  -1  -3  -4   36.38    1.74
  -1  -3  -4   32.82    2.08
  -2  -2  -4   17.00    1.00
  -2  -2  -4   17.10    1.36
  -2  -2  -4   16.36    1.15
  -2  -2  -4   17.11    1.38
  -2  -2  -4   17.23    1.14
   2   2   4   17.32    1.02
  -3  -1  -4   53.57    3.01
  -3  -1  -4   51.12    3.36
  -3  -1  -4   53.55    2.88
  -3  -1  -4   53.14    2.50
   3   1   4   55.34    2.66
  -4   0  -4  147.26    6.75
  -4   0  -4  144.30    9.01
  -4   0  -4  154.52    7.81
  -4   0  -4  152.35    7.75
   4   0   4  160.23    7.23
  -5   1  -4  113.67    6.94
  -5   1  -4  109.02    5.17
  -5   1  -4  113.14    5.93
  -5   1  -4  116.32    6.04
   5  -1   4  123.19    5.56
  -6   2  -4   43.80    3.00
  -6   2  -4   45.28    2.54
   6  -2   4   46.35    2.40
  -7   3  -4   39.39    2.28
  -7   3  -4   39.41    2.69
   7  -3   4   36.09    2.13
  -8   4  -4   44.99    2.64
  -8   4  -4   45.82    3.10
   8  -4   4   40.62    2.42
  -9   5  -4   17.56    1.67
  -9   5  -4   24.03    2.03
   9  -5   4   18.25    1.45
 -10   6  -4    4.80    1.06
 -10   6  -4    3.27    1.13
  10  -6   4    3.89    0.82
 -11   7  -4    0.77    0.96
 -11   7  -4    1.82    1.15
   6 -11  -3    1.02    0.74
  -6  11   3   -0.10    0.94
   5 -10  -3    6.86    0.92
  -5  10   3    6.22    1.19
   4  -9  -3   23.87    1.63
  -4   9   3   26.55    2.10
   3  -8  -3   38.57    2.28
   3  -8  -3   35.31    2.07
   3  -8  -3   36.84    2.39
  -3   8   3   38.23    2.64
   2  -7  -3   71.49    3.53
   2  -7  -3   70.02    4.02
   2  -7  -3   76.93    3.93
  -2   7   3   73.48    4.58
   1  -6  -3  110.36    5.12
   1  -6  -3  115.45    5.77
   1  -6  -3  110.41    5.86
  -1   6   3  109.13    6.71
   0  -5  -3   93.46    4.76
   0  -5  -3   92.69    5.52
   0  -5  -3   89.69    4.18
   0  -5  -3   87.14    4.78
   0   5   3   88.78    5.50
  -1  -4  -3   47.27    2.68
  -1  -4  -3   47.91    3.06
  -1  -4  -3   47.08    2.30
  -1  -4  -3   46.83    2.64
  -2  -3  -3   44.83    2.60
  -2  -3  -3   44.08    2.88
  -2  -3  -3   44.59    2.49
  -2  -3  -3   44.84    2.18
  -2  -3  -3   45.93    2.49
  -3  -2  -3   57.23    3.69
  -3  -2  -3   56.91    2.78
  -3  -2  -3   62.21    3.32
  -3  -2  -3   60.19    3.19
   3   2   3   60.78    2.95
  -4  -1  -3   17.48    1.20
  -4  -1  -3   18.74    1.43
  -4  -1  -3   15.53    1.02
  -4  -1  -3   18.17    1.43
   4   1   3   19.35    1.10
  -5   0  -3    0.44    0.32
  -5   0  -3    1.39    0.54
  -5   0  -3    1.16    0.37
  -5   0  -3    0.72    0.56
   5   0   3    1.09    0.39
  -6   1  -3    1.30    0.60
  -6   1  -3    1.81    0.61
  -6   1  -3    1.25    0.41
   6  -1   3    1.50    0.47
  -7   2  -3    2.24    0.53
  -7   2  -3    1.56    0.63
  -7   2  -3    3.68    0.80
   7  -2   3    2.43    0.58
  -8   3  -3   34.73    2.50
  -8   3  -3   33.51    2.12
   8  -3   3   31.26    1.94
  -9   4  -3   51.54    3.11
  -9   4  -3   55.42    3.63
   9  -4   3   50.05    2.84
 -10   5  -3   15.10    1.64
 -10   5  -3   18.28    1.86
  10  -5   3   17.04    1.38
 -11   6  -3   10.13    1.53
   6 -12  -2   12.75    1.25
  -6  12   2   15.82    1.75
   5 -11  -2    8.42    1.00
  -5  11   2    8.21    1.33
   4 -10  -2    9.09    0.98
  -4  10   2    7.41    1.17
   3  -9  -2    0.95    0.61
   3  -9  -2    1.81    0.64
  -3   9   2    1.74    0.77
   2  -8  -2   -0.35    0.57
   2  -8  -2    0.05    0.52
   2  -8  -2    0.55    0.48
  -2   8   2    0.71    0.60
   1  -7  -2    0.01    0.48
   1  -7  -2    1.16    0.57
   1  -7  -2    1.04    0.46
  -1   7   2    0.41    0.51
   0  -6  -2   15.40    1.25
   0  -6  -2   16.04    1.30
   0  -6  -2   17.40    1.12
   0   6   2   17.10    1.39
  -1  -5  -2   49.66    2.78
  -1  -5  -2   52.70    2.81
  -1  -5  -2   46.10    3.15
  -1  -5  -2   50.85    2.43
  -2  -4  -2   55.79    3.69
  -2  -4  -2   59.68    3.24
  -2  -4  -2   60.07    2.83
  -2  -4  -2   62.21    3.30
  -2  -4  -2   60.28    3.23
  -3  -3  -2  114.12    5.13
  -3  -3  -2  112.34    6.76
  -3  -3  -2  112.61    5.87
  -3  -3  -2  113.23    5.86
  -4  -2  -2  163.01   10.06
  -4  -2  -2  169.58    8.69
  -4  -2  -2  174.31    7.63
  -4  -2  -2  172.05    8.71
   4   2   2  173.75    8.12
  -5  -1  -2  104.22    6.63
  -5  -1  -2  111.18    5.03
  -5  -1  -2  111.14    5.80
  -5  -1  -2  111.65    5.76
   5   1   2  115.41    5.37
  -6   0  -2   51.86    2.96
  -6   0  -2   48.58    2.79
  -6   0  -2   48.07    3.23
   6   0   2   53.02    2.62
  -7   1  -2   32.20    2.33
  -7   1  -2   32.95    2.16
  -7   1  -2   32.90    2.00
   7  -1   2   33.15    1.87
  -8   2  -2   26.95    1.77
  -8   2  -2   27.70    2.12
  -8   2  -2   24.73    1.88
   8  -2   2   25.87    1.63
  -9   3  -2   15.03    1.61
  -9   3  -2   14.71    1.38
   9  -3   2   14.00    1.22
 -10   4  -2    1.57    0.93
 -11   5  -2   -0.97    0.90
 -12   6  -2    0.55    1.01
   5 -12  -1   10.02    1.08
   4 -11  -1   28.34    1.88
  -4  11   1   32.05    2.44
   3 -10  -1   46.03    2.68
  -3  10   1   56.70    3.50
   2  -9  -1   48.41    2.74
   2  -9  -1   44.07    2.47
  -2   9   1   50.15    2.49
  -2   9   1   49.41    3.22
   1  -8  -1   31.88    1.80
   1  -8  -1   33.55    1.99
  -1   8   1   31.88    1.77
  -1   8   1   32.53    2.28
   0  -7  -1   59.48    2.94
   0  -7  -1   62.61    3.32
   0  -7  -1   58.94    3.36
   0   7   1   58.20    3.79
   0   7   1   64.03    2.94
  -1  -6  -1   96.55    5.07
  -1  -6  -1   98.96    5.13
  -1  -6  -1   96.86    4.48
   1   6   1   94.84    5.84
   1   6   1   97.46    4.47
  -2  -5  -1   11.03    0.91
  -2  -5  -1   13.39    1.14
  -2  -5  -1   11.63    1.13
  -2  -5  -1   11.58    1.03
  -2  -5  -1   13.06    1.02
   2   5   1   11.81    0.92
  -3  -4  -1    5.23    0.71
  -3  -4  -1    6.75    0.68
  -3  -4  -1    6.56    0.71
  -3  -4  -1    6.58    0.61
   3   4   1    7.35    0.59
  -4  -3  -1    1.00    0.38
  -4  -3  -1    1.65    0.42
  -4  -3  -1    0.71    0.38
  -4  -3  -1    1.00    0.48
   4   3   1    1.06    0.35
  -5  -2  -1    2.22    0.43
  -5  -2  -1    1.58    0.48
  -5  -2  -1    1.92    0.61
  -5  -2  -1    2.51    0.46
   5   2   1    1.73    0.35
  -6  -1  -1   35.61    2.56
  -6  -1  -1   38.17    2.41
  -6  -1  -1   38.50    2.25
   6   1   1   41.38    2.00
   6   1   1   40.45    2.10
  -7   0  -1   73.34    4.09
  -7   0  -1   85.13    4.25
  -7   0  -1   70.15    4.72
   7   0   1   78.75    3.83
  -8   1  -1   34.42    2.28
  -8   1  -1   34.16    2.48
  -8   1  -1   34.57    2.13
   8  -1   1   34.83    1.98
  -9   2  -1   30.08    2.31
   9  -2   1   29.40    1.82
 -10   3  -1   38.73    2.86
 -11   4  -1   28.25    2.36
 -12   5  -1   10.48    1.52
   5 -13   0    3.04    0.84
  -5  13   0    3.08    0.78
   4 -12   0    4.74    0.88
  -4  12   0    4.91    0.79
   3 -11   0    0.71    0.63
  -3  11   0    0.32    0.49
   2 -10   0    9.89    0.96
  -2  10   0   11.84    0.95
   1  -9   0   11.54    1.09
   1  -9   0    9.86    0.91
  -1   9   0   10.76    1.02
   0  -8   0   25.55    1.49
   0  -8   0   24.04    1.67
   0   8   0   24.54    1.47
  -1  -7   0   99.42    5.11
  -1  -7   0   94.47    4.52
   1   7   0   98.36    4.52
  -2  -6   0  116.87    5.35
  -2  -6   0  118.46    6.09
  -2  -6   0  115.13    6.03
  -2  -6   0  114.84    6.08
   2   6   0  116.94    5.32
  -3  -5   0   75.72    4.00
  -3  -5   0   76.47    3.49
  -3  -5   0   71.16    3.94
   3   5   0   71.60    3.46
  -4  -4   0   72.82    3.34
  -4  -4   0   67.41    3.84
  -4  -4   0   69.16    3.78
  -4  -4   0   68.01    4.28
   4   4   0   74.82    3.35
  -5  -3   0   93.21    4.97
  -5  -3   0   98.36    4.33
  -5  -3   0   90.28    4.91
  -5  -3   0   87.93    5.60
   5   3   0   96.00    4.33
  -6  -2   0   70.86    4.53
  -6  -2   0   73.05    3.98
  -6  -2   0   75.80    4.09
   6   2   0   76.73    3.52
  -7  -1   0   22.92    1.74
  -7  -1   0   21.73    1.50
  -7  -1   0   20.12    1.68
   7   1   0   23.61    1.40
  -8   0   0    3.62    0.77
  -8   0   0    3.57    0.78
   8   0   0    2.44    0.58
   8   0   0    2.87    0.55
  -9   1   0    1.34    0.72
  -9   1   0    4.17    0.90
 -10   2   0   -0.31    0.82
 -10   2   0    0.41    0.72
 -11   3   0   10.07    1.44
 -12   4   0    8.50    1.42
  -4  13  -1   34.88    2.16
  -3  12  -1   25.22    1.69
   2 -11   1   11.37    1.05
  -2  11  -1   12.19    1.01
   1 -10   1   23.53    1.53
  -1  10  -1   24.68    1.53
   0  -9   1   35.89    2.18
   0  -9   1   36.60    1.99
   0   9  -1   36.21    1.96
  -1  -8   1    9.97    0.99
  -1  -8   1   11.54    1.01
   1   8  -1   10.31    0.98
  -2  -7   1    0.25    0.48
  -2  -7   1   -0.21    0.43
   2   7  -1    0.31    0.37
  -3  -6   1    0.66    0.51
  -3  -6   1    0.38    0.43
   3   6  -1    1.05    0.40
  -4  -5   1    1.79    0.57
  -4  -5   1    2.59    0.53
   4   5  -1    1.82    0.43
  -5  -4   1   37.81    2.36
  -5  -4   1   37.47    1.96
   5   4  -1   37.80    2.01
  -6  -3   1  119.65    6.33
   6   3  -1  120.61    5.54
  -7  -2   1   77.63    4.25
   7   2  -1   76.29    3.68
  -8  -1   1   24.16    1.81
  -8  -1   1   21.24    1.76
   8   1  -1   23.45    1.47
  -9   0   1   32.90    2.26
  -9   0   1   33.80    2.44
   9   0  -1   33.41    1.92
 -10   1   1   47.47    3.45
 -10   1   1   54.74    3.13
  10  -1  -1   52.19    2.73
 -11   2   1   23.06    2.07
 -12   3   1    4.93    1.14
  -4  14  -2    0.08    0.69
  -3  13  -2    6.64    0.87
  -2  12  -2   11.81    1.06
  -1  11  -2   12.37    1.03
   0 -10   2   47.99    2.73
   0  10  -2   46.71    2.47
  -1  -9   2  113.39    5.37
  -1  -9   2  114.26    6.02
   1   9  -2  118.44    5.35
  -2  -8   2   81.12    3.79
  -2  -8   2   74.49    3.95
  -2  -8   2   78.79    4.26
   2   8  -2   80.05    3.76
  -3  -7   2   33.95    1.83
  -3  -7   2   31.46    1.87
  -3  -7   2   32.60    2.14
   3   7  -2   31.93    1.79
  -4  -6   2   53.99    3.18
  -4  -6   2   55.07    2.87
  -4  -6   2   56.54    2.74
   4   6  -2   53.94    2.73
   4   6  -2   54.97    3.10
  -5  -5   2   68.06    3.28
  -5  -5   2   67.72    3.81
  -5  -5   2   67.41    3.44
   5   5  -2   67.47    3.28
  -6  -4   2   19.65    1.65
  -6  -4   2   20.39    1.31
   6   4  -2   18.70    1.32
  -7  -3   2    3.25    0.76
   7   3  -2    2.40    0.49
  -8  -2   2    2.40    0.78
   8   2  -2    0.73    0.46
  -9  -1   2    0.75    0.74
   9   1  -2    0.83    0.50
 -10   0   2   12.16    1.30
  10   0  -2    9.43    0.98
 -11   1   2   22.54    1.89
  11  -1  -2   20.78    1.62
 -12   2   2   11.09    1.46
  12  -2  -2   10.36    1.15
  -3  14  -3   15.27    1.28
  -2  13  -3    6.33    0.88
  -1  12  -3    3.24    0.68
   0  11  -3    8.12    0.86
  -1 -10   3    2.35    0.65
  -1 -10   3    2.43    0.71
   1  10  -3    3.42    0.60
  -2  -9   3    6.96    0.84
  -2  -9   3    6.00    0.86
   2   9  -3    7.88    0.78
  -3  -8   3   16.05    1.29
  -3  -8   3   18.04    1.52
   3   8  -3   18.80    1.41
   3   8  -3   17.71    1.26
  -4  -7   3   24.92    1.55
  -4  -7   3   24.57    1.83
   4   7  -3   23.19    1.67
   4   7  -3   24.38    1.51
  -5  -6   3   59.32    3.53
  -5  -6   3   62.55    3.20
   5   6  -3   65.48    3.08
   5   6  -3   59.46    3.44
  -6  -5   3   95.21    4.75
  -6  -5   3   93.94    5.18
   6   5  -3   97.00    4.52
  -7  -4   3   58.06    3.43
   7   4  -3   58.42    2.95
  -8  -3   3   35.13    2.43
   8   3  -3   35.73    2.03
  -9  -2   3   42.79    2.80
   9   2  -3   42.19    2.34
 -10  -1   3   34.14    2.36
  10   1  -3   31.92    2.01
 -11   0   3    8.59    1.19
  11   0  -3    5.81    0.88
 -12   1   3    2.14    0.88
  12  -1  -3    2.15    0.80
  -2  14  -4   13.37    1.20
  -1  13  -4   32.62    1.96
   0  12  -4   44.09    2.41
  -1 -11   4   37.69    2.28
   1  11  -4   38.53    2.16
  -2 -10   4   40.35    2.42
  -2 -10   4   39.33    2.26
   2  10  -4   34.32    2.38
   2  10  -4   38.77    2.13
  -3  -9   4   34.35    2.30
  -3  -9   4   34.06    2.08
   3   9  -4   36.48    1.99
   3   9  -4   33.34    2.22
  -4  -8   4   21.50    1.48
  -4  -8   4   20.29    1.75
   4   8  -4   22.06    1.62
   4   8  -4   20.45    1.43
  -5  -7   4   15.89    1.53
  -5  -7   4   14.30    1.16
   5   7  -4   12.78    1.19
   5   7  -4   14.50    1.31
  -6  -6   4    6.64    0.78
  -6  -6   4    6.18    0.96
   6   6  -4    5.23    0.79
   6   6  -4    4.65    0.67
  -7  -5   4    0.09    0.51
  -7  -5   4   -0.13    0.63
   7   5  -4    0.41    0.45
  -8  -4   4    5.37    1.01
   8   4  -4    4.90    0.70
  -9  -3   4   11.72    1.41
   9   3  -4   13.47    1.29
 -10  -2   4   24.88    2.10
  10   2  -4   25.28    1.75
 -11  -1   4   26.95    2.15
  11   1  -4   25.88    1.83
 -12   0   4   15.77    1.71
  12   0  -4   15.73    1.52
  -1  14  -5   -0.15    0.64
   0  13  -5    0.25    0.58
   1  12  -5    0.54    0.56
  -2 -11   5    6.14    0.93
   2  11  -5    5.38    0.92
   2  11  -5    8.23    0.85
  -3 -10   5   39.60    2.27
  -3 -10   5   38.49    2.48
   3  10  -5   34.14    2.39
   3  10  -5   36.61    2.11
  -4  -9   5   54.99    3.02
  -4  -9   5   58.06    3.34
   4   9  -5   57.11    2.84
   4   9  -5   51.37    3.24
  -5  -8   5   42.99    2.41
  -5  -8   5   42.19    2.72
   5   8  -5   38.70    2.60
   5   8  -5   44.53    2.30
  -6  -7   5   44.35    2.50
  -6  -7   5   46.05    2.88
   6   7  -5   46.34    2.43
   6   7  -5   43.59    2.75
  -7  -6   5   64.29    3.38
  -7  -6   5   64.07    3.77
   7   6  -5   61.84    3.67
   7   6  -5   65.40    3.24
  -8  -5   5   41.32    2.43
  -8  -5   5   43.97    2.84
   8   5  -5   43.77    2.38
  -9  -4   5   11.72    1.39
   9   4  -5    7.40    0.89
 -10  -3   5    5.57    1.15
  10   3  -5    4.51    0.78
 -11  -2   5    9.27    1.35
  11   2  -5    7.79    0.96
   0  14  -6   13.84    1.25
   1  13  -6   13.84    1.25
  -2 -12   6   27.12    1.88
   2  12  -6   28.35    1.70
   2  12  -6   23.50    1.93
  -3 -11   6   29.42    1.92
   3  11  -6   29.12    1.73
   3  11  -6   24.66    2.00
  -4 -10   6    1.09    0.85
  -4 -10   6    1.43    0.76
   4  10  -6    0.66    0.55
   4  10  -6    1.23    0.69
  -5  -9   6    0.90    0.85
  -5  -9   6    2.71    0.78
   5   9  -6    2.68    0.73
   5   9  -6    2.97    0.63
  -6  -8   6    0.83    0.62
  -6  -8   6    0.68    0.80
   6   8  -6    0.35    0.60
   6   8  -6    0.43    0.51
  -7  -7   6    1.99    0.67
  -7  -7   6    0.98    0.83
   7   7  -6    0.92    0.63
   7   7  -6    1.36    0.55
  -8  -6   6   29.14    2.30
  -8  -6   6   30.58    1.93
   8   6  -6   30.44    2.14
   8   6  -6   31.38    1.89
  -9  -5   6   32.56    2.49
   9   5  -6   34.70    2.05
 -10  -4   6   15.11    1.68
  10   4  -6   16.41    1.42
 -11  -3   6   20.71    1.98
  11   3  -6   19.90    1.61
   2  13  -7   23.73    1.49
   2  13  -7   20.61    1.81
  -3 -12   7   37.73    2.38
   3  12  -7   39.34    2.10
   3  12  -7   34.64    2.50
  -4 -11   7   18.38    1.62
   4  11  -7   19.27    1.71
   4  11  -7   19.90    1.40
  -5 -10   7   21.75    1.62
  -5 -10   7   20.19    1.91
   5  10  -7   19.38    1.70
   5  10  -7   19.04    1.44
  -6  -9   7   43.67    2.86
  -6  -9   7   38.94    2.46
   6   9  -7   42.32    2.27
   6   9  -7   43.77    2.72
  -7  -8   7   36.73    2.20
  -7  -8   7   37.09    2.59
   7   8  -7   31.53    2.36
   7   8  -7   37.88    2.04
  -8  -7   7   14.63    1.55
  -8  -7   7   12.50    1.25
   8   7  -7   13.00    1.22
   8   7  -7   10.79    1.26
  -9  -6   7    3.57    1.07
   9   6  -7    3.30    0.69
 -10  -5   7    2.37    1.05
  10   5  -7    1.90    0.64
   4  12  -8    0.16    0.74
   4  12  -8    0.70    0.53
  -5 -11   8    1.10    0.85
   5  11  -8    0.21    0.54
   5  11  -8    0.34    0.70
  -6 -10   8    3.40    0.93
  -6 -10   8    4.91    1.13
   6  10  -8    4.78    0.69
   6  10  -8    4.25    0.90
  -7  -9   8   25.45    2.11
  -7  -9   8   21.25    1.65
   7   9  -8   22.62    1.85
   7   9  -8   21.66    1.44
  -8  -8   8   36.08    2.52
  -8  -8   8   30.23    2.11
   8   8  -8   32.87    1.89
   8   8  -8   33.87    2.32
  -9  -7   8   14.67    1.65
   9   7  -8   14.94    1.25
   4   2 -15   17.65    1.92
   3   3 -15   13.63    1.55
   2   4 -15   11.33    1.37
   5   0 -14    1.78    1.03
  -5   0  14    1.34    0.86
   4   1 -14    4.08    1.12
  -4  -1  14    4.09    0.98
   3   2 -14    8.81    1.32
   2   3 -14   22.07    1.90
   1   4 -14   33.17    2.62
   1   4 -14   29.37    2.18
   6  -2 -13   29.37    2.21
   6  -2 -13   31.22    2.06
  -6   2  13   24.26    2.25
   5  -1 -13   12.26    1.43
   5  -1 -13   12.80    1.24
  -5   1  13   11.25    1.47
   4   0 -13    4.10    1.04
  -4   0  13    4.75    1.00
   3   1 -13   17.39    1.73
  -3  -1  13   15.69    1.62
   2   2 -13   20.50    1.82
  -2  -2  13   19.20    1.81
   1   3 -13    0.63    0.78
   1   3 -13   -0.26    0.83
   0   4 -13    2.65    0.81
   0   4 -13    2.33    0.97
  -1   5 -13    1.23    0.94
  -2   6 -13    4.58    1.14
  -3   7 -13   24.22    2.37
  -4   8 -13   30.27    2.77
   6  -3 -12    0.87    0.92
   6  -3 -12    2.44    0.89
  -6   3  12    1.24    0.89
   5  -2 -12   16.18    1.63
   5  -2 -12   16.54    1.41
  -5   2  12   13.69    1.60
   4  -1 -12   12.23    1.37
   4  -1 -12   13.14    1.14
  -4   1  12   11.36    1.42
   3   0 -12   19.28    1.71
  -3   0  12   18.16    1.72
   2   1 -12   52.43    3.20
  -2  -1  12   52.83    3.56
   1   2 -12   46.89    2.97
   1   2 -12   50.26    3.42
   0   3 -12   21.44    1.92
   0   3 -12   17.20    1.58
  -1   4 -12   16.74    1.49
  -1   4 -12   20.49    1.86
  -2   5 -12   38.60    2.91
  -3   6 -12   24.03    2.25
  -4   7 -12    1.19    0.99
  -5   8 -12    1.57    1.10
  -6   9 -12    0.26    0.70
  -6   9 -12    0.48    1.15
   6  -4 -11   12.85    1.43
   6  -4 -11   14.21    1.50
  -6   4  11   13.03    1.57
   5  -3 -11    7.81    1.05
   5  -3 -11    7.61    1.16
  -5   3  11    7.79    1.21
   4  -2 -11    5.93    0.86
   4  -2 -11    6.03    1.03
  -4   2  11    5.24    1.03
   3  -1 -11    6.08    1.02
   3  -1 -11    6.79    0.78
  -3   1  11    7.29    1.09
   2   0 -11    5.03    0.94
  -2   0  11    5.91    1.02
   1   1 -11    1.25    0.76
   1   1 -11    1.16    0.77
   0   2 -11   15.32    1.52
   0   2 -11   18.74    1.76
  -1   3 -11   14.15    1.54
  -1   3 -11   11.75    1.28
  -2   4 -11   23.91    2.07
  -3   5 -11   58.98    4.00
  -4   6 -11   45.43    3.28
  -5   7 -11    8.75    0.95
  -6   8 -11   17.82    1.92
   6  -8  11   10.34    1.01
  -7   9 -11    7.39    1.09
   7  -6 -10    0.96    0.91
   7  -6 -10    1.43    1.06
  -7   6  10    1.85    0.98
   6  -5 -10    7.32    1.15
   6  -5 -10    7.69    1.15
  -6   5  10    6.41    1.19
   5  -4 -10   19.23    1.65
   5  -4 -10   19.14    1.74
  -5   4  10   19.95    1.83
   4  -3 -10   28.54    1.95
   4  -3 -10   30.25    2.12
  -4   3  10   28.36    2.26
   3  -2 -10   40.79    2.39
   3  -2 -10   40.45    2.60
  -3   2  10   40.58    2.86
   2  -1 -10   52.77    2.80
   2  -1 -10   44.58    2.98
  -2   1  10   52.64    3.42
   1   0 -10   46.04    3.03
   1   0 -10   39.35    2.61
   0   1 -10   47.98    3.27
   0   1 -10   46.68    2.84
  -1   2 -10   32.35    2.17
  -1   2 -10   33.07    2.45
  -2   3 -10    6.48    0.86
  -2   3 -10    7.66    1.11
  -3   4 -10    2.06    0.82
  -4   5 -10    0.92    0.48
  -4   5 -10    1.22    0.81
  -5   6 -10    1.18    0.57
  -5   6 -10    1.24    0.90
  -6   7 -10    5.95    0.91
  -6   7 -10    8.73    1.42
   6  -7  10    6.74    0.73
  -7   8 -10   13.27    1.70
  -7   8 -10    6.56    1.09
   7  -8  10    7.42    0.83
  -8   9 -10    7.53    1.22
  -8   9 -10    8.15    1.53
   7  -7  -9    9.21    1.23
   7  -7  -9    9.40    1.42
  -7   7   9    8.56    1.35
   6  -6  -9    7.59    1.24
   6  -6  -9    7.75    1.17
  -6   6   9    7.85    1.29
   5  -5  -9    9.29    1.20
   5  -5  -9    8.18    1.16
  -5   5   9   11.36    1.39
   4  -4  -9    3.80    0.92
   4  -4  -9    5.10    0.86
  -4   4   9    3.83    0.93
   3  -3  -9    0.70    0.74
   3  -3  -9    0.63    0.60
  -3   3   9    0.41    0.68
   2  -2  -9    4.28    0.85
   2  -2  -9    5.05    0.69
  -2   2   9    5.32    0.95
   1  -1  -9   12.60    1.43
   1  -1  -9   13.76    1.38
   1  -1  -9   13.13    1.03
   0   0  -9   39.51    2.13
   0   0  -9   37.77    2.71
   0   0  -9   35.91    2.38
  -1   1  -9   48.56    2.95
  -1   1  -9   52.79    3.41
  -2   2  -9   43.39    2.47
  -2   2  -9   49.69    3.17
  -2   2  -9   46.52    2.74
  -3   3  -9   62.39    3.98
  -3   3  -9   59.49    3.35
  -4   4  -9   44.57    2.47
  -5   5  -9   24.62    1.69
   5  -5   9   27.23    1.46
  -6   6  -9   14.59    1.32
   6  -6   9   14.86    1.04
  -7   7  -9    5.27    0.99
  -7   7  -9    8.86    1.43
   7  -7   9    7.35    0.80
  -8   8  -9    2.02    0.90
  -8   8  -9    2.62    1.14
   8  -8   9    2.38    0.65
  -9   9  -9   -1.12    1.09
  -9   9  -9   -0.29    0.95
   7  -8  -8    3.32    0.95
   7  -8  -8    3.62    1.12
  -7   8   8    2.76    1.04
   6  -7  -8   11.98    1.44
   6  -7  -8   13.82    1.47
  -6   7   8   11.47    1.50
   5  -6  -8   40.40    2.68
   5  -6  -8   42.83    2.68
  -5   6   8   41.38    2.98
   4  -5  -8   43.40    2.75
   4  -5  -8   46.36    2.79
  -4   5   8   45.47    3.12
   3  -4  -8   24.41    1.70
   3  -4  -8   21.98    1.80
  -3   4   8   24.86    1.96
   2  -3  -8   28.70    2.08
   2  -3  -8   31.33    1.94
  -2   3   8   33.65    2.35
   1  -2  -8   55.46    3.37
   1  -2  -8   59.61    3.24
   1  -2  -8   62.83    3.92
   0  -1  -8   51.57    2.76
   0  -1  -8   48.21    2.94
   0  -1  -8   50.62    3.38
  -1   0  -8   13.92    1.38
  -1   0  -8   13.70    1.34
  -1   0  -8   12.38    0.95
  -1   0  -8   12.79    0.95
  -2   1  -8   -0.14    0.30
  -2   1  -8   -0.04    0.58
  -2   1  -8   -0.17    0.58
  -3   2  -8    0.59    0.35
  -3   2  -8    1.03    0.61
  -3   2  -8    0.75    0.67
  -4   3  -8    2.39    0.48
  -4   3  -8    3.33    0.80
  -5   4  -8   24.71    1.83
  -5   4  -8   16.94    1.35
   5  -4   8   18.73    1.18
  -6   5  -8   39.41    2.55
  -6   5  -8   30.34    2.03
   6  -5   8   29.49    1.80
  -7   6  -8   16.60    1.65
  -7   6  -8   10.67    1.20
   7  -6   8   11.50    1.01
  -8   7  -8   14.00    1.67
  -8   7  -8    8.35    1.21
   8  -7   8    9.15    0.95
  -9   8  -8   14.32    1.67
  -9   8  -8   22.17    2.11
   9  -8   8   17.74    1.42
   6  -8  -7    5.53    1.05
   6  -8  -7    7.06    0.82
   6  -8  -7    6.36    1.17
  -6   8   7    6.47    1.24
   5  -7  -7    5.58    1.07
   5  -7  -7    7.90    1.08
   5  -7  -7    6.32    0.76
  -5   7   7    5.81    1.12
   4  -6  -7    1.35    0.51
   4  -6  -7    1.19    0.75
   4  -6  -7    1.32    0.77
  -4   6   7    1.54    0.77
   3  -5  -7   14.22    1.42
   3  -5  -7   13.75    1.31
   3  -5  -7   14.60    1.00
  -3   5   7   15.13    1.50
   2  -4  -7    9.21    1.02
   2  -4  -7   10.12    1.08
  -2   4   7    9.81    1.22
   1  -3  -7   29.89    1.96
   1  -3  -7   26.03    1.74
   1  -3  -7   29.22    2.18
  -1   3   7   27.38    2.12
   0  -2  -7  116.99    7.02
   0  -2  -7  111.56    6.01
   0  -2  -7  115.26    5.96
  -1  -1  -7  118.82    6.08
  -1  -1  -7  114.91    7.05
  -1  -1  -7  114.33    5.98
  -2   0  -7   38.77    2.29
  -2   0  -7   42.67    2.83
  -2   0  -7   44.98    2.55
  -3   1  -7   45.94    2.60
  -3   1  -7   48.59    3.18
  -3   1  -7   49.67    2.79
  -4   2  -7   83.24    5.16
  -4   2  -7   82.46    4.32
  -4   2  -7   85.79    4.45
   4  -2   7   79.20    3.98
  -5   3  -7   50.05    3.21
  -5   3  -7   49.64    2.67
   5  -3   7   43.54    2.41
  -6   4  -7    9.39    1.06
  -6   4  -7   11.75    1.37
   6  -4   7   10.02    0.90
  -7   5  -7    4.10    1.05
  -7   5  -7    2.11    0.68
   7  -5   7    3.22    0.64
  -8   6  -7   -0.01    0.72
  -8   6  -7    0.03    0.92
   8  -6   7    0.41    0.58
  -9   7  -7    0.55    1.04
  -9   7  -7    0.59    0.89
   9  -7   7    0.39    0.66
 -10   8  -7    2.78    1.08
 -10   8  -7    3.20    1.23
   6  -9  -6   14.69    1.63
   6  -9  -6   17.35    1.36
  -6   9   6   15.82    1.77
   5  -8  -6   43.02    2.27
   5  -8  -6   37.54    2.69
   5  -8  -6   41.34    2.62
  -5   8   6   43.28    3.03
   4  -7  -6   40.54    2.69
   4  -7  -6   41.81    2.63
   4  -7  -6   44.87    2.28
  -4   7   6   43.56    3.01
   3  -6  -6   15.25    1.40
   3  -6  -6   15.41    1.12
   3  -6  -6   13.27    1.36
  -3   6   6   15.44    1.51
   2  -5  -6   14.66    1.24
   2  -5  -6   14.10    1.35
   2  -5  -6   12.68    0.99
  -2   5   6   14.63    1.42
   1  -4  -6   53.07    3.04
   1  -4  -6   53.55    3.10
   1  -4  -6   59.75    3.63
   1  -4  -6   50.28    2.57
  -1   4   6   54.98    3.55
   0  -3  -6   28.18    2.04
   0  -3  -6   24.58    1.35
   0  -3  -6   25.51    1.82
   0  -3  -6   26.43    1.66
  -1  -2  -6    3.91    0.56
  -1  -2  -6    3.73    0.71
  -1  -2  -6    3.87    0.74
   1   2   6    3.14    0.43
  -2  -1  -6    9.14    0.82
  -2  -1  -6    8.30    0.94
  -2  -1  -6    8.96    1.00
   2   1   6    7.55    0.65
  -3   0  -6    1.88    0.41
  -3   0  -6    2.46    0.64
  -3   0  -6    2.42    0.65
   3   0   6    2.25    0.39
  -4   1  -6   28.38    2.14
  -4   1  -6   30.72    1.98
  -4   1  -6   28.51    1.73
   4  -1   6   29.55    1.59
  -5   2  -6   94.46    4.87
  -5   2  -6   96.43    5.78
  -5   2  -6   93.78    4.99
   5  -2   6   88.56    4.54
  -6   3  -6   55.00    3.50
  -6   3  -6   53.06    2.94
   6  -3   6   50.42    2.72
  -7   4  -6   14.31    1.29
  -7   4  -6   17.38    1.59
   7  -4   6   14.66    1.15
  -8   5  -6   22.28    1.89
  -8   5  -6   31.90    2.29
   8  -5   6   23.90    1.65
  -9   6  -6   32.21    2.51
  -9   6  -6   43.88    2.97
   9  -6   6   35.52    2.18
 -10   7  -6   13.48    1.74
 -10   7  -6    9.30    1.40
  10  -7   6   11.87    1.22
   6 -10  -5    0.81    0.67
  -6  10   5    0.34    0.95
   5  -9  -5   -0.64    0.85
   5  -9  -5   -0.03    0.64
  -5   9   5   -0.37    0.79
   4  -8  -5    7.45    1.12
   4  -8  -5    8.70    1.04
   4  -8  -5    8.13    0.90
  -4   8   5    8.15    1.17
   3  -7  -5   24.73    1.76
   3  -7  -5   22.42    1.78
   3  -7  -5   23.37    1.49
  -3   7   5   25.19    1.97
   2  -6  -5   30.35    1.83
   2  -6  -5   33.43    2.15
   2  -6  -5   35.93    2.19
  -2   6   5   35.70    2.43
   1  -5  -5   61.18    3.16
   1  -5  -5   67.88    3.67
   1  -5  -5   66.63    3.65
  -1   5   5   69.13    4.21
   0  -4  -5  102.87    4.98
   0  -4  -5  107.27    5.73
   0  -4  -5  117.67    6.69
   0  -4  -5  109.34    5.73
  -1  -3  -5   85.65    4.55
  -1  -3  -5   85.34    4.61
  -1  -3  -5   85.67    3.95
  -1  -3  -5   87.34    5.33
  -2  -2  -5   53.51    2.49
  -2  -2  -5   50.87    3.39
  -2  -2  -5   48.72    2.86
  -2  -2  -5   53.47    3.04
  -2  -2  -5   56.11    2.90
   2   2   5   53.67    2.64
  -3  -1  -5   60.40    3.45
  -3  -1  -5   64.71    3.62
  -3  -1  -5   61.94    4.07
  -3  -1  -5   67.02    3.00
   3   1   5   69.60    3.20
  -4   0  -5   75.07    4.76
  -4   0  -5   78.46    3.50
  -4   0  -5   73.94    4.19
  -4   0  -5   74.98    4.04
   4   0   5   78.80    3.74
  -5   1  -5   23.59    1.49
  -5   1  -5   23.42    1.77
  -5   1  -5   23.14    1.83
  -5   1  -5   22.10    1.22
   5  -1   5   23.57    1.38
  -6   2  -5   -0.24    0.63
  -6   2  -5   -0.01    0.62
  -6   2  -5    0.41    0.44
  -6   2  -5    0.09    0.30
   6  -2   5    0.55    0.48
  -7   3  -5   -0.47    0.68
  -7   3  -5   -0.12    0.51
   7  -3   5    0.61    0.55
  -8   4  -5    0.23    0.81
  -8   4  -5    0.22    0.60
   8  -4   5   -0.28    0.60
  -9   5  -5    9.04    1.35
  -9   5  -5    6.56    1.10
   9  -5   5    7.74    0.96
 -10   6  -5   17.71    1.89
 -10   6  -5   15.56    1.72
  10  -6   5   15.61    1.37
 -11   7  -5   10.49    1.60
 -11   7  -5    6.88    1.32
   6 -11  -4   24.96    1.77
  -6  11   4   26.41    2.31
   5 -10  -4   20.97    1.54
  -5  10   4   19.75    1.95
   4  -9  -4   14.58    1.22
   4  -9  -4   12.65    1.43
  -4   9   4   14.95    1.62
   3  -8  -4   19.93    1.55
   3  -8  -4   18.88    1.63
   3  -8  -4   19.83    1.37
  -3   8   4   18.47    1.71
   2  -7  -4   10.86    0.97
   2  -7  -4   10.80    1.18
   2  -7  -4   10.70    1.18
  -2   7   4   10.82    1.28
   1  -6  -4    1.90    0.64
   1  -6  -4    2.19    0.65
   1  -6  -4    3.19    0.57
  -1   6   4    2.21    0.66
   0  -5  -4    1.73    0.62
   0  -5  -4    1.21    0.55
   0  -5  -4    0.39    0.55
   0  -5  -4    1.66    0.48
   0   5   4    0.96    0.62
  -1  -4  -4    2.67    0.65
  -1  -4  -4    3.19    0.48
  -1  -4  -4    3.13    0.58
  -1  -4  -4    2.45    0.63
  -2  -3  -4   37.13    2.28
  -2  -3  -4   36.86    2.51
  -2  -3  -4   36.38    2.13
  -2  -3  -4   35.75    2.14
  -2  -3  -4   38.59    1.86
  -3  -2  -4   67.41    3.59
  -3  -2  -4   65.52    3.12
  -3  -2  -4   67.32    4.19
  -3  -2  -4   68.21    3.71
   3   2   4   66.62    3.31
  -4  -1  -4   67.94    3.23
  -4  -1  -4   68.41    4.34
  -4  -1  -4   65.85    3.70
  -4  -1  -4   72.62    3.87
   4   1   4   73.06    3.44
  -5   0  -4   69.16    4.54
  -5   0  -4   70.61    3.37
  -5   0  -4   75.57    4.06
  -5   0  -4   75.59    3.91
   5   0   4   73.56    3.61
  -6   1  -4   70.40    3.80
  -6   1  -4   69.68    4.47
  -6   1  -4   71.22    3.31
   6  -1   4   72.21    3.56
  -7   2  -4   57.48    3.86
  -7   2  -4   61.47    3.29
   7  -2   4   58.70    3.08
  -8   3  -4   36.83    2.24
  -8   3  -4   37.83    2.64
   8  -3   4   31.48    2.04
  -9   4  -4   18.74    1.84
  -9   4  -4   16.56    1.55
   9  -4   4   17.39    1.37
 -10   5  -4   10.41    1.49
 -10   5  -4    9.36    1.23
  10  -5   4    9.00    1.03
 -11   6  -4    2.42    0.98
 -11   6  -4    2.69    1.10
   5 -11  -3    1.91    0.75
  -5  11   3    1.30    1.02
   4 -10  -3   11.45    1.09
  -4  10   3    9.94    1.34
   3  -9  -3   35.07    2.40
   3  -9  -3   34.84    2.04
   3  -9  -3   34.06    2.22
  -3   9   3   38.18    2.63
   2  -8  -3   55.82    3.34
   2  -8  -3   56.97    2.91
   2  -8  -3   57.28    3.21
  -2   8   3   58.97    3.73
   1  -7  -3   63.35    3.28
   1  -7  -3   56.51    2.88
   1  -7  -3   53.80    3.31
  -1   7   3   60.11    3.75
   0  -6  -3   58.30    3.13
   0  -6  -3   51.58    3.12
   0  -6  -3   55.47    2.72
   0   6   3   56.32    3.55
  -1  -5  -3   76.91    3.51
  -1  -5  -3   72.32    4.02
  -1  -5  -3   76.09    4.05
  -1  -5  -3   72.61    4.63
  -2  -4  -3   94.67    5.01
  -2  -4  -3   90.19    5.77
  -2  -4  -3   93.16    5.00
  -2  -4  -3   99.00    4.38
  -2  -4  -3   98.16    5.04
  -3  -3  -3   35.10    2.36
  -3  -3  -3   33.37    1.77
  -3  -3  -3   34.38    2.03
  -3  -3  -3   35.75    2.17
  -4  -2  -3    2.33    0.56
  -4  -2  -3    1.81    0.45
  -4  -2  -3    1.44    0.58
  -4  -2  -3    1.50    0.40
   4   2   3    2.62    0.47
  -5  -1  -3    3.32    0.69
  -5  -1  -3    3.76    0.55
  -5  -1  -3    2.70    0.45
  -5  -1  -3    3.31    0.68
   5   1   3    3.91    0.55
  -6   0  -3    1.21    0.62
  -6   0  -3    1.54    0.40
  -6   0  -3    1.45    0.45
  -6   0  -3    2.00    0.65
   6   0   3    2.20    0.52
  -7   1  -3   11.40    1.27
  -7   1  -3   11.73    1.08
  -7   1  -3   10.11    1.16
   7  -1   3   11.29    1.02
  -8   2  -3   26.08    2.11
  -8   2  -3   26.94    1.96
  -8   2  -3   25.96    1.78
   8  -2   3   27.17    1.65
  -9   3  -3   20.93    1.60
  -9   3  -3   18.23    1.84
   9  -3   3   18.14    1.39
 -10   4  -3   20.72    1.81
 -10   4  -3   22.53    2.05
  10  -4   3   20.12    1.55
 -11   5  -3   20.29    2.09
   5 -12  -2    8.70    1.01
  -5  12   2    8.35    1.37
   4 -11  -2   14.04    1.32
  -4  11   2   15.74    1.75
   3 -10  -2    7.94    0.95
  -3  10   2    8.86    1.18
   2  -9  -2   -0.26    0.53
   2  -9  -2   -0.26    0.52
  -2   9   2   -0.33    0.66
   1  -8  -2    2.89    0.62
   1  -8  -2    2.19    0.64
   1  -8  -2    2.69    0.71
  -1   8   2    3.89    0.74
   0  -7  -2    2.54    0.64
   0  -7  -2    2.55    0.63
   0  -7  -2    2.77    0.54
   0   7   2    2.85    0.66
  -1  -6  -2   27.40    1.82
  -1  -6  -2   30.22    1.59
  -1  -6  -2   28.34    1.86
  -1  -6  -2   27.25    2.04
   1   6   2   28.26    2.04
  -2  -5  -2   99.93    6.00
  -2  -5  -2  102.05    4.56
  -2  -5  -2   99.75    5.21
  -2  -5  -2   97.35    5.21
  -2  -5  -2   94.68    5.21
  -3  -4  -2   67.33    3.08
  -3  -4  -2   64.42    4.01
  -3  -4  -2   62.61    3.49
  -3  -4  -2   62.73    3.53
  -4  -3  -2   41.70    2.47
  -4  -3  -2   38.54    2.33
  -4  -3  -2   44.77    2.07
  -4  -3  -2   38.34    2.67
  -5  -2  -2  112.08    4.88
  -5  -2  -2  104.38    5.56
  -5  -2  -2  103.26    5.61
  -5  -2  -2  100.64    6.41
   5   2   2  110.12    5.17
  -6  -1  -2  123.73    7.76
  -6  -1  -2  133.04    5.89
  -6  -1  -2  128.71    6.78
  -6  -1  -2  124.98    6.72
   6   1   2  136.55    6.27
  -7   0  -2   50.48    3.36
  -7   0  -2   49.74    2.90
  -7   0  -2   52.95    3.10
   7   0   2   53.46    2.72
  -8   1  -2   12.98    1.44
  -8   1  -2   15.40    1.47
  -8   1  -2   13.47    1.24
   8  -1   2   15.41    1.20
  -9   2  -2    8.26    0.97
  -9   2  -2    6.49    1.04
  -9   2  -2    8.74    1.21
   9  -2   2    7.07    0.89
 -10   3  -2    8.72    1.33
 -11   4  -2    0.50    0.99
 -12   5  -2    2.33    1.11
   4 -12  -1   15.84    1.39
   3 -11  -1   48.97    2.64
   2 -10  -1   33.72    1.94
   1  -9  -1   13.87    1.21
   1  -9  -1   11.62    1.10
  -1   9   1   14.98    1.16
   0  -8  -1   37.42    2.07
   0  -8  -1   40.07    2.35
   0   8   1   40.79    2.10
   0   8   1   38.60    2.65
  -1  -7  -1   80.91    4.52
  -1  -7  -1   83.42    4.46
  -1  -7  -1   82.82    3.94
   1   7   1   82.21    5.11
   1   7   1   88.58    3.96
  -2  -6  -1   39.88    2.46
  -2  -6  -1   42.09    2.44
  -2  -6  -1   39.63    2.68
  -2  -6  -1   40.30    2.42
  -2  -6  -1   41.17    2.12
   2   6   1   43.88    2.13
  -3  -5  -1    2.38    0.58
  -3  -5  -1    2.52    0.52
  -3  -5  -1    1.91    0.51
  -3  -5  -1    2.19    0.51
   3   5   1    2.12    0.44
  -4  -4  -1    1.29    0.53
  -4  -4  -1    0.55    0.43
  -4  -4  -1    0.81    0.42
  -4  -4  -1    1.11    0.44
   4   4   1    1.09    0.39
  -5  -3  -1    0.94    0.41
  -5  -3  -1    0.39    0.45
  -5  -3  -1    0.66    0.54
  -5  -3  -1    0.51    0.39
   5   3   1    0.49    0.38
  -6  -2  -1   13.22    1.11
  -6  -2  -1   10.26    1.21
  -6  -2  -1   11.52    1.17
  -6  -2  -1   12.65    0.95
  -7  -1  -1   52.09    3.54
  -7  -1  -1   55.39    3.09
  -7  -1  -1   57.98    3.27
   7   1   1   56.08    2.88
  -8   0  -1   39.20    2.86
  -8   0  -1   42.40    2.67
  -8   0  -1   42.96    2.51
   8   0   1   44.36    2.34
  -9   1  -1   15.59    1.56
  -9   1  -1   16.83    1.59
   9  -1   1   15.29    1.25
 -10   2  -1   25.91    2.19
 -11   3  -1   38.10    2.93
 -12   4  -1   16.81    1.92
   4 -13   0    3.01    0.84
   3 -12   0    1.36    0.72
  -3  12   0    1.39    0.65
   2 -11   0    2.09    0.67
  -2  11   0    2.63    0.60
   1 -10   0   13.05    1.15
  -1  10   0   13.16    1.15
   0  -9   0   16.44    1.35
   0  -9   0   16.21    1.21
   0   9   0   15.75    1.28
  -1  -8   0   47.61    2.46
  -1  -8   0   49.21    2.80
   1   8   0   47.80    2.47
  -2  -7   0  114.53    5.40
  -2  -7   0  118.11    6.11
   2   7   0  118.03    5.40
  -3  -6   0   73.99    4.14
  -3  -6   0   75.77    3.64
   3   6   0   78.63    3.64
  -4  -5   0   37.72    1.95
  -4  -5   0   35.51    2.31
  -4  -5   0   36.26    2.18
   4   5   0   36.19    1.95
  -5  -4   0   78.70    4.46
  -5  -4   0   78.14    4.38
  -5  -4   0   84.65    3.88
   5   4   0   85.59    3.90
  -6  -3   0   96.50    5.16
  -6  -3   0   94.42    4.44
   6   3   0   94.66    4.47
  -7  -2   0   25.96    1.91
  -7  -2   0   22.08    1.82
   7   2   0   26.43    1.53
  -8  -1   0    7.29    0.96
  -8  -1   0    8.18    1.09
   8   1   0    5.55    0.70
  -9   0   0    6.96    1.06
  -9   0   0    9.90    1.20
 -10   1   0    0.56    0.75
 -10   1   0   -0.51    0.79
 -11   2   0    6.70    1.25
 -12   3   0    7.03    1.31
  -3  13  -1   19.04    1.52
  -2  12  -1   18.63    1.48
   1 -11   1   15.59    1.29
  -1  11  -1   14.01    1.27
   0 -10   1   21.39    1.42
   0  10  -1   18.66    1.39
  -1  -9   1   25.12    1.53
  -1  -9   1   23.13    1.70
   1   9  -1   25.26    1.57
  -2  -8   1    4.77    0.76
  -2  -8   1    4.80    0.67
   2   8  -1    4.96    0.65
  -3  -7   1    2.13    0.64
  -3  -7   1    3.02    0.60
   3   7  -1    3.36    0.55
  -4  -6   1    6.01    0.85
  -4  -6   1    6.34    0.72
   4   6  -1    6.88    0.70
  -5  -5   1   12.17    1.02
  -5  -5   1   12.37    1.32
   5   5  -1   12.49    1.10
  -6  -4   1   46.64    2.90
  -6  -4   1   49.21    2.44
   6   4  -1   46.44    2.48
  -7  -3   1   83.49    4.62
   7   3  -1   81.96    3.97
  -8  -2   1   48.72    3.02
   8   2  -1   47.76    2.53
  -9  -1   1   24.51    2.00
   9   1  -1   25.15    1.64
 -10   0   1   38.02    2.56
  10   0  -1   35.39    2.17
 -11   1   1   36.75    2.57
 -12   2   1    9.83    1.42
  -2  13  -2    5.70    0.85
  -1  12  -2   20.10    1.54
   0  11  -2   43.37    2.38
  -1 -10   2   48.26    2.85
   1  10  -2   49.05    2.58
  -2  -9   2   45.43    2.73
  -2  -9   2   45.35    2.42
   2   9  -2   45.92    2.42
  -3  -8   2   59.76    3.52
  -3  -8   2   63.75    3.10
   3   8  -2   61.17    3.07
  -4  -7   2   65.70    3.76
  -4  -7   2   66.86    3.27
   4   7  -2   64.90    3.24
  -5  -6   2   42.48    2.22
  -5  -6   2   40.24    2.60
   5   6  -2   40.93    2.23
  -6  -5   2   23.54    1.86
  -6  -5   2   24.85    1.51
   6   5  -2   23.95    1.57
  -7  -4   2   15.13    1.45
   7   4  -2   12.96    1.22
  -8  -3   2    1.77    0.84
   8   3  -2    0.90    0.51
  -9  -2   2    2.22    0.89
   9   2  -2    1.75    0.56
 -10  -1   2    7.17    1.16
  10   1  -2    4.97    0.79
 -11   0   2    6.50    1.17
  11   0  -2    5.24    0.86
  12  -1  -2    8.05    1.02
  -2  14  -3   12.39    1.15
  -1  13  -3   11.93    1.11
   0  12  -3    2.13    0.65
   1  11  -3    0.29    0.56
  -2 -10   3    0.19    0.64
   2  10  -3    1.42    0.58
  -3  -9   3    2.12    0.73
   3   9  -3    2.95    0.62
  -4  -8   3   42.51    2.74
   4   8  -3   44.50    2.36
  -5  -7   3   63.59    3.66
   5   7  -3   62.28    3.17
  -6  -6   3   33.37    2.32
   6   6  -3   31.82    1.93
  -7  -5   3   34.88    2.44
   7   5  -3   34.25    2.02
  -8  -4   3   70.76    4.11
   8   4  -3   70.00    3.53
  -9  -3   3   53.18    3.37
   9   3  -3   55.05    2.88
 -10  -2   3   16.35    1.80
  10   2  -3   17.82    1.52
 -11  -1   3    5.62    1.10
  11   1  -3    6.80    0.92
 -12   0   3    6.52    1.13
  12   0  -3    6.11    0.95
  -1  14  -4   22.47    1.68
   0  13  -4   25.69    1.73
   1  12  -4   24.28    1.71
   2  11  -4   36.28    2.12
  -3 -10   4   46.62    2.91
   3  10  -4   47.00    2.51
  -4  -9   4   33.10    2.31
   4   9  -4   31.67    1.94
  -5  -8   4    7.33    1.10
  -5  -8   4    7.05    0.92
   5   8  -4    8.47    0.89
  -6  -7   4    1.76    0.82
   6   7  -4    2.80    0.61
  -7  -6   4    2.94    0.92
   7   6  -4    3.26    0.65
  -8  -5   4    2.13    0.89
   8   5  -4    1.46    0.57
  -9  -4   4   18.05    1.87
   9   4  -4   20.04    1.56
 -10  -3   4   11.51    1.45
  10   3  -4   10.05    1.04
 -11  -2   4   10.72    1.40
  11   2  -4    7.20    0.95
   1  13  -5    0.97    0.62
   2  12  -5    2.40    0.67
  -3 -11   5   31.88    2.26
   3  11  -5   32.05    1.94
  -4 -10   5   48.76    3.15
   4  10  -5   52.10    2.69
  -5  -9   5   15.81    1.58
   5   9  -5   15.92    1.36
  -6  -8   5   19.86    1.85
   6   8  -5   19.19    1.49
  -7  -7   5   73.42    4.39
   7   7  -5   77.51    3.78
  -8  -6   5   66.66    3.90
   8   6  -5   62.00    3.29
  -9  -5   5   15.88    1.69
   9   5  -5   17.16    1.47
 -10  -4   5    5.65    1.20
  10   4  -5    3.71    0.75
 -11  -3   5    4.37    1.12
  11   3  -5    4.00    0.81
   2  13  -6   19.19    1.48
   3  12  -6   21.60    1.56
  -4 -11   6    9.69    1.27
   4  11  -6    9.51    0.95
  -5 -10   6    2.07    0.94
   5  10  -6    0.58    0.58
  -6  -9   6    1.28    0.90
   6   9  -6    0.64    0.56
  -7  -8   6    4.83    1.11
   7   8  -6    3.45    0.70
  -8  -7   6   12.02    1.51
   8   7  -6   11.00    1.05
  -9  -6   6   21.31    2.00
   9   6  -6   21.08    1.61
 -10  -5   6   14.32    1.66
  10   5  -6   15.39    1.43
   4  12  -7   26.10    1.70
  -5 -11   7   22.46    2.01
   5  11  -7   21.85    1.54
  -6 -10   7   23.26    2.04
   6  10  -7   19.84    1.49
  -7  -9   7   30.03    2.42
   7   9  -7   31.78    1.91
  -8  -8   7   19.13    2.00
   8   8  -7   20.58    1.51
  -9  -7   7    7.56    1.31
   9   7  -7    5.07    0.78
   3   2 -15    5.25    1.20
   2   3 -15   19.52    1.89
   1   4 -15   12.69    1.38
   4   0 -14    7.90    1.27
  -4   0  14    6.46    1.18
   3   1 -14    3.88    1.09
  -3  -1  14    3.94    1.03
   2   2 -14   11.92    1.47
  -2  -2  14   11.68    1.47
   1   3 -14   28.18    2.23
   1   3 -14   33.27    2.65
  -1  -3  14   31.30    2.54
   0   4 -14   28.97    2.12
   0   4 -14   31.21    2.62
  -1   5 -14   17.67    2.06
  -2   6 -14   21.43    2.28
  -3   7 -14   30.61    2.81
   5  -2 -13   13.96    1.57
   5  -2 -13   16.37    1.43
  -5   2  13   13.38    1.63
   4  -1 -13   10.99    1.43
   4  -1 -13   12.87    1.16
  -4   1  13   11.49    1.49
   3   0 -13   10.58    1.36
  -3   0  13    9.97    1.35
   2   1 -13   10.48    1.35
  -2  -1  13   11.88    1.45
   1   2 -13    7.01    1.31
   1   2 -13    4.59    1.09
  -1  -2  13    7.23    1.23
   0   3 -13   -0.23    0.74
   0   3 -13    0.18    0.88
  -1   4 -13    2.99    1.03
  -2   5 -13    5.28    1.21
  -3   6 -13   10.80    1.63
  -4   7 -13   19.17    2.20
  -5   8 -13   20.87    2.37
   5  -3 -12    4.04    0.90
   5  -3 -12    3.01    1.03
  -5   3  12    2.32    0.94
   4  -2 -12   10.77    1.40
   4  -2 -12   13.25    1.23
  -4   2  12   11.85    1.47
   3  -1 -12   23.56    1.53
   3  -1 -12   21.20    1.91
  -3   1  12   20.73    1.94
   2   0 -12   31.78    2.34
  -2   0  12   34.10    2.55
   1   1 -12   40.34    3.01
   1   1 -12   37.43    2.63
  -1  -1  12   42.27    2.94
   0   2 -12   32.29    2.29
   0   2 -12   32.18    2.59
  -1   3 -12   27.92    2.04
  -1   3 -12   30.68    2.44
  -2   4 -12   33.51    2.68
  -3   5 -12   16.80    1.91
  -4   6 -12    1.87    1.02
  -5   7 -12    1.25    1.05
  -6   8 -12   -0.27    0.69
  -6   8 -12    0.07    1.04
   6  -8  12    0.27    0.54
   6  -5 -11   19.95    1.84
   6  -5 -11   17.26    1.71
  -6   5  11   17.15    1.82
   5  -4 -11   18.51    1.58
   5  -4 -11   16.04    1.72
  -5   4  11   15.54    1.74
   4  -3 -11   12.56    1.26
   4  -3 -11   10.15    1.35
  -4   3  11   11.74    1.49
   3  -2 -11    6.53    0.85
   3  -2 -11    4.60    1.07
  -3   2  11    6.96    1.15
   2  -1 -11    1.15    0.57
   2  -1 -11    1.81    0.85
  -2   1  11    0.66    0.78
   1   0 -11    0.59    0.78
   1   0 -11    0.82    0.81
   0   1 -11    2.25    0.85
   0   1 -11    3.33    0.93
  -1   2 -11   18.37    1.81
  -1   2 -11   16.84    1.61
  -2   3 -11   17.54    1.53
  -2   3 -11   19.27    1.86
  -3   4 -11   22.95    2.07
  -4   5 -11   42.98    3.16
  -5   6 -11   22.01    1.54
  -6   7 -11   10.39    1.17
   6  -7  11   13.41    1.00
  -7   8 -11    5.67    1.08
  -7   8 -11   10.79    1.71
   6  -6 -10    2.13    1.02
   6  -6 -10    1.91    0.97
  -6   6  10    2.10    1.00
   5  -5 -10    7.41    1.18
   5  -5 -10    7.09    1.10
  -5   5  10    5.93    1.17
   4  -4 -10   37.17    2.38
   4  -4 -10   37.34    2.54
  -4   4  10   35.37    2.72
   3  -3 -10   41.74    2.55
   3  -3 -10   42.34    2.76
  -3   3  10   43.19    3.03
   2  -2 -10   17.59    1.64
   2  -2 -10   18.28    1.34
  -2   2  10   16.97    1.72
   1  -1 -10   31.77    2.52
   1  -1 -10   33.66    1.97
   1  -1 -10   30.08    2.25
  -1   1  10   35.40    2.54
   0   0 -10   70.30    4.30
   0   0 -10   83.78    4.09
   0   0 -10   75.99    4.99
  -1   1 -10   53.47    3.20
  -1   1 -10   52.48    2.88
  -1   1 -10   56.89    3.69
  -2   2 -10    9.69    1.30
  -2   2 -10   13.16    1.39
  -3   3 -10    0.57    0.75
  -3   3 -10    0.99    0.65
  -4   4 -10    0.18    0.81
  -4   4 -10    0.02    0.45
  -5   5 -10    0.18    0.52
  -5   5 -10    0.83    0.87
   5  -5  10    0.99    0.43
  -6   6 -10    1.88    0.71
  -6   6 -10    2.66    1.05
   6  -6  10    3.56    0.61
  -7   7 -10   13.87    1.72
  -7   7 -10    7.60    1.10
   7  -7  10    9.93    0.95
  -8   8 -10    5.47    1.36
  -8   8 -10    3.58    1.03
   6  -7  -9    3.76    1.16
   6  -7  -9    4.22    1.09
  -6   7   9    5.60    1.22
   5  -6  -9   13.79    1.47
   5  -6  -9   14.81    1.52
  -5   6   9   13.55    1.61
   4  -5  -9   12.95    1.38
   4  -5  -9   12.90    1.39
  -4   5   9   12.11    1.51
   3  -4  -9    0.39    0.68
   3  -4  -9    0.71    0.80
  -3   4   9    0.33    0.69
   2  -3  -9    7.11    1.08
   2  -3  -9    7.44    0.88
  -2   3   9    8.75    1.18
   1  -2  -9    5.65    1.07
   1  -2  -9    3.96    0.89
   1  -2  -9    5.40    0.72
  -1   2   9    6.52    1.08
   0  -1  -9   11.87    1.27
   0  -1  -9   13.18    1.53
   0  -1  -9   13.29    1.04
  -1   0  -9   59.23    3.58
  -1   0  -9   64.52    4.14
  -1   0  -9   64.54    3.37
  -2   1  -9   66.27    3.51
  -2   1  -9   63.18    3.74
  -2   1  -9   69.49    4.32
  -3   2  -9   25.03    2.04
  -3   2  -9   22.63    1.48
  -3   2  -9   27.03    1.86
  -4   3  -9   43.55    3.09
  -5   4  -9   51.50    2.83
   5  -4   9   49.19    2.55
  -6   5  -9   22.54    1.68
   6  -5   9   24.78    1.44
  -7   6  -9    9.91    1.43
  -7   6  -9    4.45    0.96
   7  -6   9    7.04    0.79
  -8   7  -9    3.98    1.18
  -8   7  -9    2.54    0.91
   8  -7   9    5.32    0.79
  -9   8  -9    0.84    1.17
  -9   8  -9    1.37    0.96
   6  -8  -8    6.41    1.13
   6  -8  -8    7.35    1.30
  -6   8   8    5.96    1.27
   5  -7  -8   16.86    1.69
   5  -7  -8   16.36    1.67
  -5   7   8   17.40    1.76
   4  -6  -8   41.38    2.77
   4  -6  -8   44.07    2.80
  -4   6   8   46.34    3.15
   3  -5  -8   38.52    2.53
   3  -5  -8   39.43    2.62
  -3   5   8   43.35    2.92
   2  -4  -8   18.95    1.46
   2  -4  -8   17.17    1.66
  -2   4   8   21.33    1.74
   1  -3  -8   36.09    2.20
   1  -3  -8   34.72    2.38
   1  -3  -8   36.58    2.70
  -1   3   8   38.36    2.69
   0  -2  -8   74.96    4.63
   0  -2  -8   70.42    3.83
   0  -2  -8   67.83    3.99
  -1  -1  -8   19.71    1.65
  -1  -1  -8   20.94    1.78
  -1  -1  -8   20.58    1.32
  -1  -1  -8   21.17    1.32
   1   1   8   16.67    1.08
  -2   0  -8    0.57    0.39
  -2   0  -8    1.03    0.67
  -2   0  -8    0.32    0.64
  -3   1  -8    0.14    0.36
  -3   1  -8    0.63    0.66
  -3   1  -8    0.27    0.66
  -4   2  -8   -0.18    0.66
  -4   2  -8   -0.17    0.39
  -4   2  -8    0.51    0.70
   4  -2   8    0.34    0.38
  -5   3  -8   15.18    1.55
  -5   3  -8   12.71    1.09
   5  -3   8   12.83    0.95
  -6   4  -8   32.90    2.13
  -6   4  -8   40.02    2.66
   6  -4   8   31.96    1.90
  -7   5  -8   21.82    1.91
  -7   5  -8   15.50    1.49
   7  -5   8   17.18    1.27
  -8   6  -8    5.83    1.08
  -8   6  -8   11.20    1.53
   8  -6   8    7.12    0.87
  -9   7  -8    9.91    1.39
   9  -7   8   12.89    1.20
   6  -9  -7    5.82    0.79
   6  -9  -7    3.65    1.19
  -6   9   7    4.72    1.18
   5  -8  -7    3.95    1.06
   5  -8  -7    2.00    0.92
   5  -8  -7    4.65    0.71
  -5   8   7    2.44    0.98
   4  -7  -7   -0.03    0.83
   4  -7  -7    0.53    0.53
   4  -7  -7   -0.21    0.75
  -4   7   7   -0.17    0.74
   3  -6  -7    6.41    0.99
   3  -6  -7    6.37    0.99
   3  -6  -7    4.50    0.62
  -3   6   7    5.07    1.00
   2  -5  -7   11.76    1.24
   2  -5  -7   12.07    1.22
  -2   5   7   13.39    1.41
   1  -4  -7   21.66    1.54
   1  -4  -7   20.20    1.71
  -1   4   7   21.33    1.82
   0  -3  -7   48.65    3.01
   0  -3  -7   52.80    3.45
   0  -3  -7   50.29    2.87
  -1  -2  -7   87.20    4.69
  -1  -2  -7   80.70    4.53
  -1  -2  -7   89.44    5.40
  -2  -1  -7   71.26    4.04
  -2  -1  -7   70.85    4.60
  -2  -1  -7   71.38    3.86
   2   1   7   76.28    3.55
  -3   0  -7   51.36    2.88
  -3   0  -7   51.69    3.08
  -3   0  -7   53.12    3.51
   3   0   7   53.92    2.62
  -4   1  -7   58.78    3.86
  -4   1  -7   56.92    3.35
  -4   1  -7   58.05    3.19
   4  -1   7   60.59    2.94
  -5   2  -7   55.13    3.00
  -5   2  -7   57.72    3.66
  -5   2  -7   57.31    3.21
   5  -2   7   49.41    2.76
  -6   3  -7   19.10    1.70
  -6   3  -7   18.49    1.33
   6  -3   7   14.63    1.17
  -7   4  -7    1.90    0.90
  -7   4  -7    2.10    0.66
   7  -4   7    2.20    0.60
  -8   5  -7    1.16    0.96
  -8   5  -7    0.47    0.71
   8  -5   7    0.78    0.62
  -9   6  -7    0.56    0.84
  -9   6  -7   -0.36    0.99
   9  -6   7    0.73    0.68
 -10   7  -7    3.40    1.13
 -10   7  -7    0.93    1.13
   5  -9  -6   23.42    1.54
   5  -9  -6   21.14    1.97
  -5   9   6   21.76    2.07
   4  -8  -6   23.39    1.89
   4  -8  -6   26.91    1.61
   4  -8  -6   22.60    1.94
  -4   8   6   25.05    2.10
   3  -7  -6   27.78    2.00
   3  -7  -6   24.27    1.94
   3  -7  -6   26.27    1.63
  -3   7   6   29.44    2.20
   2  -6  -6   32.05    2.16
   2  -6  -6   34.37    2.22
   2  -6  -6   31.24    1.79
  -2   6   6   35.39    2.46
   1  -5  -6   21.12    1.65
   1  -5  -6   19.11    1.25
   1  -5  -6   19.13    1.51
  -1   5   6   22.35    1.78
   0  -4  -6    8.11    0.71
   0  -4  -6    8.52    1.11
   0  -4  -6    7.67    0.99
   0  -4  -6    9.20    0.93
  -1  -3  -6    5.85    0.93
  -1  -3  -6    6.69    0.77
  -1  -3  -6    5.41    0.86
  -1  -3  -6    5.21    0.54
  -2  -2  -6    0.35    0.43
  -2  -2  -6   -0.20    0.61
  -2  -2  -6    0.27    0.61
   2   2   6    0.00    0.37
  -3  -1  -6   15.63    1.47
  -3  -1  -6   16.90    1.53
  -3  -1  -6   15.57    1.17
   3   1   6   16.07    1.02
  -4   0  -6   32.69    1.94
  -4   0  -6   30.50    2.20
  -4   0  -6   33.72    2.41
   4   0   6   33.52    1.76
  -5   1  -6   29.46    2.11
  -5   1  -6   30.95    2.32
  -5   1  -6   31.24    1.86
   5  -1   6   30.02    1.71
  -6   2  -6   32.85    1.97
  -6   2  -6   32.94    2.43
   6  -2   6   31.03    1.82
  -7   3  -6   47.21    3.02
  -7   3  -6   41.74    2.02
  -7   3  -6   41.91    2.46
   7  -3   6   36.27    2.27
  -8   4  -6   37.99    2.47
  -8   4  -6   38.59    1.95
  -8   4  -6   47.48    3.00
   8  -4   6   34.39    2.22
  -9   5  -6   26.73    2.18
  -9   5  -6   20.01    1.85
   9  -5   6   20.89    1.58
 -10   6  -6    9.68    1.35
 -10   6  -6   11.67    1.65
  10  -6   6    9.38    1.10
   5 -10  -5    0.71    0.69
  -5  10   5    1.38    0.93
   4  -9  -5   -0.04    0.86
   4  -9  -5    0.52    0.76
   4  -9  -5   -0.18    0.62
  -4   9   5   -0.23    0.83
   3  -8  -5    7.73    1.02
   3  -8  -5    7.03    0.84
   3  -8  -5    6.36    1.07
  -3   8   5    6.45    1.08
   2  -7  -5   34.33    1.96
   2  -7  -5   36.64    2.29
   2  -7  -5   33.79    2.30
  -2   7   5   36.58    2.58
   1  -6  -5   49.81    2.94
   1  -6  -5   45.04    2.51
   1  -6  -5   53.20    2.96
  -1   6   5   52.14    3.33
   0  -5  -5   58.44    3.28
   0  -5  -5   60.78    3.83
   0  -5  -5   53.62    2.82
   0  -5  -5   59.64    3.33
   0   5   5   58.25    3.78
  -1  -4  -5   74.04    4.07
  -1  -4  -5   76.02    4.70
  -1  -4  -5   74.74    4.03
  -1  -4  -5   71.19    3.47
  -2  -3  -5   80.80    3.68
  -2  -3  -5   81.54    4.25
  -2  -3  -5   80.02    4.97
  -2  -3  -5   74.55    4.23
  -2  -3  -5   79.71    4.35
  -3  -2  -5   76.10    3.51
  -3  -2  -5   73.61    4.75
  -3  -2  -5   76.06    4.06
  -3  -2  -5   75.11    4.20
   3   2   5   78.13    3.75
  -4  -1  -5   42.34    2.54
  -4  -1  -5   46.44    2.78
  -4  -1  -5   46.22    2.19
  -4  -1  -5   46.22    3.06
   4   1   5   44.51    2.35
  -5   0  -5   16.93    1.04
  -5   0  -5   16.50    1.58
  -5   0  -5   16.37    1.26
  -5   0  -5   18.61    1.60
   5   0   5   16.87    1.13
  -6   1  -5    7.03    1.06
  -6   1  -5    9.00    0.94
  -6   1  -5    8.74    1.12
  -6   1  -5    7.76    0.71
   6  -1   5    7.37    0.76
  -7   2  -5    0.49    0.74
  -7   2  -5    0.61    0.74
  -7   2  -5    0.96    0.39
  -7   2  -5    1.16    0.56
   7  -2   5    1.38    0.58
  -8   3  -5    0.72    0.60
  -8   3  -5    1.09    0.43
  -8   3  -5    1.48    0.87
   8  -3   5    0.54    0.63
  -9   4  -5    6.71    1.25
  -9   4  -5    3.91    0.91
   9  -4   5    4.78    0.83
 -10   5  -5    6.99    1.14
 -10   5  -5    5.35    1.24
  10  -5   5    6.41    0.94
 -11   6  -5    8.61    1.36
 -11   6  -5    9.71    1.53
  11  -6   5    9.95    1.10
   5 -11  -4   10.06    1.10
  -5  11   4   10.87    1.51
   4 -10  -4   22.61    1.58
  -4  10   4   23.90    2.10
   3  -9  -4   30.01    2.25
   3  -9  -4   31.58    2.11
   3  -9  -4   30.89    1.87
  -3   9   4   32.08    2.42
   2  -8  -4   13.57    1.19
   2  -8  -4   14.71    1.37
   2  -8  -4   12.46    1.39
  -2   8   4   14.87    1.51
   1  -7  -4    0.94    0.65
   1  -7  -4    0.30    0.66
   1  -7  -4    1.30    0.54
  -1   7   4    0.81    0.64
   0  -6  -4    0.36    0.46
   0  -6  -4    0.28    0.57
   0  -6  -4   -0.20    0.57
   0   6   4    0.20    0.59
  -1  -5  -4    0.39    0.58
  -1  -5  -4    0.47    0.54
  -1  -5  -4   -0.18    0.56
  -1  -5  -4    0.72    0.44
  -2  -4  -4   12.47    1.31
  -2  -4  -4   12.49    0.93
  -2  -4  -4   12.19    1.11
  -2  -4  -4   11.57    1.03
  -2  -4  -4    9.61    1.08
  -3  -3  -4   69.55    3.34
  -3  -3  -4   70.58    4.48
  -3  -3  -4   72.22    3.86
  -3  -3  -4   73.71    3.96
  -4  -2  -4   40.96    2.45
  -4  -2  -4   42.66    2.61
  -4  -2  -4   43.08    2.88
  -4  -2  -4   43.12    2.12
   4   2   4   43.89    2.26
  -5  -1  -4   28.02    2.11
  -5  -1  -4   28.23    2.01
  -5  -1  -4   26.28    1.74
  -5  -1  -4   26.59    1.48
   5   1   4   28.93    1.60
  -6   0  -4   85.35    4.52
  -6   0  -4   84.93    5.29
  -6   0  -4   83.53    3.92
  -6   0  -4   85.23    4.66
   6   0   4   84.23    4.21
  -7   1  -4  104.15    5.22
  -7   1  -4   99.24    6.08
  -7   1  -4   93.07    4.52
   7  -1   4   96.22    4.87
  -8   2  -4   32.71    2.47
  -8   2  -4   33.41    2.11
   8  -2   4   32.39    1.95
  -9   3  -4    8.79    1.07
  -9   3  -4   10.06    1.39
   9  -3   4    8.67    0.98
 -10   4  -4    8.48    1.19
 -10   4  -4   10.54    1.50
  10  -4   4    9.23    1.05
 -11   5  -4   10.54    1.60
 -11   5  -4    8.43    1.29
   4 -11  -3    3.41    0.80
  -4  11   3    3.25    1.05
   3 -10  -3   12.62    1.20
  -3  10   3   12.41    1.57
   2  -9  -3   60.23    3.58
   2  -9  -3   56.41    3.05
   2  -9  -3   58.58    3.40
  -2   9   3   65.84    3.98
   1  -8  -3   49.69    2.72
   1  -8  -3   43.87    2.78
   1  -8  -3   42.56    2.37
  -1   8   3   46.71    3.09
   0  -7  -3   19.70    1.31
   0  -7  -3   20.03    1.53
   0  -7  -3   19.28    1.51
   0   7   3   20.28    1.66
  -1  -6  -3   60.65    3.93
  -1  -6  -3   58.17    2.97
  -1  -6  -3   64.07    3.46
  -1  -6  -3   59.90    3.45
   1   6   3   63.45    3.92
  -2  -5  -3  116.59    6.31
  -2  -5  -3  119.11    6.32
  -2  -5  -3  122.22    5.50
  -2  -5  -3  124.00    6.30
  -2  -5  -3  119.80    7.28
  -3  -4  -3   54.91    3.10
  -3  -4  -3   51.96    3.00
  -3  -4  -3   53.74    3.47
  -3  -4  -3   54.34    2.63
  -4  -3  -3    4.74    0.79
  -4  -3  -3    3.82    0.54
  -4  -3  -3    3.81    0.61
  -4  -3  -3    4.37    0.75
  -5  -2  -3   -0.23    0.40
  -5  -2  -3   -0.14    0.51
  -5  -2  -3    0.04    0.37
  -5  -2  -3   -0.63    0.55
   5   2   3    1.20    0.49
  -6  -1  -3    1.53    0.67
  -6  -1  -3    1.46    0.42
  -6  -1  -3    0.96    0.67
  -6  -1  -3    0.87    0.48
   6   1   3    0.80    0.51
  -7   0  -3    0.35    0.41
  -7   0  -3    0.96    0.48
  -7   0  -3    0.06    0.65
  -7   0  -3    0.54    0.66
   7   0   3    0.34    0.54
  -8   1  -3   19.02    1.50
  -8   1  -3   18.26    1.67
  -8   1  -3   20.23    1.75
   8  -1   3   20.36    1.40
  -9   2  -3   22.52    1.96
  -9   2  -3   22.26    1.66
   9  -2   3   20.67    1.52
 -10   3  -3   13.06    1.59
 -10   3  -3    9.80    1.18
  10  -3   3    9.56    1.07
 -11   4  -3   17.63    1.93
   4 -12  -2    9.25    1.06
   3 -11  -2    9.39    1.04
   2 -10  -2    3.50    0.76
  -2  10   2    4.00    0.94
   1  -9  -2    0.65    0.56
   1  -9  -2    0.99    0.63
  -1   9   2    0.60    0.69
   0  -8  -2    5.97    0.84
   0  -8  -2    7.20    0.78
   0  -8  -2    5.95    0.88
   0   8   2    7.39    0.94
  -1  -7  -2   11.48    1.16
  -1  -7  -2   12.53    1.00
  -1  -7  -2   11.10    1.19
   1   7   2   11.02    1.25
  -2  -6  -2   36.37    2.33
  -2  -6  -2   37.41    2.31
  -2  -6  -2   36.39    2.57
  -2  -6  -2   39.85    1.99
  -2  -6  -2   38.77    2.30
  -3  -5  -2   87.24    5.37
  -3  -5  -2   87.80    4.72
  -3  -5  -2   90.84    4.11
  -3  -5  -2   84.19    4.69
  -4  -4  -2   55.94    3.23
  -4  -4  -2   58.02    2.78
  -4  -4  -2   56.03    3.16
  -4  -4  -2   55.67    3.61
  -5  -3  -2   33.39    2.26
  -5  -3  -2   34.23    2.13
  -5  -3  -2   36.07    2.45
  -5  -3  -2   35.55    1.86
  -6  -2  -2   91.37    5.80
  -6  -2  -2   91.59    5.03
  -6  -2  -2   97.81    4.41
  -6  -2  -2   97.57    5.15
  -7  -1  -2   94.48    5.19
  -7  -1  -2   88.74    5.83
  -7  -1  -2   95.51    5.06
  -7  -1  -2   98.91    4.44
   7   1   2   96.49    4.70
  -8   0  -2   22.49    1.81
  -8   0  -2   21.00    1.60
  -8   0  -2   20.03    1.79
   8   0   2   21.15    1.44
  -9   1  -2    7.11    0.92
  -9   1  -2    9.14    1.22
  -9   1  -2    7.68    1.14
   9  -1   2    8.02    0.93
 -10   2  -2   10.55    1.44
 -11   3  -2    0.93    0.99
 -12   4  -2    0.75    1.05
   3 -12  -1   19.75    1.54
   2 -11  -1   33.71    2.04
   1 -10  -1   28.55    1.80
   1 -10  -1   30.58    1.97
   0  -9  -1   26.24    1.66
   0  -9  -1   28.66    1.88
  -1  -8  -1   47.26    2.39
  -1  -8  -1   44.20    2.69
  -2  -7  -1   36.68    2.33
  -2  -7  -1   38.67    2.03
  -3  -6  -1    6.12    0.78
  -3  -6  -1    6.72    0.73
  -3  -6  -1    5.68    0.80
   3   6   1    6.39    0.66
  -4  -5  -1   -0.19    0.43
  -4  -5  -1    0.51    0.54
  -4  -5  -1    0.61    0.47
  -5  -4  -1    0.46    0.45
  -5  -4  -1    0.45    0.45
  -5  -4  -1    0.43    0.56
  -6  -3  -1    6.38    0.69
  -6  -3  -1    5.65    0.76
  -6  -3  -1    6.32    0.95
  -6  -3  -1    7.65    0.93
  -7  -2  -1   29.11    2.26
  -7  -2  -1   31.88    1.74
  -7  -2  -1   32.09    2.01
  -7  -2  -1   31.86    2.23
  -8  -1  -1   39.56    2.61
  -8  -1  -1   38.07    2.68
  -9   0  -1   26.60    2.10
  -9   0  -1   25.88    2.04
 -10   1  -1   18.90    1.83
 -10   1  -1   18.62    1.76
 -11   2  -1   23.52    2.13
 -12   3  -1   21.03    2.07
   3 -13   0    0.18    0.72
   2 -12   0    0.26    0.68
  -2  12   0    0.36    0.60
   1 -11   0    1.77    0.69
  -1  11   0    2.37    0.63
   0 -10   0   13.75    1.27
   0 -10   0   17.19    1.41
   0  10   0   18.67    1.32
  -1  -9   0   37.12    2.09
  -1  -9   0   36.52    2.34
   1   9   0   39.81    2.10
  -2  -8   0   41.61    2.60
  -2  -8   0   42.49    2.27
   2   8   0   44.09    2.28
  -3  -7   0   57.48    2.88
  -3  -7   0   55.86    3.30
   3   7   0   58.38    2.89
  -4  -6   0   84.58    4.66
  -4  -6   0   82.60    4.08
   4   6   0   88.84    4.08
  -5  -5   0   74.36    4.27
  -5  -5   0   75.33    3.70
   5   5   0   80.21    3.73
  -6  -4   0   42.19    2.75
  -6  -4   0   43.79    2.29
   6   4   0   44.93    2.34
  -7  -3   0   29.93    1.71
  -7  -3   0   28.19    2.17
   7   3   0   30.51    1.78
  -8  -2   0   19.58    1.80
  -9  -1   0    8.02    1.19
 -10   0   0   -0.46    0.77
 -10   0   0   -0.80    0.75
 -11   1   0    1.71    0.94
 -12   2   0    2.30    1.02
  -2  13  -1   16.05    1.31
  -1  12  -1   30.57    1.96
   0 -11   1   23.87    1.64
   0  11  -1   25.14    1.68
  -1 -10   1    5.78    0.81
  -1 -10   1    3.12    0.74
   1  10  -1    6.00    0.78
  -2  -9   1    2.73    0.73
  -2  -9   1    3.02    0.68
   2   9  -1    3.94    0.65
  -3  -8   1    5.01    0.87
  -3  -8   1    6.30    0.78
   3   8  -1    7.34    0.76
  -4  -7   1    0.78    0.63
  -4  -7   1    1.29    0.59
   4   7  -1    1.46    0.49
  -5  -6   1   30.37    2.18
  -5  -6   1   32.72    1.85
   5   6  -1   31.40    1.88
  -6  -5   1   34.14    1.93
  -6  -5   1   34.72    2.36
   6   5  -1   34.47    1.99
  -7  -4   1   21.41    1.39
  -7  -4   1   20.84    1.84
   7   4  -1   20.66    1.47
  -8  -3   1   33.74    2.46
   8   3  -1   34.74    2.01
  -9  -2   1   61.52    3.75
   9   2  -1   63.20    3.21
 -10  -1   1   43.00    2.87
 -11   0   1   14.03    1.57
  -1  13  -2    9.13    1.02
   0  12  -2   32.87    2.06
   1  11  -2   30.43    1.93
  -2 -10   2   32.85    2.25
   2  10  -2   33.59    1.98
  -3  -9   2   62.39    3.72
   3   9  -2   67.16    3.28
  -4  -8   2   67.78    3.41
  -4  -8   2   67.75    3.90
   4   8  -2   67.79    3.40
  -5  -7   2   35.40    2.36
  -5  -7   2   34.10    1.99
   5   7  -2   32.99    2.01
  -6  -6   2   15.02    1.57
  -6  -6   2   16.28    1.25
   6   6  -2   14.53    1.33
  -7  -5   2   18.78    1.29
  -7  -5   2   17.04    1.73
   7   5  -2   15.22    1.38
  -8  -4   2   10.06    1.30
  -8  -4   2    7.55    0.83
   8   4  -2    7.20    0.84
  -9  -3   2    0.90    0.90
   9   3  -2    1.49    0.58
 -10  -2   2    7.22    1.26
  10   2  -2    5.13    0.83
 -11  -1   2    1.35    0.92
  11   1  -2    1.82    0.72
 -12   0   2    4.34    1.05
  12   0  -2    3.71    0.87
   0  13  -3    2.00    0.73
   1  12  -3    1.01    0.65
  -2 -11   3   -0.15    0.69
   2  11  -3    0.08    0.58
  -3 -10   3   -0.31    0.69
   3  10  -3    0.47    0.56
  -4  -9   3   21.57    1.79
   4   9  -3   19.67    1.51
  -5  -8   3   48.38    3.04
   5   8  -3   47.96    2.61
  -6  -7   3   16.97    1.69
   6   7  -3   17.07    1.42
  -7  -6   3   21.46    1.92
   7   6  -3   20.89    1.57
  -8  -5   3   77.78    4.49
   8   5  -3   74.63    3.81
  -9  -4   3   64.12    4.04
   9   4  -3   69.25    3.47
 -10  -3   3   17.36    1.73
  10   3  -3   11.64    1.15
 -11  -2   3    6.37    1.27
  11   2  -3    3.05    0.80
   1  13  -4   19.42    1.61
   2  12  -4   19.99    1.57
  -3 -11   4   39.02    2.60
   3  11  -4   39.43    2.31
  -4 -10   4   39.14    2.64
   4  10  -4   38.73    2.26
  -5  -9   4   16.30    1.68
   5   9  -4   17.46    1.45
  -6  -8   4    3.41    0.98
   6   8  -4    3.31    0.70
  -7  -7   4   -0.52    0.80
   7   7  -4   -0.20    0.51
  -8  -6   4    1.72    0.97
   8   6  -4    1.18    0.61
  -9  -5   4    4.57    1.19
   9   5  -4    3.61    0.73
 -10  -4   4   11.43    1.56
  10   4  -4    8.33    0.98
 -11  -3   4   12.31    1.60
  11   3  -4   10.56    1.13
   2  13  -5    5.37    0.85
   3  12  -5   15.20    1.26
  -4 -11   5   22.66    1.95
   4  11  -5   23.65    1.73
  -5 -10   5   25.11    2.16
   5  10  -5   27.82    1.80
  -6  -9   5   22.49    2.03
   6   9  -5   23.32    1.67
  -7  -8   5   30.07    2.35
   7   8  -5   29.43    1.94
  -8  -7   5   48.60    3.25
   8   7  -5   49.55    2.72
  -9  -6   5   29.94    2.48
   9   6  -5   30.86    2.00
 -10  -5   5    7.99    1.43
  10   5  -5    6.16    0.89
   4  12  -6    7.80    0.93
  -5 -11   6    3.04    1.03
   5  11  -6    4.04    0.78
  -6 -10   6    1.82    0.98
   6  10  -6    0.93    0.62
  -7  -9   6    3.24    1.11
   7   9  -6    1.87    0.69
  -8  -8   6    9.86    1.45
   8   8  -6    7.55    0.95
  -9  -7   6   10.96    1.52
   9   7  -6    9.51    1.03
   2   2 -15   11.29    1.50
  -2  -2  15   11.08    1.49
   1   3 -15   13.42    1.48
  -1  -3  15   12.04    1.64
   0   4 -15    4.51    1.26
  -1   5 -15    0.21    1.07
  -2   6 -15    1.07    1.19
   3   0 -14    6.19    1.25
  -3   0  14    6.03    1.21
   2   1 -14   11.62    1.48
  -2  -1  14   12.04    1.54
   1   2 -14   18.64    2.09
   1   2 -14   18.26    1.92
  -1  -2  14   18.89    1.99
   0   3 -14   26.43    2.13
   0   3 -14   28.57    2.50
  -1   4 -14   23.22    2.34
  -2   5 -14   21.57    2.33
  -3   6 -14   23.15    2.42
  -4   7 -14   13.43    1.93
   4  -2 -13   21.91    1.55
   4  -2 -13   18.99    1.94
  -4   2  13   16.47    1.86
   3  -1 -13   10.76    1.49
   3  -1 -13   15.83    1.24
  -3   1  13   14.89    1.66
   2   0 -13    6.51    1.21
  -2   0  13    8.26    1.29
   1   1 -13    3.52    1.04
   1   1 -13    1.85    1.03
  -1  -1  13    1.86    1.02
   0   2 -13    0.59    0.90
   0   2 -13    0.57    0.95
  -1   3 -13    0.79    1.00
  -1   3 -13   -0.58    0.78
  -2   4 -13    5.26    1.34
  -3   5 -13   14.03    1.82
  -4   6 -13   12.72    1.83
  -5   7 -13   18.75    2.23
   5  -4 -12    0.94    1.03
   5  -4 -12    0.34    0.86
   4  -3 -12    2.64    0.82
   4  -3 -12    1.22    1.03
  -4   3  12    2.01    0.95
   3  -2 -12   25.45    1.67
   3  -2 -12   22.98    2.05
  -3   2  12   21.41    2.06
   2  -1 -12   31.58    2.46
   2  -1 -12   36.87    2.08
  -2   1  12   32.12    2.62
   1   0 -12   16.99    1.90
   1   0 -12   16.20    1.74
  -1   0  12   18.31    1.86
   0   1 -12   28.27    2.44
   0   1 -12   28.84    2.18
  -1   2 -12   57.62    3.84
  -1   2 -12   50.58    3.31
  -2   3 -12   31.70    2.28
  -2   3 -12   35.94    2.74
  -3   4 -12    8.99    1.49
  -4   5 -12    3.20    1.14
  -5   6 -12    1.72    1.09
  -6   7 -12    0.75    1.10
  -6   7 -12    0.20    0.70
   6  -7  12    0.88    0.57
   5  -5 -11   13.65    1.49
   5  -5 -11   12.89    1.52
  -5   5  11   11.31    1.55
   4  -4 -11   26.06    1.91
   4  -4 -11   25.95    2.14
  -4   4  11   24.62    2.20
   3  -3 -11   12.48    1.47
   3  -3 -11   12.32    1.22
  -3   3  11   11.64    1.49
   2  -2 -11   -0.06    0.89
   2  -2 -11   -0.22    0.57
  -2   2  11    0.53    0.82
   1  -1 -11    0.17    0.84
   1  -1 -11    0.74    0.58
   1  -1 -11   -0.10    0.85
  -1   1  11    1.35    0.96
   0   0 -11   -0.39    0.78
   0   0 -11    0.41    0.85
  -1   1 -11    4.49    1.01
  -1   1 -11    4.28    1.05
  -2   2 -11   32.23    2.58
  -2   2 -11   32.70    2.35
  -3   3 -11   31.02    2.52
  -4   4 -11   15.21    1.81
  -5   5 -11   15.44    1.24
  -6   6 -11   23.68    1.85
   6  -6  11   29.11    1.60
  -7   7 -11    8.33    1.13
   5  -6 -10    4.28    1.08
   5  -6 -10    2.47    1.05
  -5   6  10    3.71    1.10
   4  -5 -10   15.48    1.51
   4  -5 -10   15.62    1.71
  -4   5  10   14.56    1.66
   3  -4 -10   41.53    2.80
   3  -4 -10   41.33    2.60
  -3   4  10   42.82    3.05
   2  -3 -10   34.31    2.53
   2  -3 -10   38.38    2.28
  -2   3  10   36.58    2.74
   1  -2 -10   22.04    1.51
   1  -2 -10   18.99    1.87
   1  -2 -10   21.69    2.05
  -1   2  10   22.07    1.97
   0  -1 -10   43.86    2.39
   0  -1 -10   40.54    3.01
   0  -1 -10   36.98    2.66
  -1   0 -10   56.04    3.55
  -1   0 -10   61.42    3.27
  -1   0 -10   62.97    4.10
  -2   1 -10   16.20    1.62
  -2   1 -10   19.61    1.78
  -2   1 -10   16.09    1.19
  -3   2 -10    2.74    0.92
  -3   2 -10    2.18    0.88
  -3   2 -10    1.76    0.50
  -4   3 -10    1.91    0.94
  -4   3 -10    2.86    0.57
  -5   4 -10    0.17    0.54
  -5   4 -10   -0.82    0.82
   5  -4  10    0.28    0.43
  -6   5 -10    3.25    0.78
  -6   5 -10    4.25    1.10
   6  -5  10    4.87    0.64
  -7   6 -10   10.68    1.59
  -7   6 -10    7.28    1.06
   7  -6  10    6.69    0.82
  -8   7 -10    4.17    1.03
  -8   7 -10    3.28    1.29
   5  -7  -9    7.49    1.27
   5  -7  -9   10.61    1.37
  -5   7   9   11.61    1.49
   4  -6  -9    6.46    1.09
   4  -6  -9    3.56    1.03
  -4   6   9    6.47    1.17
   3  -5  -9   -0.29    0.74
   3  -5  -9   -0.41    0.84
  -3   5   9    0.73    0.83
   2  -4  -9   -0.05    0.83
   2  -4  -9    0.74    0.65
  -2   4   9    0.76    0.77
   1  -3  -9    3.00    0.93
   1  -3  -9    1.56    0.64
   1  -3  -9    2.85    0.96
  -1   3   9    2.19    0.92
   0  -2  -9   10.64    1.04
   0  -2  -9   10.80    1.36
   0  -2  -9    9.65    1.22
  -1  -1  -9   37.08    2.26
  -1  -1  -9   41.74    2.89
  -1  -1  -9   38.79    2.58
  -2   0  -9   57.36    3.69
  -2   0  -9   50.99    3.23
  -2   0  -9   53.44    2.96
  -3   1  -9   44.64    2.84
  -3   1  -9   43.79    2.56
  -3   1  -9   49.14    3.25
  -4   2  -9   31.27    1.89
  -4   2  -9   33.91    2.28
  -4   2  -9   36.28    2.53
   4  -2   9   28.56    1.69
  -5   3  -9   37.97    2.63
  -5   3  -9   33.91    2.02
   5  -3   9   30.34    1.81
  -6   4  -9   38.91    2.64
  -6   4  -9   30.85    2.03
   6  -4   9   27.91    1.77
  -7   5  -9   12.12    1.38
  -7   5  -9   17.48    1.85
   7  -5   9   12.21    1.08
  -8   6  -9    3.01    0.90
  -8   6  -9    3.01    1.15
   8  -6   9    2.21    0.68
  -9   7  -9    1.36    0.93
  -9   7  -9    1.55    1.20
   5  -8  -8   10.91    1.44
   5  -8  -8    9.71    1.33
  -5   8   8   12.26    1.54
   4  -7  -8   18.59    1.72
   4  -7  -8   16.47    1.71
  -4   7   8   19.82    1.85
   3  -6  -8   34.65    2.43
   3  -6  -8   30.80    2.31
  -3   6   8   38.25    2.67
   2  -5  -8   44.79    2.71
   2  -5  -8   42.65    2.84
  -2   5   8   45.57    3.13
   1  -4  -8   32.10    2.37
   1  -4  -8   35.49    2.19
  -1   4   8   35.92    2.63
   0  -3  -8   24.15    2.05
   0  -3  -8   24.52    1.92
   0  -3  -8   23.22    1.62
  -1  -2  -8   20.98    1.47
  -1  -2  -8   18.88    1.46
  -1  -2  -8   23.94    1.95
  -1  -2  -8   22.05    1.79
  -2  -1  -8   13.98    1.32
  -2  -1  -8   14.01    1.08
  -2  -1  -8   12.05    1.42
   2   1   8   10.29    0.84
  -3   0  -8    1.53    0.77
  -3   0  -8    0.32    0.43
  -3   0  -8    0.52    0.73
   3   0   8    0.49    0.39
  -4   1  -8    2.50    0.55
  -4   1  -8    2.37    0.79
  -4   1  -8    3.50    0.90
   4  -1   8    3.15    0.50
  -5   2  -8    8.46    1.09
  -5   2  -8    5.81    0.72
  -5   2  -8    7.25    1.16
   5  -2   8    6.83    0.71
  -6   3  -8   10.93    1.08
  -6   3  -8   12.29    1.46
   6  -3   8    9.26    0.93
  -7   4  -8   15.98    1.38
   7  -4   8   12.62    1.12
  -8   5  -8   18.85    1.71
  -8   5  -8   22.30    2.11
   8  -5   8   18.63    1.42
  -9   6  -8   20.23    2.08
  -9   6  -8   11.41    1.50
   9  -6   8   17.25    1.39
   5  -9  -7    0.97    0.61
   5  -9  -7   -0.23    0.85
   5  -9  -7   -0.31    0.96
  -5   9   7    0.40    0.95
   4  -8  -7   -0.63    0.88
   4  -8  -7    0.49    0.55
   4  -8  -7    0.52    0.84
  -4   8   7   -0.30    0.82
   3  -7  -7   -0.29    0.78
   3  -7  -7    0.51    0.83
   3  -7  -7    0.78    0.52
  -3   7   7    0.17    0.77
   2  -6  -7    2.16    0.52
   2  -6  -7    1.48    0.82
   2  -6  -7    2.29    0.81
  -2   6   7    3.33    0.92
   1  -5  -7   30.51    1.99
   1  -5  -7   25.36    2.10
  -1   5   7   32.56    2.35
   0  -4  -7   44.43    3.08
   0  -4  -7   40.39    2.70
   0  -4  -7   41.92    2.56
   0   4   7   45.69    3.05
  -1  -3  -7   36.37    2.33
  -1  -3  -7   43.30    2.87
  -1  -3  -7   38.33    2.56
  -2  -2  -7   57.67    3.80
  -2  -2  -7   55.03    3.38
  -2  -2  -7   58.56    3.18
  -3  -1  -7   70.01    4.10
  -3  -1  -7   68.37    3.89
  -3  -1  -7   75.86    4.67
   3   1   7   76.09    3.60
  -4   0  -7   62.12    3.96
  -4   0  -7   60.45    3.28
  -4   0  -7   57.84    3.50
   4   0   7   58.17    3.00
  -5   1  -7   38.78    2.70
  -5   1  -7   35.19    2.44
  -5   1  -7   37.06    2.18
   5  -1   7   34.41    1.96
  -6   2  -7   22.91    1.54
  -6   2  -7   25.37    1.90
  -6   2  -7   21.76    1.98
   6  -2   7   18.47    1.37
  -7   3  -7   12.15    1.18
  -7   3  -7   12.24    1.55
   7  -3   7    9.93    1.02
  -8   4  -7    1.90    0.98
  -8   4  -7    2.00    0.73
   8  -4   7    1.45    0.64
  -9   5  -7   -0.78    0.75
  -9   5  -7    0.17    0.98
   9  -5   7   -0.34    0.65
 -10   6  -7    0.29    1.08
 -10   6  -7    0.56    0.91
   4  -9  -6   16.14    1.73
   4  -9  -6   19.00    1.36
   4  -9  -6   17.11    1.64
  -4   9   6   16.87    1.82
   3  -8  -6   29.91    1.80
   3  -8  -6   29.18    2.23
   3  -8  -6   30.99    2.19
  -3   8   6   32.33    2.43
   2  -7  -6   40.49    2.53
   2  -7  -6   35.60    2.06
   2  -7  -6   38.52    2.53
  -2   7   6   41.43    2.84
   1  -6  -6   20.82    1.70
   1  -6  -6   19.75    1.58
   1  -6  -6   18.14    1.30
  -1   6   6   21.87    1.82
   0  -5  -6    3.87    0.60
   0  -5  -6    4.75    0.88
   0  -5  -6    3.19    0.75
   0  -5  -6    4.17    0.93
   0   5   6    4.33    0.93
  -1  -4  -6    2.22    0.51
  -1  -4  -6    2.83    0.69
  -1  -4  -6    1.90    0.75
  -1  -4  -6    2.88    0.81
  -2  -3  -6    4.27    0.88
  -2  -3  -6    5.24    0.72
  -2  -3  -6    4.67    0.90
  -2  -3  -6    3.87    0.52
  -3  -2  -6    1.91    0.54
  -3  -2  -6    1.62    0.40
  -3  -2  -6    1.59    0.73
  -3  -2  -6    0.69    0.72
   3   2   6    2.07    0.48
  -4  -1  -6   36.47    2.46
  -4  -1  -6   35.53    2.16
  -4  -1  -6   35.83    2.65
   4   1   6   37.17    1.96
  -5   0  -6   30.93    2.25
  -5   0  -6   31.80    2.36
  -5   0  -6   31.19    1.94
   5   0   6   29.42    1.73
  -6   1  -6   15.74    1.71
  -6   1  -6   18.23    1.75
  -6   1  -6   18.95    1.34
   6  -1   6   15.69    1.19
  -7   2  -6   37.26    1.90
  -7   2  -6   40.89    2.85
  -7   2  -6   41.51    2.33
   7  -2   6   33.94    2.13
  -8   3  -6   47.26    2.91
  -8   3  -6   49.49    2.39
  -8   3  -6   56.54    3.54
   8  -3   6   44.77    2.67
  -9   4  -6   21.19    1.81
  -9   4  -6   27.46    2.21
   9  -4   6   19.48    1.56
 -10   5  -6    6.87    1.39
 -10   5  -6    6.71    1.20
  10  -5   6    7.53    1.00
   4 -10  -5    4.61    0.83
  -4  10   5    4.71    1.16
   3  -9  -5    1.28    0.81
   3  -9  -5    1.61    0.92
   3  -9  -5    1.33    0.65
  -3   9   5    0.82    0.85
   2  -8  -5   10.08    1.17
   2  -8  -5   10.05    1.24
   2  -8  -5   10.80    0.99
  -2   8   5   10.67    1.33
   1  -7  -5   50.89    3.21
   1  -7  -5   57.56    3.21
   1  -7  -5   52.91    2.77
  -1   7   5   56.68    3.64
   0  -6  -5   41.39    2.59
   0  -6  -5   41.92    2.63
   0  -6  -5   43.93    2.23
   0   6   5   43.16    2.96
  -1  -5  -5   29.06    2.22
  -1  -5  -5   29.64    1.99
  -1  -5  -5   26.65    1.57
  -1  -5  -5   27.12    1.88
  -2  -4  -5   82.81    5.29
  -2  -4  -5   87.61    4.63
  -2  -4  -5   82.93    4.55
  -2  -4  -5   82.07    3.92
  -2  -4  -5   85.86    4.56
  -3  -3  -5  113.19    5.31
  -3  -3  -5  119.46    6.14
  -3  -3  -5  118.51    6.22
  -3  -3  -5  116.62    7.14
  -4  -2  -5   34.69    2.19
  -4  -2  -5   38.81    2.63
  -4  -2  -5   34.96    2.38
  -4  -2  -5   34.49    1.84
   4   2   5   38.05    1.99
  -5  -1  -5    8.54    1.12
  -5  -1  -5    7.58    0.83
  -5  -1  -5    8.43    1.08
  -5  -1  -5    6.78    0.65
   5   1   5    8.18    0.78
  -6   0  -5    9.07    0.82
  -6   0  -5    9.80    1.08
  -6   0  -5   11.37    1.28
  -6   0  -5    8.42    1.16
   6   0   5    8.93    0.92
  -7   1  -5    4.93    0.59
  -7   1  -5    4.80    0.93
  -7   1  -5    7.77    1.13
  -7   1  -5    5.31    0.75
   7  -1   5    6.52    0.80
  -8   2  -5   -0.99    0.78
  -8   2  -5   -0.27    0.40
  -8   2  -5    0.23    0.61
   8  -2   5    0.80    0.64
  -9   3  -5    7.04    1.29
  -9   3  -5    3.10    0.82
  -9   3  -5    5.63    0.70
   9  -3   5    6.23    0.87
 -10   4  -5    6.26    0.76
 -10   4  -5    7.17    1.42
 -10   4  -5    6.58    1.10
  10  -4   5    5.32    0.92
 -11   5  -5    3.17    1.20
 -11   5  -5    3.09    0.61
 -11   5  -5    3.26    1.01
   4 -11  -4    8.25    0.98
  -4  11   4    8.33    1.33
   3 -10  -4   24.67    1.66
  -3  10   4   24.63    2.16
   2  -9  -4   29.47    1.77
   2  -9  -4   29.66    2.13
   2  -9  -4   26.82    2.01
  -2   9   4   26.57    2.23
   1  -8  -4    3.62    0.73
   1  -8  -4    4.54    0.91
   1  -8  -4    4.47    0.85
  -1   8   4    4.87    0.93
   0  -7  -4    0.49    0.52
   0  -7  -4    0.38    0.66
   0  -7  -4    0.18    0.65
   0   7   4    0.43    0.66
  -1  -6  -4    0.61    0.67
  -1  -6  -4   -0.06    0.62
  -1  -6  -4    0.07    0.65
  -1  -6  -4    0.69    0.48
   1   6   4    0.58    0.71
  -2  -5  -4    2.87    0.52
  -2  -5  -4    2.22    0.72
  -2  -5  -4    2.90    0.76
  -2  -5  -4    3.49    0.72
  -2  -5  -4    2.67    0.69
  -3  -4  -4   27.14    1.76
  -3  -4  -4   26.22    1.47
  -3  -4  -4   25.27    2.02
  -3  -4  -4   24.97    1.86
  -4  -3  -4   58.05    2.86
  -4  -3  -4   59.81    3.32
  -4  -3  -4   61.13    3.88
  -4  -3  -4   59.12    3.42
  -5  -2  -4   33.11    2.32
  -5  -2  -4   37.16    2.56
  -5  -2  -4   34.87    2.15
  -5  -2  -4   34.91    1.83
   5   2   4   34.12    1.94
  -6  -1  -4   28.05    2.11
  -6  -1  -4   27.65    1.54
  -6  -1  -4   27.67    1.86
  -6  -1  -4   29.68    2.22
   6   1   4   27.90    1.68
  -7   0  -4   71.87    4.30
  -7   0  -4   82.67    4.91
  -7   0  -4   75.25    4.17
  -7   0  -4   78.21    3.63
   7   0   4   74.42    3.88
  -8   1  -4   70.07    3.93
  -8   1  -4   73.44    4.60
  -8   1  -4   71.06    3.40
   8  -1   4   68.11    3.66
  -9   2  -4   15.43    1.17
  -9   2  -4   17.56    1.75
  -9   2  -4   17.93    1.48
   9  -2   4   14.16    1.31
 -10   3  -4    7.05    1.08
 -10   3  -4    8.77    1.41
  10  -3   4    6.12    0.95
 -11   4  -4   10.44    1.59
   3 -11  -3   10.88    1.09
   2 -10  -3   20.35    1.55
   2 -10  -3   23.12    1.76
  -2  10   3   25.08    2.04
   1  -9  -3   39.92    2.47
   1  -9  -3   36.78    2.15
  -1   9   3   40.34    2.79
   0  -8  -3   41.68    2.46
   0  -8  -3   37.27    2.13
   0  -8  -3   37.29    2.48
   0   8   3   40.73    2.77
  -1  -7  -3   36.00    2.36
  -1  -7  -3   35.45    1.99
  -1  -7  -3   38.50    2.36
   1   7   3   38.99    2.64
  -2  -6  -3   55.86    3.33
  -2  -6  -3   58.35    3.80
  -2  -6  -3   61.58    3.36
  -2  -6  -3   59.03    2.88
  -2  -6  -3   57.98    3.37
  -3  -5  -3   49.39    2.44
  -3  -5  -3   46.73    2.82
  -3  -5  -3   51.07    3.25
  -3  -5  -3   46.52    2.87
  -4  -4  -3   15.94    1.13
  -4  -4  -3   16.97    1.32
  -4  -4  -3   15.28    1.50
  -4  -4  -3   15.04    1.46
  -5  -3  -3   10.17    1.15
  -5  -3  -3    9.63    0.84
  -5  -3  -3    9.97    0.96
  -5  -3  -3    8.68    1.06
  -6  -2  -3    3.49    0.83
  -6  -2  -3    3.12    0.82
  -6  -2  -3    2.02    0.50
  -6  -2  -3    3.16    0.65
  -7  -1  -3    4.01    0.69
  -7  -1  -3    3.14    0.87
  -7  -1  -3    5.85    0.97
  -7  -1  -3    3.78    0.58
   7   1   3    5.37    0.72
  -8   0  -3   14.60    1.35
  -8   0  -3   14.26    1.10
  -8   0  -3   14.88    1.57
  -8   0  -3   14.86    1.56
   8   0   3   14.98    1.22
  -9   1  -3   11.43    1.24
  -9   1  -3   11.85    1.47
  -9   1  -3   11.67    1.04
  -9   1  -3   10.07    1.26
   9  -1   3   11.12    1.09
 -10   2  -3   12.37    1.52
 -10   2  -3   10.52    1.23
  10  -2   3   10.20    1.11
 -11   3  -3   13.44    1.73
   3 -12  -2    6.71    0.96
   2 -11  -2    1.81    0.72
   1 -10  -2    0.53    0.68
   1 -10  -2    0.38    0.59
   0  -9  -2   -0.23    0.64
   0  -9  -2   -0.77    0.49
  -1  -8  -2    8.79    0.85
  -1  -8  -2    8.49    0.98
  -1  -8  -2    7.29    1.00
  -2  -7  -2   27.38    1.95
  -2  -7  -2   29.89    1.98
  -2  -7  -2   30.11    1.68
  -2  -7  -2   28.55    2.01
  -3  -6  -2   39.44    2.43
  -3  -6  -2   37.72    2.39
  -3  -6  -2   39.71    2.07
  -4  -5  -2   55.02    3.33
  -4  -5  -2   55.87    3.26
  -4  -5  -2   61.22    2.88
  -5  -4  -2   79.43    3.65
  -5  -4  -2   72.67    4.14
  -5  -4  -2   76.33    4.74
  -5  -4  -2   73.45    4.22
  -6  -3  -2   51.50    3.01
  -6  -3  -2   51.20    3.12
  -6  -3  -2   50.84    3.42
  -6  -3  -2   52.85    2.61
  -7  -2  -2   38.09    2.72
  -7  -2  -2   37.03    2.37
  -7  -2  -2   40.40    2.59
  -7  -2  -2   38.50    2.05
  -8  -1  -2   41.65    2.71
  -8  -1  -2   43.86    2.22
  -8  -1  -2   42.13    2.56
  -8  -1  -2   38.16    2.89
  -9   0  -2   24.23    1.85
  -9   0  -2   23.09    2.06
  -9   0  -2   25.73    2.04
   9   0   2   26.62    1.67
 -10   1  -2    8.58    1.28
 -10   1  -2    6.42    1.16
 -11   2  -2    2.12    1.09
   2 -12  -1   10.58    1.12
   1 -11  -1   29.35    1.84
   0 -10  -1   48.60    2.69
   0 -10  -1   54.36    3.04
  -1  -9  -1   24.06    1.59
  -1  -9  -1   25.99    1.82
  -2  -8  -1    8.14    0.95
  -2  -8  -1    7.88    0.83
  -3  -7  -1   14.93    1.17
  -3  -7  -1   15.33    1.43
  -4  -6  -1   17.30    1.55
  -4  -6  -1   19.63    1.33
  -5  -5  -1    0.46    0.62
  -5  -5  -1   -0.29    0.48
  -6  -4  -1   13.49    1.50
  -6  -4  -1   15.98    1.16
  -7  -3  -1   13.28    1.08
  -7  -3  -1   13.47    1.40
  -8  -2  -1   10.81    1.01
  -8  -2  -1    9.76    1.30
  -9  -1  -1   26.07    2.12
 -10   0  -1   41.31    2.98
 -11   1  -1   18.85    1.86
   2 -13   0    0.32    0.74
   1 -12   0   -0.16    0.67
   0 -11   0    8.13    0.97
  -1 -10   0   33.42    2.07
  -1 -10   0   35.86    2.33
   1  10   0   39.70    2.18
  -2  -9   0   28.21    2.08
  -2  -9   0   30.73    1.81
   2   9   0   32.47    1.87
  -3  -8   0   31.05    2.20
  -3  -8   0   33.18    1.90
   3   8   0   32.98    1.92
  -4  -7   0   68.22    3.38
  -4  -7   0   65.14    3.86
   4   7   0   69.67    3.40
  -5  -6   0   71.87    4.37
  -5  -6   0   79.93    3.86
   5   6   0   84.09    3.88
  -6  -5   0   42.11    2.27
  -6  -5   0   39.18    2.70
   6   5   0   43.02    2.33
  -7  -4   0   18.53    1.81
  -7  -4   0   20.30    1.36
  -8  -3   0   24.86    1.59
  -8  -3   0   26.21    2.14
  -9  -2   0   13.62    1.57
  -9  -2   0   15.55    1.23
 -10  -1   0    0.52    0.83
 -11   0   0    0.93    0.90
  -1  13  -1   22.89    1.72
   0  12  -1   20.94    1.67
  -1 -11   1    4.45    0.87
  -1 -11   1    6.70    0.94
   1  11  -1    7.89    0.90
  -2 -10   1    0.88    0.70
  -2 -10   1    2.16    0.71
   2  10  -1    2.67    0.65
  -3  -9   1    3.21    0.72
  -3  -9   1    2.82    0.82
   3   9  -1    4.12    0.71
  -4  -8   1    1.33    0.73
  -4  -8   1    1.25    0.65
   4   8  -1    0.73    0.55
  -5  -7   1   12.54    1.34
  -5  -7   1   13.35    1.18
   5   7  -1   13.84    1.29
  -6  -6   1   32.25    1.98
  -6  -6   1   34.13    2.40
   6   6  -1   35.41    2.06
  -7  -5   1   16.10    1.30
  -7  -5   1   15.62    1.72
   7   5  -1   17.60    1.40
  -8  -4   1   23.26    1.49
  -8  -4   1   20.23    1.97
   8   4  -1   20.46    1.58
  -9  -3   1   47.42    3.21
  -9  -3   1   47.95    2.62
   9   3  -1   52.70    2.74
 -10  -2   1   41.82    2.90
 -11  -1   1   14.83    1.62
   0  13  -2   15.47    1.32
   1  12  -2   31.68    2.02
  -2 -11   2   24.99    1.90
   2  11  -2   24.28    1.76
  -3 -10   2   29.95    2.24
   3  10  -2   32.17    1.97
  -4  -9   2   66.70    3.93
   4   9  -2   68.80    3.45
  -5  -8   2   48.78    3.11
   5   8  -2   50.43    2.71
  -6  -7   2   14.19    1.50
  -6  -7   2   13.35    1.30
   6   7  -2   14.74    1.23
  -7  -6   2   12.21    1.11
  -7  -6   2   10.88    1.37
   7   6  -2    8.62    0.99
  -8  -5   2    9.61    1.34
  -8  -5   2    7.28    0.89
   8   5  -2    6.64    0.85
  -9  -4   2    1.97    1.03
  -9  -4   2    0.73    0.59
   9   4  -2   -0.04    0.56
 -10  -3   2    2.64    1.02
 -10  -3   2    1.09    0.61
  10   3  -2    1.72    0.69
 -11  -2   2    3.19    1.07
  11   2  -2    4.01    0.86
   1  13  -3    1.10    0.71
   2  12  -3   -0.03    0.65
  -3 -11   3    1.18    0.80
   3  11  -3    1.99    0.70
  -4 -10   3    5.89    1.08
   4  10  -3    9.30    0.99
  -5  -9   3   15.20    1.64
   5   9  -3   16.67    1.46
  -6  -8   3   26.25    2.17
   6   8  -3   27.41    1.86
  -7  -7   3   24.40    2.08
   7   7  -3   23.86    1.78
  -8  -6   3   32.79    2.45
   8   6  -3   30.19    2.06
  -9  -5   3   46.10    3.18
   9   5  -3   46.73    2.64
 -10  -4   3   31.72    2.54
  10   4  -3   32.30    2.12
 -11  -3   3    9.94    1.47
  11   3  -3    7.72    1.01
   3  12  -4   23.26    1.77
  -4 -11   4   20.11    1.87
   4  11  -4   20.46    1.63
  -5 -10   4   16.06    1.62
   5  10  -4   15.75    1.51
  -6  -9   4   14.08    1.60
   6   9  -4   15.05    1.30
  -7  -8   4    4.94    1.15
   7   8  -4    4.78    0.83
  -8  -7   4    1.11    0.97
   8   7  -4    0.67    0.61
  -9  -6   4    8.24    1.45
   9   6  -4    5.73    0.88
 -10  -5   4    6.33    1.36
  10   5  -4    4.76    0.83
  -5 -11   5   12.93    1.53
   5  11  -5   15.84    1.31
  -6 -10   5   35.92    2.67
   6  10  -5   37.56    2.28
  -7  -9   5   38.86    2.87
   7   9  -5   43.88    2.47
  -8  -8   5   16.35    1.77
   8   8  -5   16.12    1.52
  -9  -7   5   12.74    1.66
   0   3 -15    3.45    1.11
   0   3 -15    7.09    1.49
   0  -3  15    2.92    1.29
  -1   4 -15    1.63    1.13
   2   0 -14   11.61    1.56
  -2   0  14   12.90    1.64
   1   1 -14   17.54    1.95
  -1  -1  14   19.62    2.03
   0   2 -14   12.82    1.60
   0   2 -14   14.06    1.85
  -1   3 -14   24.25    2.42
  -2   4 -14   33.53    2.93
  -3   5 -14   19.38    2.24
  -4   6 -14    5.90    1.39
   3  -2 -13   33.85    2.55
  -3   2  13   30.31    2.58
   2  -1 -13    9.81    1.41
  -2   1  13    9.58    1.44
   1   0 -13    0.33    1.01
  -1   0  13    0.71    0.98
   0   1 -13    1.35    1.03
   0   1 -13    0.80    0.99
  -1   2 -13    2.04    1.06
  -1   2 -13    0.62    1.00
  -2   3 -13    0.52    0.99
  -3   4 -13   14.20    1.85
  -4   5 -13   12.18    1.77
  -5   6 -13    8.68    1.66
   4  -4 -12    2.29    1.15
   4  -4 -12    4.27    0.96
  -4   4  12    1.67    1.00
   3  -3 -12   10.21    1.11
   3  -3 -12    8.68    1.42
  -3   3  12    8.78    1.41
   2  -2 -12   25.76    2.26
   2  -2 -12   29.20    1.85
  -2   2  12   26.19    2.33
   1  -1 -12   25.69    2.22
  -1   1  12   28.65    2.41
   0   0 -12   19.23    1.88
   0   0 -12   19.20    2.07
  -1   1 -12   32.27    2.64
  -1   1 -12   28.91    2.32
  -2   2 -12   45.46    3.38
  -2   2 -12   43.82    2.99
  -3   3 -12   20.95    2.12
  -4   4 -12    4.30    1.16
  -5   5 -12    3.39    1.17
  -6   6 -12    1.12    1.09
  -6   6 -12    0.23    0.69
   4  -5 -11   15.56    1.56
   4  -5 -11   14.11    1.64
  -4   5  11   15.07    1.75
   3  -4 -11   11.77    1.50
   3  -4 -11   11.01    1.22
  -3   4  11   12.18    1.54
   2  -3 -11    1.57    1.07
   2  -3 -11    2.99    0.76
  -2   3  11    3.72    1.08
   1  -2 -11    0.51    0.63
   1  -2 -11   -0.15    0.95
  -1   2  11    0.40    0.92
   0  -1 -11    0.56    0.93
   0  -1 -11    0.68    0.58
   0  -1 -11    0.18    0.86
  -1   0 -11    5.75    0.71
  -1   0 -11    3.73    1.06
  -1   0 -11    6.20    1.27
  -2   1 -11   20.56    1.93
  -2   1 -11   22.82    2.13
  -3   2 -11   26.33    2.22
  -3   2 -11   29.50    2.44
  -4   3 -11   12.73    1.06
  -5   4 -11    8.67    0.96
   5  -4  11   11.54    0.88
  -6   5 -11   13.05    1.37
   6  -5  11   17.04    1.14
  -7   6 -11   14.71    1.53
   4  -6 -10    8.19    1.32
   4  -6 -10    9.04    1.23
  -4   6  10    8.69    1.39
   3  -5 -10   17.55    1.55
   3  -5 -10   15.11    1.65
  -3   5  10   16.50    1.78
   2  -4 -10   31.22    2.53
   2  -4 -10   36.60    2.30
  -2   4  10   37.88    2.77
   1  -3 -10   41.14    2.97
   1  -3 -10   45.98    2.67
  -1   3  10   46.25    3.28
   0  -2 -10   30.06    2.46
   0  -2 -10   32.03    1.92
   0  -2 -10   23.78    2.21
  -1  -1 -10   19.11    1.90
  -1  -1 -10   25.14    2.14
  -1  -1 -10   21.95    1.52
  -2   0 -10   25.51    2.16
  -2   0 -10   30.63    1.81
  -2   0 -10   28.31    2.40
  -3   1 -10   17.09    1.74
  -3   1 -10   18.50    1.87
  -3   1 -10   16.95    1.29
  -4   2 -10    2.34    0.98
  -4   2 -10    1.33    0.53
  -4   2 -10    1.40    0.95
   4  -2  10    1.72    0.48
  -5   3 -10   -0.56    0.90
  -5   3 -10    0.21    0.51
   5  -3  10    0.04    0.46
  -6   4 -10    0.70    0.99
  -6   4 -10   -0.20    0.61
   6  -4  10    1.14    0.54
  -7   5 -10    2.33    0.81
  -7   5 -10    6.06    1.41
   7  -5  10    4.25    0.70
  -8   6 -10    3.64    0.98
  -8   6 -10    8.41    1.59
   4  -7  -9    1.33    0.99
   4  -7  -9    3.40    1.01
  -4   7   9    2.30    1.02
   3  -6  -9    1.42    0.87
   3  -6  -9    1.67    0.99
  -3   6   9    1.79    0.94
   2  -5  -9    0.40    0.74
   2  -5  -9    0.49    0.92
  -2   5   9    1.17    0.88
   1  -4  -9    0.21    0.87
   1  -4  -9    1.15    0.67
  -1   4   9    1.43    0.91
   0  -3  -9   18.26    1.79
   0  -3  -9   16.20    1.37
   0  -3  -9   13.46    1.51
   0   3   9   17.81    1.82
  -1  -2  -9   30.45    1.88
  -1  -2  -9   26.34    2.18
  -1  -2  -9   27.38    2.37
  -2  -1  -9   24.71    1.96
  -2  -1  -9   24.07    2.11
  -2  -1  -9   25.72    1.61
   2   1   9   19.67    1.33
  -3   0  -9   31.22    2.43
  -3   0  -9   30.14    2.25
  -3   0  -9   29.70    1.86
   3   0   9   29.04    1.64
  -4   1  -9   46.88    3.04
  -4   1  -9   49.97    2.76
  -4   1  -9   51.13    3.47
   4  -1   9   45.70    2.47
  -5   2  -9   48.11    2.98
  -5   2  -9   52.89    3.36
   5  -2   9   38.59    2.35
  -6   3  -9   17.43    1.45
  -6   3  -9   22.69    1.99
   6  -3   9   18.13    1.28
  -7   4  -9   15.24    1.84
  -7   4  -9   13.05    1.37
   7  -4   9   12.40    1.11
  -8   5  -9   15.98    1.88
  -8   5  -9    8.62    1.21
   8  -5   9    8.45    0.97
  -9   6  -9    1.51    1.20
  -9   6  -9    1.56    0.92
   4  -8  -8   17.27    1.81
   4  -8  -8   17.66    1.77
  -4   8   8   19.23    1.90
   3  -7  -8   16.26    1.68
   3  -7  -8   17.47    1.73
  -3   7   8   18.80    1.85
   2  -6  -8   31.10    2.29
   2  -6  -8   30.82    2.16
  -2   6   8   30.16    2.45
   1  -5  -8   41.51    2.61
   1  -5  -8   41.55    2.80
  -1   5   8   44.46    3.08
   0  -4  -8   26.30    1.89
   0  -4  -8   30.91    2.39
   0  -4  -8   27.97    2.18
   0   4   8   28.52    2.34
  -1  -3  -8   12.19    1.15
  -1  -3  -8   10.11    1.31
  -1  -3  -8   13.14    1.24
  -1  -3  -8   12.41    1.59
  -2  -2  -8   10.13    1.29
  -2  -2  -8   12.31    1.51
  -2  -2  -8   11.23    1.12
  -3  -1  -8   10.07    1.28
  -3  -1  -8    8.28    0.88
  -3  -1  -8    6.55    1.13
   3   1   8    8.30    0.80
  -4   0  -8   -0.55    0.76
  -4   0  -8    0.29    0.49
  -4   0  -8    0.55    0.79
   4   0   8    0.27    0.43
  -5   1  -8   12.07    1.39
  -5   1  -8   12.65    1.16
  -5   1  -8   14.06    1.59
   5  -1   8   11.76    0.97
  -6   2  -8   12.49    1.51
  -6   2  -8   11.25    1.14
   6  -2   8    9.02    0.94
  -7   3  -8    6.44    0.89
  -7   3  -8    8.71    1.39
   7  -3   8    5.60    0.80
  -8   4  -8   16.91    1.88
  -8   4  -8   11.92    1.28
   8  -4   8   11.45    1.17
  -9   5  -8   19.47    1.88
  -9   5  -8   24.18    2.33
   4  -9  -7   -0.34    0.86
   4  -9  -7    0.35    0.97
   4  -9  -7    0.94    0.58
  -4   9   7   -0.39    0.87
   3  -8  -7    0.55    0.53
   3  -8  -7   -0.82    0.84
   3  -8  -7   -0.70    0.84
  -3   8   7   -0.61    0.80
   2  -7  -7    0.45    0.82
   2  -7  -7    0.45    0.81
  -2   7   7    0.22    0.80
   1  -6  -7   10.21    1.16
   1  -6  -7   10.50    1.25
  -1   6   7   10.77    1.36
   0  -5  -7   45.46    2.91
   0  -5  -7   44.30    2.77
   0   5   7   48.39    3.26
  -1  -4  -7   28.70    1.92
  -1  -4  -7   26.81    1.88
  -1  -4  -7   26.65    2.12
  -1  -4  -7   29.39    2.31
  -2  -3  -7   25.04    1.73
  -2  -3  -7   22.29    1.96
  -2  -3  -7   26.48    2.14
  -3  -2  -7   83.42    4.43
  -3  -2  -7   84.96    5.26
  -3  -2  -7   76.82    4.59
  -4  -1  -7   76.85    4.71
  -4  -1  -7   85.64    4.54
  -4  -1  -7   89.07    5.42
   4   1   7   84.98    4.18
  -5   0  -7   23.34    1.94
  -5   0  -7   24.22    2.02
  -5   0  -7   19.66    1.54
   5   0   7   20.37    1.36
  -6   1  -7   11.37    1.42
  -6   1  -7   14.54    1.65
  -6   1  -7   14.33    1.19
   6  -1   7   11.78    1.04
  -7   2  -7   22.22    1.61
  -7   2  -7   24.36    2.10
   7  -2   7   18.70    1.42
  -8   3  -7    5.53    0.92
  -8   3  -7    7.77    1.35
   8  -3   7    4.87    0.80
  -9   4  -7   -0.59    0.97
  -9   4  -7   -0.08    0.73
   9  -4   7   -0.49    0.62
 -10   5  -7    1.12    0.89
 -10   5  -7    0.81    1.11
   3  -9  -6   10.23    1.40
   3  -9  -6   10.73    1.32
   3  -9  -6   12.43    1.15
  -3   9   6   12.87    1.56
   2  -8  -6   39.21    2.59
   2  -8  -6   38.71    2.64
   2  -8  -6   38.37    2.15
  -2   8   6   42.07    2.94
   1  -7  -6   41.11    2.26
   1  -7  -6   43.20    2.71
   1  -7  -6   42.16    2.71
  -1   7   6   44.93    3.06
   0  -6  -6    6.52    0.97
   0  -6  -6    7.22    0.78
   0  -6  -6    5.81    0.98
   0   6   6    6.66    1.10
  -1  -5  -6    0.22    0.49
  -1  -5  -6    0.45    0.65
  -1  -5  -6    0.80    0.78
  -1  -5  -6   -0.22    0.71
  -2  -4  -6    2.67    0.87
  -2  -4  -6    2.00    0.80
  -2  -4  -6    2.61    0.69
  -2  -4  -6    3.19    0.52
  -3  -3  -6    0.45    0.42
  -3  -3  -6   -0.37    0.52
  -3  -3  -6    1.11    0.78
  -3  -3  -6    0.93    0.73
  -4  -2  -6   13.47    1.55
  -4  -2  -6   11.53    1.34
  -4  -2  -6   13.80    0.93
  -4  -2  -6   12.88    1.19
  -5  -1  -6   29.87    2.38
  -5  -1  -6   28.27    2.20
  -5  -1  -6   32.36    1.98
   5   1   6   30.41    1.76
  -6   0  -6   15.82    1.03
  -6   0  -6   17.47    1.38
  -6   0  -6   15.96    1.68
  -6   0  -6   17.21    1.73
   6   0   6   15.88    1.22
  -7   1  -6   17.27    1.10
  -7   1  -6   19.63    1.44
  -7   1  -6   19.11    1.86
   7  -1   6   16.02    1.29
  -8   2  -6   44.03    2.66
  -8   2  -6   47.18    3.21
   8  -2   6   39.70    2.43
  -9   3  -6   33.10    2.30
   9  -3   6   32.84    2.06
 -10   4  -6   11.40    1.38
 -10   4  -6   14.90    1.83
  10  -4   6   10.52    1.19
   3 -10  -5    5.20    1.06
   3 -10  -5    6.23    0.86
  -3  10   5    6.76    1.22
   2  -9  -5   13.00    1.45
   2  -9  -5   10.85    1.27
   2  -9  -5   15.02    1.22
  -2   9   5   13.79    1.59
   1  -8  -5   17.04    1.28
   1  -8  -5   14.16    1.50
   1  -8  -5   16.56    1.53
  -1   8   5   15.16    1.65
   0  -7  -5   26.04    2.00
   0  -7  -5   30.24    2.09
   0  -7  -5   28.89    1.72
   0   7   5   30.10    2.27
  -1  -6  -5   43.02    2.33
  -1  -6  -5   50.70    3.22
  -1  -6  -5   39.88    2.74
  -1  -6  -5   47.09    2.83
   1   6   5   47.08    3.18
  -2  -5  -5   46.07    2.79
  -2  -5  -5   42.24    2.28
  -2  -5  -5   47.15    2.76
  -2  -5  -5   45.26    3.16
  -3  -4  -5   57.28    3.41
  -3  -4  -5   56.02    2.82
  -3  -4  -5   58.86    3.33
  -3  -4  -5   60.88    3.88
  -4  -3  -5   57.91    3.74
  -4  -3  -5   55.20    3.18
  -4  -3  -5   53.79    2.69
  -4  -3  -5   55.58    3.31
  -5  -2  -5   21.44    1.72
  -5  -2  -5   26.74    1.95
  -5  -2  -5   28.01    2.13
  -5  -2  -5   23.51    1.40
  -6  -1  -5   11.26    0.95
  -6  -1  -5   11.60    1.33
  -6  -1  -5   13.06    1.23
  -6  -1  -5   13.49    1.53
   6   1   5   12.95    1.07
  -7   0  -5    2.27    0.51
  -7   0  -5    2.42    0.93
  -7   0  -5    2.94    0.67
  -7   0  -5    2.66    0.85
   7   0   5    3.46    0.70
  -8   1  -5    0.34    0.46
  -8   1  -5    0.53    0.65
  -8   1  -5    1.10    0.88
  -8   1  -5    0.71    0.79
   8  -1   5    0.92    0.65
  -9   2  -5    3.20    0.62
  -9   2  -5    2.29    0.79
  -9   2  -5    3.03    1.05
   9  -2   5    1.27    0.72
 -10   3  -5    1.29    1.05
 -10   3  -5    0.14    0.74
 -10   3  -5    1.49    0.54
  10  -3   5    0.67    0.73
 -11   4  -5    3.01    0.96
 -11   4  -5    2.29    0.58
 -11   4  -5    1.54    1.12
   3 -11  -4   12.50    1.23
   2 -10  -4   12.62    1.23
   2 -10  -4   13.47    1.46
  -2  10   4   14.10    1.61
   1  -9  -4    8.04    1.07
   1  -9  -4    7.82    1.15
   1  -9  -4    7.65    0.91
  -1   9   4    8.46    1.21
   0  -8  -4    3.65    0.67
   0  -8  -4    2.51    0.85
   0  -8  -4    2.71    0.81
   0   8   4    3.66    0.89
  -1  -7  -4   -0.10    0.51
  -1  -7  -4    0.57    0.69
  -1  -7  -4    0.49    0.69
   1   7   4    0.48    0.72
  -2  -6  -4    4.14    0.81
  -2  -6  -4    3.66    0.60
  -2  -6  -4    2.71    0.77
  -2  -6  -4    3.38    0.85
  -2  -6  -4    3.85    0.81
  -3  -5  -4   17.05    1.21
  -3  -5  -4   17.81    1.53
  -3  -5  -4   19.89    1.59
  -3  -5  -4   19.76    1.74
  -4  -4  -4   24.56    1.87
  -4  -4  -4   24.89    1.46
  -4  -4  -4   25.74    1.78
  -4  -4  -4   25.47    2.05
  -5  -3  -4   37.67    1.93
  -5  -3  -4   37.05    2.66
  -5  -3  -4   34.44    2.25
  -5  -3  -4   35.06    2.41
  -6  -2  -4   46.64    2.46
  -6  -2  -4   47.57    3.03
  -6  -2  -4   51.69    3.39
  -6  -2  -4   50.03    2.90
  -7  -1  -4   34.06    1.83
  -7  -1  -4   32.41    2.17
  -7  -1  -4   34.36    2.40
  -7  -1  -4   33.50    2.58
   7   1   4   33.81    1.97
  -8   0  -4   29.57    2.32
  -8   0  -4   34.29    2.56
  -8   0  -4   33.33    2.16
  -8   0  -4   32.37    1.81
   8   0   4   32.64    1.96
  -9   1  -4   45.09    2.73
  -9   1  -4   44.48    2.90
  -9   1  -4   45.75    3.21
   9  -1   4   41.01    2.50
 -10   2  -4   21.94    1.88
 -10   2  -4   24.78    1.51
 -10   2  -4   22.64    2.17
  10  -2   4   21.24    1.65
 -11   3  -4    3.22    1.15
 -11   3  -4    2.84    0.65
   2 -11  -3   10.71    1.10
   1 -10  -3   12.73    1.21
   1 -10  -3   12.00    1.25
   0  -9  -3   45.91    2.73
   0  -9  -3   42.02    2.34
  -1  -8  -3   60.84    3.65
  -1  -8  -3   64.01    3.59
  -1  -8  -3   62.37    3.65
  -1  -8  -3   59.82    3.11
   1   8   3   66.38    4.10
  -2  -7  -3   27.75    2.00
  -2  -7  -3   27.60    1.97
  -2  -7  -3   25.74    1.63
   2   7   3   30.15    2.21
  -3  -6  -3   14.37    1.37
  -3  -6  -3   14.10    1.07
  -3  -6  -3   11.96    1.32
  -4  -5  -3   32.99    2.16
  -4  -5  -3   34.40    2.45
  -4  -5  -3   33.81    2.24
  -4  -5  -3   31.44    1.82
  -5  -4  -3   26.78    1.57
  -5  -4  -3   24.03    1.94
  -5  -4  -3   25.92    2.08
  -5  -4  -3   26.17    1.85
  -6  -3  -3    1.03    0.78
  -6  -3  -3    0.17    0.49
  -6  -3  -3    1.40    0.61
  -6  -3  -3    0.38    0.70
  -7  -2  -3    3.79    0.62
  -7  -2  -3    4.56    0.98
  -7  -2  -3    4.08    0.94
  -7  -2  -3    3.98    0.73
  -8  -1  -3    5.48    1.09
  -8  -1  -3    4.88    0.69
  -8  -1  -3    4.55    0.79
  -8  -1  -3    2.84    0.96
  -9   0  -3    3.32    1.03
  -9   0  -3    5.16    0.73
  -9   0  -3    4.16    0.83
  -9   0  -3    3.36    0.93
   9   0   3    3.83    0.82
 -10   1  -3   13.48    1.68
 -10   1  -3   12.46    1.16
 -11   2  -3   19.89    2.06
 -11   2  -3   20.41    1.47
   2 -12  -2   -0.91    0.69
   1 -11  -2    0.39    0.69
   0 -10  -2    0.47    0.73
   0 -10  -2    0.27    0.63
  -1  -9  -2    4.70    0.84
  -1  -9  -2    2.99    0.69
  -2  -8  -2   25.44    1.81
  -2  -8  -2   22.08    1.49
  -3  -7  -2   24.17    1.51
  -3  -7  -2   23.72    1.82
  -3  -7  -2   24.56    1.82
  -4  -6  -2   23.96    1.93
  -4  -6  -2   25.93    1.90
  -4  -6  -2   29.18    1.64
  -5  -5  -2   57.11    2.84
  -5  -5  -2   54.62    3.31
  -5  -5  -2   55.15    3.24
  -6  -4  -2   74.67    3.59
  -6  -4  -2   73.01    4.10
  -6  -4  -2   71.72    4.19
  -7  -3  -2   41.65    2.64
  -7  -3  -2   44.81    2.31
  -7  -3  -2   43.22    2.82
  -8  -2  -2   23.44    1.97
  -8  -2  -2   24.33    1.53
  -9  -1  -2   23.84    2.02
  -9  -1  -2   23.22    2.08
  -9  -1  -2   24.34    1.56
 -10   0  -2   13.95    1.69
 -10   0  -2   15.87    1.69
 -10   0  -2   15.39    1.26
 -11   1  -2    1.77    1.01
 -11   1  -2    0.75    0.68
   1 -12  -1   16.91    1.44
   0 -11  -1   32.60    2.03
   0 -11  -1   35.11    2.28
  -1 -10  -1   31.24    1.95
  -1 -10  -1   32.86    2.20
  -2  -9  -1   12.82    1.12
  -2  -9  -1   12.22    1.34
  -3  -8  -1    8.47    1.06
  -3  -8  -1    9.89    0.96
  -4  -7  -1   15.08    1.24
  -4  -7  -1   13.54    1.47
  -5  -6  -1    2.33    0.67
  -5  -6  -1    2.36    0.78
  -6  -5  -1    6.87    1.09
  -6  -5  -1    9.29    0.93
  -7  -4  -1   12.99    1.13
  -7  -4  -1   12.16    1.38
  -8  -3  -1    7.47    0.86
  -8  -3  -1    6.92    1.19
  -9  -2  -1   15.27    1.23
  -9  -2  -1   14.10    1.61
 -10  -1  -1   32.93    1.98
 -11   0  -1   26.47    1.76
   0 -12   0    1.28    0.76
  -1 -11   0   15.71    1.38
  -1 -11   0   15.80    1.52
  -2 -10   0   33.20    2.24
  -2 -10   0   31.54    1.97
  -3  -9   0   19.67    1.45
  -3  -9   0   19.99    1.71
  -4  -8   0   33.45    2.00
  -4  -8   0   33.45    2.34
  -5  -7   0   83.18    4.72
  -5  -7   0   84.59    4.12
  -6  -6   0   52.37    3.22
  -6  -6   0   51.62    2.77
  -7  -5   0   14.95    1.28
  -7  -5   0   15.18    1.59
  -8  -4   0   16.63    1.88
  -8  -4   0   20.13    1.41
  -9  -3   0   20.09    1.46
  -9  -3   0   19.45    1.96
 -10  -2   0    2.13    0.97
 -10  -2   0    0.85    0.63
 -11  -1   0    1.32    0.94
 -11  -1   0    1.76    0.72
   1  12  -1   15.38    1.50
  -2 -11   1    4.46    0.91
  -2 -11   1    3.82    0.86
   2  11  -1    5.59    0.89
  -3 -10   1    1.32    0.73
  -3 -10   1    1.90    0.83
   3  10  -1    1.24    0.65
  -4  -9   1   -0.15    0.64
  -4  -9   1    0.75    0.76
   4   9  -1    0.49    0.55
  -5  -8   1    2.83    0.77
  -5  -8   1    2.86    0.88
   5   8  -1    2.71    0.69
  -6  -7   1   10.00    1.06
  -6  -7   1    8.23    1.16
   6   7  -1    7.69    0.94
  -7  -6   1   17.11    1.84
  -7  -6   1   19.22    1.48
   7   6  -1   20.88    1.60
  -8  -5   1   23.68    2.16
  -8  -5   1   25.91    1.69
  -9  -4   1   26.30    1.67
  -9  -4   1   22.35    2.16
 -10  -3   1   34.96    2.65
 -10  -3   1   34.55    2.08
 -11  -2   1   24.36    1.73
 -11  -2   1   27.10    2.27
   2  12  -2   17.85    1.62
  -3 -11   2   38.08    2.60
   3  11  -2   39.28    2.34
  -4 -10   2   30.30    2.33
   4  10  -2   33.16    2.08
  -5  -9   2   25.85    2.17
   5   9  -2   30.47    1.96
  -6  -8   2   31.42    2.36
   6   8  -2   32.18    2.08
  -7  -7   2   19.53    1.93
   7   7  -2   21.50    1.69
  -8  -6   2    4.00    1.14
   8   6  -2    6.17    0.86
  -9  -5   2   -0.51    0.97
   9   5  -2    0.25    0.59
 -10  -4   2    0.62    0.99
  10   4  -2    0.83    0.66
   3  12  -3    0.01    0.68
  -4 -11   3    7.73    1.20
   4  11  -3    8.06    1.03
  -5 -10   3    9.22    1.30
   5  10  -3    9.56    1.09
  -6  -9   3   12.65    1.50
   6   9  -3   14.71    1.32
  -7  -8   3   29.78    2.40
   7   8  -3   33.03    2.10
  -8  -7   3   36.85    2.72
   8   7  -3   37.16    2.32
  -9  -6   3   14.16    1.68
   9   6  -3   11.68    1.16
  -6 -10   4   16.60    1.85
   6  10  -4   20.82    1.72
  -7  -9   4    8.41    1.33
   7   9  -4    8.04    1.06
  -8  -8   4    1.82    1.01
   8   8  -4    0.94    0.67
   1   0 -14    9.60    1.48
  -1   0  14    9.36    1.55
   0   1 -14   16.06    1.80
   0   1 -14   16.35    2.09
   0  -1  14   18.12    2.08
  -1   2 -14   16.95    2.06
  -1   2 -14   14.83    1.77
  -2   3 -14   24.44    2.52
  -3   4 -14   32.14    2.87
   2  -2 -13   19.18    2.08
   2  -2 -13   21.01    1.59
  -2   2  13   20.17    2.08
   1  -1 -13    4.93    1.31
  -1   1  13    4.74    1.28
   0   0 -13    0.01    1.04
   0   0 -13    1.56    1.06
   0   0  13    1.09    1.15
  -1   1 -13    0.76    1.02
  -1   1 -13    0.55    1.04
  -2   2 -13   -0.71    1.00
  -2   2 -13    0.58    1.02
  -3   3 -13    7.76    1.57
  -4   4 -13    8.89    1.67
  -5   5 -13    7.18    1.60
   2  -3 -12   15.14    1.34
   2  -3 -12   11.59    1.61
  -2   3  12   13.58    1.71
   1  -2 -12   24.94    1.72
   1  -2 -12   23.20    1.68
   1  -2 -12   21.35    2.15
  -1   2  12   22.58    2.21
   0  -1 -12   24.03    2.38
   0  -1 -12   29.86    2.67
   0  -1 -12   35.68    2.01
   0   1  12   32.06    2.71
  -1   0 -12   29.78    2.54
  -1   0 -12   24.55    2.27
  -2   1 -12   23.37    2.30
  -2   1 -12   21.56    2.10
  -3   2 -12   23.69    2.26
  -3   2 -12   26.84    2.46
  -4   3 -12   16.22    2.01
  -5   4 -12    1.90    0.66
  -5   4 -12    3.37    1.17
   5  -4  12    2.40    0.57
  -6   5 -12   -0.09    0.68
  -6   5 -12    0.28    1.11
   3  -5 -11    4.65    1.26
   3  -5 -11    6.53    1.08
  -3   5  11    6.40    1.31
   2  -4 -11    4.82    0.91
   2  -4 -11    5.01    1.24
  -2   4  11    5.17    1.24
   1  -3 -11    2.75    0.79
   1  -3 -11    1.58    1.08
  -1   3  11    1.62    0.99
   0  -2 -11   -0.49    0.91
   0  -2 -11    0.29    0.65
   0  -2 -11    0.19    1.03
   0   2  11   -0.27    1.02
  -1  -1 -11    4.34    1.13
  -1  -1 -11    4.05    0.75
  -1  -1 -11    2.95    1.07
  -2   0 -11    9.14    1.38
  -2   0 -11   12.60    1.62
  -2   0 -11   10.15    1.01
   2   0  11    7.42    0.77
  -3   1 -11   11.99    1.13
  -3   1 -11   13.92    1.74
  -3   1 -11   13.53    1.56
  -4   2 -11   18.82    1.96
  -4   2 -11   14.08    1.20
  -4   2 -11   19.59    1.91
   4  -2  11   13.81    1.03
  -5   3 -11   19.55    1.45
   5  -3  11   20.19    1.29
  -6   4 -11   16.78    1.47
   6  -4  11   18.25    1.25
  -7   5 -11   16.38    1.99
  -7   5 -11    9.43    1.21
   3  -6 -10   12.20    1.50
   3  -6 -10   12.21    1.37
  -3   6  10   10.53    1.55
   2  -5 -10    9.20    1.42
   2  -5 -10   11.55    1.24
  -2   5  10   12.17    1.55
   1  -4 -10   34.92    2.24
   1  -4 -10   30.36    2.56
  -1   4  10   36.21    2.75
   0  -3 -10   45.61    3.44
   0  -3 -10   58.42    3.94
   0  -3 -10   55.03    3.19
   0  -3 -10   58.50    3.21
   0   3  10   56.28    3.89
  -1  -2 -10   20.96    2.11
  -1  -2 -10   28.09    1.81
  -1  -2 -10   26.71    2.34
  -2  -1 -10   11.69    1.53
  -2  -1 -10   15.29    1.81
  -2  -1 -10   14.13    1.24
  -3   0 -10   16.71    1.81
  -3   0 -10   18.47    1.36
  -3   0 -10   17.01    1.90
   3   0  10   15.23    1.11
  -4   1 -10    8.55    0.93
  -4   1 -10   12.17    1.59
  -4   1 -10    8.28    1.32
   4  -1  10    7.95    0.84
  -5   2 -10    0.09    0.51
  -5   2 -10   -0.31    0.91
   5  -2  10   -0.36    0.45
  -6   3 -10    0.88    1.03
  -6   3 -10    1.75    0.64
   6  -3  10    3.11    0.63
  -7   4 -10    1.04    0.69
  -7   4 -10    1.32    1.08
   7  -4  10    0.96    0.59
  -8   5 -10    1.95    0.86
  -8   5 -10    0.75    1.15
   3  -7  -9    0.79    0.96
   3  -7  -9    0.48    0.90
  -3   7   9    0.46    0.91
   2  -6  -9    1.62    1.01
   2  -6  -9    1.90    0.82
  -2   6   9    1.47    0.93
   1  -5  -9   -0.34    0.93
   1  -5  -9    1.01    0.74
  -1   5   9    0.94    0.91
   0  -4  -9    7.40    1.25
   0  -4  -9   10.25    1.46
   0  -4  -9    7.82    1.05
   0   4   9    9.89    1.44
  -1  -3  -9   31.28    1.98
  -1  -3  -9   29.13    2.43
  -1  -3  -9   23.66    2.22
  -2  -2  -9    7.94    1.33
  -2  -2  -9   13.31    1.25
  -2  -2  -9   13.85    1.62
  -3  -1  -9   16.62    1.80
  -3  -1  -9   16.04    1.31
  -3  -1  -9   12.96    1.53
   3   1   9   13.08    1.06
  -4   0  -9   63.01    3.31
  -4   0  -9   50.97    3.58
  -4   0  -9   64.40    4.10
   4   0   9   55.03    2.98
  -5   1  -9   60.26    3.84
  -5   1  -9   52.95    3.41
  -5   1  -9   54.19    3.04
   5  -1   9   46.67    2.73
  -6   2  -9   19.91    1.95
  -6   2  -9   16.47    1.40
   6  -2   9   13.65    1.14
  -7   3  -9   15.23    1.79
  -7   3  -9    9.54    1.11
   7  -3   9   10.93    1.02
  -8   4  -9   14.33    1.59
  -8   4  -9   21.31    2.16
  -9   5  -9    3.24    1.03
   3  -8  -8   14.18    1.54
   3  -8  -8   13.05    1.55
  -3   8   8   16.10    1.76
   2  -7  -8   15.44    1.72
   2  -7  -8   17.43    1.63
  -2   7   8   17.99    1.81
   1  -6  -8   38.55    2.84
   1  -6  -8   43.75    2.73
  -1   6   8   47.27    3.18
   0  -5  -8   38.70    2.84
   0  -5  -8   43.65    2.71
   0   5   8   47.93    3.21
  -1  -4  -8    9.44    1.32
  -1  -4  -8   12.04    1.49
  -1  -4  -8   10.56    1.18
  -1  -4  -8   11.72    1.19
  -2  -3  -8    5.74    0.85
  -2  -3  -8    5.77    1.18
  -2  -3  -8    5.06    1.10
  -3  -2  -8    5.19    1.14
  -3  -2  -8    8.71    1.32
  -3  -2  -8    9.32    0.96
  -4  -1  -8    0.96    0.90
  -4  -1  -8    0.32    0.89
  -4  -1  -8    1.38    0.59
   4   1   8    2.03    0.56
  -5   0  -8    6.19    1.25
  -5   0  -8    4.16    0.74
  -5   0  -8    2.63    1.03
   5   0   8    3.38    0.64
  -6   1  -8    9.19    1.45
  -6   1  -8    8.32    1.31
  -6   1  -8    8.71    0.96
   6  -1   8    8.05    0.85
  -7   2  -8    6.84    1.33
  -7   2  -8    5.27    0.87
   7  -2   8    4.87    0.76
  -8   3  -8   11.43    1.63
  -8   3  -8    8.66    1.08
   8  -3   8    6.86    0.91
  -9   4  -8   27.32    2.43
  -9   4  -8   19.41    1.86
   3  -9  -7    0.71    0.95
   3  -9  -7   -1.18    0.85
  -3   9   7   -0.34    0.86
   2  -8  -7    2.10    0.97
   2  -8  -7    2.55    0.99
  -2   8   7    1.83    0.95
   1  -7  -7    8.77    1.19
   1  -7  -7    7.88    1.19
  -1   7   7   10.61    1.37
   0  -6  -7    7.62    1.11
   0  -6  -7    8.15    1.16
   0   6   7    9.88    1.34
  -1  -5  -7   18.49    1.61
  -1  -5  -7   18.31    1.54
  -1  -5  -7   19.45    1.92
  -1  -5  -7   18.57    1.76
   1   5   7   20.20    1.91
  -2  -4  -7   41.59    3.05
  -2  -4  -7   38.86    2.71
  -2  -4  -7   41.39    2.54
  -3  -3  -7   45.46    3.31
  -3  -3  -7   43.75    2.98
  -3  -3  -7   49.22    2.79
  -4  -2  -7   55.95    3.20
  -4  -2  -7   57.83    3.84
  -4  -2  -7   51.60    3.39
  -5  -1  -7   47.81    3.31
  -5  -1  -7   59.87    3.78
  -5  -1  -7   54.05    3.10
   5   1   7   51.65    2.80
  -6   0  -7   25.97    2.16
  -6   0  -7   24.30    1.68
  -6   0  -7   18.80    1.95
   6   0   7   20.02    1.45
  -7   1  -7    6.78    0.93
  -7   1  -7    9.95    1.43
  -7   1  -7    5.51    1.15
   7  -1   7    8.21    0.89
  -8   2  -7    3.60    1.14
  -8   2  -7    4.10    0.85
   8  -2   7    3.63    0.78
  -9   3  -7    0.07    0.73
  -9   3  -7    0.17    1.05
   9  -3   7    0.71    0.68
 -10   4  -7    0.90    0.84
 -10   4  -7   -0.38    1.07
   2  -9  -6   14.29    1.61
   2  -9  -6   16.44    1.66
   2  -9  -6   15.53    1.24
  -2   9   6   16.83    1.75
   1  -8  -6   20.77    1.84
   1  -8  -6   22.84    1.48
   1  -8  -6   22.02    1.89
  -1   8   6   24.82    2.06
   0  -7  -6   22.61    1.89
   0  -7  -6   22.41    1.48
   0  -7  -6   23.41    1.87
   0   7   6   25.72    2.07
  -1  -6  -6    7.91    1.07
  -1  -6  -6    7.86    0.79
  -1  -6  -6    7.22    1.05
  -1  -6  -6    5.97    1.07
   1   6   6    9.17    1.29
  -2  -5  -6    0.07    0.79
  -2  -5  -6    0.90    0.71
  -2  -5  -6    0.93    0.79
  -2  -5  -6    0.67    0.49
  -3  -4  -6    0.72    0.84
  -3  -4  -6    1.48    0.68
  -3  -4  -6    1.49    0.50
  -3  -4  -6    1.00    0.80
  -4  -3  -6    4.57    1.00
  -4  -3  -6    6.90    1.16
  -4  -3  -6    5.17    0.61
  -4  -3  -6    6.03    0.86
  -5  -2  -6    7.15    0.91
  -5  -2  -6    7.37    0.68
  -5  -2  -6    7.36    1.17
  -5  -2  -6    8.39    1.27
  -6  -1  -6   14.05    0.96
  -6  -1  -6   13.35    1.47
  -6  -1  -6   14.92    1.71
  -6  -1  -6   13.25    1.34
   6   1   6   13.63    1.14
  -7   0  -6   30.57    1.98
  -7   0  -6   32.38    2.43
  -7   0  -6   28.86    1.56
  -7   0  -6   24.00    2.18
   7   0   6   27.24    1.78
  -8   1  -6   24.80    1.89
  -8   1  -6   28.64    2.37
   8  -1   6   25.92    1.74
  -9   2  -6   19.87    1.69
  -9   2  -6   26.25    2.24
   9  -2   6   18.14    1.55
 -10   3  -6   22.64    2.01
 -10   3  -6   28.16    2.46
   2 -10  -5   10.10    1.25
   2 -10  -5   10.62    1.03
  -2  10   5   12.05    1.47
   1  -9  -5   12.24    1.14
   1  -9  -5    9.71    1.24
   1  -9  -5   10.98    1.36
  -1   9   5   12.70    1.57
   0  -8  -5   12.04    1.12
   0  -8  -5   13.96    1.49
   0  -8  -5   12.93    1.36
   0   8   5   14.05    1.58
  -1  -7  -5   32.94    2.28
  -1  -7  -5   34.60    2.31
  -1  -7  -5   28.80    1.84
  -1  -7  -5   36.61    2.37
   1   7   5   36.26    2.60
  -2  -6  -5   57.72    3.45
  -2  -6  -5   60.41    3.95
  -2  -6  -5   57.83    3.44
  -2  -6  -5   54.91    2.88
   2   6   5   61.26    3.93
  -3  -5  -5   37.59    2.42
  -3  -5  -5   40.85    2.81
  -3  -5  -5   35.59    2.45
  -3  -5  -5   35.30    1.97
  -4  -4  -5   24.10    1.94
  -4  -4  -5   27.11    2.15
  -4  -4  -5   22.81    1.44
  -4  -4  -5   25.31    1.83
  -5  -3  -5   34.89    1.89
  -5  -3  -5   35.70    2.45
  -5  -3  -5   37.19    2.71
  -5  -3  -5   35.65    2.30
  -6  -2  -5   21.67    1.90
  -6  -2  -5   24.96    2.14
  -6  -2  -5   22.11    1.76
  -6  -2  -5   22.53    1.39
  -7  -1  -5    3.31    0.59
  -7  -1  -5    3.06    0.74
  -7  -1  -5    3.66    1.09
  -7  -1  -5    3.30    0.96
   7   1   5    3.02    0.72
  -8   0  -5   -0.58    0.77
  -8   0  -5   -0.80    0.62
  -8   0  -5    0.53    0.91
  -8   0  -5   -0.16    0.49
   8   0   5   -0.18    0.63
  -9   1  -5    0.43    0.73
  -9   1  -5    1.86    1.03
  -9   1  -5    0.44    0.50
   9  -1   5    0.62    0.70
 -10   2  -5    0.42    0.75
 -10   2  -5    1.24    0.56
 -10   2  -5    0.84    1.04
  10  -2   5    2.08    0.79
   1 -10  -4    4.07    0.95
   1 -10  -4    2.90    0.77
   0  -9  -4    6.25    1.06
   0  -9  -4    7.08    0.86
  -1  -8  -4    2.38    0.87
  -1  -8  -4    1.09    0.78
  -1  -8  -4    1.53    0.81
  -1  -8  -4    0.64    0.59
   1   8   4    1.76    0.87
  -2  -7  -4    3.63    0.65
  -2  -7  -4    3.66    0.92
  -2  -7  -4    4.24    0.88
   2   7   4    4.60    1.02
  -3  -6  -4    7.70    1.04
  -3  -6  -4    9.37    1.09
  -3  -6  -4    7.87    0.81
  -4  -5  -4    7.23    1.03
  -4  -5  -4    7.02    0.76
  -4  -5  -4    8.78    1.18
  -4  -5  -4    9.23    1.06
  -5  -4  -4   22.23    1.74
  -5  -4  -4   24.29    2.01
  -5  -4  -4   21.72    1.84
  -5  -4  -4   21.37    1.38
  -6  -3  -4   51.49    3.48
  -6  -3  -4   52.24    2.99
  -6  -3  -4   47.76    2.52
  -6  -3  -4   47.20    3.09
  -7  -2  -4   51.89    2.67
  -7  -2  -4   53.67    3.65
  -7  -2  -4   53.91    3.13
  -7  -2  -4   50.38    3.27
  -8  -1  -4   26.80    1.67
  -8  -1  -4   29.72    2.40
  -8  -1  -4   26.39    2.21
  -8  -1  -4   29.81    2.02
  -9   0  -4   19.10    1.89
  -9   0  -4   20.94    1.72
  -9   0  -4   21.46    2.05
   9   0   4   19.60    1.53
 -10   1  -4   24.84    2.25
 -10   1  -4   22.28    1.87
   1 -11  -3    7.30    0.94
   0 -10  -3   13.36    1.35
   0 -10  -3   12.69    1.18
  -1  -9  -3   54.47    3.12
  -1  -9  -3   48.69    2.68
  -2  -8  -3   54.44    2.86
  -2  -8  -3   58.51    3.35
  -3  -7  -3   15.03    1.18
  -3  -7  -3   15.89    1.48
  -3  -7  -3   13.88    1.40
  -4  -6  -3    9.90    0.92
  -4  -6  -3    9.28    1.14
  -4  -6  -3   11.57    1.19
  -5  -5  -3   25.79    1.88
  -5  -5  -3   23.71    1.95
  -5  -5  -3   25.92    1.57
  -6  -4  -3    7.90    0.98
  -6  -4  -3    5.81    0.78
  -6  -4  -3    6.43    1.07
  -7  -3  -3    3.18    0.68
  -7  -3  -3    3.16    1.01
  -7  -3  -3    4.13    0.80
  -8  -2  -3    2.25    0.62
  -8  -2  -3    1.73    0.98
  -8  -2  -3    2.70    0.72
  -8  -2  -3    2.16    0.94
  -9  -1  -3   -0.82    0.89
  -9  -1  -3    0.04    0.55
  -9  -1  -3   -0.30    0.89
 -10   0  -3    8.64    0.93
 -10   0  -3    7.46    1.27
 -10   0  -3    8.77    1.41
 -11   1  -3   21.77    2.17
   0 -11  -2    1.19    0.82
   0 -11  -2    0.67    0.68
  -1 -10  -2    0.30    0.76
  -1 -10  -2    0.20    0.64
  -2  -9  -2   12.54    1.17
  -2  -9  -2   10.83    1.22
  -3  -8  -2   21.79    1.75
  -3  -8  -2   19.85    1.43
  -4  -7  -2   14.31    1.21
  -4  -7  -2   16.58    1.53
  -5  -6  -2   34.54    1.98
  -5  -6  -2   33.56    2.37
  -6  -5  -2   66.81    4.04
  -6  -5  -2   71.23    3.46
  -7  -4  -2   46.61    3.05
  -7  -4  -2   46.69    2.51
  -8  -3  -2   16.50    1.79
  -8  -3  -2   18.74    1.35
  -9  -2  -2   21.32    1.47
  -9  -2  -2   19.00    1.94
 -10  -1  -2   18.95    1.43
 -11   0  -2    1.71    0.73
  -1 -11  -1   24.06    1.76
  -1 -11  -1   29.07    2.02
  -2 -10  -1   21.08    1.75
  -2 -10  -1   17.95    1.48
  -3  -9  -1   10.24    1.21
  -3  -9  -1   10.37    1.05
  -4  -8  -1    3.87    0.92
  -4  -8  -1    5.89    0.86
  -5  -7  -1    0.91    0.67
  -5  -7  -1    1.65    0.80
  -6  -6  -1    0.75    0.78
  -6  -6  -1    0.17    0.61
  -7  -5  -1    2.79    0.73
  -7  -5  -1    1.89    0.93
  -8  -4  -1    9.88    0.99
  -8  -4  -1    8.69    1.33
  -9  -3  -1   12.98    1.54
  -9  -3  -1   13.40    1.23
 -10  -2  -1   17.66    1.40
 -10  -2  -1   17.34    1.87
  -2 -11   0    3.70    0.86
  -2 -11   0    4.98    1.00
  -3 -10   0   19.46    1.79
  -3 -10   0   20.81    1.56
  -4  -9   0   44.14    2.87
  -4  -9   0   44.49    2.50
  -5  -8   0   34.47    2.54
  -5  -8   0   38.81    2.21
  -6  -7   0   34.05    2.47
  -6  -7   0   34.87    2.10
  -7  -6   0   40.37    2.36
  -7  -6   0   41.71    2.82
  -8  -5   0   25.35    1.68
  -8  -5   0   21.64    2.07
  -9  -4   0    3.91    1.16
  -9  -4   0    3.75    0.78
 -10  -3   0    0.45    0.64
 -10  -3   0    0.72    1.01
  -3 -11   1    3.96    0.98
  -3 -11   1    3.48    0.90
  -4 -10   1    0.48    0.82
  -4 -10   1    0.60    0.75
   4  10  -1    0.57    0.68
  -5  -9   1    3.02    0.93
  -5  -9   1    2.34    0.82
  -6  -8   1    2.76    0.94
  -6  -8   1    3.03    0.85
  -7  -7   1    6.19    1.16
  -7  -7   1    6.52    0.98
  -8  -6   1   18.48    1.90
  -8  -6   1   20.72    1.56
  -9  -5   1   33.27    2.09
  -9  -5   1   35.31    2.65
 -10  -4   1   18.23    1.49
 -10  -4   1   19.60    2.03
  -4 -11   2   28.42    2.29
   4  11  -2   32.72    2.10
  -5 -10   2   16.57    1.80
   5  10  -2   17.63    1.48
  -6  -9   2   21.21    1.95
   6   9  -2   21.88    1.77
  -7  -8   2   27.21    2.23
   7   8  -2   27.58    1.99
  -8  -7   2    7.37    1.28
   8   7  -2    4.37    0.85
  -9  -6   2    0.98    1.01
   9   6  -2    0.28    0.65
   0  -1 -13    1.65    1.16
   0  -1 -13    4.57    1.38
   0   1  13    3.50    1.25
  -1   0 -13    0.67    1.06
  -1   0 -13    0.13    1.10
  -2   1 -13   -0.21    1.00
  -2   1 -13   -0.64    1.05
  -3   2 -13    0.91    1.12
  -4   3 -13    6.54    1.59
   1  -3 -12    7.76    1.03
   1  -3 -12    7.63    1.04
   1  -3 -12    4.45    1.36
  -1   3  12    7.02    1.40
   0  -2 -12   32.52    2.82
   0  -2 -12   35.50    3.11
   0  -2 -12   43.74    2.45
   0   2  12   40.01    3.11
  -1  -1 -12   59.10    3.11
  -1  -1 -12   51.67    3.91
  -1  -1 -12   47.68    3.51
  -2   0 -12   14.63    1.82
  -2   0 -12   18.57    2.13
  -2   0 -12   17.88    1.38
  -3   1 -12    6.26    1.36
  -3   1 -12    8.58    1.59
   3  -1  12    5.81    0.71
  -4   2 -12   13.13    1.18
  -4   2 -12   19.37    2.04
   4  -2  12   11.64    1.01
  -5   3 -12   15.28    1.90
  -5   3 -12    8.36    0.98
   1  -4 -11    1.75    1.18
   1  -4 -11    3.61    0.88
  -1   4  11    5.13    1.24
   0  -3 -11    2.55    0.80
   0  -3 -11    0.18    1.07
   0   3  11    1.81    1.10
  -1  -2 -11    2.01    0.77
  -1  -2 -11    1.13    0.99
  -1  -2 -11    1.93    1.11
  -2  -1 -11    9.90    1.04
  -2  -1 -11   10.08    1.64
  -2  -1 -11    7.82    1.41
  -3   0 -11    5.50    0.82
  -3   0 -11    5.00    1.21
  -3   0 -11    5.96    1.43
   3   0  11    4.35    0.68
  -4   1 -11   10.46    1.13
  -4   1 -11   13.78    1.77
  -4   1 -11   11.01    1.52
   4  -1  11    8.55    0.91
  -5   2 -11   34.37    2.67
   5  -2  11   24.19    1.60
  -6   3 -11   20.41    1.59
  -7   4 -11    8.58    1.13
  -7   4 -11   13.37    1.87
   2  -6 -10   13.53    1.66
   2  -6 -10   16.61    1.56
  -2   6  10   16.15    1.85
   1  -5 -10   22.78    2.14
   1  -5 -10   25.34    1.86
  -1   5  10   22.64    2.18
   0  -4 -10   32.41    2.78
   0  -4 -10   41.30    2.52
   0  -4 -10   42.56    2.59
   0   4  10   40.41    3.07
  -1  -3 -10   30.05    2.58
  -1  -3 -10   32.87    2.83
  -1  -3 -10   39.95    2.33
  -2  -2 -10   13.82    1.68
  -2  -2 -10   15.16    1.92
  -2  -2 -10   16.79    1.46
  -3  -1 -10   11.75    1.22
  -3  -1 -10   10.98    1.62
  -3  -1 -10    8.45    1.41
  -4   0 -10    8.25    0.99
  -4   0 -10   10.72    1.59
  -4   0 -10    7.01    1.31
   4   0  10    8.48    0.88
  -5   1 -10    0.48    1.04
  -5   1 -10    1.77    0.69
  -5   1 -10    1.47    1.07
   5  -1  10    2.08    0.58
  -6   2 -10   -0.01    0.59
  -6   2 -10   -0.82    0.99
   6  -2  10    0.02    0.55
  -7   3 -10    0.01    1.04
  -7   3 -10    0.57    0.67
   2  -7  -9    0.91    1.01
   2  -7  -9    0.72    0.87
   1  -6  -9   -0.51    0.93
   1  -6  -9    0.04    0.78
  -1   6   9    0.30    0.87
   0  -5  -9    2.13    1.01
   0  -5  -9    2.90    0.88
   0  -5  -9    1.53    0.80
   0   5   9    2.79    1.05
  -1  -4  -9    3.50    1.13
  -1  -4  -9    6.11    0.97
  -1  -4  -9    3.83    1.13
   1   4   9    6.21    1.34
  -2  -3  -9   10.44    1.46
  -2  -3  -9   14.08    1.39
  -2  -3  -9   13.90    1.71
  -3  -2  -9   21.99    2.11
  -3  -2  -9   28.85    2.40
  -3  -2  -9   23.52    1.80
  -4  -1  -9   29.73    2.55
  -4  -1  -9   37.12    2.81
  -4  -1  -9   34.96    2.19
   4   1   9   31.01    1.89
  -5   0  -9   41.93    2.47
  -5   0  -9   41.72    3.12
   5   0   9   35.07    2.15
  -6   1  -9   39.09    2.86
  -6   1  -9   33.36    2.63
   6  -1   9   28.10    1.87
  -7   2  -9   17.22    1.95
  -7   2  -9   13.80    1.43
   7  -2   9   13.28    1.16
  -8   3  -9    4.35    1.29
  -8   3  -9    5.08    1.01
   1  -7  -8   17.73    1.80
   1  -7  -8   16.57    1.64
  -1   7   8   18.37    1.88
   0  -6  -8   26.99    2.23
   0  -6  -8   30.27    2.09
   0   6   8   28.94    2.43
  -1  -5  -8   29.39    2.37
  -1  -5  -8   34.12    2.70
  -1  -5  -8   31.81    2.26
   1   5   8   33.76    2.66
  -2  -4  -8    9.53    1.37
  -2  -4  -8   11.20    1.55
  -2  -4  -8   12.02    1.22
  -3  -3  -8    0.43    0.94
  -3  -3  -8    1.37    0.97
  -3  -3  -8    0.99    0.70
  -4  -2  -8   -0.94    0.60
  -4  -2  -8   -0.05    0.92
  -4  -2  -8   -0.73    0.89
  -5  -1  -8    0.03    0.94
  -5  -1  -8    0.51    0.93
  -5  -1  -8    0.42    0.66
   5   1   8    0.31    0.56
  -6   0  -8   -0.32    0.90
  -6   0  -8    0.18    0.99
  -6   0  -8    0.72    0.64
   6   0   8    1.32    0.61
  -7   1  -8    5.57    1.36
  -7   1  -8    3.68    0.81
   7  -1   8    4.12    0.77
  -8   2  -8   16.24    1.57
  -8   2  -8   21.04    2.08
   8  -2   8   16.51    1.37
  -9   3  -8   17.67    1.78
  -9   3  -8   23.38    2.28
   1  -8  -7    5.24    1.13
   1  -8  -7    5.37    1.12
  -1   8   7    7.03    1.22
   0  -7  -7   10.06    1.25
   0  -7  -7    9.10    1.25
   0   7   7    9.88    1.37
  -1  -6  -7   10.10    1.24
  -1  -6  -7   11.26    1.29
  -1  -6  -7    9.20    1.27
   1   6   7   11.23    1.50
  -2  -5  -7   22.29    2.15
  -2  -5  -7   22.80    1.95
  -2  -5  -7   22.73    1.86
  -3  -4  -7   51.24    3.00
  -3  -4  -7   45.59    3.09
  -3  -4  -7   48.96    3.52
  -4  -3  -7   49.00    2.89
  -4  -3  -7   49.75    3.44
  -4  -3  -7   42.18    3.01
  -5  -2  -7   34.70    2.63
  -5  -2  -7   30.96    2.12
  -5  -2  -7   27.53    2.32
  -6  -1  -7   23.97    2.15
  -6  -1  -7   27.87    2.41
  -6  -1  -7   29.07    1.96
   6   1   7   24.27    1.65
  -7   0  -7   14.94    1.41
  -7   0  -7   17.35    1.91
  -7   0  -7   11.87    1.51
   7   0   7   13.74    1.21
  -8   1  -7    4.12    0.90
  -8   1  -7    4.58    1.19
   8  -1   7    4.62    0.85
  -9   2  -7    2.04    0.79
  -9   2  -7    1.47    1.10
   1  -9  -6    8.75    1.24
   1  -9  -6    8.79    1.30
   1  -9  -6    8.36    0.89
  -1   9   6    9.64    1.37
   0  -8  -6    6.53    1.13
   0  -8  -6    7.80    0.85
   0  -8  -6    9.26    1.23
   0   8   6    9.05    1.33
  -1  -7  -6   18.35    1.73
  -1  -7  -6   24.27    1.90
  -1  -7  -6   18.55    1.34
  -1  -7  -6   19.70    1.83
   1   7   6   21.58    1.98
  -2  -6  -6    4.76    0.68
  -2  -6  -6    5.05    1.00
  -2  -6  -6    6.08    1.15
  -2  -6  -6    4.54    0.99
   2   6   6    5.56    1.20
  -3  -5  -6    2.67    0.57
  -3  -5  -6    4.26    0.89
  -3  -5  -6    1.74    0.87
  -3  -5  -6    3.80    1.09
  -4  -4  -6    1.13    0.85
  -4  -4  -6    1.28    0.49
  -4  -4  -6    1.06    0.94
  -4  -4  -6    1.39    0.73
  -5  -3  -6    0.21    0.64
  -5  -3  -6    0.99    0.89
  -5  -3  -6    0.35    0.45
  -5  -3  -6   -0.22    0.91
  -6  -2  -6   16.40    1.52
  -6  -2  -6   15.36    1.87
  -6  -2  -6   14.28    1.56
  -7  -1  -6   46.86    3.31
  -7  -1  -6   45.21    2.74
  -7  -1  -6   38.88    2.86
  -8   0  -6   23.46    2.14
  -8   0  -6   29.84    1.99
  -8   0  -6   30.35    2.47
   8   0   6   24.25    1.77
  -9   1  -6   11.73    1.63
  -9   1  -6    9.23    1.18
   9  -1   6   11.08    1.15
   1 -10  -5   10.47    1.30
   0  -9  -5    3.70    0.96
   0  -9  -5    6.06    0.82
   0   9   5    6.06    1.18
  -1  -8  -5   14.85    1.19
  -1  -8  -5   14.37    1.52
  -1  -8  -5   15.29    1.56
  -1  -8  -5   13.34    1.52
   1   8   5   15.81    1.73
  -2  -7  -5   55.63    3.01
  -2  -7  -5   60.90    3.62
  -2  -7  -5   61.90    3.68
   2   7   5   68.55    4.19
  -3  -6  -5   71.06    4.27
  -3  -6  -5   63.02    3.71
  -3  -6  -5   56.78    3.07
  -3  -6  -5   62.59    3.73
  -4  -5  -5   13.37    1.06
  -4  -5  -5   13.30    1.34
  -4  -5  -5   13.82    1.69
  -4  -5  -5   12.53    1.36
  -5  -4  -5    7.06    1.16
  -5  -4  -5   10.27    1.35
  -5  -4  -5    9.61    1.10
  -5  -4  -5    7.29    0.79
  -6  -3  -5   31.78    2.50
  -6  -3  -5   30.85    2.28
  -6  -3  -5   26.88    1.66
  -6  -3  -5   30.71    2.12
  -7  -2  -5   16.76    1.55
  -7  -2  -5   14.43    1.13
  -7  -2  -5   14.68    1.85
  -7  -2  -5   13.62    1.55
  -8  -1  -5    0.46    0.70
  -8  -1  -5   -0.52    0.51
  -8  -1  -5   -1.12    0.89
  -8  -1  -5    0.18    0.91
  -9   0  -5   -0.80    0.80
  -9   0  -5   -0.24    0.74
  -9   0  -5   -0.09    0.54
  -9   0  -5   -0.26    0.97
 -10   1  -5    0.35    0.55
 -10   1  -5   -0.40    1.02
 -10   1  -5    0.51    0.71
   0 -10  -4    1.56    0.87
   0 -10  -4    1.93    0.69
  -1  -9  -4    0.57    0.59
  -1  -9  -4    0.23    0.79
  -2  -8  -4   -0.23    0.74
  -2  -8  -4    0.05    0.57
  -3  -7  -4    1.35    0.77
  -3  -7  -4    2.09    0.63
  -3  -7  -4    2.27    0.83
  -4  -6  -4    6.55    1.02
  -4  -6  -4    5.90    1.00
  -4  -6  -4    4.79    0.72
  -5  -5  -4   14.15    1.10
  -5  -5  -4   11.21    1.34
  -5  -5  -4   14.80    1.51
  -6  -4  -4   34.70    1.97
  -6  -4  -4   35.26    2.53
  -6  -4  -4   38.08    2.45
  -7  -3  -4   45.93    3.10
  -7  -3  -4   46.17    2.49
  -7  -3  -4   47.25    2.96
  -7  -3  -4   52.24    3.46
  -8  -2  -4   31.28    2.50
  -8  -2  -4   25.55    2.24
  -8  -2  -4   30.61    1.77
  -8  -2  -4   29.03    2.11
  -9  -1  -4   20.12    1.69
  -9  -1  -4   18.33    1.33
  -9  -1  -4   14.93    1.68
  -9  -1  -4   18.43    1.94
 -10   0  -4   17.04    1.96
  -1 -10  -3   32.14    2.19
  -1 -10  -3   26.66    1.79
  -2  -9  -3   28.18    1.81
  -2  -9  -3   32.18    2.20
  -3  -8  -3   21.69    1.82
  -3  -8  -3   21.07    1.47
  -4  -7  -3   16.51    1.59
  -4  -7  -3   14.65    1.24
  -5  -6  -3   11.19    1.03
  -5  -6  -3   11.38    1.28
  -6  -5  -3    4.34    1.01
  -6  -5  -3    4.47    0.76
  -7  -4  -3    0.75    0.62
  -7  -4  -3    1.13    0.92
  -8  -3  -3   -0.03    0.59
  -8  -3  -3   -0.67    0.93
  -9  -2  -3    1.53    1.06
  -9  -2  -3    1.46    0.63
 -10  -1  -3    5.27    0.83
 -10  -1  -3    5.68    1.25
  -1 -11  -2    0.61    0.84
  -2 -10  -2    0.76    0.69
  -2 -10  -2    1.36    0.87
  -3  -9  -2    4.19    0.82
  -3  -9  -2    5.03    0.97
  -4  -8  -2   22.72    1.89
  -4  -8  -2   22.42    1.55
  -5  -7  -2   38.42    2.15
  -5  -7  -2   36.97    2.55
  -6  -6  -2   30.56    2.34
  -6  -6  -2   32.17    1.92
  -7  -5  -2   32.46    1.92
  -7  -5  -2   29.52    2.38
  -8  -4  -2   35.93    2.71
  -8  -4  -2   39.08    2.21
  -9  -3  -2   18.80    1.94
  -9  -3  -2   18.92    1.46
 -10  -2  -2    4.38    1.09
 -10  -2  -2    4.71    0.83
  -2 -11  -1   17.94    1.50
  -2 -11  -1   17.93    1.72
  -3 -10  -1   25.08    2.00
  -3 -10  -1   23.70    1.72
  -4  -9  -1    5.70    0.88
  -4  -9  -1    5.05    1.02
  -5  -8  -1    0.76    0.81
  -5  -8  -1    0.53    0.68
  -6  -7  -1   -0.74    0.77
  -6  -7  -1   -0.60    0.66
  -7  -6  -1    0.11    0.67
  -7  -6  -1   -0.09    0.88
  -8  -5  -1    0.95    0.99
  -8  -5  -1    1.41    0.74
  -9  -4  -1   10.22    1.09
  -9  -4  -1   12.07    1.52
  -4 -10   0   27.41    2.16
  -4 -10   0   27.35    1.86
  -5  -9   0   32.10    2.04
  -5  -9   0   32.01    2.38
  -6  -8   0   22.45    2.01
  -6  -8   0   22.89    1.69
  -7  -7   0   29.38    2.29
  -7  -7   0   28.20    1.91
  -8  -6   0   30.70    2.39
  -8  -6   0   27.40    1.93
  -9  -5   0    6.20    0.98
  -9  -5   0    5.70    1.25
  -6  -9   1    0.35    0.77
  -6  -9   1    1.70    0.92
  -7  -8   1    0.62    0.78
  -7  -8   1   -0.28    0.87
  -1  -2 -12   25.51    2.63
  -1  -2 -12   37.98    2.26
  -1  -2 -12   31.17    2.85
   1   2  12   34.83    2.92
  -2  -1 -12   22.59    2.39
  -2  -1 -12   18.12    2.09
  -2  -1 -12   24.52    1.71
  -3   0 -12   11.59    1.65
  -3   0 -12   11.30    1.24
  -3   0 -12   12.28    1.92
  -4   1 -12    9.40    1.62
  -4   1 -12   13.36    1.91
  -5   2 -12   12.75    1.91
   0  -4 -11    3.56    1.27
   0  -4 -11    4.94    0.97
   0   4  11    3.32    1.20
  -1  -3 -11    0.60    0.78
  -1  -3 -11   -1.34    1.09
  -1  -3 -11   -0.09    1.05
   1   3  11    0.35    1.11
  -2  -2 -11    3.36    1.21
  -2  -2 -11    3.97    0.88
  -2  -2 -11    2.08    1.15
  -3  -1 -11    8.05    1.02
  -3  -1 -11    8.24    1.63
  -3  -1 -11    5.55    1.32
  -4   0 -11   11.11    1.63
  -4   0 -11   14.62    1.88
  -4   0 -11   11.45    1.30
  -5   1 -11   21.00    2.24
  -5   1 -11   17.62    1.54
  -6   2 -11   17.96    1.54
   0  -5 -10   19.85    1.75
   0  -5 -10   15.57    1.81
   0   5  10   19.03    2.01
  -1  -4 -10   24.53    2.34
  -1  -4 -10   25.53    1.90
  -1  -4 -10   18.82    2.10
   1   4  10   23.79    2.35
  -2  -3 -10   21.33    2.29
  -2  -3 -10   31.52    2.06
  -2  -3 -10   27.37    2.53
  -3  -2 -10   14.41    1.88
  -3  -2 -10   15.30    1.48
  -3  -2 -10   10.42    1.59
  -4  -1 -10    3.75    0.85
  -4  -1 -10    2.33    1.16
  -4  -1 -10    5.82    1.42
  -5   0 -10    3.25    0.79
  -5   0 -10    3.60    1.35
  -5   0 -10    2.65    1.20
   5   0  10    2.56    0.66
  -6   1 -10    0.70    1.09
  -6   1 -10    0.57    0.63
  -7   2 -10   -0.16    1.08
  -7   2 -10    0.03    0.68
   0  -6  -9    1.49    0.86
   0  -6  -9    2.82    1.09
   0  -6  -9    2.17    0.92
   0   6   9    0.91    0.93
  -1  -5  -9    3.66    0.92
  -1  -5  -9    2.62    1.13
   1   5   9    4.69    1.29
  -2  -4  -9    7.56    1.06
  -2  -4  -9    7.08    1.41
  -2  -4  -9    4.15    1.17
  -3  -3  -9   18.68    1.65
  -3  -3  -9   18.42    1.95
  -3  -3  -9   18.78    2.10
  -4  -2  -9   37.16    2.32
  -4  -2  -9   33.70    2.85
  -4  -2  -9   28.12    2.56
  -5  -1  -9   32.28    2.80
  -5  -1  -9   34.75    2.24
  -5  -1  -9   27.82    2.54
  -6   0  -9   17.77    1.98
  -6   0  -9   23.28    1.71
  -6   0  -9   25.26    2.36
   6   0   9   18.77    1.43
  -7   1  -9   23.43    2.39
  -7   1  -9   21.43    1.80
   0  -7  -8    8.78    1.25
   0  -7  -8    6.14    1.13
   0  -7  -8    5.97    1.20
   0   7   8    7.87    1.35
  -1  -6  -8    9.73    1.38
  -1  -6  -8   13.65    1.40
   1   6   8   11.58    1.61
  -2  -5  -8   38.52    2.51
  -2  -5  -8   35.95    2.94
  -2  -5  -8   30.00    2.54
   2   5   8   40.92    2.97
  -3  -4  -8   11.16    1.26
  -3  -4  -8    9.67    1.43
  -3  -4  -8   12.66    1.68
  -4  -3  -8    0.41    0.94
  -4  -3  -8    1.97    1.11
  -4  -3  -8    1.12    0.77
  -5  -2  -8    0.70    0.72
  -5  -2  -8   -0.79    0.90
  -5  -2  -8   -0.79    0.96
  -6  -1  -8    1.79    0.75
  -6  -1  -8    0.30    0.97
  -6  -1  -8    0.95    1.03
  -7   0  -8    6.96    1.49
  -7   0  -8    3.97    1.16
  -7   0  -8    6.75    0.97
  -8   1  -8   26.70    2.46
  -8   1  -8   23.46    1.90
   0  -8  -7    6.36    1.14
   0  -8  -7    4.50    1.11
   0  -8  -7    5.92    1.18
   0   8   7    6.99    1.28
  -1  -7  -7    2.86    1.02
  -1  -7  -7    6.64    1.16
   1   7   7    7.12    1.28
  -2  -6  -7   19.68    1.81
  -2  -6  -7   16.98    1.80
  -2  -6  -7   20.71    2.07
   2   6   7   18.91    2.04
  -3  -5  -7   46.06    3.04
  -3  -5  -7   49.80    3.49
  -3  -5  -7   44.98    2.98
  -4  -4  -7   44.67    3.23
  -4  -4  -7   35.20    2.76
  -4  -4  -7   43.40    2.71
  -5  -3  -7   17.34    1.94
  -5  -3  -7   13.90    1.54
  -5  -3  -7   12.83    1.52
  -6  -2  -7    9.57    1.42
  -6  -2  -7   13.43    1.73
  -6  -2  -7   11.61    1.25
  -7  -1  -7   19.63    2.10
  -7  -1  -7   27.35    1.95
  -7  -1  -7   26.71    2.43
  -8   0  -7   18.16    1.63
  -8   0  -7   11.66    1.55
  -8   0  -7   19.08    2.05
  -1  -8  -6    4.82    1.07
  -1  -8  -6    6.00    0.78
  -1  -8  -6    7.81    1.21
   1   8   6    7.17    1.27
  -2  -7  -6    3.02    0.65
  -2  -7  -6    3.95    1.01
  -2  -7  -6    4.15    1.02
   2   7   6    4.74    1.17
  -3  -6  -6    0.43    0.85
  -3  -6  -6    1.87    1.00
  -3  -6  -6    1.17    0.53
  -3  -6  -6    0.32    0.75
  -4  -5  -6   -0.67    0.82
  -4  -5  -6    0.07    0.71
  -4  -5  -6   -0.21    0.49
  -4  -5  -6   -0.05    0.94
  -5  -4  -6    0.17    0.48
  -5  -4  -6    0.26    0.75
  -5  -4  -6   -0.16    0.99
  -5  -4  -6    1.03    0.91
  -6  -3  -6   10.45    1.19
  -6  -3  -6   12.03    1.57
  -6  -3  -6    7.41    1.30
  -7  -2  -6   28.97    2.52
  -7  -2  -6   27.90    2.04
  -7  -2  -6   25.11    2.21
  -8  -1  -6   23.29    2.15
  -8  -1  -6   27.14    2.46
  -8  -1  -6   27.38    2.01
  -9   0  -6   15.24    1.97
  -9   0  -6   14.74    1.58
  -1  -9  -5   14.17    1.23
  -1  -9  -5   17.14    1.69
  -2  -8  -5   29.36    2.19
  -2  -8  -5   27.05    1.71
  -2  -8  -5   32.08    2.31
  -3  -7  -5   34.16    2.41
  -3  -7  -5   29.89    1.78
  -3  -7  -5   29.51    2.24
  -4  -6  -5   20.75    1.84
  -4  -6  -5   23.21    1.94
  -4  -6  -5   19.65    1.36
  -5  -5  -5   16.20    1.72
  -5  -5  -5   20.69    1.73
  -5  -5  -5   16.31    1.23
  -6  -4  -5   15.44    1.58
  -6  -4  -5   13.63    1.11
  -6  -4  -5   13.99    1.53
  -7  -3  -5    8.56    0.87
  -7  -3  -5   11.20    1.51
  -7  -3  -5    7.27    1.28
  -7  -3  -5   10.44    1.19
  -8  -2  -5    3.17    1.15
  -8  -2  -5    2.77    0.63
  -8  -2  -5    3.37    1.09
  -8  -2  -5    2.74    0.82
  -9  -1  -5    0.69    0.57
  -9  -1  -5    0.92    0.80
  -9  -1  -5   -0.60    0.96
  -9  -1  -5   -1.15    0.94
  -2  -9  -4    1.00    0.64
  -2  -9  -4   -0.04    0.82
  -3  -8  -4    0.01    0.81
  -3  -8  -4    0.31    0.58
  -4  -7  -4    5.08    0.76
  -4  -7  -4    4.41    0.99
  -5  -6  -4   16.58    1.29
  -5  -6  -4   18.19    1.76
  -5  -6  -4   18.67    1.76
  -6  -5  -4   23.53    1.92
  -6  -5  -4   20.25    1.91
  -6  -5  -4   20.79    1.43
  -7  -4  -4   22.27    1.98
  -7  -4  -4   21.45    1.85
  -7  -4  -4   20.69    1.42
  -8  -3  -4   24.47    1.59
  -8  -3  -4   23.66    2.09
  -9  -2  -4   23.54    1.54
  -9  -2  -4   20.35    2.02
  -3  -9  -3   17.44    1.41
  -3  -9  -3   19.60    1.76
  -4  -8  -3   27.95    2.15
  -4  -8  -3   28.06    1.78
  -5  -7  -3   10.99    1.29
  -5  -7  -3   10.25    1.02
  -6  -6  -3    2.51    0.95
  -6  -6  -3    1.23    0.67
  -7  -5  -3    2.20    0.70
  -7  -5  -3    1.46    0.96
  -8  -4  -3    1.61    0.99
  -8  -4  -3    0.64    0.63
  -9  -3  -3    0.62    0.65
  -9  -3  -3   -0.18    0.97
  -4  -9  -2    8.33    1.01
  -4  -9  -2    9.14    1.21
  -5  -8  -2   28.10    2.21
  -5  -8  -2   28.86    1.81
  -6  -7  -2   26.16    1.73
  -6  -7  -2   26.96    2.14
  -7  -6  -2   16.81    1.79
  -7  -6  -2   15.46    1.35
  -8  -5  -2   26.03    1.76
  -8  -5  -2   27.09    2.28
  -6  -8  -1    1.44    0.76
  -6  -8  -1    2.55    0.96
  -7  -7  -1    0.28    0.73
  -7  -7  -1    0.25    0.91
  -2  -4 -10   15.52    1.62
  -2  -4 -10   13.72    1.72
  -3  -3 -10   39.48    2.51
  -3  -3 -10   36.53    3.07
  -3  -3 -10   31.53    2.73
  -4  -2 -10   10.85    1.67
  -4  -2 -10   17.15    2.10
  -4  -2 -10   16.24    1.61
  -5  -1 -10    0.11    1.09
  -5  -1 -10   -1.20    0.73
  -5  -1 -10    0.00    1.09
  -2  -5  -9    6.51    1.09
  -2  -5  -9    6.43    1.44
  -2  -5  -9    3.63    1.16
   2   5   9    6.99    1.50
  -3  -4  -9   14.44    1.75
  -3  -4  -9   19.40    2.16
  -3  -4  -9   21.35    1.78
  -4  -3  -9   15.56    1.80
  -4  -3  -9   20.34    1.75
  -4  -3  -9   20.33    2.22
  -5  -2  -9   18.28    2.16
  -5  -2  -9   14.21    1.78
  -5  -2  -9   18.51    1.69
  -6  -1  -9   12.47    1.71
  -6  -1  -9   18.62    1.65
  -6  -1  -9   18.49    2.16
  -2  -6  -8   16.43    1.58
  -2  -6  -8   10.63    1.49
   2   6   8   16.25    1.90
  -3  -5  -8   14.61    1.65
  -3  -5  -8   15.76    1.66
  -3  -5  -8   15.79    1.97
  -4  -4  -8    4.31    1.32
  -4  -4  -8    2.64    1.07
  -4  -4  -8    4.45    0.99
  -5  -3  -8   -0.90    0.93
  -5  -3  -8    0.18    1.08
  -5  -3  -8   -0.48    0.76
  -6  -2  -8   -0.10    0.75
  -6  -2  -8    0.28    0.96
  -6  -2  -8   -0.75    1.06
  -7  -1  -8    2.46    1.22
  -7  -1  -8    2.48    0.84
  -7  -1  -8    2.32    1.07
  -3  -6  -7   19.17    1.96
  -3  -6  -7   24.23    2.03
  -3  -6  -7   25.09    2.31
   3   6   7   23.85    2.29
  -4  -5  -7   31.88    2.27
  -4  -5  -7   24.49    2.22
  -4  -5  -7   30.88    2.61
  -5  -4  -7   17.60    1.92
  -5  -4  -7   23.33    2.33
  -5  -4  -7   24.73    1.95
  -6  -3  -7   18.56    1.74
  -6  -3  -7   12.36    1.59
  -6  -3  -7   19.92    2.09
  -7  -2  -7   16.66    1.64
  -7  -2  -7   11.30    1.54
  -7  -2  -7   17.89    2.04
  -3  -7  -6    1.44    0.94
  -3  -7  -6    2.28    0.61
  -3  -7  -6    2.81    0.97
  -4  -6  -6   -1.10    0.83
  -4  -6  -6    0.43    0.74
  -4  -6  -6    0.25    0.50
  -5  -5  -6    2.77    0.86
  -5  -5  -6    1.67    0.56
  -5  -5  -6    2.45    1.02
  -6  -4  -6    5.65    1.20
  -6  -4  -6    8.77    1.48
  -6  -4  -6    8.65    1.17
  -7  -3  -6    9.00    1.40
  -7  -3  -6   11.95    1.63
  -7  -3  -6   10.14    1.23
  -4  -7  -5   15.01    1.24
  -4  -7  -5   18.80    1.73
  -5  -6  -5   27.98    1.76
  -5  -6  -5   30.51    2.34
  -5  -6  -5   36.15    2.39
  -6  -5  -5   16.89    1.79
  -6  -5  -5   19.57    1.80
  -6  -5  -5   14.11    1.21
  -7  -4  -5    4.08    0.71
  -7  -4  -5    4.70    1.00
  -7  -4  -5    4.81    1.15
  -5  -7  -4    8.47    1.21
  -5  -7  -4    8.03    0.91
  -6  -6  -4   26.80    2.13
  -6  -6  -4   23.73    1.60
  -7  -5  -4   15.81    1.29
  -7  -5  -4   17.55    1.83
   0   0   0    0.00    0.00
;
_shelx_hkl_checksum              47391
_shelx_res_file
;
TITL alch102 in P-1 (CF, black block)
CELL 0.71073 7.6126 8.8933 9.5996 115.042 98.263 105.452
ZERR 2 0.0013 0.0007 0.0008 0.004 0.005 0.006
LATT 1
SFAC C H Au Cl N
UNIT 20 16 2 4 6
LIST 4
L.S. 4 0 0
PLAN  -10
SIZE  0.115  0.117  0.225
TEMP -173
MORE -1
ACTA
OMIT -2 56.565
BOND $H
CONF
fmap 2 53
acta 52
WGHT    0.039600
FVAR       0.12064
AU1   3   -0.024074    0.515416    0.292347    11.00000    0.00992    0.00941 =
         0.01223    0.00430    0.00210   -0.00101
CL1   4   -0.320669    0.431650    0.323164    11.00000    0.01273    0.01579 =
         0.02054    0.00837    0.00597    0.00057
CL2   4    0.033525    0.788812    0.504293    11.00000    0.01539    0.01341 =
         0.01602    0.00289    0.00339    0.00066
N1    5    0.238276    0.596012    0.266426    11.00000    0.00821    0.01218 =
         0.01753    0.00766    0.00202    0.00094
N2    5    0.131464    0.397548   -0.020439    11.00000    0.01246    0.01424 =
         0.01417    0.00618    0.00055    0.00335
N3    5   -0.078925    0.275092    0.100928    11.00000    0.01135    0.01158 =
         0.01199    0.00645    0.00081    0.00059
C1    1    0.386802    0.726329    0.397184    11.00000    0.01486    0.01191 =
         0.01617    0.00451    0.00226   -0.00104
AFIX  43
H1    2    0.374355    0.754379    0.501507    11.00000   -1.20000
AFIX   0
C2    1    0.551695    0.817416    0.383824    11.00000    0.01331    0.01377 =
         0.01470    0.00517   -0.00014    0.00028
AFIX  43
H2    2    0.655044    0.904330    0.476727    11.00000   -1.20000
AFIX   0
C3    1    0.565635    0.780166    0.230049    11.00000    0.01013    0.01597 =
         0.02219    0.00970    0.00424    0.00153
AFIX  43
H3    2    0.676108    0.847504    0.217471    11.00000   -1.20000
AFIX   0
C4    1    0.420131    0.646680    0.097595    11.00000    0.01358    0.01392 =
         0.01850    0.00721    0.00671    0.00284
AFIX  43
H4    2    0.429337    0.623434   -0.006689    11.00000   -1.20000
AFIX   0
C5    1    0.254803    0.541941    0.113935    11.00000    0.01210    0.01086 =
         0.01684    0.00633    0.00351    0.00186
C6    1   -0.007839    0.266264   -0.023771    11.00000    0.00961    0.01283 =
         0.01381    0.00438    0.00054    0.00326
C7    1   -0.085509    0.101643   -0.171059    11.00000    0.01276    0.01439 =
         0.01457    0.00463    0.00253    0.00161
AFIX  43
H7    2   -0.046313    0.094678   -0.262499    11.00000   -1.20000
AFIX   0
C8    1   -0.215521   -0.046313   -0.182684    11.00000    0.01410    0.01158 =
         0.01721    0.00288   -0.00073   -0.00109
AFIX  43
H8    2   -0.264816   -0.155528   -0.280957    11.00000   -1.20000
AFIX   0
C9    1   -0.275183   -0.035383   -0.048716    11.00000    0.01514    0.00921 =
         0.02094    0.00646    0.00078   -0.00204
AFIX  43
H9    2   -0.361767   -0.137728   -0.053347    11.00000   -1.20000
AFIX   0
C10   1   -0.206680    0.125060    0.088767    11.00000    0.01413    0.01090 =
         0.01830    0.00704    0.00237   -0.00106
AFIX  43
H10   2   -0.248886    0.133226    0.179266    11.00000   -1.20000
AFIX   0
HKLF 4
REM  alch102 in P-1 (CF, black block)
REM R1 =  0.0235 for    2525 Fo > 4sig(Fo)  and  0.0253 for all    2678 data
REM    145 parameters refined using      0 restraints
END
WGHT      0.0396      0.0000
REM Highest difference peak  1.951,  deepest hole -2.717,  1-sigma level  0.207
Q1    1  -0.1061  0.5664  0.3134  11.00000  0.05    1.95
Q2    1  -0.0836  0.3867  0.1602  11.00000  0.05    1.89
Q3    1   0.0654  0.4776  0.2769  11.00000  0.05    1.73
Q4    1   0.0173  0.5795  0.3951  11.00000  0.05    1.53
Q5    1  -0.1170  0.4659  0.3777  11.00000  0.05    1.30
Q6    1   0.0662  0.5537  0.2047  11.00000  0.05    1.17
Q7    1  -0.1325  0.4930  0.1814  11.00000  0.05    1.12
Q8    1   0.0964  0.5410  0.4123  11.00000  0.05    0.99
Q9    1  -0.0142  0.5583  0.5863  11.00000  0.05    0.86
Q10   1   0.1086  0.4042  0.1923  11.00000  0.05    0.69
;
_shelx_res_checksum              8641
_shelxl_version_number           2.014
#END Tags that were not found in dictionaries
loop_
_space_group_symop_operation_xyz
'x, y, z'
'-x, -y, -z'
loop_
_atom_site_type_symbol
_atom_site_label
_atom_site_fract_x
_atom_site_fract_y
_atom_site_fract_z
_atom_site_U_iso_or_equiv
_atom_site_adp_type
_atom_site_calc_flag
_atom_site_occupancy
Au Au1 -0.02407(2) 0.51542(2) 0.29235(2) 0.01206(7) Uani d 1
Cl Cl1 -0.32067(14) 0.43165(13) 0.32316(13) 0.0174(2) Uani d 1
Cl Cl2 0.03352(14) 0.78881(13) 0.50429(13) 0.0178(2) Uani d 1
N N1 0.2383(5) 0.5960(4) 0.2664(4) 0.0133(7) Uani d 1
N N2 0.1315(5) 0.3975(4) -0.0204(4) 0.0146(7) Uani d 1
N N3 -0.0789(5) 0.2751(4) 0.1009(4) 0.0125(6) Uani d 1
C C1 0.3868(6) 0.7263(5) 0.3972(5) 0.0168(8) Uani d 1
H H1 0.3744 0.7544 0.5015 0.020 Uiso calc 1
C C2 0.5517(6) 0.8174(5) 0.3838(5) 0.0162(8) Uani d 1
H H2 0.6550 0.9043 0.4767 0.019 Uiso calc 1
C C3 0.5656(5) 0.7802(5) 0.2300(5) 0.0167(8) Uani d 1
H H3 0.6761 0.8475 0.2175 0.020 Uiso calc 1
C C4 0.4201(6) 0.6467(5) 0.0976(5) 0.0158(8) Uani d 1
H H4 0.4293 0.6234 -0.0067 0.019 Uiso calc 1
C C5 0.2548(5) 0.5419(5) 0.1139(5) 0.0140(8) Uani d 1
C C6 -0.0078(5) 0.2663(5) -0.0238(5) 0.0134(7) Uani d 1
C C7 -0.0855(5) 0.1016(5) -0.1711(5) 0.0158(8) Uani d 1
H H7 -0.0463 0.0947 -0.2625 0.019 Uiso calc 1
C C8 -0.2155(6) -0.0463(5) -0.1827(5) 0.0178(8) Uani d 1
H H8 -0.2648 -0.1555 -0.2810 0.021 Uiso calc 1
C C9 -0.2752(6) -0.0354(5) -0.0487(5) 0.0174(8) Uani d 1
H H9 -0.3618 -0.1377 -0.0533 0.021 Uiso calc 1
C C10 -0.2067(5) 0.1251(5) 0.0888(5) 0.0160(8) Uani d 1
H H10 -0.2489 0.1332 0.1793 0.019 Uiso calc 1
loop_
_atom_site_aniso_label
_atom_site_aniso_U_11
_atom_site_aniso_U_22
_atom_site_aniso_U_33
_atom_site_aniso_U_12
_atom_site_aniso_U_13
_atom_site_aniso_U_23
Au1 0.00992(9) 0.00941(9) 0.01223(9) -0.00101(6) 0.00210(6) 0.00430(6)
Cl1 0.0127(4) 0.0158(4) 0.0205(5) 0.0006(3) 0.0060(4) 0.0084(4)
Cl2 0.0154(4) 0.0134(4) 0.0160(5) 0.0007(4) 0.0034(3) 0.0029(4)
N1 0.0082(14) 0.0122(15) 0.0175(17) 0.0009(12) 0.0020(12) 0.0077(13)
N2 0.0125(15) 0.0142(15) 0.0142(17) 0.0033(12) 0.0005(12) 0.0062(13)
N3 0.0114(14) 0.0116(15) 0.0120(16) 0.0006(12) 0.0008(12) 0.0064(13)
C1 0.0149(18) 0.0119(17) 0.016(2) -0.0010(14) 0.0023(15) 0.0045(15)
C2 0.0133(17) 0.0138(17) 0.0147(19) 0.0003(14) -0.0001(14) 0.0052(15)
C3 0.0101(17) 0.0160(18) 0.022(2) 0.0015(14) 0.0042(15) 0.0097(16)
C4 0.0136(17) 0.0139(17) 0.019(2) 0.0028(14) 0.0067(15) 0.0072(15)
C5 0.0121(17) 0.0109(16) 0.017(2) 0.0019(14) 0.0035(14) 0.0063(15)
C6 0.0096(16) 0.0128(17) 0.0138(19) 0.0033(14) 0.0005(13) 0.0044(15)
C7 0.0128(17) 0.0144(18) 0.015(2) 0.0016(14) 0.0025(14) 0.0046(15)
C8 0.0141(18) 0.0116(17) 0.017(2) -0.0011(14) -0.0007(14) 0.0029(15)
C9 0.0151(18) 0.0092(17) 0.021(2) -0.0020(14) 0.0008(15) 0.0065(15)
C10 0.0141(17) 0.0109(17) 0.018(2) -0.0011(14) 0.0024(14) 0.0070(15)
loop_
_atom_type_symbol
_atom_type_description
_atom_type_scat_dispersion_real
_atom_type_scat_dispersion_imag
_atom_type_scat_source
C C 0.0033 0.0016 'International Tables Vol C Tables 4.2.6.8 and 6.1.1.4'
H H 0.0000 0.0000 'International Tables Vol C Tables 4.2.6.8 and 6.1.1.4'
Au Au -2.0133 8.8022 'International Tables Vol C Tables 4.2.6.8 and 6.1.1.4'
Cl Cl 0.1484 0.1585 'International Tables Vol C Tables 4.2.6.8 and 6.1.1.4'
N N 0.0061 0.0033 'International Tables Vol C Tables 4.2.6.8 and 6.1.1.4'
loop_
_geom_angle_atom_site_label_1
_geom_angle_atom_site_label_2
_geom_angle_atom_site_label_3
_geom_angle
_geom_angle_publ_flag
N1 Au1 N3 87.86(14) yes
N1 Au1 Cl1 178.48(9) ?
N3 Au1 Cl1 93.32(10) ?
N1 Au1 Cl2 92.41(10) ?
N3 Au1 Cl2 178.50(10) ?
Cl1 Au1 Cl2 86.39(4) yes
C1 N1 C5 120.8(3) ?
C1 N1 Au1 119.7(3) ?
C5 N1 Au1 118.4(3) ?
C6 N2 C5 124.9(4) yes
C6 N3 C10 120.4(3) ?
C6 N3 Au1 119.7(3) ?
C10 N3 Au1 119.4(3) ?
C2 C1 N1 122.4(4) ?
C2 C1 H1 118.8 ?
N1 C1 H1 118.8 ?
C1 C2 C3 118.3(4) ?
C1 C2 H2 120.8 ?
C3 C2 H2 120.8 ?
C4 C3 C2 119.9(4) ?
C4 C3 H3 120.0 ?
C2 C3 H3 120.0 ?
C3 C4 C5 120.9(4) ?
C3 C4 H4 119.6 ?
C5 C4 H4 119.6 ?
N2 C5 N1 125.9(4) ?
N2 C5 C4 117.3(4) ?
N1 C5 C4 116.9(4) ?
N2 C6 N3 125.9(4) ?
N2 C6 C7 116.3(4) ?
N3 C6 C7 117.7(3) ?
C8 C7 C6 121.1(4) ?
C8 C7 H7 119.5 ?
C6 C7 H7 119.5 ?
C7 C8 C9 119.5(4) ?
C7 C8 H8 120.3 ?
C9 C8 H8 120.3 ?
C10 C9 C8 118.7(4) ?
C10 C9 H9 120.6 ?
C8 C9 H9 120.6 ?
C9 C10 N3 122.3(4) ?
C9 C10 H10 118.8 ?
N3 C10 H10 118.8 ?
loop_
_geom_bond_atom_site_label_1
_geom_bond_atom_site_label_2
_geom_bond_distance
_geom_bond_publ_flag
Au1 N1 2.024(3) yes
Au1 N3 2.024(3) yes
Au1 Cl1 2.2853(10) yes
Au1 Cl2 2.2872(10) yes
N1 C1 1.364(5) ?
N1 C5 1.371(5) ?
N2 C6 1.337(5) yes
N2 C5 1.342(5) yes
N3 C6 1.364(5) ?
N3 C10 1.373(5) ?
C1 C2 1.357(5) ?
C1 H1 0.9500 ?
C2 C3 1.396(6) ?
C2 H2 0.9500 ?
C3 C4 1.367(5) ?
C3 H3 0.9500 ?
C4 C5 1.425(5) ?
C4 H4 0.9500 ?
C6 C7 1.428(5) ?
C7 C8 1.369(5) ?
C7 H7 0.9500 ?
C8 C9 1.398(6) ?
C8 H8 0.9500 ?
C9 C10 1.364(5) ?
C9 H9 0.9500 ?
C10 H10 0.9500 ?
loop_
_geom_torsion_atom_site_label_1
_geom_torsion_atom_site_label_2
_geom_torsion_atom_site_label_3
_geom_torsion_atom_site_label_4
_geom_torsion
C5 N1 C1 C2 4.8(7)
Au1 N1 C1 C2 -163.0(3)
N1 C1 C2 C3 2.5(7)
C1 C2 C3 C4 -4.2(6)
C2 C3 C4 C5 -1.2(6)
C6 N2 C5 N1 -12.9(7)
C6 N2 C5 C4 165.6(4)
C1 N1 C5 N2 168.6(4)
Au1 N1 C5 N2 -23.4(6)
C1 N1 C5 C4 -9.9(6)
Au1 N1 C5 C4 158.1(3)
C3 C4 C5 N2 -170.5(4)
C3 C4 C5 N1 8.2(6)
C5 N2 C6 N3 17.3(7)
C5 N2 C6 C7 -161.5(4)
C10 N3 C6 N2 -172.4(4)
Au1 N3 C6 N2 15.9(6)
C10 N3 C6 C7 6.4(6)
Au1 N3 C6 C7 -165.3(3)
N2 C6 C7 C8 173.7(4)
N3 C6 C7 C8 -5.2(6)
C6 C7 C8 C9 0.9(6)
C7 C8 C9 C10 2.3(7)
C8 C9 C10 N3 -1.2(7)
C6 N3 C10 C9 -3.4(6)
Au1 N3 C10 C9 168.3(3)
