#------------------------------------------------------------------------------
#$Date: 2016-02-20 00:18:51 +0200 (Sat, 20 Feb 2016) $
#$Revision: 176760 $
#$URL: svn://www.crystallography.net/cod/cif/2/01/99/2019917.cif $
#------------------------------------------------------------------------------
#
# This file is available in the Crystallography Open Database (COD),
# http://www.crystallography.net/. The original data for this entry
# were provided by IUCr Journals, http://journals.iucr.org/.
#
# The file may be used within the scientific community so long as
# proper attribution is given to the journal article from which the
# data were obtained.
#
data_2019917
loop_
_publ_author_name
'Kova\<c, Sabina'
'Karanovi\'c, Ljiljana'
'Dordevi\'c, Tamara'
_publ_section_title
;
 An investigation of polyhedral deformation in two mixed-metal
 diarsenates: SrZnAs~2~O~7~ and BaCuAs~2~O~7~
;
_journal_coeditor_code           SK3577
_journal_issue                   4
_journal_name_full               'Acta Crystallographica Section C'
_journal_page_first              330
_journal_page_last               337
_journal_paper_doi               10.1107/S2053229615005616
_journal_volume                  71
_journal_year                    2015
_chemical_formula_iupac          'Sr Zn As2 O7'
_chemical_formula_moiety         'Sr Zn As2 O7'
_chemical_formula_sum            'As2 O7 Sr Zn'
_chemical_formula_weight         414.85
_chemical_name_systematic
;
Strontium zinc diarsenic heptaoxide
;
_space_group_crystal_system      monoclinic
_space_group_IT_number           14
_space_group_name_Hall           '-P 2yn'
_space_group_name_H-M_alt        'P 1 21/n 1'
_symmetry_space_group_name_Hall  '-P 2yn'
_symmetry_space_group_name_H-M   'P 1 21/n 1'
_atom_sites_solution_primary     direct
_atom_sites_solution_secondary   difmap
_audit_creation_method           SHELXL-2013
_cell_angle_alpha                90
_cell_angle_beta                 91.01(3)
_cell_angle_gamma                90
_cell_formula_units_Z            4
_cell_length_a                   5.5114(11)
_cell_length_b                   8.3524(17)
_cell_length_c                   13.106(3)
_cell_measurement_temperature    298(2)
_cell_volume                     603.2(2)
_computing_cell_refinement
;
SCALEPACK (Otwinowski & Minor, 1997)
;
_computing_data_collection
;
COLLECT (Nonius, 2002)
;
_computing_data_reduction
;
DENZO-SMN (Otwinowski <i>et al</i>., 2003)
;
_computing_molecular_graphics
;
ATOMS (Dowty, 2000)
;
_computing_publication_material
;
publCIF (Westrip, 2010)
;
_computing_structure_refinement
;
SHELXL2013 (Sheldrick, 2015), WinGX (Farrugia, 2012) and PLATON
(Spek, 2009)
;
_computing_structure_solution
;
SIR97 (Altomare <i>et al</i>., 1999)
;
_diffrn_ambient_temperature      298(2)
_diffrn_measured_fraction_theta_full 1.000
_diffrn_measured_fraction_theta_max 0.999
_diffrn_measurement_device_type  'Nonius KappaCCD'
_diffrn_measurement_method       '\f and \w scans'
_diffrn_radiation_type           MoK\a
_diffrn_radiation_wavelength     0.71073
_diffrn_reflns_av_R_equivalents  0.0615
_diffrn_reflns_limit_h_max       7
_diffrn_reflns_limit_h_min       -7
_diffrn_reflns_limit_k_max       11
_diffrn_reflns_limit_k_min       -11
_diffrn_reflns_limit_l_max       18
_diffrn_reflns_limit_l_min       -18
_diffrn_reflns_number            7055
_diffrn_reflns_theta_full        25.242
_diffrn_reflns_theta_max         30.503
_diffrn_reflns_theta_min         2.892
_exptl_absorpt_coefficient_mu    23.692
_exptl_absorpt_correction_T_max  1.000
_exptl_absorpt_correction_T_min  0.668
_exptl_absorpt_correction_type   multi-scan
_exptl_absorpt_process_details
;
(Otwinowski & Minor, 1997)
;
_exptl_crystal_colour            blue-green
_exptl_crystal_density_diffrn    4.568
_exptl_crystal_density_method    'not measured'
_exptl_crystal_description       prismatic
_exptl_crystal_F_000             760
_exptl_crystal_size_max          0.16
_exptl_crystal_size_mid          0.03
_exptl_crystal_size_min          0.02
_refine_diff_density_max         1.354
_refine_diff_density_min         -1.203
_refine_ls_extinction_method     none
_refine_ls_goodness_of_fit_ref   1.038
_refine_ls_hydrogen_treatment    undef
_refine_ls_matrix_type           full
_refine_ls_number_parameters     100
_refine_ls_number_reflns         1834
_refine_ls_number_restraints     0
_refine_ls_restrained_S_all      1.038
_refine_ls_R_factor_all          0.0408
_refine_ls_R_factor_gt           0.0318
_refine_ls_shift/su_max          0.000
_refine_ls_shift/su_mean         0.000
_refine_ls_structure_factor_coef Fsqd
_refine_ls_weighting_details
'w=1/[\s^2^(Fo^2^)+(0.0401P)^2^+1.0702P] where P=(Fo^2^+2Fc^2^)/3'
_refine_ls_weighting_scheme      calc
_refine_ls_wR_factor_gt          0.0711
_refine_ls_wR_factor_ref         0.0743
_reflns_number_gt                1555
_reflns_number_total             1835
_reflns_threshold_expression     I>2\s(I)
_cod_data_source_file            sk3577sup1.cif
_cod_data_source_block           SrZnAs2O7
_cod_database_code               2019917
_cod_database_fobs_code          2019917
#BEGIN Tags that were not found in dictionaries:
_shelx_space_group_comment
;
The symmetry employed for this shelxl refinement is uniquely defined
by the following loop, which should always be used as a source of
symmetry information in preference to the above space-group names.
They are only intended as comments.
;
_shelx_estimated_absorpt_t_min   0.430
_shelx_estimated_absorpt_t_max   0.623
_shelx_hkl_file
;
   0   0   1   -0.30    0.00
   0   0  -1   -0.10    0.10
   0   0   2   11.20    0.30
   0   0  -2   11.30    0.30
   0   0   3    0.20    0.20
   0   0  -3    0.30    0.20
   0   0   4   13.70    0.40
   0   0  -4   14.00    0.50
   0   0   5   -0.10    0.30
   0   0  -5    0.10    0.30
   0   0   6   85.40    1.60
   0   0  -6   77.20    1.60
   0   0   7    0.70    0.40
   0   0  -7    0.50    0.30
   0   0   8  163.30    3.00
   0   0  -8  160.30    3.60
   0   0   9    0.90    0.50
   0   0  -9    0.20    0.40
   0   0  10   80.50    2.00
   0   0 -10   77.30    2.10
   0   0  11    0.10    0.60
   0   0 -11   -0.10    0.60
   0   0  12    2.60    0.80
   0   0 -12    1.60    0.60
   0   0  13    0.90    0.90
   0   0 -13   -0.20    0.60
   0   0  14   -1.40    1.40
   0   0 -14    2.30    0.80
   0   0  15    3.00    1.70
   0   0 -15    1.60    1.50
   0   0  16  123.00    6.00
   0   0 -16  133.90    4.40
   0   0  17   -0.10    2.20
   0   0 -17    2.60    1.40
   0   0  18   90.00    5.80
   0   0 -18  106.80    4.60
   0   0  19    3.20    2.40
   0   0 -19    0.50    1.80
   0   0  20    6.40    2.80
   0   0 -20    2.50    2.20
   0   0  21   -3.10    3.50
   0   0 -21   -1.30    3.20
   0   1 -21    3.40    4.90
   0  -1  21    2.80    3.80
   0   1 -20   11.70    3.50
   0  -1  20    9.30    4.80
   0   1 -19    0.50    1.90
   0  -1  19    4.20    2.90
   0   1 -18   14.90    2.00
   0  -1  18    8.40    2.60
   0   1 -17    3.50    1.60
   0  -1  17    0.10    1.90
   0   1 -16   56.00    2.70
   0  -1  16   54.40    4.00
   0   1 -15    6.30    1.40
   0  -1  15    5.00    2.50
   0   1 -14   82.40    3.00
   0  -1  14   76.10    3.90
   0   1 -13   41.80    1.90
   0  -1  13   36.50    2.10
   0   1 -12    5.10    0.30
   0  -1  12    3.30    0.90
   0   1 -11    0.40    0.20
   0  -1  11    0.50    0.60
   0   1 -10  144.10    3.40
   0  -1  10  150.80    3.40
   0   1  -9  478.30    9.10
   0  -1   9  479.60    7.50
   0   1  -8   15.20    0.60
   0  -1   8   15.40    0.60
   0   1  -7   43.70    1.20
   0  -1   7   45.90    1.10
   0   1  -6  728.20   14.80
   0  -1   6  743.80   11.60
   0   1  -5   70.30    1.30
   0  -1   5   68.50    1.20
   0   1  -4   51.60    1.00
   0  -1   4   50.20    0.90
   0   1  -3  158.50    2.40
   0  -1   3  165.00    2.60
   0   1  -2    2.70    0.10
   0  -1   2    2.40    0.10
   0   1  -1   32.60    0.80
   0  -1   1   32.00    0.80
   0   1   0    0.10    0.10
   0  -1   0    0.10    0.00
   0   1   1   -0.60    0.20
   0  -1  -1    0.00    0.30
   0   1   2    2.30    0.30
   0  -1  -2    2.40    0.30
   0   1   3  151.80    3.10
   0  -1  -3  144.10    3.20
   0   1   4   51.30    1.30
   0  -1  -4   45.10    1.00
   0   1   5   64.70    1.40
   0  -1  -5   65.00    1.70
   0   1   6  666.90   11.90
   0  -1  -6  656.50   10.50
   0   1   7   43.40    1.10
   0  -1  -7   41.50    1.10
   0   1   8   15.10    0.70
   0  -1  -8   13.90    0.70
   0   1   9  464.70    7.40
   0  -1  -9  430.00    7.00
   0   1  10  144.20    3.00
   0  -1 -10  138.70    3.10
   0   1  11    0.50    0.60
   0  -1 -11    0.70    0.70
   0   1  12    4.00    0.80
   0  -1 -12    3.70    0.80
   0   1  13   39.90    2.30
   0  -1 -13   38.80    1.80
   0   1  14   73.00    4.00
   0  -1 -14   89.60    3.40
   0   1  15    6.40    2.00
   0  -1 -15    8.10    1.20
   0   1  16   57.90    4.00
   0  -1 -16   56.60    3.60
   0   1  17    1.50    2.20
   0  -1 -17    3.20    2.20
   0   1  18   22.80    3.90
   0  -1 -18   12.00    2.50
   0   1  19   -1.70    2.90
   0  -1 -19    1.70    1.80
   0   1  20   15.40    3.70
   0  -1 -20   12.80    2.60
   0   1  21   -6.00    3.80
   0  -1 -21   -0.40    3.10
   0   2 -20    7.70    2.80
   0  -2  20    3.50    3.30
   0   2 -19   18.00    3.70
   0  -2  19   14.70    4.00
   0   2 -18    3.10    1.90
   0  -2  18   -5.00    3.60
   0   2 -17   15.90    1.70
   0  -2  17   14.30    2.70
   0   2 -16    1.70    1.40
   0  -2  16    2.80    1.60
   0   2 -15  130.40    4.20
   0  -2  15  118.00    5.60
   0   2 -14   14.50    1.50
   0  -2  14   10.70    1.90
   0   2 -13   14.20    1.30
   0  -2  13   12.30    1.70
   0   2 -12   28.70    1.40
   0  -2  12   28.50    1.30
   0   2 -11   16.70    1.00
   0  -2  11   14.40    0.90
   0   2 -10  137.20    3.10
   0  -2  10  145.00    3.30
   0   2  -9   12.90    0.70
   0  -2   9   12.60    0.60
   0   2  -8  104.10    2.10
   0  -2   8  106.50    1.90
   0   2  -7   92.00    1.70
   0  -2   7   94.10    1.70
   0   2  -6   35.90    0.80
   0  -2   6   35.70    0.80
   0   2  -5   88.30    1.90
   0  -2   5   88.90    1.60
   0   2  -4  247.80    3.90
   0  -2   4  243.40    3.00
   0   2  -3  178.40    2.60
   0  -2   3  178.90    2.40
   0   2  -2  121.80    2.00
   0  -2   2  128.00    1.80
   0   2  -1    1.20    0.10
   0  -2   1    1.30    0.10
   0   2   0   63.10    1.70
   0  -2   0   60.40    1.30
   0   2   1    1.40    0.30
   0  -2  -1    0.90    0.30
   0   2   2   90.40    2.90
   0  -2  -2   83.00    2.40
   0   2   3  125.30    3.70
   0  -2  -3  143.70    3.60
   0   2   4  199.60    4.90
   0  -2  -4  229.30    4.60
   0   2   5   74.50    1.80
   0  -2  -5   80.90    1.80
   0   2   6   36.70    1.00
   0  -2  -6   34.00    0.90
   0   2   7   88.70    1.80
   0  -2  -7   91.30    1.90
   0   2   8   96.30    2.00
   0  -2  -8  100.10    2.10
   0   2   9   11.60    0.80
   0  -2  -9   13.40    0.80
   0   2  10  140.40    3.00
   0  -2 -10  131.50    3.20
   0   2  11   16.30    0.90
   0  -2 -11   16.10    1.20
   0   2  12   30.70    1.40
   0  -2 -12   33.00    1.60
   0   2  13   14.10    2.30
   0  -2 -13   11.00    1.20
   0   2  14    8.90    1.80
   0  -2 -14    9.80    1.20
   0   2  15  127.10    5.90
   0  -2 -15  138.60    3.80
   0   2  16   -2.50    1.80
   0  -2 -16    1.80    1.40
   0   2  17   10.20    2.50
   0  -2 -17   12.70    2.60
   0   2  18   -2.90    2.70
   0  -2 -18    1.40    2.20
   0   2  19    9.40    3.00
   0  -2 -19   16.10    3.00
   0   2  20    3.80    4.40
   0  -2 -20    4.60    2.90
   0   3 -20    1.80    2.60
   0  -3  20    1.80    3.20
   0   3 -19   42.50    4.50
   0  -3  19   37.90    6.40
   0   3 -18    8.00    2.40
   0  -3  18    7.10    3.10
   0   3 -17   -2.00    2.20
   0  -3  17    4.60    3.30
   0   3 -16    9.40    1.80
   0  -3  16    8.00    2.10
   0   3 -15   47.70    2.30
   0  -3  15   34.20    2.80
   0   3 -14    1.10    1.10
   0  -3  14   -0.30    1.40
   0   3 -13   14.70    1.30
   0  -3  13   12.50    1.60
   0   3 -12   26.50    1.20
   0  -3  12   23.50    1.20
   0   3 -11    4.80    0.70
   0  -3  11    3.20    0.60
   0   3 -10   29.20    1.10
   0  -3  10   24.10    1.10
   0   3  -9  210.10    3.70
   0  -3   9  229.90    4.90
   0   3  -8    5.00    0.50
   0  -3   8    4.90    0.40
   0   3  -7    5.10    0.40
   0  -3   7    4.40    0.40
   0   3  -6    3.50    0.30
   0  -3   6    3.40    0.20
   0   3  -5  132.20    2.20
   0  -3   5  132.10    2.00
   0   3  -4   34.30    0.80
   0  -3   4   36.40    0.70
   0   3  -3  100.60    1.60
   0  -3   3  103.80    1.60
   0   3  -2   19.10    0.50
   0  -3   2   18.30    0.40
   0   3  -1  828.60   13.00
   0  -3   1  840.90   10.10
   0   3   0    0.30    0.40
   0  -3   0    0.20    0.30
   0   3   1  763.50   11.40
   0  -3  -1  722.70   13.50
   0   3   2   13.50    0.70
   0  -3  -2   13.60    0.60
   0   3   3   88.40    1.80
   0  -3  -3   82.60    2.20
   0   3   4   29.80    1.30
   0  -3  -4   32.90    1.10
   0   3   5  107.10    2.90
   0  -3  -5  117.20    2.50
   0   3   6    3.20    0.90
   0  -3  -6    2.70    0.60
   0   3   7    3.10    1.00
   0  -3  -7    4.00    0.60
   0   3   8    5.00    1.50
   0  -3  -8    5.90    0.90
   0   3   9  173.00    8.90
   0  -3  -9  203.70    4.60
   0   3  10   22.30    1.90
   0  -3 -10   28.00    1.50
   0   3  11    2.60    1.40
   0  -3 -11    3.40    0.90
   0   3  12   26.00    1.60
   0  -3 -12   25.70    1.60
   0   3  13   17.80    2.50
   0  -3 -13   17.50    1.50
   0   3  14   -3.20    2.90
   0  -3 -14    0.00    0.80
   0   3  15   37.20    5.20
   0  -3 -15   43.70    2.20
   0   3  16    4.80    3.90
   0  -3 -16    8.00    1.30
   0   3  17   -3.10    5.30
   0  -3 -17   -0.20    1.40
   0   3  18   25.20    6.80
   0  -3 -18   13.00    2.80
   0   3  19   45.80    9.40
   0  -3 -19   53.50    4.50
   0   3  20    8.20    7.40
   0  -3 -20    3.10    3.40
   0   4 -20    3.60    2.70
   0  -4  20    2.30    3.40
   0   4 -19   37.40    4.30
   0  -4  19   35.50    6.50
   0   4 -18    2.70    2.10
   0  -4  18   -0.90    2.60
   0   4 -17   -3.20    3.20
   0  -4  17   -0.40    2.50
   0   4 -16    0.10    2.00
   0  -4  16   -1.10    3.20
   0   4 -15  172.00    6.10
   0  -4  15  160.10   10.60
   0   4 -14    9.80    1.20
   0  -4  14    9.50    1.90
   0   4 -13    1.70    0.80
   0  -4  13    1.50    1.10
   0   4 -12   88.60    2.60
   0  -4  12   87.10    2.90
   0   4 -11    8.10    0.70
   0  -4  11    9.70    0.90
   0   4 -10   75.30    1.70
   0  -4  10   77.50    2.00
   0   4  -9   60.00    1.40
   0  -4   9   62.60    2.00
   0   4  -8   46.10    1.10
   0  -4   8   47.20    1.50
   0   4  -7  221.20    3.50
   0  -4   7  231.00    3.80
   0   4  -6  242.70    3.90
   0  -4   6  244.80    3.80
   0   4  -5   40.90    0.80
   0  -4   5   40.60    0.80
   0   4  -4    0.10    0.20
   0  -4   4    0.50    0.20
   0   4  -3  125.40    2.10
   0  -4   3  129.10    1.90
   0   4  -2    1.30    0.30
   0  -4   2    1.70    0.20
   0   4  -1  244.00    3.90
   0  -4   1  246.00    3.10
   0   4   0  132.20    3.30
   0  -4   0  121.90    1.90
   0   4   1  235.30    3.90
   0  -4  -1  228.50    3.90
   0   4   2    1.90    0.40
   0  -4  -2    1.60    0.50
   0   4   3  116.10    2.40
   0  -4  -3  122.60    2.50
   0   4   4    0.20    0.50
   0  -4  -4    0.30    0.30
   0   4   5   37.90    1.20
   0  -4  -5   35.90    1.40
   0   4   6  220.90    5.50
   0  -4  -6  229.50    5.50
   0   4   7  214.40    7.20
   0  -4  -7  211.50    4.70
   0   4   8   45.20    2.80
   0  -4  -8   47.80    1.90
   0   4   9   53.80    4.50
   0  -4  -9   55.30    2.10
   0   4  10   61.50    4.90
   0  -4 -10   70.30    2.30
   0   4  11    6.50    3.50
   0  -4 -11    5.90    1.00
   0   4  12   86.20    6.40
   0  -4 -12   94.60    3.10
   0   4  13    4.10    4.20
   0  -4 -13    0.20    0.90
   0   4  14   11.90    3.70
   0  -4 -14   11.80    1.50
   0   4  15  164.90   11.70
   0  -4 -15  187.20    5.50
   0   4  16   -4.20    5.10
   0  -4 -16    0.60    1.40
   0   4  17    7.40    5.70
   0  -4 -17    0.40    1.60
   0   4  18    8.30    4.50
   0  -4 -18    4.60    2.00
   0   4  19   30.20    7.20
   0  -4 -19   33.90    3.80
   0   4  20    6.60    5.80
   0  -4 -20    1.40    2.90
   0   5 -19    7.90    3.10
   0  -5  19    9.10    4.80
   0   5 -18    6.80    2.70
   0  -5  18    4.90    3.40
   0   5 -17   -2.00    2.10
   0  -5  17    1.50    2.80
   0   5 -16   27.20    2.80
   0  -5  16   32.30    4.70
   0   5 -15    8.90    1.90
   0  -5  15    9.40    3.60
   0   5 -14   -0.30    1.30
   0  -5  14   -5.30    2.10
   0   5 -13    2.20    1.30
   0  -5  13    2.70    2.00
   0   5 -12   27.30    1.50
   0  -5  12   23.10    1.40
   0   5 -11    4.90    0.70
   0  -5  11    3.60    1.00
   0   5 -10   50.60    1.40
   0  -5  10   48.10    1.50
   0   5  -9  172.80    3.40
   0  -5   9  162.90    3.60
   0   5  -8   22.00    0.60
   0  -5   8   21.80    0.70
   0   5  -7   16.20    0.60
   0  -5   7   15.30    0.50
   0   5  -6  259.00    4.40
   0  -5   6  256.50    4.50
   0   5  -5  172.20    2.90
   0  -5   5  172.80    3.00
   0   5  -4    1.10    0.30
   0  -5   4    1.20    0.30
   0   5  -3  239.60    4.80
   0  -5   3  247.10    3.60
   0   5  -2  177.00    3.40
   0  -5   2  174.90    2.60
   0   5  -1   43.20    1.10
   0  -5   1   42.40    1.00
   0   5   0   -0.30    0.50
   0  -5   0    0.40    0.40
   0   5   1   42.80    1.10
   0  -5  -1   44.80    1.30
   0   5   2  173.80    3.20
   0  -5  -2  173.20    3.60
   0   5   3  239.70    4.70
   0  -5  -3  242.50    4.40
   0   5   4    1.40    0.60
   0  -5  -4    0.80    0.70
   0   5   5  171.00    4.60
   0  -5  -5  169.60    3.30
   0   5   6  251.80    6.30
   0  -5  -6  240.00    5.60
   0   5   7   14.90    1.30
   0  -5  -7   14.50    1.40
   0   5   8   20.80    1.60
   0  -5  -8   24.20    1.70
   0   5   9  172.10    6.50
   0  -5  -9  168.70    4.30
   0   5  10   53.00    2.80
   0  -5 -10   45.70    2.10
   0   5  11    4.30    1.30
   0  -5 -11    3.00    1.20
   0   5  12   23.60    2.30
   0  -5 -12   28.30    1.80
   0   5  13   -0.60    3.00
   0  -5 -13    1.10    1.20
   0   5  14    0.20    4.50
   0  -5 -14    1.40    1.40
   0   5  15    7.20    3.90
   0  -5 -15    9.90    1.60
   0   5  16   32.10    7.40
   0  -5 -16   29.30    2.20
   0   5  17   -2.30    4.00
   0  -5 -17   -0.20    1.40
   0   5  18    1.50    4.40
   0  -5 -18    6.50    2.20
   0   5  19   11.90    5.60
   0  -5 -19   10.70    3.80
   0   6 -18   30.00    4.10
   0  -6  18   24.10    4.80
   0   6 -17   13.50    3.00
   0  -6  17   14.30    4.90
   0   6 -16   45.90    4.10
   0  -6  16   40.00    5.30
   0   6 -15    1.00    2.50
   0  -6  15    0.80    2.40
   0   6 -14   12.60    2.40
   0  -6  14    8.20    2.90
   0   6 -13    6.50    1.60
   0  -6  13    8.80    2.50
   0   6 -12   -0.80    1.00
   0  -6  12    0.90    2.00
   0   6 -11  125.10    5.10
   0  -6  11  128.60    7.40
   0   6 -10   17.10    1.50
   0  -6  10   13.50    1.70
   0   6  -9   15.50    1.30
   0  -6   9   13.20    0.80
   0   6  -8   19.60    1.40
   0  -6   8   17.40    1.10
   0   6  -7   34.60    2.30
   0  -6   7   28.20    1.30
   0   6  -6   15.70    1.30
   0  -6   6   15.20    1.00
   0   6  -5   89.60    1.60
   0  -6   5   95.30    2.40
   0   6  -4    1.70    0.50
   0  -6   4    1.10    0.30
   0   6  -3   17.10    0.70
   0  -6   3   18.10    0.60
   0   6  -2   25.40    0.90
   0  -6   2   27.50    0.90
   0   6  -1   -0.40    0.50
   0  -6   1    0.50    0.50
   0   6   0  568.20    9.50
   0  -6   0  618.90    8.90
   0   6   1    0.00    0.70
   0  -6  -1    0.10    0.60
   0   6   2   27.30    1.00
   0  -6  -2   29.20    1.50
   0   6   3   20.70    0.90
   0  -6  -3   20.70    1.00
   0   6   4    1.10    0.70
   0  -6  -4    1.30    0.70
   0   6   5   90.40    3.00
   0  -6  -5   96.30    2.60
   0   6   6   17.30    1.40
   0  -6  -6   15.20    1.30
   0   6   7   29.00    1.80
   0  -6  -7   28.80    1.80
   0   6   8   16.20    1.60
   0  -6  -8   16.50    1.50
   0   6   9   19.10    2.40
   0  -6  -9   15.70    1.50
   0   6  10   20.80    4.60
   0  -6 -10   16.20    1.50
   0   6  11  122.80    5.50
   0  -6 -11  133.80    3.80
   0   6  12   -1.60    2.90
   0  -6 -12    0.40    1.10
   0   6  13    6.60    3.50
   0  -6 -13    6.40    1.40
   0   6  14    6.60    3.90
   0  -6 -14   10.20    1.80
   0   6  15    1.50    3.80
   0  -6 -15   -2.00    1.50
   0   6  16   41.30    7.40
   0  -6 -16   52.40    3.00
   0   6  17   21.30    6.80
   0  -6 -17   16.70    2.30
   0   6  18   35.20    7.30
   0  -6 -18   39.40    3.30
   0   7 -17   -2.10    3.10
   0  -7  17   -0.50    3.50
   0   7 -16   11.90    3.20
   0  -7  16    8.80    3.70
   0   7 -15   -2.30    1.90
   0  -7  15    2.70    4.00
   0   7 -14   59.30    3.90
   0  -7  14   58.20    5.90
   0   7 -13   43.50    3.30
   0  -7  13   45.40    5.20
   0   7 -12    0.20    1.20
   0  -7  12    3.50    3.10
   0   7 -11    7.40    1.70
   0  -7  11    1.50    3.00
   0   7 -10   21.10    2.40
   0  -7  10   16.40    1.80
   0   7  -9   56.60    3.20
   0  -7   9   50.80    2.10
   0   7  -8    9.80    1.50
   0  -7   8    7.90    1.00
   0   7  -7   64.70    3.30
   0  -7   7   60.60    2.10
   0   7  -6   81.20    3.90
   0  -7   6   82.80    2.10
   0   7  -5   74.10    1.60
   0  -7   5   70.20    1.90
   0   7  -4   89.20    2.40
   0  -7   4   96.90    2.70
   0   7  -3   16.10    0.80
   0  -7   3   16.60    0.90
   0   7  -2   45.80    1.40
   0  -7   2   46.90    1.60
   0   7  -1    0.40    0.50
   0  -7   1    0.80    0.50
   0   7   0   -0.50    0.60
   0  -7   0   -0.20    0.50
   0   7   1    1.90    0.90
   0  -7  -1    1.40    0.70
   0   7   2   50.30    2.10
   0  -7  -2   50.10    1.70
   0   7   3   18.50    1.00
   0  -7  -3   18.30    1.20
   0   7   4   92.70    3.00
   0  -7  -4   93.00    2.90
   0   7   5   70.20    2.60
   0  -7  -5   80.20    2.20
   0   7   6   83.70    3.20
   0  -7  -6   87.70    3.00
   0   7   7   66.80    3.00
   0  -7  -7   66.40    3.20
   0   7   8    7.80    2.00
   0  -7  -8    8.30    1.30
   0   7   9   55.00    3.40
   0  -7  -9   53.30    2.30
   0   7  10   19.00    2.30
   0  -7 -10   20.30    1.60
   0   7  11    6.90    1.90
   0  -7 -11    9.30    1.70
   0   7  12    8.70    4.80
   0  -7 -12    1.50    1.40
   0   7  13   40.40    6.10
   0  -7 -13   45.60    2.70
   0   7  14   48.00    6.90
   0  -7 -14   61.00    3.00
   0   7  15   -6.80    5.80
   0  -7 -15   -2.20    1.80
   0   7  16   12.80    5.80
   0  -7 -16    8.00    2.10
   0   7  17   11.00    7.30
   0  -7 -17    1.90    2.20
   0   8 -16   -4.20    4.50
   0  -8  16    1.00    3.70
   0   8 -15   -2.40    3.90
   0  -8  15    3.40    3.20
   0   8 -14   29.50    4.80
   0  -8  14   36.00    4.90
   0   8 -13   60.70    5.80
   0  -8  13   54.70    6.50
   0   8 -12   -5.10    2.30
   0  -8  12   -0.10    3.60
   0   8 -11    4.60    2.00
   0  -8  11    3.00    2.50
   0   8 -10   16.00    2.00
   0  -8  10   13.70    2.00
   0   8  -9    0.10    3.50
   0  -8   9   -0.30    0.90
   0   8  -8   -0.40    2.30
   0  -8   8    3.60    0.80
   0   8  -7   -0.30    1.40
   0  -8   7    0.30    0.60
   0   8  -6    7.10    2.20
   0  -8   6    7.90    0.90
   0   8  -5   99.10    5.10
   0  -8   5   91.00    4.20
   0   8  -4  153.80    3.30
   0  -8   4  150.10    3.70
   0   8  -3   88.80    2.70
   0  -8   3   96.40    2.60
   0   8  -2    5.70    0.70
   0  -8   2    5.20    0.80
   0   8  -1   16.70    1.20
   0  -8   1   14.10    1.10
   0   8   0   26.20    1.40
   0  -8   0   25.60    1.20
   0   8   1   13.90    1.40
   0  -8  -1   12.90    0.90
   0   8   2    7.40    1.90
   0  -8  -2    6.10    1.10
   0   8   3   95.40    5.50
   0  -8  -3  106.50    3.80
   0   8   4  154.50    4.20
   0  -8  -4  162.40    3.80
   0   8   5   87.50    4.30
   0  -8  -5   99.10    3.70
   0   8   6    9.30    1.70
   0  -8  -6    9.60    1.40
   0   8   7   -1.30    1.70
   0  -8  -7    1.00    1.20
   0   8   8    4.90    2.70
   0  -8  -8    5.70    1.50
   0   8   9    1.80    1.70
   0  -8  -9   -0.90    1.40
   0   8  10   21.60    2.50
   0  -8 -10   21.30    1.80
   0   8  11    6.40    3.90
   0  -8 -11    4.00    1.50
   0   8  12    1.20    3.10
   0  -8 -12    2.10    1.70
   0   8  13   56.20    7.70
   0  -8 -13   67.90    3.30
   0   8  14   21.30    6.80
   0  -8 -14   34.40    3.50
   0   8  15   -0.40    4.00
   0  -8 -15    5.60    2.10
   0   8  16   -1.60    6.70
   0  -8 -16    1.60    2.10
   0   9 -15   12.20    5.00
   0  -9  15   14.00    5.80
   0   9 -14    2.20    2.80
   0  -9  14   10.80    5.30
   0  -9  13    5.70    4.30
   0   9 -12   69.20    7.90
   0  -9  12   51.00    6.50
   0   9 -11   11.50    4.00
   0   9 -10   83.20    9.00
   0  -9  10   92.10    7.80
   0   9  -9   15.30    3.80
   0  -9   9   19.10    2.30
   0   9  -8   27.10    5.50
   0  -9   8   23.90    2.00
   0   9  -7   23.50    2.80
   0  -9   7   24.60    2.00
   0   9  -6   -0.30    1.60
   0  -9   6   -0.10    2.20
   0   9  -5   16.20    2.30
   0  -9   5   15.60    2.00
   0   9  -4   64.10    3.90
   0  -9   4   68.20    3.80
   0   9  -3   10.70    1.10
   0  -9   3   11.30    1.20
   0   9  -2    1.20    0.90
   0  -9   2    3.80    1.00
   0   9  -1   13.30    1.50
   0  -9   1   11.60    1.60
   0   9   0    1.80    1.00
   0  -9   0    1.70    0.80
   0   9   1    8.80    1.20
   0  -9  -1   11.60    1.30
   0   9   2    2.40    1.20
   0  -9  -2   -0.30    0.80
   0   9   3   12.00    1.70
   0  -9  -3   11.50    1.40
   0   9   4   76.50    4.40
   0  -9  -4   70.30    3.20
   0   9   5   16.40    2.40
   0  -9  -5   20.00    2.00
   0   9   6    0.40    1.70
   0  -9  -6    0.80    1.60
   0   9   7   26.20    2.70
   0  -9  -7   26.20    2.10
   0   9   8   29.20    3.10
   0  -9  -8   28.40    2.20
   0   9   9   22.00    3.00
   0  -9  -9   22.70    2.00
   0   9  10  108.10    8.60
   0  -9 -10   98.30    3.90
   0   9  11   13.00    4.70
   0  -9 -11   17.00    2.20
   0   9  12   58.10    7.60
   0  -9 -12   60.50    3.30
   0   9  13    0.70    4.10
   0  -9 -13    2.40    1.80
   0   9  14   -2.60    4.40
   0  -9 -14    0.80    2.30
   0   9  15    4.60    7.30
   0  -9 -15    4.90    3.30
   0 -10  14    4.40    3.40
   0 -10  13   -7.00    3.60
   0  10 -12   11.40    4.60
   0 -10  12    9.50    3.70
   0  10 -11   -6.50    5.30
   0 -10  11    1.00    4.30
   0  10 -10   -7.50    5.10
   0 -10  10    8.00    4.50
   0  10  -9    5.70    4.00
   0 -10   9    2.40    3.90
   0  10  -8    4.50    3.60
   0 -10   8    0.20    3.50
   0  10  -7    1.30    3.00
   0 -10   7    3.90    1.70
   0  10  -6   34.50    3.60
   0 -10   6   31.40    2.40
   0  10  -5    8.30    2.50
   0 -10   5    4.90    1.70
   0  10  -4   40.10    3.70
   0 -10   4   34.70    3.20
   0  10  -3   13.10    3.70
   0 -10   3    9.90    2.60
   0  10  -2   59.90    5.50
   0 -10   2   46.00    4.70
   0  10  -1  142.40    5.30
   0 -10   1  147.60    5.30
   0  10   0   35.70    2.70
   0 -10   0   21.60    2.60
   0  10   1  158.50    5.70
   0 -10  -1  162.90    5.00
   0  10   2   32.50    2.30
   0 -10  -2   34.80    2.20
   0  10   3    4.80    1.60
   0 -10  -3    8.40    1.60
   0  10   4   41.30    2.90
   0 -10  -4   43.10    2.80
   0  10   5    4.20    1.90
   0 -10  -5    1.20    1.50
   0  10   6   34.40    3.20
   0 -10  -6   31.80    2.50
   0  10   7    4.20    2.20
   0 -10  -7    5.20    1.80
   0  10   8    2.40    3.00
   0 -10  -8   -1.00    2.10
   0  10   9    0.80    3.50
   0 -10  -9    4.80    1.90
   0  10  10   11.20    4.40
   0 -10 -10    0.90    2.20
   0  10  11    3.50    4.40
   0 -10 -11   -3.00    2.10
   0  10  12   14.80    5.30
   0 -10 -12    9.30    2.50
   0  10  13    4.20    5.00
   0 -10 -13    1.60    2.60
   0  10  14    3.30    5.10
   0 -10 -14    5.70    2.80
   0 -11  12    9.40    4.10
   0  11 -11    0.70    4.90
   0 -11  11   -1.70    4.90
   0  11 -10    0.00    4.40
   0 -11  10    4.20    5.00
   0  11  -9   12.60    5.10
   0 -11   9    7.40    3.80
   0  11  -8   67.50    9.30
   0 -11   8   60.30    6.50
   0  11  -7    0.90    3.70
   0 -11   7    3.60    2.60
   0  11  -6   12.70    2.90
   0 -11   6    9.30    3.10
   0  11  -5   54.40    4.80
   0 -11   5   53.10    4.20
   0  11  -4   -0.40    2.50
   0 -11   4   -1.80    2.60
   0  11  -3   -3.70    2.80
   0 -11   3    1.30    2.30
   0  11  -2   46.10    4.00
   0 -11   2   49.00    4.30
   0  11  -1    1.80    2.00
   0 -11   1    2.50    2.20
   0  11   0   -0.30    2.00
   0 -11   0   -1.30    2.20
   0  11   1    4.20    1.80
   0 -11  -1    0.70    1.90
   0  11   2   37.20    2.80
   0 -11  -2   44.10    2.60
   0  11   3    1.50    1.60
   0 -11  -3    3.30    1.30
   0  11   4    0.50    2.00
   0 -11  -4    2.70    1.90
   0  11   5   57.70    3.50
   0 -11  -5   58.20    3.40
   0  11   6   15.30    2.30
   0 -11  -6   12.40    2.10
   0  11   7    6.30    3.50
   0 -11  -7    4.50    2.20
   0  11   8   59.00    7.10
   0 -11  -8   59.50    3.70
   0  11   9   16.70    4.80
   0 -11  -9   11.40    2.60
   0  11  10   -0.10    3.70
   0 -11 -10    4.20    2.30
   0  11  11   -1.30    4.40
   0 -11 -11    5.60    2.40
   0  11  12   10.40    7.40
   0 -11 -12    6.80    3.70
   0 -12   9   -6.90    3.70
   0  12  -8   -3.20    4.70
   0 -12   8    0.60    5.40
   0  12  -7   10.20    5.60
   0 -12   7   20.30    5.00
   0  12  -6    7.10    3.20
   0 -12   6    6.60    4.00
   0  12  -5   11.60    3.20
   0 -12   5   17.70    5.00
   0  12  -4    2.40    3.60
   0 -12   4   -1.60    2.30
   0  12  -3    8.50    3.20
   0 -12   3    6.50    2.80
   0  12  -2   20.10    3.30
   0 -12   2   18.20    3.80
   0  12  -1   -0.90    2.80
   0 -12   1   -2.60    3.80
   0  12   0    2.80    2.50
   0 -12   0    5.20    3.00
   0  12   1    2.40    2.30
   0 -12  -1   -0.50    2.90
   0  12   2   18.00    3.80
   0 -12  -2   16.80    4.30
   0  12   3    7.00    2.60
   0 -12  -3    2.40    3.70
   0  12   4    1.10    2.10
   0 -12  -4   -0.40    3.40
   0  12   5   10.90    3.10
   0 -12  -5   12.60    2.20
   0  12   6   11.70    3.30
   0 -12  -6    7.80    2.40
   0  12   7   21.70    3.40
   0 -12  -7   17.20    2.70
   0  12   8   -0.60    2.50
   0 -12  -8   -0.20    2.00
   0  12   9   -0.50    5.90
   0 -12  -9    2.30    3.80
   0  13  -5    9.00    4.30
   0 -13   5    7.50    4.60
   0  13  -4   18.30    4.70
   0 -13   4    0.30    5.00
   0  13  -3   27.90    4.50
   0 -13   3   20.90    4.80
   0  13  -2   37.00    6.70
   0 -13   2   30.50    4.60
   0  13  -1   -1.50    2.90
   0 -13   1   -2.20    3.30
   0  13   0   -1.40    3.20
   0 -13   0    3.20    4.80
   0  13   1    4.60    3.40
   0 -13  -1   -2.30    3.40
   0  13   2   30.30    4.60
   0 -13  -2   35.70    5.00
   0  13   3   21.10    4.10
   0 -13  -3   38.00    5.30
   0  13   4   14.00    3.30
   0 -13  -4   11.70    5.70
   0  13   5   13.30    5.30
   0 -13  -5    2.50    3.90
   1 -13  -4    1.50    3.90
  -1  13   4   -0.60    3.40
   1 -13  -3    1.90    5.40
  -1  13   3   -1.60    4.00
   1 -13  -2   -0.90    3.50
  -1  13   2   -1.70    3.00
   1 -13  -1   21.00    5.40
  -1  13   1   19.40    4.10
   1 -13   0    7.20    3.60
  -1  13   0    1.40    5.10
   1 -13   1    2.50    4.20
  -1  13  -1   -0.50    2.70
   1 -13   2    8.80    3.50
  -1  13  -2   13.30    4.60
   1 -13   3    8.70    5.20
  -1  13  -3    6.90    3.40
   1 -13   4    1.40    5.10
  -1  13  -4   -6.70    3.80
   1 -12  -9    1.90    3.80
  -1  12   9    6.60    6.10
   1 -12  -8    6.10    2.40
  -1  12   8    6.50    2.70
   1 -12  -7    0.00    1.90
  -1  12   7    1.90    2.80
   1 -12  -6   12.40    4.80
  -1  12   6   15.90    4.50
   1 -12  -5   15.80    4.40
  -1  12   5   13.90    4.00
   1 -12  -4    5.40    3.90
  -1  12   4   -0.40    2.30
   1 -12  -3    2.70    3.30
  -1  12   3    3.10    2.90
   1 -12  -2   53.90    5.40
  -1  12   2   70.00    5.50
   1 -12  -1   26.70    4.60
  -1  12   1   47.70    4.80
   1 -12   0   -0.30    2.90
  -1  12   0    6.30    3.00
   1 -12   1   16.10    3.70
  -1  12  -1   19.90    5.30
   1 -12   2   13.70    3.10
  -1  12  -2   17.80    3.50
   1 -12   3    4.70    2.80
  -1  12  -3   12.60    4.10
   1 -12   4    3.70    2.70
  -1  12  -4   -4.10    3.00
  -1  12  -5    2.90    2.80
   1 -12   6   -1.70    3.20
  -1  12  -6   -0.50    3.10
   1 -12   7   -0.10    3.80
  -1  12  -7   -4.20    3.10
   1 -12   8   57.50    7.40
  -1  12  -8   49.40    9.00
   1 -12   9   -0.10    4.90
   1 -11 -11   -0.10    2.40
  -1  11  11   -0.90    4.40
   1 -11 -10   -0.40    2.20
  -1  11  10    0.60    4.10
   1 -11  -9   -3.00    1.80
  -1  11   9   -1.60    3.80
   1 -11  -8   60.80    3.90
  -1  11   8   59.50    7.50
   1 -11  -7    1.40    1.90
  -1  11   7    6.30    3.60
   1 -11  -6   -0.90    2.00
  -1  11   6    0.70    2.60
   1 -11  -5   19.60    2.40
  -1  11   5   19.20    3.10
   1 -11  -4    1.80    1.50
  -1  11   4    0.60    1.70
   1 -11  -3    5.30    1.80
  -1  11   3   10.90    2.10
   1 -11  -2    8.10    4.50
  -1  11   2    0.70    2.30
   1 -11  -1   59.90    4.90
  -1  11   1   50.10    4.30
   1 -11   0    3.40    2.70
  -1  11   0    4.60    2.80
   1 -11   1  101.40    5.90
  -1  11  -1   90.20    6.00
   1 -11   2   47.00    4.70
  -1  11  -2   46.50    4.40
   1 -11   3   36.90    3.80
  -1  11  -3   35.10    4.10
   1 -11   4    7.00    3.20
  -1  11  -4    6.80    3.00
   1 -11   5   45.20    4.30
  -1  11  -5   50.50    4.80
   1 -11   6    1.60    3.70
  -1  11  -6    0.40    3.10
   1 -11   7   21.70    3.30
  -1  11  -7   18.90    3.80
   1 -11   8    7.60    3.30
  -1  11  -8   16.50    4.90
   1 -11   9    9.10    3.70
  -1  11  -9    3.20    4.00
   1 -11  10   13.60    4.40
   1 -11  11    3.20    3.20
   1 -10 -13   -2.60    3.50
  -1  10  13    7.80    5.20
   1 -10 -12   36.20    3.50
  -1  10  12   27.30    8.00
   1 -10 -11   13.20    2.60
  -1  10  11    4.70    5.70
   1 -10 -10    3.20    2.00
  -1  10  10    9.60    5.10
   1 -10  -9   42.30    3.20
  -1  10   9   35.60    6.50
   1 -10  -8    1.80    1.60
  -1  10   8    3.70    3.40
   1 -10  -7   40.00    2.90
  -1  10   7   32.80    4.80
   1 -10  -6   46.50    2.80
  -1  10   6   48.40    3.90
   1 -10  -5   23.30    2.20
  -1  10   5   26.20    2.70
   1 -10  -4   68.10    3.20
  -1  10   4   63.40    3.30
   1 -10  -3    1.20    1.20
  -1  10   3   -1.30    1.30
   1 -10  -2   16.60    1.60
  -1  10   2   17.30    1.90
   1 -10  -1   15.80    1.60
  -1  10   1   15.50    2.10
   1 -10   0   21.50    1.50
  -1  10   0   22.70    1.80
   1 -10   1    8.20    2.10
  -1  10  -1    9.10    2.40
   1 -10   2    9.40    2.30
  -1  10  -2    6.50    2.00
   1 -10   3    6.20    2.10
  -1  10  -3    8.70    2.60
   1 -10   4   41.70    3.60
  -1  10  -4   42.70    4.00
   1 -10   5    5.00    2.00
  -1  10  -5    5.70    2.60
   1 -10   6   29.60    3.10
  -1  10  -6   47.20    4.30
   1 -10   7   24.60    2.90
  -1  10  -7   23.50    3.20
   1 -10   8    4.60    2.00
  -1  10  -8   11.00    4.30
   1 -10   9    0.60    1.90
  -1  10  -9   -1.90    3.40
   1 -10  10    7.60    3.10
   1 -10  11    2.50    3.20
   1 -10  12   39.40    5.70
   1 -10  13    3.40    3.40
   1  -9 -15    0.70    2.30
  -1   9  15    8.70    7.80
   1  -9 -14    3.40    2.00
  -1   9  14   11.00    5.20
   1  -9 -13   34.30    2.70
  -1   9  13   26.30    6.20
   1  -9 -12    8.30    2.50
  -1   9  12   10.40    5.90
   1  -9 -11    4.00    1.70
   1  -9 -10   28.80    2.20
  -1   9  10   18.90    4.70
   1  -9  -9   79.10    3.70
  -1   9   9   68.70    7.00
   1  -9  -8   30.20    2.50
  -1   9   8   23.00    3.10
   1  -9  -7    3.50    1.40
  -1   9   7    6.60    2.10
   1  -9  -6   19.50    1.80
  -1   9   6   16.70    2.20
   1  -9  -5   14.20    1.70
  -1   9   5   12.70    2.00
   1  -9  -4   16.40    1.60
  -1   9   4   14.40    2.00
   1  -9  -3  128.10    4.10
  -1   9   3  119.60    4.60
   1  -9  -2    3.70    1.70
  -1   9   2    4.00    2.10
   1  -9  -1   65.40    2.70
  -1   9   1   62.20    3.00
   1  -9   0   10.30    1.20
  -1   9   0   14.70    1.60
   1  -9   1   21.60    1.30
  -1   9  -1   18.20    1.60
   1  -9   2    5.50    1.00
  -1   9  -2    4.40    0.90
   1  -9   3   70.00    4.30
  -1   9  -3   66.30    4.00
   1  -9   4    6.80    2.20
  -1   9  -4    4.80    1.80
   1  -9   5    0.80    1.80
  -1   9  -5    2.30    1.90
   1  -9   6   18.40    2.30
  -1   9  -6   20.20    2.80
   1  -9   7   24.00    2.00
  -1   9  -7   29.00    3.00
   1  -9   8   32.40    2.90
  -1   9  -8   33.80    5.30
   1  -9   9  117.70    6.20
  -1   9  -9  141.40   10.60
   1  -9  10   16.70    2.50
   1  -9  11   14.50    4.00
   1  -9  12    0.00    3.70
   1  -9  13   18.60    4.90
   1  -9  14    1.60    3.20
   1  -9  15   16.60    4.50
   1  -8 -16   38.60    3.20
  -1   8  16   35.80    7.80
   1  -8 -15    0.50    1.80
  -1   8  15    4.40    5.00
   1  -8 -14   -0.20    1.80
  -1   8  14    2.10    4.40
   1  -8 -13    7.10    1.80
  -1   8  13    2.60    4.00
   1  -8 -12    6.90    1.70
  -1   8  12   -2.90    4.90
   1  -8 -11   11.70    1.70
  -1   8  11    9.70    4.00
   1  -8 -10    4.70    1.50
  -1   8  10    9.30    3.60
   1  -8  -9   27.20    2.10
  -1   8   9   20.70    2.20
   1  -8  -8    3.40    1.40
  -1   8   8    1.80    1.40
   1  -8  -7   86.70    3.30
  -1   8   7   77.50    4.30
   1  -8  -6   -0.50    1.30
  -1   8   6   -2.20    1.40
   1  -8  -5    2.40    1.10
  -1   8   5   -0.30    1.50
   1  -8  -4   -0.70    0.90
  -1   8   4    0.10    1.30
   1  -8  -3   23.10    1.30
  -1   8   3   23.00    1.30
   1  -8  -2    1.50    1.00
  -1   8   2    2.60    1.10
   1  -8  -1   19.10    1.60
  -1   8   1   22.90    1.30
   1  -8   0  285.00    6.50
  -1   8   0  292.70    5.90
   1  -8   1  192.50    4.90
  -1   8  -1  196.30    4.60
   1  -8   2   62.50    2.20
  -1   8  -2   63.70    2.10
   1  -8   3    1.40    0.30
  -1   8  -3    1.80    0.30
   1  -8   4    9.60    1.00
  -1   8  -4    6.30    1.80
   1  -8   5    9.80    1.00
  -1   8  -5    9.30    1.80
   1  -8   6   35.90    2.20
  -1   8  -6   35.70    2.80
   1  -8   7    0.50    0.60
  -1   8  -7    2.10    1.50
   1  -8   8   12.70    1.10
  -1   8  -8   10.40    3.30
   1  -8   9    6.10    1.20
  -1   8  -9   -1.60    3.90
   1  -8  10    3.10    1.20
   1  -8  11    2.60    1.20
   1  -8  12   -0.40    1.90
  -1   8 -12    0.80    2.20
   1  -8  13   13.40    2.50
  -1   8 -13   11.30    3.30
   1  -8  14    3.90    4.00
  -1   8 -14   -0.70    2.80
   1  -8  15    3.20    3.10
  -1   8 -15   -2.50    4.60
   1  -8  16    4.90    4.60
  -1   8 -16    2.20    5.20
   1  -7 -17   -0.90    2.00
  -1   7  17   -7.60    7.20
   1  -7 -16   12.80    2.20
  -1   7  16   17.50    5.80
   1  -7 -15    2.50    1.90
  -1   7  15   -0.20    4.00
   1  -7 -14   34.70    2.70
  -1   7  14   38.90    7.10
   1  -7 -13   -0.40    1.50
  -1   7  13    3.40    3.70
   1  -7 -12    5.60    1.60
  -1   7  12    3.60    4.60
   1  -7 -11   37.90    2.40
  -1   7  11   32.60    5.00
   1  -7 -10   12.80    1.90
  -1   7  10    8.30    3.50
   1  -7  -9   72.30    3.40
  -1   7   9   71.50    3.90
   1  -7  -8   83.90    3.60
  -1   7   8   81.50    4.20
   1  -7  -7  115.50    4.10
  -1   7   7  114.10    5.10
   1  -7  -6   49.90    2.60
  -1   7   6   53.90    2.40
   1  -7  -5    0.10    0.70
  -1   7   5    0.10    0.90
   1  -7  -4   38.60    1.50
  -1   7   4   33.90    1.80
   1  -7  -3    4.70    0.80
  -1   7   3    3.60    0.80
   1  -7  -2    3.90    0.70
  -1   7   2    1.50    0.50
   1  -7  -1   71.50    1.80
  -1   7   1   61.00    1.90
   1  -7   0   52.60    1.40
  -1   7   0   52.10    1.70
   1  -7   1    4.70    0.50
  -1   7  -1    4.90    0.70
   1  -7   2    0.30    0.30
  -1   7  -2   -0.40    0.40
   1  -7   3   40.40    1.10
  -1   7  -3   43.30    1.10
   1  -7   4   22.20    1.40
  -1   7  -4   20.30    2.00
   1  -7   5    0.00    0.70
  -1   7  -5   -0.50    1.20
   1  -7   6   59.50    2.20
  -1   7  -6   58.50    3.30
   1  -7   7  199.20    4.70
  -1   7  -7  196.30    7.20
   1  -7   8    9.70    0.90
  -1   7  -8    9.60    3.50
   1  -7   9   33.90    2.30
  -1   7  -9   28.30    2.70
   1  -7  10    4.80    1.20
  -1   7 -10    6.80    1.60
   1  -7  11   79.50    4.40
  -1   7 -11   89.40    4.50
   1  -7  12    3.70    1.60
  -1   7 -12    1.90    1.80
   1  -7  13   31.40    4.00
  -1   7 -13   30.60    3.00
   1  -7  14   43.30    4.90
  -1   7 -14   36.90    3.40
   1  -7  15    3.00    2.80
  -1   7 -15   -0.70    2.00
   1  -7  16   10.30    3.30
  -1   7 -16   12.00    2.90
   1  -7  17    5.80    3.20
  -1   7 -17    7.50    3.20
   1  -6 -18   11.90    3.10
  -1   6  18   11.20    5.70
   1  -6 -17    2.70    2.00
  -1   6  17    2.30    4.70
   1  -6 -16    0.10    1.50
  -1   6  16   -2.80    4.50
   1  -6 -15    0.60    1.90
  -1   6  15   -3.70    5.90
   1  -6 -14   17.30    2.00
  -1   6  14    9.70    3.80
   1  -6 -13   78.40    3.40
   1  -6 -12    9.70    1.50
  -1   6  12   10.10    3.40
   1  -6 -11    2.10    1.00
  -1   6  11    1.60    2.80
   1  -6 -10   50.70    2.80
  -1   6  10   48.00    4.70
   1  -6  -9    1.60    1.10
  -1   6   9    2.80    1.10
   1  -6  -8   23.10    1.70
  -1   6   8   23.50    1.90
   1  -6  -7   47.50    2.40
  -1   6   7   46.70    2.20
   1  -6  -6   41.90    2.00
  -1   6   6   44.20    2.20
   1  -6  -5   54.50    2.30
  -1   6   5   57.80    2.30
   1  -6  -4   38.10    2.50
  -1   6   4   39.00    1.80
   1  -6  -3  143.20    4.10
  -1   6   3  127.80    3.70
   1  -6  -2  144.30    4.10
  -1   6   2  140.30    3.50
   1  -6  -1    0.00    0.50
  -1   6   1    0.90    0.40
   1  -6   0   24.50    0.80
  -1   6   0   23.80    1.20
   1  -6   1    4.60    0.40
  -1   6  -1    6.20    0.60
   1  -6   2  109.70    2.10
  -1   6  -2  111.70    2.70
   1  -6   3   32.70    0.80
  -1   6  -3   35.50    0.80
   1  -6   4   21.90    1.30
  -1   6  -4   23.50    1.90
   1  -6   5  187.40    5.80
  -1   6  -5  174.50    5.90
   1  -6   6    4.40    0.80
  -1   6  -6    4.80    1.40
   1  -6   7    0.00    0.50
  -1   6  -7    0.10    0.80
   1  -6   8   95.90    2.80
  -1   6  -8   90.00    3.30
   1  -6   9   47.40    3.50
  -1   6  -9   48.50    2.30
   1  -6  10   95.00    4.20
  -1   6 -10   94.70    3.90
   1  -6  11   28.40    2.00
  -1   6 -11   31.80    2.50
   1  -6  12    7.00    1.60
  -1   6 -12    5.70    1.50
   1  -6  13   39.40    4.60
  -1   6 -13   49.20    3.40
   1  -6  14    4.40    3.20
  -1   6 -14    2.10    2.20
   1  -6  15    8.60    3.90
  -1   6 -15    9.10    2.80
   1  -6  16   35.30    5.30
  -1   6 -16   34.00    3.90
   1  -6  17    5.20    3.90
  -1   6 -17    8.50    3.30
  -1   6 -18   -3.00    2.70
   1  -5 -19   30.10    4.40
  -1   5  19   32.40    8.60
   1  -5 -18   32.30    4.20
  -1   5  18   27.80    6.50
   1  -5 -17    1.00    1.70
  -1   5  17   -1.40    4.20
   1  -5 -16   50.20    2.70
  -1   5  16   56.60    7.00
   1  -5 -15   49.40    2.60
  -1   5  15   51.60    6.20
   1  -5 -14    2.10    1.00
  -1   5  14    1.10    4.60
   1  -5 -13   15.00    1.50
  -1   5  13   13.00    3.70
   1  -5 -12   71.70    2.80
  -1   5  12   66.70    5.80
   1  -5 -11    0.90    0.90
  -1   5  11    0.40    3.60
   1  -5 -10   35.50    1.90
  -1   5  10   36.90    4.10
   1  -5  -9   20.70    1.70
  -1   5   9   13.30    2.90
   1  -5  -8   87.10    3.20
  -1   5   8   68.10    5.40
   1  -5  -7   13.40    1.40
  -1   5   7   11.40    1.10
   1  -5  -6   39.40    2.20
  -1   5   6   40.10    2.40
   1  -5  -5    4.50    1.40
  -1   5   5    4.20    0.70
   1  -5  -4  218.70    5.70
  -1   5   4  231.30    7.10
   1  -5  -3   96.80    3.10
  -1   5   3   91.70    2.60
   1  -5  -2   26.60    1.10
  -1   5   2   25.70    0.90
   1  -5  -1  151.70    3.20
  -1   5   1  140.00    2.60
   1  -5   0   29.30    0.80
  -1   5   0   30.50    0.90
   1  -5   1   51.20    1.10
  -1   5  -1   54.00    1.30
   1  -5   2  246.50    3.60
  -1   5  -2  259.20    4.40
   1  -5   3  385.70    6.90
  -1   5  -3  327.30   12.50
   1  -5   4   71.50    2.30
  -1   5  -4   71.20    2.90
   1  -5   5    3.90    0.60
  -1   5  -5    2.60    0.70
   1  -5   6    5.90    0.80
  -1   5  -6    4.70    0.80
   1  -5   7    1.90    0.60
  -1   5  -7    2.10    0.90
   1  -5   8    3.00    0.40
  -1   5  -8    3.90    1.00
   1  -5   9   17.20    2.20
  -1   5  -9   18.40    1.70
   1  -5  10    6.00    2.10
  -1   5 -10    1.80    1.10
   1  -5  11   51.60    3.80
  -1   5 -11   49.40    2.90
   1  -5  12   34.00    3.30
  -1   5 -12   36.20    2.60
   1  -5  13   -3.10    2.40
  -1   5 -13    1.60    1.60
   1  -5  14   -4.00    2.70
  -1   5 -14    0.30    1.40
   1  -5  15   12.60    3.50
  -1   5 -15   10.80    2.10
   1  -5  16   11.80    4.00
  -1   5 -16   26.30    3.30
   1  -5  17   -2.50    3.30
  -1   5 -17    2.70    2.60
   1  -5  18   36.10    5.90
  -1   5 -18   38.50    4.30
  -1   5 -19   22.60    3.60
   1  -4 -20   11.00    4.30
  -1   4  20    1.10    7.20
   1  -4 -19    8.70    3.10
  -1   4  19    9.00    6.90
   1  -4 -18   23.70    3.60
  -1   4  18   12.90    6.70
   1  -4 -17    0.50    1.60
  -1   4  17    1.10    6.40
   1  -4 -16    0.90    1.40
  -1   4  16   -1.10    3.80
   1  -4 -15   47.90    2.60
  -1   4  15   55.90    6.40
   1  -4 -14   23.00    2.00
  -1   4  14   16.30    3.90
   1  -4 -13    1.00    0.80
  -1   4  13    0.90    2.80
   1  -4 -12   32.80    1.90
  -1   4  12   34.50    4.60
   1  -4 -11   29.40    1.70
  -1   4  11   26.40    4.70
   1  -4 -10   41.90    1.90
  -1   4  10   34.20    3.90
   1  -4  -9   31.90    1.90
  -1   4   9   31.90    3.70
   1  -4  -8    8.30    2.00
  -1   4   8    8.80    3.10
   1  -4  -7  136.10    4.00
  -1   4   7  129.40    4.90
   1  -4  -6  335.40    8.20
  -1   4   6  351.70    9.10
   1  -4  -5   55.90    1.90
  -1   4   5   52.00    1.80
   1  -4  -4   31.20    1.20
  -1   4   4   29.50    0.90
   1  -4  -3  128.50    2.30
  -1   4   3  123.50    2.90
   1  -4  -2  108.10    3.00
  -1   4   2  105.60    2.10
   1  -4  -1   71.30    1.40
  -1   4   1   70.50    1.50
   1  -4   0   12.60    0.50
  -1   4   0   11.60    0.50
   1  -4   1    2.70    0.30
  -1   4  -1    3.60    0.50
   1  -4   2  335.60    4.50
  -1   4  -2  336.40    5.20
   1  -4   3   56.80    1.40
  -1   4  -3   53.60    1.70
   1  -4   4   35.60    1.20
  -1   4  -4   32.40    1.20
   1  -4   5    5.00    0.60
  -1   4  -5    4.70    0.70
   1  -4   6  185.30    4.50
  -1   4  -6  189.70    4.60
   1  -4   7  109.90    3.30
  -1   4  -7  102.90    2.70
  -1   4  -8   37.60    1.80
   1  -4   9    3.90    0.40
  -1   4  -9    3.90    0.30
   1  -4  10    3.20    0.60
  -1   4 -10    4.60    0.40
   1  -4  11   78.60    1.90
  -1   4 -11   78.80    1.90
   1  -4  12  250.50    8.20
  -1   4 -12  269.40    6.10
   1  -4  13    4.10    1.20
  -1   4 -13    4.70    0.80
   1  -4  14    3.80    1.90
  -1   4 -14    1.30    1.60
   1  -4  15   69.70    5.70
  -1   4 -15   72.00    4.30
   1  -4  16    5.20    2.40
  -1   4 -16    4.50    1.90
   1  -4  17    6.50    2.50
  -1   4 -17    8.40    2.80
   1  -4  18    2.40    3.80
  -1   4 -18    0.60    2.30
  -1   4 -19   -1.50    2.40
   1  -3 -20   13.40    3.40
  -1   3  20   14.80    5.90
   1  -3 -19   -1.10    2.90
  -1   3  19    6.50    5.30
   1  -3 -18   -1.00    2.20
  -1   3  18   -3.10    4.30
   1  -3 -17   -1.30    2.20
  -1   3  17    0.60    2.20
   1  -3 -16   -0.80    1.40
  -1   3  16   -0.70    2.00
   1  -3 -15    0.00    0.90
  -1   3  15    2.20    2.10
   1  -3 -14   42.00    2.00
  -1   3  14   35.90    4.30
   1  -3 -13    7.00    1.50
  -1   3  13   10.60    1.90
   1  -3 -12  174.30    4.30
  -1   3  12  177.60    4.90
   1  -3 -11    2.40    0.90
  -1   3  11    2.40    0.50
   1  -3 -10   40.00    1.90
  -1   3  10   39.20    1.40
   1  -3  -9   55.80    2.10
  -1   3   9   55.70    1.60
   1  -3  -8  227.80    5.90
  -1   3   8  210.30    5.90
   1  -3  -7    2.50    1.10
  -1   3   7    1.30    0.80
   1  -3  -6   28.10    1.20
  -1   3   6   23.50    0.80
   1  -3  -5   -0.90    0.60
  -1   3   5   -0.10    0.20
   1  -3  -4  142.30    3.00
  -1   3   4  146.80    2.60
   1  -3  -3   52.20    1.10
  -1   3   3   53.10    1.40
   1  -3  -2  396.80    5.70
  -1   3   2  399.30    6.40
   1  -3  -1   11.20    0.50
  -1   3   1   10.90    0.50
   1  -3   0   55.80    1.10
  -1   3   0   57.60    1.20
   1  -3   1    0.90    0.20
  -1   3  -1    1.40    0.20
   1  -3   2    0.80    0.10
  -1   3  -2    0.70    0.20
   1  -3   3   60.40    1.30
  -1   3  -3   56.20    1.40
   1  -3   4    6.70    0.60
  -1   3  -4    6.60    0.70
   1  -3   5   -0.30    0.40
  -1   3  -5    0.50    0.50
   1  -3   6  451.10    5.10
  -1   3  -6  452.80    7.00
   1  -3   7   27.80    0.80
  -1   3  -7   27.40    0.70
   1  -3   8  248.40    4.80
  -1   3  -8  247.30    5.00
   1  -3   9   52.60    1.40
  -1   3  -9   52.70    1.30
   1  -3  10    8.30    0.60
  -1   3 -10    9.80    0.70
   1  -3  11   17.50    1.10
  -1   3 -11   17.40    1.00
   1  -3  12   39.70    1.50
  -1   3 -12   42.80    1.50
   1  -3  13    1.00    1.30
  -1   3 -13    3.60    1.10
   1  -3  14   13.80    1.60
  -1   3 -14   17.80    1.30
   1  -3  15   17.10    1.90
  -1   3 -15   21.80    1.70
   1  -3  16    3.50    3.00
  -1   3 -16    6.40    2.00
   1  -3  17    4.70    3.40
  -1   3 -17    9.30    2.70
   1  -3  18   36.30    5.00
  -1   3 -18   28.60    3.60
   1  -3  19   -2.90    4.10
  -1   3 -19    5.50    2.90
  -1   3 -20   41.20    4.50
   1  -2 -20    0.10    2.80
  -1   2  20    2.60    3.50
   1  -2 -19    1.90    2.30
  -1   2  19    2.10    3.40
   1  -2 -18   41.60    3.70
  -1   2  18   40.90    3.90
   1  -2 -17   86.40    4.70
  -1   2  17   78.30    5.20
   1  -2 -16   17.70    1.50
  -1   2  16   19.60    2.80
   1  -2 -15   -0.60    1.10
  -1   2  15    0.20    2.50
   1  -2 -14    0.60    0.90
  -1   2  14   -1.20    1.70
   1  -2 -13   11.70    1.30
  -1   2  13    9.90    2.00
   1  -2 -12    1.00    1.00
  -1   2  12    0.50    0.80
   1  -2 -11  119.80    3.30
  -1   2  11  112.20    3.20
   1  -2 -10    5.20    0.90
  -1   2  10    5.60    0.70
   1  -2  -9   10.20    1.20
  -1   2   9    8.60    1.20
   1  -2  -8    3.70    1.10
  -1   2   8    3.70    0.70
   1  -2  -7    2.10    0.60
  -1   2   7    0.20    0.40
   1  -2  -6  146.60    3.10
  -1   2   6  138.20    2.70
   1  -2  -5  153.90    3.50
  -1   2   5  162.50    3.20
   1  -2  -4   11.10    0.60
  -1   2   4   12.50    0.60
   1  -2  -3  102.90    1.80
  -1   2   3  104.00    1.70
   1  -2  -2   52.00    1.30
  -1   2   2   54.00    1.30
   1  -2  -1  123.60    2.00
  -1   2   1  131.70    2.60
   1  -2   0  260.60    3.90
  -1   2   0  259.60    4.10
   1  -2   1  404.10    5.30
  -1   2  -1  394.90    5.60
   1  -2   2  403.50    4.90
  -1   2  -2  391.70    5.50
   1  -2   3    2.90    0.20
  -1   2  -3    2.60    0.20
   1  -2   4   34.90    0.70
  -1   2  -4   33.60    0.70
   1  -2   5    3.70    0.20
  -1   2  -5    3.70    0.40
   1  -2   6   17.40    0.60
  -1   2  -6   16.60    0.60
   1  -2   7   39.40    0.90
  -1   2  -7   36.90    1.00
   1  -2   8   15.70    0.70
  -1   2  -8   14.50    0.70
   1  -2   9    4.90    0.60
  -1   2  -9    5.30    0.50
   1  -2  10    1.80    0.50
  -1   2 -10    0.90    0.50
   1  -2  11   49.60    1.70
  -1   2 -11   49.50    1.50
   1  -2  12  175.40    4.40
  -1   2 -12  184.20    4.10
   1  -2  13    4.10    1.10
  -1   2 -13    5.20    1.00
   1  -2  14    1.40    1.60
  -1   2 -14    2.40    1.00
   1  -2  15    8.90    1.70
  -1   2 -15    9.30    1.70
   1  -2  16   33.00    3.00
  -1   2 -16   45.30    2.40
   1  -2  17   95.70    5.90
  -1   2 -17  112.40    4.20
   1  -2  18   28.20    4.90
  -1   2 -18   28.30    3.40
   1  -2  19    2.40    2.80
  -1   2 -19    1.90    3.30
  -1   2 -20   15.00    4.00
   1  -1 -20    0.70    2.10
  -1   1  20    2.00    2.90
   1  -1 -19   27.00    2.70
  -1   1  19   28.00    3.80
   1  -1 -18    3.20    2.10
  -1   1  18    5.30    2.80
   1  -1 -17    6.00    2.00
  -1   1  17    8.00    2.40
   1  -1 -16    8.30    1.70
  -1   1  16    7.90    2.20
   1  -1 -15    3.30    1.10
  -1   1  15    4.20    3.10
   1  -1 -14   20.80    1.40
  -1   1  14   19.90    2.40
   1  -1 -13   13.90    1.10
  -1   1  13   13.10    1.10
   1  -1 -12  101.90    2.70
  -1   1  12  104.70    3.70
   1  -1 -11   12.00    1.20
  -1   1  11    9.90    0.90
   1  -1 -10   25.80    1.30
  -1   1  10   20.60    1.00
   1  -1  -9  123.00    3.10
  -1   1   9  111.10    3.40
   1  -1  -8  118.90    2.50
  -1   1   8  111.40    2.50
   1  -1  -7  202.50    4.10
  -1   1   7  185.50    3.70
   1  -1  -6    6.10    0.60
  -1   1   6    4.40    0.50
   1  -1  -5    0.20    0.40
  -1   1   5    0.30    0.40
   1  -1  -4  466.40    8.20
  -1   1   4  475.70    8.20
   1  -1  -3  131.30    2.20
  -1   1   3  137.10    3.10
   1  -1  -2   31.60    0.80
  -1   1   2   32.50    0.90
   1  -1  -1   23.90    0.70
  -1   1   1   23.80    0.70
   1  -1   0   29.20    0.60
  -1   1   0   28.60    0.80
   1  -1   1   42.60    0.80
  -1   1  -1   41.00    0.80
   1  -1   2  149.70    2.30
  -1   1  -2  143.60    2.30
   1  -1   3  663.60    8.20
  -1   1  -3  673.30    9.90
   1  -1   4   91.30    1.40
  -1   1  -4   88.50    1.60
   1  -1   5   45.30    0.80
  -1   1  -5   42.50    0.90
   1  -1   6  178.50    3.10
  -1   1  -6  172.90    2.40
   1  -1   7  150.00    2.50
  -1   1  -7  155.60    3.10
   1  -1   8   28.20    0.90
  -1   1  -8   27.60    0.70
   1  -1   9    8.40    0.60
  -1   1  -9    8.30    0.40
   1  -1  10   22.70    1.00
  -1   1 -10   25.00    1.00
   1  -1  11  185.10    4.70
  -1   1 -11  177.30    4.00
   1  -1  12   75.20    3.00
  -1   1 -12   73.80    2.50
   1  -1  13   49.30    2.70
  -1   1 -13   53.50    2.20
   1  -1  14   56.70    3.40
  -1   1 -14   63.00    2.60
   1  -1  15    3.10    1.70
  -1   1 -15    1.60    1.10
   1  -1  16   -1.80    1.50
  -1   1 -16    0.50    1.20
   1  -1  17    1.80    2.30
  -1   1 -17    2.80    1.70
   1  -1  18   49.90    5.70
  -1   1 -18   55.30    3.10
   1  -1  19   -6.60    3.80
  -1   1 -19    3.10    2.60
  -1   1 -20   -1.70    2.80
   1   0 -20   -0.80    1.80
  -1   0  20    0.10    3.40
   1   0 -19    1.20    2.00
  -1   0  19    3.70    3.30
   1   0 -18   -1.20    1.90
  -1   0  18   -0.70    2.80
   1   0 -17    0.60    1.70
  -1   0  17   -3.20    2.60
   1   0 -16   -1.80    1.50
  -1   0  16    0.50    2.10
   1   0 -15    0.80    1.00
  -1   0  15    1.00    1.60
   1   0 -14   -1.20    1.40
  -1   0  14    0.20    2.00
   1   0 -13  394.10    9.20
  -1   0  13  355.10    9.10
   1   0 -12    0.60    1.10
  -1   0  12    0.00    0.60
   1   0 -11    1.20    0.50
  -1   0  11    1.60    0.70
   1   0 -10   -0.20    0.60
  -1   0  10   -0.70    0.60
   1   0  -9   52.90    1.60
  -1   0   9   48.40    1.60
   1   0  -8    0.30    0.40
  -1   0   8    0.70    0.40
   1   0  -7  261.70    4.50
  -1   0   7  255.30    4.70
   1   0  -6   -0.30    0.20
  -1   0   6    0.20    0.30
   1   0  -5   43.80    1.00
  -1   0   5   44.10    1.20
   1   0  -4    0.50    0.30
  -1   0   4    0.70    0.30
   1   0  -3 1478.50   25.20
  -1   0   3 1553.20   31.20
   1   0  -2    0.40    0.20
  -1   0   2    0.60    0.30
   1   0  -1  120.90    1.90
  -1   0   1  115.80    2.30
   1   0   0    0.50    0.10
  -1   0   0    0.80    0.10
   1   0   1   46.70    0.90
  -1   0  -1   44.50    0.80
   1   0   2    0.10    0.10
  -1   0  -2    0.10    0.20
   1   0   3  149.30    2.30
  -1   0  -3  147.50    2.50
   1   0   4    0.00    0.20
  -1   0  -4    0.40    0.20
   1   0   5  650.00    8.70
  -1   0  -5  643.10    9.40
   1   0   6    0.30    0.30
  -1   0  -6    0.00    0.30
   1   0   7    0.20    0.40
  -1   0  -7    0.40    0.30
   1   0   8    0.90    0.50
  -1   0  -8    0.10    0.40
   1   0   9  276.30    4.90
  -1   0  -9  269.50    5.00
   1   0  10   -0.80    0.50
  -1   0 -10   -0.60    0.40
   1   0  11    3.00    0.70
  -1   0 -11    5.10    0.60
   1   0  12   -0.40    1.50
  -1   0 -12    0.40    0.60
   1   0  13  126.10    7.00
  -1   0 -13  126.70    3.50
   1   0  14   -0.70    1.40
  -1   0 -14   -0.40    0.60
   1   0  15    6.20    1.80
  -1   0 -15    3.00    1.40
   1   0  16    0.70    1.60
  -1   0 -16    0.70    1.40
   1   0  17    6.20    1.90
  -1   0 -17    1.60    1.70
   1   0  18    4.40    2.10
  -1   0 -18    2.10    1.80
   1   0  19   36.90    4.10
  -1   0 -19   42.40    3.10
  -1   0 -20    2.00    2.80
   1   1 -20    3.10    1.90
  -1  -1  20    3.10    2.60
   1   1 -19   22.90    2.30
  -1  -1  19   16.10    3.30
   1   1 -18    6.40    1.70
  -1  -1  18    2.60    2.20
   1   1 -17    4.80    1.50
  -1  -1  17    1.30    2.90
   1   1 -16    6.60    1.40
  -1  -1  16    5.60    2.30
   1   1 -15    3.10    1.20
  -1  -1  15    3.30    1.90
   1   1 -14   19.10    1.30
  -1  -1  14   21.80    2.20
   1   1 -13   13.40    1.10
  -1  -1  13   13.90    1.60
   1   1 -12  106.50    2.70
  -1  -1  12  101.90    3.20
   1   1 -11   13.20    1.00
  -1  -1  11   10.20    0.80
   1   1 -10   27.50    1.10
  -1  -1  10   23.20    0.90
   1   1  -9  129.00    2.90
  -1  -1   9  119.20    2.40
   1   1  -8  119.00    2.30
  -1  -1   8  118.10    2.70
   1   1  -7  208.30    3.50
  -1  -1   7  200.50    3.30
   1   1  -6    5.10    0.40
  -1  -1   6    5.20    0.50
   1   1  -5    0.00    0.20
  -1  -1   5    0.10    0.30
   1   1  -4  434.10    5.60
  -1  -1   4  454.70    7.40
   1   1  -3  123.10    2.00
  -1  -1   3  126.90    2.80
   1   1  -2   29.10    0.50
  -1  -1   2   28.60    0.70
   1   1  -1   22.30    0.60
  -1  -1   1   22.20    0.50
   1   1   0   29.50    0.60
  -1  -1   0   30.70    0.70
   1   1   1   44.80    0.80
  -1  -1  -1   43.60    0.90
   1   1   2  163.60    3.00
  -1  -1  -2  170.50    3.40
   1   1   3  774.00   13.00
  -1  -1  -3  724.30   10.80
   1   1   4   91.10    1.90
  -1  -1  -4   92.60    1.70
   1   1   5   44.00    1.00
  -1  -1  -5   42.20    0.90
   1   1   6  172.80    2.60
  -1  -1  -6  181.50    3.20
   1   1   7  151.50    2.80
  -1  -1  -7  155.90    2.80
   1   1   8   29.90    1.20
  -1  -1  -8   28.70    0.90
   1   1   9    6.30    0.70
  -1  -1  -9    7.50    0.60
   1   1  10   27.00    1.50
  -1  -1 -10   23.00    0.90
   1   1  11  193.90    5.40
  -1  -1 -11  179.20    4.30
   1   1  12   88.30    3.20
  -1  -1 -12   79.90    2.60
   1   1  13   45.30    3.00
  -1  -1 -13   52.50    2.00
   1   1  14   59.90    3.60
  -1  -1 -14   66.00    2.50
   1   1  15    4.90    1.60
  -1  -1 -15    2.40    1.00
   1   1  16   -0.70    2.20
  -1  -1 -16    2.70    1.80
   1   1  17   -0.40    2.60
  -1  -1 -17    6.00    2.20
   1   1  18   42.60    4.10
  -1  -1 -18   58.10    3.20
   1   1  19    5.90    3.10
  -1  -1 -19    3.00    2.30
   1   1  20    0.40    6.40
  -1  -1 -20    4.50    2.40
   1   2 -20    1.90    2.50
  -1  -2  20    4.90    3.70
   1   2 -19    1.20    1.80
  -1  -2  19   -0.10    2.70
   1   2 -18   43.80    2.70
  -1  -2  18   33.80    3.70
   1   2 -17   86.90    3.40
  -1  -2  17   70.30    4.90
   1   2 -16   19.00    1.70
  -1  -2  16   16.10    2.40
   1   2 -15    1.90    1.10
  -1  -2  15   -1.00    1.70
   1   2 -14   -0.50    1.10
  -1  -2  14   -1.70    1.60
   1   2 -13   12.50    1.20
  -1  -2  13    7.00    1.70
   1   2 -12    0.30    0.30
  -1  -2  12    1.20    1.00
   1   2 -11  125.50    2.80
  -1  -2  11  104.50    3.70
   1   2 -10    6.80    0.60
  -1  -2  10    5.80    0.80
   1   2  -9   11.10    0.50
  -1  -2   9   10.80    0.80
   1   2  -8    4.60    0.40
  -1  -2   8    3.00    0.50
   1   2  -7    1.10    0.30
  -1  -2   7    1.20    0.50
   1   2  -6  147.10    2.20
  -1  -2   6  141.80    2.60
   1   2  -5  160.90    2.30
  -1  -2   5  157.70    3.00
   1   2  -4   11.90    0.40
  -1  -2   4   11.90    0.30
   1   2  -3   97.20    1.60
  -1  -2   3  100.10    1.50
   1   2  -2   49.50    1.00
  -1  -2   2   49.80    0.80
   1   2  -1  117.60    1.90
  -1  -2   1  117.50    2.00
   1   2   0  242.00    3.50
  -1  -2   0  244.70    4.90
   1   2   1  390.10    6.40
  -1  -2  -1  404.70    6.20
   1   2   2  449.50    8.50
  -1  -2  -2  447.90    8.20
   1   2   3    2.80    0.50
  -1  -2  -3    2.60    0.40
   1   2   4   34.90    1.10
  -1  -2  -4   34.70    0.80
   1   2   5    3.30    0.60
  -1  -2  -5    3.40    0.40
   1   2   6   13.40    1.00
  -1  -2  -6   14.70    0.60
   1   2   7   31.80    1.50
  -1  -2  -7   33.70    1.00
   1   2   8   11.60    1.30
  -1  -2  -8   14.90    0.80
   1   2   9    5.90    1.00
  -1  -2  -9    5.60    0.70
   1   2  10   -0.60    1.20
  -1  -2 -10    1.30    0.60
   1   2  11   41.60    2.80
  -1  -2 -11   46.40    1.60
   1   2  12  183.90    8.60
  -1  -2 -12  181.40    4.10
   1   2  13    6.50    1.80
  -1  -2 -13    5.90    1.00
   1   2  14    1.10    1.40
  -1  -2 -14    1.30    0.90
   1   2  15    8.40    2.00
  -1  -2 -15   11.70    1.50
   1   2  16   44.30    5.70
  -1  -2 -16   44.70    3.20
   1   2  17   94.90    9.40
  -1  -2 -17  111.50    6.30
   1   2  18   37.50    6.60
  -1  -2 -18   29.20    3.40
   1   2  19    6.10    5.10
  -1  -2 -19   -1.40    2.30
   1   2  20    4.80    5.40
  -1  -2 -20   14.60    2.70
   1   3 -20   20.30    6.60
  -1  -3  20    3.00    3.90
   1   3 -19    1.70    2.80
  -1  -3  19    3.80    4.50
   1   3 -18    1.00    2.40
  -1  -3  18   -3.50    3.00
   1   3 -17   -1.80    1.30
  -1  -3  17    0.70    1.80
   1   3 -16    0.70    1.30
  -1  -3  16    0.80    1.80
   1   3 -15    0.70    1.00
  -1  -3  15   -0.60    1.70
   1   3 -14   36.90    2.00
  -1  -3  14   35.40    2.80
   1   3 -13    7.20    1.10
  -1  -3  13    6.50    2.10
   1   3 -12  177.50    4.70
  -1  -3  12  167.00    6.10
   1   3 -11    2.90    0.40
  -1  -3  11    2.20    1.20
   1   3 -10   42.70    1.10
  -1  -3  10   38.00    1.80
   1   3  -9   63.20    1.40
  -1  -3   9   55.20    1.90
   1   3  -8  250.40    3.70
  -1  -3   8  232.50    4.70
   1   3  -7    2.10    0.30
  -1  -3   7    2.80    0.40
   1   3  -6   31.00    0.80
  -1  -3   6   28.60    0.70
   1   3  -5    0.10    0.30
  -1  -3   5    0.20    0.20
   1   3  -4  152.40    2.40
  -1  -3   4  151.10    2.10
   1   3  -3   52.50    1.00
  -1  -3   3   52.10    1.00
   1   3  -2  387.30    5.40
  -1  -3   2  399.80    5.30
   1   3  -1   10.30    0.30
  -1  -3   1   10.30    0.40
   1   3   0   57.60    1.10
  -1  -3   0   55.90    1.60
   1   3   1    0.60    0.30
  -1  -3  -1    1.10    0.30
   1   3   2    0.50    0.40
  -1  -3  -2    0.80    0.40
   1   3   3   58.10    1.60
  -1  -3  -3   54.90    1.40
   1   3   4    5.50    0.60
  -1  -3  -4    6.40    0.60
   1   3   5    0.20    0.60
  -1  -3  -5    0.20    0.30
   1   3   6  396.20    9.80
  -1  -3  -6  406.70    6.60
   1   3   7   23.80    2.00
  -1  -3  -7   25.60    0.90
  -1  -3  -8  222.00    3.70
   1   3   9   35.10    3.60
  -1  -3  -9   45.00    1.30
   1   3  10    6.70    2.40
  -1  -3 -10    9.30    0.90
   1   3  11   12.80    2.90
  -1  -3 -11   18.10    1.20
   1   3  12   33.90    5.00
  -1  -3 -12   43.10    2.00
   1   3  13    3.20    2.50
  -1  -3 -13    1.60    0.90
   1   3  14   18.30    4.00
  -1  -3 -14   20.20    1.50
   1   3  15   19.20    4.20
  -1  -3 -15   22.20    1.80
   1   3  16   11.00    4.10
  -1  -3 -16    8.40    1.30
   1   3  17    6.40    4.00
  -1  -3 -17    6.50    2.30
   1   3  18   23.60    5.80
  -1  -3 -18   34.60    3.60
   1   3  19    4.80    6.90
  -1  -3 -19    2.00    2.80
   1   3  20   29.30    7.40
  -1  -3 -20   38.00    4.10
   1   4 -20   -5.50    5.80
  -1  -4  20   -0.30    3.40
   1   4 -19   15.60    4.60
  -1  -4  19   16.70    4.30
   1   4 -18   19.10    2.80
  -1  -4  18   18.30    4.10
   1   4 -17   -0.40    1.90
  -1  -4  17   -2.70    3.60
   1   4 -16    0.20    1.80
  -1  -4  16   -0.40    2.40
   1   4 -15   46.00    2.40
  -1  -4  15   33.70    3.20
   1   4 -14   20.10    1.50
  -1  -4  14   16.90    2.30
   1   4 -13    2.20    1.00
  -1  -4  13    2.30    1.30
   1   4 -12   35.70    1.80
  -1  -4  12   26.90    2.30
   1   4 -11   26.80    1.10
  -1  -4  11   25.60    1.60
   1   4 -10   47.80    1.50
  -1  -4  10   44.00    1.90
   1   4  -9   29.70    0.90
  -1  -4   9   29.00    1.40
   1   4  -8    7.30    0.50
  -1  -4   8    5.90    0.30
   1   4  -7  150.50    2.50
  -1  -4   7  141.90    2.60
   1   4  -6  369.90    5.30
  -1  -4   6  370.30    4.80
   1   4  -5   61.30    1.30
  -1  -4   5   59.50    1.10
   1   4  -4   37.90    1.00
  -1  -4   4   36.80    0.80
   1   4  -3  129.60    2.00
  -1  -4   3  129.60    2.00
   1   4  -2  118.70    1.90
  -1  -4   2  120.30    2.10
   1   4  -1   74.80    1.40
  -1  -4   1   74.20    1.60
   1   4   0   13.70    0.40
  -1  -4   0   13.40    0.50
   1   4   1    3.20    0.30
  -1  -4  -1    3.40    0.50
   1   4   2  327.50    5.40
  -1  -4  -2  308.20    5.10
   1   4   3   52.70    1.80
  -1  -4  -3   50.80    1.40
   1   4   4   31.00    1.30
  -1  -4  -4   29.80    1.10
   1   4   5    4.00    1.00
  -1  -4  -5    4.60    0.60
   1   4   6  168.00    8.60
  -1  -4  -6  170.10    3.20
   1   4   7  101.00    6.70
  -1  -4  -7  111.90    2.50
   1   4   8   32.30    3.60
  -1  -4  -8   39.30    1.30
   1   4   9    4.60    2.40
  -1  -4  -9    4.80    0.70
   1   4  10    3.60    2.40
  -1  -4 -10    5.20    1.00
   1   4  11   63.30    6.10
  -1  -4 -11   72.20    2.40
   1   4  12  216.80   13.20
  -1  -4 -12  255.50    5.80
   1   4  13    6.70    4.10
  -1  -4 -13    4.40    1.30
   1   4  14    2.00    3.00
  -1  -4 -14    0.00    1.10
   1   4  15   61.50    6.80
  -1  -4 -15   69.30    3.00
   1   4  16   -3.10    3.70
  -1  -4 -16    5.80    1.50
   1   4  17   12.50    6.50
  -1  -4 -17    8.80    2.40
   1   4  18    2.40    4.50
  -1  -4 -18   -2.70    2.50
   1   4  19   -2.30    4.50
  -1  -4 -19    5.20    3.30
   1   5 -19   28.60    5.30
  -1  -5  19   22.80    4.90
   1   5 -18   31.30    3.90
  -1  -5  18   33.60    5.90
   1   5 -17    4.00    2.20
  -1  -5  17    2.50    2.70
   1   5 -16   57.00    4.10
  -1  -5  16   47.00    5.50
   1   5 -15   52.80    3.70
  -1  -5  15   52.90    5.90
   1   5 -14    3.70    1.30
  -1  -5  14    3.10    2.40
   1   5 -13   19.20    1.30
  -1  -5  13   15.80    2.00
   1   5 -12   68.90    2.20
  -1  -5  12   64.50    3.50
   1   5 -11    0.30    0.60
  -1  -5  11    0.10    1.10
   1   5 -10   38.30    1.40
  -1  -5  10   38.40    1.70
   1   5  -9   19.90    0.80
  -1  -5   9   17.70    0.60
   1   5  -8   92.90    1.90
  -1  -5   8   92.80    2.10
   1   5  -7   15.00    0.70
  -1  -5   7   13.30    0.60
   1   5  -6   41.70    1.10
  -1  -5   6   38.80    1.00
   1   5  -5    4.50    0.40
  -1  -5   5    4.40    0.40
   1   5  -4  229.20    3.70
  -1  -5   4  239.40    3.70
   1   5  -3  102.00    1.70
  -1  -5   3  105.60    1.90
   1   5  -2   27.50    0.90
  -1  -5   2   29.50    0.90
   1   5  -1  159.60    2.90
  -1  -5   1  165.60    3.70
   1   5   0   32.60    1.00
  -1  -5   0   31.40    1.00
   1   5   1   52.00    1.40
  -1  -5  -1   51.80    1.30
   1   5   2  227.70    3.80
  -1  -5  -2  242.70    5.40
   1   5   3  348.90    7.10
  -1  -5  -3  349.50    6.50
   1   5   4   63.20    3.30
  -1  -5  -4   66.20    2.50
   1   5   5    4.20    2.40
  -1  -5  -5    2.10    0.80
   1   5   6    6.70    2.70
  -1  -5  -6    4.10    1.00
   1   5   7   -0.50    1.80
  -1  -5  -7    3.30    0.50
   1   5   8    5.90    3.40
  -1  -5  -8    3.30    0.90
   1   5   9   16.50    3.00
  -1  -5  -9   16.90    1.40
   1   5  10    7.10    3.00
  -1  -5 -10    4.90    1.10
   1   5  11   41.90    5.10
  -1  -5 -11   48.60    2.00
   1   5  12   37.30    4.80
  -1  -5 -12   35.90    2.00
   1   5  13   -6.00    4.10
  -1  -5 -13    2.00    1.30
   1   5  14   -2.10    3.10
  -1  -5 -14    2.50    1.40
   1   5  15    5.60    3.90
  -1  -5 -15    8.30    1.70
   1   5  16   22.30    7.00
  -1  -5 -16   29.40    2.30
   1   5  17   -2.20    3.90
  -1  -5 -17    1.80    1.60
   1   5  18   24.40    6.50
  -1  -5 -18   32.90    3.10
   1   5  19   23.50    8.80
  -1  -5 -19   25.50    4.10
   1   6 -18    7.00    3.70
  -1  -6  18    7.40    3.80
   1   6 -17    0.80    1.90
  -1  -6  17   -2.30    3.30
   1   6 -16   -1.50    1.90
  -1  -6  16   -0.20    3.70
   1   6 -15    1.80    1.50
  -1  -6  15    1.80    2.60
   1   6 -14   16.60    1.90
  -1  -6  14   10.80    3.20
   1   6 -13   82.90    3.70
  -1  -6  13   74.80    6.20
   1   6 -12   11.20    1.50
  -1  -6  12   11.60    3.20
   1   6 -11    8.80    1.00
  -1  -6  11    4.60    1.40
   1   6 -10   55.60    2.10
  -1  -6  10   51.50    1.80
   1   6  -9    2.30    0.60
  -1  -6   9    2.40    0.70
   1   6  -8   35.10    1.10
  -1  -6   8   31.20    1.20
   1   6  -7   65.50    1.70
  -1  -6   7   60.30    1.60
   1   6  -6   51.40    1.40
  -1  -6   6   49.20    1.30
   1   6  -5   67.70    1.50
  -1  -6   5   64.00    1.50
   1   6  -4   48.40    1.40
  -1  -6   4   45.20    1.20
   1   6  -3  169.50    3.20
  -1  -6   3  179.10    3.50
   1   6  -2  172.00    3.00
  -1  -6   2  170.50    3.30
   1   6  -1    0.00    0.50
  -1  -6   1    0.50    0.40
   1   6   0   23.20    0.90
  -1  -6   0   25.00    1.00
   1   6   1    4.20    0.70
  -1  -6  -1    5.10    0.50
   1   6   2  109.90    2.80
  -1  -6  -2  103.30    2.80
   1   6   3   33.90    1.10
  -1  -6  -3   28.90    1.40
   1   6   4   27.50    1.40
  -1  -6  -4   23.00    1.20
   1   6   5  173.30    4.70
  -1  -6  -5  165.20    3.80
   1   6   6    7.60    1.50
  -1  -6  -6    3.20    0.70
   1   6   7   -1.60    1.20
  -1  -6  -7    0.20    0.30
   1   6   8   91.20    4.50
  -1  -6  -8   91.70    2.70
   1   6   9   51.10    5.70
  -1  -6  -9   51.50    2.20
   1   6  10   85.50    6.40
  -1  -6 -10  101.80    3.20
   1   6  11   28.90    4.30
  -1  -6 -11   32.60    1.80
   1   6  12    2.30    3.30
  -1  -6 -12    4.30    1.40
   1   6  13   58.00    7.10
  -1  -6 -13   53.80    3.00
   1   6  14    1.60    3.70
  -1  -6 -14   -0.90    1.30
   1   6  15   11.50    4.50
  -1  -6 -15    9.20    1.80
   1   6  16   40.70    8.00
  -1  -6 -16   30.60    2.90
   1   6  17    9.00    5.00
  -1  -6 -17    9.70    2.10
   1   6  18   -7.30    6.60
  -1  -6 -18   -0.20    2.20
   1   7 -17   -9.60    4.80
  -1  -7  17   -2.90    3.40
   1   7 -16   15.60    4.80
  -1  -7  16   10.70    3.70
   1   7 -15    1.10    3.90
  -1  -7  15    9.50    4.60
   1   7 -14   40.20    5.00
  -1  -7  14   31.00    4.40
   1   7 -13   -0.60    1.80
  -1  -7  13    3.40    2.70
   1   7 -12    4.20    1.60
  -1  -7  12    9.20    2.80
   1   7 -11   40.20    3.20
  -1  -7  11   36.20    4.20
   1   7 -10    9.70    1.70
  -1  -7  10    9.80    2.50
   1   7  -9   83.20    2.60
  -1  -7   9   80.50    2.40
   1   7  -8  101.10    2.80
  -1  -7   8  101.20    3.10
   1   7  -7  135.10    3.10
  -1  -7   7  134.00    4.80
   1   7  -6   57.30    1.50
  -1  -7   6   51.50    1.50
   1   7  -5    0.00    0.40
  -1  -7   5    0.00    0.30
   1   7  -4   38.30    1.40
  -1  -7   4   37.70    1.40
   1   7  -3    3.70    0.60
  -1  -7   3    3.70    0.60
   1   7  -2    2.10    0.70
  -1  -7   2    2.30    0.60
   1   7  -1   67.40    2.20
  -1  -7   1   75.20    2.50
   1   7   0   50.20    1.60
  -1  -7   0   47.70    1.60
   1   7   1    4.30    1.00
  -1  -7  -1    4.30    0.70
   1   7   2   -1.50    1.30
  -1  -7  -2    1.10    0.70
   1   7   3   40.40    2.50
  -1  -7  -3   39.10    1.70
   1   7   4   21.00    0.90
  -1  -7  -4   22.20    1.20
   1   7   5   -0.70    0.80
  -1  -7  -5   -0.20    0.80
   1   7   6   62.30    2.70
  -1  -7  -6   57.60    1.90
   1   7   7  192.10    5.90
  -1  -7  -7  202.00    3.60
   1   7   8   13.50    2.20
  -1  -7  -8   14.00    1.30
   1   7   9   30.60    2.60
  -1  -7  -9   33.80    2.00
   1   7  10    8.90    2.40
  -1  -7 -10    4.00    1.50
   1   7  11   76.70    5.00
  -1  -7 -11   88.20    3.40
   1   7  12    5.40    2.00
  -1  -7 -12    2.00    1.50
   1   7  13   30.10    5.40
  -1  -7 -13   35.10    2.40
   1   7  14   47.70    6.80
  -1  -7 -14   49.60    3.00
   1   7  15   -2.10    4.50
  -1  -7 -15   -1.00    1.80
   1   7  16   18.80    7.80
  -1  -7 -16   17.00    2.30
   1   7  17   -6.00    4.80
  -1  -7 -17    7.40    2.20
   1   8 -16   42.80    6.50
  -1  -8  16   35.90    5.70
   1   8 -15    0.00    3.80
  -1  -8  15    7.80    4.90
   1   8 -14    1.40    2.00
  -1  -8  14    0.70    4.10
   1   8 -13    8.70    2.20
  -1  -8  13    7.10    3.20
   1   8 -12    4.40    2.10
  -1  -8  12   10.20    3.00
   1   8 -11    9.30    2.60
  -1  -8  11   11.90    3.20
   1   8 -10    6.10    1.80
  -1  -8  10    5.70    2.40
   1   8  -9   23.90    2.30
  -1  -8   9   21.50    1.90
   1   8  -8   -1.70    2.40
  -1  -8   8    1.10    0.90
   1   8  -7   92.50    3.20
  -1  -8   7   86.10    2.80
   1   8  -6    0.10    0.50
  -1  -8   6    1.40    0.70
   1   8  -5    1.90    0.80
  -1  -8   5    4.10    0.80
   1   8  -4    1.00    0.80
  -1  -8   4    0.10    0.90
   1   8  -3   19.80    1.30
  -1  -8   3   20.20    1.20
   1   8  -2    3.50    1.00
  -1  -8   2    2.00    0.80
   1   8  -1   77.20    3.00
  -1  -8   1   61.00    4.20
   1   8   0  314.00    8.70
  -1  -8   0  318.40    7.30
   1   8   1  149.30    4.90
  -1  -8  -1  167.70    3.90
   1   8   2   52.20    2.40
  -1  -8  -2   56.50    1.80
   1   8   3    1.10    1.30
  -1  -8  -3    1.60    0.70
   1   8   4    9.60    1.60
  -1  -8  -4    9.10    1.50
   1   8   5    8.60    0.90
  -1  -8  -5    7.50    1.00
   1   8   6   42.00    3.10
  -1  -8  -6   38.10    1.80
   1   8   7   -0.30    1.50
  -1  -8  -7    0.60    1.10
   1   8   8   13.00    2.10
  -1  -8  -8   13.40    1.40
   1   8   9    6.60    1.90
  -1  -8  -9    2.70    1.30
   1   8  10    3.60    1.60
  -1  -8 -10    5.50    1.40
   1   8  11   -2.20    2.10
  -1  -8 -11    2.90    1.40
   1   8  12    5.20    3.70
  -1  -8 -12   -0.30    1.60
   1   8  13   22.90    5.50
  -1  -8 -13   15.50    2.10
   1   8  14    7.90    5.10
  -1  -8 -14    1.10    1.90
   1   8  15    8.60    6.60
  -1  -8 -15    4.60    2.30
   1   8  16   10.40    5.40
  -1  -8 -16    9.80    2.90
  -1  -9  15    7.50    5.50
   1   9 -14    9.60    5.70
  -1  -9  14    5.70    4.00
   1   9 -13   39.10    6.50
  -1  -9  13   45.60    6.00
   1   9 -12    5.20    2.40
  -1  -9  12    6.40    3.40
   1   9 -11   11.20    4.20
  -1  -9  11   15.20    4.40
   1   9  -9   73.00    7.40
  -1  -9   9   65.70    6.80
   1   9  -8   25.70    4.30
  -1  -9   8   29.00    2.50
   1   9  -7    7.70    3.00
  -1  -9   7    3.70    1.20
   1   9  -6   19.70    2.50
  -1  -9   6   18.30    1.90
   1   9  -5   14.70    1.00
  -1  -9   5   14.80    1.30
   1   9  -4   18.00    1.60
  -1  -9   4   18.80    1.80
   1   9  -3  118.30    4.30
  -1  -9   3  121.30    4.40
   1   9  -2   10.40    1.70
  -1  -9   2    5.80    1.30
   1   9  -1   62.40    2.90
  -1  -9   1   72.50    3.10
   1   9   0    3.10    1.10
  -1  -9   0    3.70    1.30
   1   9   1   21.80    1.90
  -1  -9  -1   18.10    2.30
   1   9   2    7.40    1.80
  -1  -9  -2    8.10    1.70
   1   9   3   69.70    3.30
  -1  -9  -3   68.90    2.50
   1   9   4    5.00    1.80
  -1  -9  -4    5.60    1.00
   1   9   5   -0.90    1.60
  -1  -9  -5    1.90    1.00
   1   9   6   24.20    2.80
  -1  -9  -6   23.00    2.10
   1   9   7   26.60    2.80
  -1  -9  -7   26.50    2.30
   1   9   8   34.00    3.20
  -1  -9  -8   37.80    2.70
   1   9   9  142.90    7.60
  -1  -9  -9  138.20    5.40
   1   9  10   16.80    3.10
  -1  -9 -10   16.10    2.30
   1   9  11    9.70    5.60
  -1  -9 -11    8.20    2.30
   1   9  12    3.40    5.40
  -1  -9 -12    3.50    2.10
   1   9  13   25.90    7.30
  -1  -9 -13   22.00    2.80
   1   9  14   -1.50    6.70
  -1  -9 -14   -3.80    2.80
   1   9  15   23.70    6.10
  -1  -9 -15   19.50    3.20
   1  10 -13   -1.50    4.30
   1  10 -12   27.80    5.60
  -1 -10  12   29.50    5.90
  -1 -10  11    6.80    3.70
   1  10 -10   10.30    4.40
  -1 -10  10    5.80    4.70
   1  10  -9   29.00    5.70
  -1 -10   9   31.40    5.00
   1  10  -8    1.10    3.10
  -1 -10   8    2.50    2.90
   1  10  -7   40.90    5.70
  -1 -10   7   34.20    2.70
   1  10  -6   37.60    3.70
  -1 -10   6   43.40    3.00
   1  10  -5   30.10    3.70
  -1 -10   5   26.00    2.80
   1  10  -4   72.00    4.80
  -1 -10   4   67.70    4.30
   1  10  -3    2.30    2.50
  -1 -10   3    1.00    2.20
   1  10  -2   17.80    1.80
  -1 -10   2   19.40    1.90
   1  10  -1   22.20    1.80
  -1 -10   1   25.60    2.20
   1  10   0   22.70    1.90
  -1 -10   0   19.10    1.90
   1  10   1    7.70    1.50
  -1 -10  -1    5.70    1.90
   1  10   2   11.30    1.80
  -1 -10  -2    8.30    2.20
   1  10   3    6.80    1.60
  -1 -10  -3    6.70    1.70
   1  10   4   50.40    3.10
  -1 -10  -4   47.40    2.70
   1  10   5    5.80    1.60
  -1 -10  -5    7.80    1.70
   1  10   6   43.60    3.70
  -1 -10  -6   51.40    3.10
   1  10   7   30.10    3.20
  -1 -10  -7   26.20    2.60
   1  10   8    7.00    2.60
  -1 -10  -8   10.70    2.00
   1  10   9    0.30    2.20
  -1 -10  -9   -0.80    1.80
   1  10  10   14.10    6.30
  -1 -10 -10   14.40    2.70
   1  10  11    3.20    4.30
  -1 -10 -11    1.60    2.20
   1  10  12   38.10    6.60
  -1 -10 -12   46.50    3.60
   1  10  13    6.20    5.20
  -1 -10 -13   -1.60    2.60
   1  11 -11    2.50    5.10
  -1 -11  11   -5.10    3.50
   1  11 -10    1.10    4.40
  -1 -11  10    1.00    5.00
   1  11  -9   -1.60    4.00
  -1 -11   9   -1.20    3.10
   1  11  -8   44.80    7.60
  -1 -11   8   66.70    7.60
   1  11  -7   -2.10    3.60
  -1 -11   7    5.60    4.50
   1  11  -6    5.30    3.80
  -1 -11   6    2.20    2.20
   1  11  -5   26.30    3.40
  -1 -11   5   20.80    3.10
   1  11  -4    2.60    2.40
  -1 -11   4    1.80    2.30
   1  11  -3    2.80    2.20
  -1 -11   3   -2.00    3.10
   1  11  -2    2.40    2.70
  -1 -11   2    0.60    2.40
   1  11  -1   61.20    4.70
  -1 -11   1   54.50    5.00
   1  11   0    5.10    1.80
  -1 -11   0    4.60    2.10
   1  11   1   98.30    4.60
  -1 -11  -1   98.20    5.00
   1  11   2   32.20    3.20
  -1 -11  -2   40.60    3.30
   1  11   3   34.80    2.80
  -1 -11  -3   36.50    3.40
   1  11   4    4.60    1.80
  -1 -11  -4    6.10    1.60
   1  11   5   44.70    3.20
  -1 -11  -5   54.20    3.30
   1  11   6   -1.90    2.20
  -1 -11  -6    0.80    1.70
   1  11   7   21.00    3.60
  -1 -11  -7   14.70    2.30
   1  11   8   13.60    3.50
  -1 -11  -8   11.20    2.60
   1  11   9   12.90    6.60
  -1 -11  -9    5.60    3.20
   1  11  10   18.40    5.60
  -1 -11 -10    5.30    2.40
   1  11  11    3.20    4.90
  -1 -11 -11   -0.30    2.50
  -1 -12   9    3.70    4.30
   1  12  -8    6.90    5.30
  -1 -12   8    9.90    5.70
   1  12  -7    6.30    4.70
  -1 -12   7    1.00    3.40
   1  12  -6    7.20    5.00
  -1 -12   6   17.40    4.60
   1  12  -5    9.00    2.90
  -1 -12   5   13.50    3.00
   1  12  -4   -4.40    2.50
  -1 -12   4   -0.40    2.40
   1  12  -3    5.20    3.70
  -1 -12   3    0.40    3.20
   1  12  -2   69.30    5.80
  -1 -12   2   65.50    5.70
   1  12  -1   27.80    3.70
  -1 -12   1   24.40    4.30
   1  12   0    2.60    2.50
  -1 -12   0    2.60    3.70
   1  12   1   14.50    3.30
  -1 -12  -1   15.90    3.90
   1  12   2   12.80    3.70
  -1 -12  -2   14.00    3.50
   1  12   3    7.20    2.10
  -1 -12  -3   11.10    2.40
   1  12   4   -1.80    2.00
  -1 -12  -4   -0.20    2.60
   1  12   5    0.50    2.00
  -1 -12  -5    1.20    2.30
   1  12   6    0.40    1.90
  -1 -12  -6    2.20    2.00
   1  12   7    1.50    2.50
  -1 -12  -7   -0.70    2.30
   1  12   8   44.30    4.50
  -1 -12  -8   49.20    4.00
   1  12   9    0.40    3.00
  -1 -12  -9   -1.10    3.20
   1  13  -4    2.60    3.20
   1  13  -3    4.10    3.80
  -1 -13   3    3.80    5.70
   1  13  -2    2.00    3.10
  -1 -13   2   -2.60    3.50
   1  13  -1   17.10    4.20
  -1 -13   1   18.00    8.00
   1  13   0    4.90    3.30
  -1 -13   0    4.30    4.00
   1  13   1    1.80    2.80
  -1 -13  -1   -0.70    4.30
   1  13   2    6.80    3.10
  -1 -13  -2    7.30    4.50
   1  13   3    9.90    4.10
  -1 -13  -3   10.50    4.60
   1  13   4    0.70    2.80
  -1 -13  -4   -0.20    3.90
   2 -13  -2    5.10    3.70
   2 -13  -1    7.40    5.00
   2 -13   0   -1.90    3.50
   2 -13   1    1.90    4.00
   2 -12  -7    4.00    3.90
  -2  12   7    9.40    4.50
   2 -12  -6    8.20    3.80
  -2  12   6   -0.10    3.80
   2 -12  -5   98.10    7.50
  -2  12   5   90.60    9.00
   2 -12  -4   14.30    4.20
  -2  12   4   24.70    6.60
   2 -12  -3   19.30    4.50
  -2  12   3   22.10    3.80
   2 -12  -2   31.80    4.50
  -2  12   2   34.60    4.40
   2 -12  -1    2.40    3.20
  -2  12   1    8.00    3.60
   2 -12   0    6.90    3.30
  -2  12   0    4.10    2.90
   2 -12   1    5.10    4.20
  -2  12  -1   -0.10    3.30
   2 -12   2   17.50    4.20
  -2  12  -2   12.00    3.20
   2 -12   3   13.20    5.50
  -2  12  -3   30.70    6.30
   2 -12   4    0.70    4.30
  -2  12  -4    5.40    3.60
   2 -12   5    0.00    4.60
   2 -12   6    8.10    3.10
  -2  12  -6   12.40    4.70
   2 -12   7   22.10    3.60
  -2  12  -7   25.80    6.20
   2 -11 -11   20.50    3.30
  -2  11  11   18.20    5.90
   2 -11 -10   10.80    2.60
  -2  11  10    8.40    4.90
   2 -11  -9   -0.10    2.10
  -2  11   9    1.90    4.00
   2 -11  -8   70.90    4.30
  -2  11   8   63.90    8.20
   2 -11  -7    1.70    1.60
  -2  11   7   -1.30    3.00
   2 -11  -6   -1.30    1.90
  -2  11   6    3.50    2.40
   2 -11  -5    3.70    1.70
  -2  11   5    9.60    2.40
   2 -11  -4    6.40    2.90
  -2  11   4    8.60    2.20
   2 -11  -3    8.20    3.50
  -2  11   3    0.30    2.10
   2 -11  -2   75.10    8.60
  -2  11   2   72.40    4.90
   2 -11  -1    5.80    3.10
  -2  11   1   14.80    3.10
   2 -11   0    3.00    3.00
  -2  11   0    1.40    2.50
   2 -11   1   20.30    3.50
  -2  11  -1   11.30    2.80
   2 -11   2    4.20    2.90
  -2  11  -2    2.30    2.80
   2 -11   3    3.30    2.30
  -2  11  -3    4.00    2.80
   2 -11   4    8.90    3.00
  -2  11  -4   10.70    2.90
   2 -11   5   17.70    3.40
  -2  11  -5   26.80    4.90
   2 -11   6   50.10    7.60
  -2  11  -6   46.70    7.00
   2 -11   7    2.60    3.00
  -2  11  -7   -1.60    3.10
   2 -11   8   41.20    5.60
   2 -11   9    5.00    3.30
   2 -11  10    4.50    3.50
   2 -10 -13    6.10    2.50
  -2  10  13    3.90    5.30
   2 -10 -12    6.80    2.20
  -2  10  12    2.90    5.00
   2 -10 -11   12.30    3.10
  -2  10  11    8.00    6.40
   2 -10 -10   17.70    2.80
  -2  10  10   24.90    6.40
   2 -10  -9    8.90    2.40
  -2  10   9    6.80    5.50
   2 -10  -8    0.60    2.20
  -2  10   8    2.40    4.90
   2 -10  -7    2.00    1.60
  -2  10   7    9.50    3.70
   2 -10  -6   17.30    2.00
  -2  10   6   15.70    3.70
   2 -10  -5    6.70    1.50
  -2  10   5    3.60    1.90
   2 -10  -4   -1.30    1.20
  -2  10   4    1.00    1.90
   2 -10  -3    4.90    1.40
  -2  10   3    5.30    1.50
   2 -10  -2    1.30    1.30
  -2  10   2    0.60    1.60
   2 -10  -1   82.00    5.30
  -2  10   1   85.40    4.00
   2 -10   0   12.30    2.60
  -2  10   0   20.90    2.90
   2 -10   1   56.80    4.20
  -2  10  -1   62.90    4.60
   2 -10   2   40.60    4.40
  -2  10  -2   53.20    4.30
   2 -10   3    4.00    2.70
  -2  10  -3    6.30    2.90
   2 -10   4   46.60    4.00
  -2  10  -4   38.50    3.60
   2 -10   5   48.60    4.00
  -2  10  -5   40.00    5.10
   2 -10   6   10.30    2.60
  -2  10  -6   10.10    3.30
   2 -10   7    4.50    2.80
  -2  10  -7    9.50    3.50
   2 -10   8    1.10    2.00
   2 -10   9   -1.20    2.20
   2 -10  10   11.20    2.70
   2 -10  11   -7.40    3.90
   2 -10  12   33.00    5.60
   2  -9 -14    4.70    2.50
   2  -9 -13    3.40    2.00
  -2   9  13    0.20    4.40
   2  -9 -12   35.60    2.90
  -2   9  12   42.20    7.50
   2  -9 -11    6.20    2.10
  -2   9  11    4.20    3.90
   2  -9 -10   36.90    2.80
  -2   9  10   42.60    6.00
   2  -9  -9   15.00    2.10
  -2   9   9   12.30    3.70
   2  -9  -8   14.40    1.80
  -2   9   8   18.60    3.90
   2  -9  -7    7.40    1.60
  -2   9   7   12.00    3.20
   2  -9  -6   58.00    2.90
  -2   9   6   61.90    4.20
   2  -9  -5    3.90    1.50
  -2   9   5    4.40    2.20
   2  -9  -4  205.50    5.60
  -2   9   4  170.40   11.10
   2  -9  -3    4.20    1.80
  -2   9   3    1.70    3.30
   2  -9  -2    6.30    1.20
  -2   9   2    5.40    1.50
   2  -9  -1    1.80    1.30
  -2   9   1   -0.50    1.20
   2  -9   0    0.90    0.90
  -2   9   0    0.00    0.80
   2  -9   1   20.10    1.40
  -2   9  -1   21.20    1.70
   2  -9   2   23.40    2.70
  -2   9  -2   34.50    3.30
   2  -9   3   50.60    3.90
  -2   9  -3   52.50    3.60
   2  -9   4   11.20    2.40
  -2   9  -4   11.70    2.80
   2  -9   5   35.40    2.90
  -2   9  -5   44.40    3.70
   2  -9   6    8.80    1.90
  -2   9  -6    9.00    3.50
   2  -9   7   23.90    2.10
  -2   9  -7   27.00    4.50
   2  -9   8   28.50    3.20
   2  -9   9    2.50    2.00
   2  -9  10   50.80    4.30
   2  -9  11    2.00    2.00
   2  -9  12    1.00    2.60
   2  -9  13   -3.80    3.90
   2  -8 -16    5.90    2.50
  -2   8  16    4.60    7.30
   2  -8 -15    1.10    2.20
  -2   8  15   -0.50    4.20
   2  -8 -14   -2.00    2.00
  -2   8  14    0.90    6.00
   2  -8 -13   56.50    4.00
  -2   8  13   61.30    7.20
   2  -8 -12   24.70    2.60
   2  -8 -11    2.10    1.70
  -2   8  11    0.70    3.30
   2  -8 -10    2.40    1.20
  -2   8  10   12.60    5.00
   2  -8  -9   -0.20    0.90
  -2   8   9   -2.80    2.70
   2  -8  -8    5.30    1.10
  -2   8   8    8.80    3.20
   2  -8  -7   15.40    2.40
  -2   8   7   23.60    3.60
   2  -8  -6    2.90    1.00
  -2   8   6    3.20    1.40
   2  -8  -5   12.40    2.20
  -2   8   5   10.00    2.20
   2  -8  -4   43.00    2.60
  -2   8   4   40.40    3.80
   2  -8  -3  123.90    4.50
  -2   8   3  145.70    8.70
   2  -8  -2   24.90    1.80
  -2   8   2   22.40    2.80
   2  -8  -1    2.60    0.80
  -2   8   1    2.40    1.20
   2  -8   0   10.00    0.90
  -2   8   0    7.30    1.30
   2  -8   1   12.30    1.00
  -2   8  -1   11.70    1.20
   2  -8   2   27.50    1.10
  -2   8  -2   29.70    1.50
   2  -8   3   -0.30    0.90
  -2   8  -3    3.00    1.70
   2  -8   4   88.70    3.30
  -2   8  -4   82.80    4.20
   2  -8   5  136.00    8.00
  -2   8  -5  142.60    6.20
   2  -8   6    1.70    0.90
  -2   8  -6   -4.20    2.80
   2  -8   7    1.30    0.80
  -2   8  -7   -3.90    3.00
   2  -8   8    2.40    0.80
   2  -8   9   37.10    2.40
   2  -8  10   68.10    3.30
   2  -8  11   31.90    2.30
   2  -8  12    4.90    1.70
   2  -8  13   26.00    3.20
   2  -8  14   35.60    5.10
  -2   8 -14   41.60    5.30
  -2   8 -15    8.70    3.40
  -2   8 -16   -1.10    3.20
   2  -7 -17    2.90    2.80
  -2   7  17    4.70    5.40
   2  -7 -16    0.70    1.90
  -2   7  16    3.50    4.60
   2  -7 -15   -1.60    1.70
  -2   7  15    4.50    4.60
   2  -7 -14   84.50    3.70
  -2   7  14   83.10    9.10
   2  -7 -13    1.10    1.40
  -2   7  13    7.20    3.40
   2  -7 -12   15.40    2.20
  -2   7  12   19.50    4.30
   2  -7 -11    4.30    1.30
  -2   7  11    3.30    3.10
   2  -7 -10   36.10    2.40
  -2   7  10   45.70    5.50
   2  -7  -9   60.10    2.90
  -2   7   9   57.10    5.80
   2  -7  -8   10.20    2.00
  -2   7   8   24.30    4.40
   2  -7  -7   47.90    2.70
  -2   7   7   43.00    4.40
   2  -7  -6   44.20    2.50
  -2   7   6   41.20    2.70
   2  -7  -5   18.00    1.80
  -2   7   5   19.90    1.60
   2  -7  -4    5.70    2.40
  -2   7   4    4.70    1.00
   2  -7  -3   29.20    1.60
  -2   7   3   27.30    1.50
   2  -7  -2   47.60    1.70
  -2   7   2   45.30    1.70
   2  -7  -1    0.90    0.60
  -2   7   1    1.90    0.60
   2  -7   0   44.20    1.40
  -2   7   0   44.60    1.50
   2  -7   1   26.20    1.00
  -2   7  -1   28.30    1.30
   2  -7   2   33.00    1.20
  -2   7  -2   32.40    1.50
   2  -7   3   52.50    2.30
  -2   7  -3   53.40    1.60
   2  -7   4  184.60    5.10
  -2   7  -4  193.80    7.30
   2  -7   5   10.60    1.20
  -2   7  -5   11.00    1.90
   2  -7   6    8.10    1.30
  -2   7  -6   10.90    2.20
   2  -7   7   17.10    1.20
  -2   7  -7   19.20    2.30
   2  -7   8   -0.20    0.70
  -2   7  -8   -0.50    2.60
   2  -7   9    5.00    1.40
  -2   7  -9    7.10    2.20
   2  -7  10    0.80    1.00
  -2   7 -10    1.50    1.90
   2  -7  11   54.30    2.90
  -2   7 -11   59.40    3.80
   2  -7  12   11.50    1.80
  -2   7 -12   12.80    2.40
   2  -7  13   72.00    4.50
  -2   7 -13   61.30    4.20
   2  -7  14   20.50    2.40
  -2   7 -14   17.50    2.80
   2  -7  15   -0.90    2.70
  -2   7 -15   -0.80    2.30
   2  -7  16    3.50    3.50
  -2   7 -16    2.90    2.40
   2  -7  17   -2.10    3.10
  -2   7 -17   -1.20    2.70
   2  -6 -18   15.90    2.80
  -2   6  18   27.90    6.50
   2  -6 -17    8.40    2.70
  -2   6  17    6.50    5.20
   2  -6 -16   66.20    3.30
  -2   6  16   63.20    8.20
   2  -6 -15    0.70    1.70
  -2   6  15    5.00    5.80
   2  -6 -14    0.80    1.50
  -2   6  14   -3.50    3.40
   2  -6 -13    3.30    0.90
  -2   6  13    9.20    3.50
   2  -6 -12    9.10    1.50
  -2   6  12    8.40    3.40
   2  -6 -11   83.20    3.50
  -2   6  11   75.20    6.80
   2  -6 -10    2.60    1.40
  -2   6  10    2.90    2.60
   2  -6  -9   -0.10    1.60
  -2   6   9   -1.90    2.30
   2  -6  -8    2.30    1.30
  -2   6   8    2.70    2.20
   2  -6  -7   -0.80    1.30
  -2   6   7   -1.00    1.90
   2  -6  -6    8.60    1.40
  -2   6   6    6.00    2.10
   2  -6  -5  229.80    6.10
  -2   6   5  231.80    5.60
   2  -6  -4   27.10    1.30
  -2   6   4   27.00    1.30
   2  -6  -3   96.20    2.80
  -2   6   3   90.80    2.50
   2  -6  -2   60.40    1.70
  -2   6   2   60.80    1.70
   2  -6  -1    0.50    0.50
  -2   6   1   -1.00    0.50
   2  -6   0  272.60    5.60
  -2   6   0  254.60    5.00
   2  -6   1   25.40    1.10
  -2   6  -1   30.00    1.00
   2  -6   2   51.20    1.40
  -2   6  -2   47.20    1.40
   2  -6   3   40.20    1.20
  -2   6  -3   40.40    1.10
   2  -6   4    4.60    1.20
  -2   6  -4    6.40    1.40
   2  -6   5    4.70    0.80
  -2   6  -5    5.70    2.00
   2  -6   6   58.00    2.20
  -2   6  -6   55.10    2.40
   2  -6   7   25.70    1.40
  -2   6  -7   26.60    1.80
   2  -6   8    2.30    1.10
  -2   6  -8    2.20    1.30
   2  -6   9    0.10    0.40
  -2   6  -9    0.90    1.20
   2  -6  10   15.20    1.70
  -2   6 -10   15.40    1.80
   2  -6  11   72.30    4.20
  -2   6 -11   72.10    3.80
   2  -6  12    2.90    1.90
  -2   6 -12    2.70    1.50
   2  -6  13   14.60    2.00
  -2   6 -13   16.00    2.80
   2  -6  14   40.40    4.10
  -2   6 -14   42.00    3.80
   2  -6  15   -0.50    3.00
  -2   6 -15    4.40    2.50
  -2   6 -16    4.40    2.70
  -2   6 -17   24.40    3.60
   2  -6  18   17.80    5.80
  -2   6 -18   27.30    4.20
   2  -5 -19   21.20    5.70
  -2   5  19   28.40    6.80
   2  -5 -18   15.40    3.50
  -2   5  18   24.20    5.50
   2  -5 -17    3.60    2.20
  -2   5  17    4.00    4.60
   2  -5 -16    9.80    1.80
  -2   5  16   10.10    4.60
   2  -5 -15   -1.40    1.40
  -2   5  15   -1.20    3.70
   2  -5 -14   10.90    1.60
  -2   5  14    7.90    3.50
   2  -5 -13   18.90    1.90
  -2   5  13   19.60    4.20
   2  -5 -12   26.70    2.00
  -2   5  12   17.50    3.80
   2  -5 -11   69.20    4.00
  -2   5  11   54.90    5.70
   2  -5 -10  117.70    5.40
  -2   5  10   97.90    7.40
   2  -5  -9   34.20    2.10
  -2   5   9   28.30    3.40
   2  -5  -8    9.50    1.60
  -2   5   8    8.70    2.40
   2  -5  -7   20.40    1.90
  -2   5   7   19.50    3.50
   2  -5  -6   24.20    1.80
  -2   5   6   26.30    1.60
   2  -5  -5    1.00    0.70
  -2   5   5    0.00    0.60
   2  -5  -4   12.40    0.90
  -2   5   4   14.00    0.90
   2  -5  -3   66.00    1.70
  -2   5   3   71.10    1.70
   2  -5  -2   69.40    1.50
  -2   5   2   73.10    1.90
   2  -5  -1    4.70    0.50
  -2   5   1    5.30    0.60
   2  -5   0   67.60    1.40
  -2   5   0   72.10    1.50
   2  -5   1   59.80    1.30
  -2   5  -1   66.70    1.60
   2  -5   2   22.20    0.70
  -2   5  -2   24.90    1.00
   2  -5   3  145.40    3.30
  -2   5  -3  137.30    2.90
   2  -5   4   -0.80    1.10
  -2   5  -4    0.50    0.90
   2  -5   5  133.70    6.90
  -2   5  -5  123.20    3.80
   2  -5   6  249.80    7.30
  -2   5  -6  222.30    5.70
   2  -5   7   16.40    1.10
  -2   5  -7   16.70    1.50
   2  -5   8  140.00    3.80
  -2   5  -8  125.30    3.90
   2  -5   9  169.90    6.00
  -2   5  -9  148.30    4.80
   2  -5  10    2.60    1.80
  -2   5 -10    0.60    1.10
   2  -5  11   28.70    2.70
  -2   5 -11   28.10    2.10
   2  -5  12    1.20    1.40
  -2   5 -12   -0.50    1.30
   2  -5  13    8.60    2.70
  -2   5 -13    6.80    2.30
   2  -5  14   -2.40    2.30
  -2   5 -14    2.10    2.10
   2  -5  15   37.90    4.40
  -2   5 -15   46.10    4.00
  -2   5 -16   15.40    3.00
  -2   5 -17   -0.60    2.50
  -2   5 -18    8.10    2.80
   2  -4 -19   44.50    4.40
  -2   4  19   26.40    8.70
   2  -4 -18   -1.30    2.60
  -2   4  18    2.70    6.30
   2  -4 -17    1.80    2.10
  -2   4  17    5.30    5.90
   2  -4 -16    2.20    1.50
  -2   4  16   -1.10    3.50
   2  -4 -15   61.20    2.70
  -2   4  15   53.10    6.40
   2  -4 -14   -0.20    1.20
  -2   4  14   -5.00    2.90
   2  -4 -13    4.20    1.40
  -2   4  13    5.60    1.90
   2  -4 -12    2.90    1.20
  -2   4  12    2.50    1.60
   2  -4 -11    0.40    1.30
  -2   4  11    0.40    1.40
   2  -4 -10   83.60    3.40
   2  -4  -9  173.80    6.10
  -2   4   9  180.90    4.20
   2  -4  -8    0.10    1.00
  -2   4   8    1.30    0.50
   2  -4  -7   92.40    3.30
  -2   4   7  105.60    3.60
   2  -4  -6  233.40    5.20
  -2   4   6  262.20    6.50
   2  -4  -5   73.30    2.30
  -2   4   5   83.50    2.60
   2  -4  -4   43.20    1.20
  -2   4   4   45.30    1.40
   2  -4  -3   30.90    1.00
  -2   4   3   31.30    1.10
   2  -4  -2   80.70    1.60
  -2   4   2   81.40    1.90
   2  -4  -1  482.60    6.00
  -2   4   1  501.70    8.70
   2  -4   0    0.70    0.30
  -2   4   0    0.00    0.40
   2  -4   1    4.40    0.40
  -2   4  -1    3.30    0.50
   2  -4   2   24.50    0.60
  -2   4  -2   24.60    1.00
   2  -4   3   42.50    0.90
  -2   4  -3   41.70    1.00
   2  -4   4   12.40    0.40
  -2   4  -4   11.30    0.70
   2  -4   5   24.30    2.10
  -2   4  -5   22.70    1.40
   2  -4   6   15.00    1.20
  -2   4  -6   15.30    1.10
   2  -4   7   24.90    1.10
  -2   4  -7   29.50    1.60
   2  -4   8    7.50    0.50
  -2   4  -8    7.20    1.40
   2  -4   9   16.80    0.60
  -2   4  -9   17.50    0.60
   2  -4  10   24.10    0.80
  -2   4 -10   23.50    0.90
   2  -4  11   -0.60    0.60
  -2   4 -11    0.40    0.50
   2  -4  12  231.20    7.70
  -2   4 -12  217.40    5.30
   2  -4  13    3.40    2.10
  -2   4 -13    1.30    1.30
   2  -4  14    3.80    2.30
  -2   4 -14    0.30    1.60
   2  -4  15   78.60    6.60
  -2   4 -15   71.10    4.40
   2  -4  16    6.70    2.90
  -2   4 -16    5.80    2.60
  -2   4 -17    9.50    2.60
  -2   4 -18   -0.90    2.60
  -2   4 -19    6.50    3.40
   2  -3 -20   -1.70    3.40
  -2   3  20   -2.50    4.90
   2  -3 -19    5.20    2.90
  -2   3  19   10.10    3.40
   2  -3 -18    5.70    2.80
  -2   3  18    3.50    3.80
   2  -3 -17    4.00    1.70
  -2   3  17    5.80    2.50
   2  -3 -16    5.00    1.60
  -2   3  16    1.90    2.20
   2  -3 -15  187.90    5.30
  -2   3  15  170.00    7.70
   2  -3 -14    2.00    1.20
  -2   3  14    6.20    2.30
   2  -3 -13   41.20    2.20
  -2   3  13   42.80    3.30
   2  -3 -12   20.30    1.80
  -2   3  12   15.00    2.10
   2  -3 -11    8.10    1.40
  -2   3  11    4.10    1.00
   2  -3 -10   25.30    1.70
  -2   3  10   28.40    1.70
   2  -3  -9   27.90    1.70
  -2   3   9   27.20    2.10
   2  -3  -8   10.00    1.30
  -2   3   8   10.10    1.50
   2  -3  -7   42.50    2.00
  -2   3   7   47.00    2.60
   2  -3  -6   43.40    1.60
  -2   3   6   44.10    1.90
   2  -3  -5    3.20    0.40
  -2   3   5    3.40    0.50
   2  -3  -4   45.00    1.10
  -2   3   4   47.70    1.40
   2  -3  -3    3.70    0.40
  -2   3   3    3.30    0.50
   2  -3  -2    5.70    0.40
  -2   3   2    6.30    0.60
   2  -3  -1  263.10    4.10
  -2   3   1  261.00    4.80
   2  -3   0    0.40    0.30
  -2   3   0    0.30    0.30
   2  -3   1  235.30    3.30
  -2   3  -1  227.40    4.30
   2  -3   2   50.50    1.00
  -2   3  -2   47.90    1.10
   2  -3   3  438.20    5.40
  -2   3  -3  407.50    6.90
   2  -3   4   18.10    0.50
  -2   3  -4   17.40    0.50
   2  -3   5  255.20    3.10
  -2   3  -5  247.10    4.00
   2  -3   6    4.50    0.30
  -2   3  -6    4.50    0.40
   2  -3   7   68.70    1.50
  -2   3  -7   70.90    1.90
   2  -3   8   40.60    1.00
  -2   3  -8   39.50    1.20
   2  -3   9   66.00    1.70
  -2   3  -9   63.70    1.70
   2  -3  10   14.00    0.90
  -2   3 -10   12.60    1.00
   2  -3  11   -0.30    0.60
  -2   3 -11    0.60    0.40
   2  -3  12    0.80    0.90
  -2   3 -12   -0.10    0.50
   2  -3  13   39.50    2.60
  -2   3 -13   39.90    1.70
   2  -3  14    2.20    1.20
  -2   3 -14    7.80    1.10
   2  -3  15    1.10    1.80
  -2   3 -15    1.00    1.70
   2  -3  16    5.00    2.90
  -2   3 -16    0.30    2.30
  -2   3 -17   11.30    2.80
  -2   3 -18   10.70    3.30
  -2   3 -19   59.00    5.30
   2  -2 -20   10.30    3.10
  -2   2  20   11.70    3.90
   2  -2 -19   37.50    3.80
  -2   2  19   31.20    4.60
   2  -2 -18   11.30    2.90
  -2   2  18   10.10    3.20
   2  -2 -17    6.10    2.20
  -2   2  17    5.70    2.40
   2  -2 -16    2.10    1.40
  -2   2  16   -1.30    2.40
   2  -2 -15   29.70    1.80
  -2   2  15   30.80    3.30
   2  -2 -14    0.40    1.20
  -2   2  14    2.40    1.70
   2  -2 -13   12.10    1.50
  -2   2  13   13.10    2.10
   2  -2 -12   63.30    2.60
  -2   2  12   63.30    2.90
   2  -2 -11   20.50    1.60
  -2   2  11   21.30    1.70
   2  -2 -10   28.40    1.80
  -2   2  10   28.60    1.80
   2  -2  -9   96.40    3.10
  -2   2   9   94.40    3.90
   2  -2  -8   12.60    1.20
  -2   2   8   10.70    1.50
   2  -2  -7    8.50    1.00
  -2   2   7   11.40    1.60
   2  -2  -6  161.40    3.20
  -2   2   6  175.50    3.80
   2  -2  -5   96.60    1.90
  -2   2   5  100.80    2.40
   2  -2  -4  170.40    3.10
  -2   2   4  171.60    3.50
   2  -2  -3  326.40    5.30
  -2   2   3  330.30    6.30
   2  -2  -2    0.90    0.30
  -2   2   2    1.10    0.40
   2  -2  -1  266.80    4.90
  -2   2   1  279.80    5.40
   2  -2   0   13.10    0.60
  -2   2   0   12.80    0.70
   2  -2   1    7.10    0.30
  -2   2  -1    6.10    0.40
   2  -2   2   13.10    0.50
  -2   2  -2   13.00    0.50
   2  -2   3  115.00    1.90
  -2   2  -3  108.30    2.20
   2  -2   4  173.20    2.20
  -2   2  -4  165.50    2.80
   2  -2   5   63.50    1.10
  -2   2  -5   61.60    1.50
   2  -2   6    8.20    0.40
  -2   2  -6    7.80    0.60
   2  -2   7    2.30    0.40
  -2   2  -7    3.30    0.60
   2  -2   8   39.20    1.20
  -2   2  -8   41.00    1.10
   2  -2   9   90.50    2.00
  -2   2  -9   93.10    2.00
   2  -2  10  229.30    5.10
  -2   2 -10  231.00    4.20
   2  -2  11   11.80    1.00
  -2   2 -11   13.60    1.00
   2  -2  12   30.50    1.90
  -2   2 -12   28.90    1.40
   2  -2  13   16.70    1.60
  -2   2 -13   16.90    1.30
   2  -2  14   55.90    3.30
  -2   2 -14   56.20    2.20
   2  -2  15   45.20    3.20
  -2   2 -15   49.10    2.50
   2  -2  16   30.70    2.90
  -2   2 -16   29.80    2.20
  -2   2 -17   -0.70    2.00
  -2   2 -18    0.10    2.10
  -2   2 -19   -2.90    2.30
  -2   2 -20   -0.60    3.30
   2  -1 -20    2.80    2.60
  -2   1  20    4.90    3.50
   2  -1 -19    1.60    1.60
  -2   1  19    6.20    2.70
   2  -1 -18   16.50    2.90
  -2   1  18   26.00    4.30
   2  -1 -17    1.30    2.10
  -2   1  17    2.90    2.50
   2  -1 -16    7.40    1.70
  -2   1  16    8.40    3.80
   2  -1 -15    0.80    1.80
  -2   1  15   -2.50    1.90
   2  -1 -14   30.00    1.80
  -2   1  14   31.90    2.80
   2  -1 -13    7.10    1.10
  -2   1  13    5.40    1.80
   2  -1 -12    9.90    1.10
  -2   1  12   10.60    1.90
   2  -1 -11    1.60    0.70
  -2   1  11    1.10    1.20
   2  -1 -10  211.70    5.80
  -2   1  10  221.20    7.20
   2  -1  -9  270.20    6.70
  -2   1   9  266.70    7.80
   2  -1  -8   77.20    2.50
  -2   1   8   80.40    3.20
   2  -1  -7  248.80    5.60
  -2   1   7  242.40    5.00
   2  -1  -6  174.70    2.80
  -2   1   6  184.90    3.80
   2  -1  -5   17.90    0.90
  -2   1   5   20.00    0.90
   2  -1  -4    7.40    0.50
  -2   1   4    8.20    0.70
   2  -1  -3  168.90    3.70
  -2   1   3  167.00    3.80
   2  -1  -2   13.00    0.50
  -2   1   2   13.00    0.70
   2  -1  -1   30.90    0.80
  -2   1   1   29.70    1.00
   2  -1   0  336.50    5.80
  -2   1   0  348.90    6.70
   2  -1   1   30.40    0.70
  -2   1  -1   30.50    0.70
   2  -1   2    3.00    0.20
  -2   1  -2    2.90    0.30
   2  -1   3    6.10    0.20
  -2   1  -3    6.30    0.40
   2  -1   4  167.50    2.30
  -2   1  -4  166.20    3.30
   2  -1   5   15.60    0.50
  -2   1  -5   15.20    0.70
   2  -1   6  155.50    2.30
  -2   1  -6  153.00    2.80
   2  -1   7   37.10    0.80
  -2   1  -7   36.10    1.00
   2  -1   8   46.40    1.10
  -2   1  -8   48.80    1.20
   2  -1   9  270.50    4.80
  -2   1  -9  285.70    4.50
   2  -1  10    1.30    0.70
  -2   1 -10    1.90    0.60
   2  -1  11    4.60    1.00
  -2   1 -11    6.70    0.80
   2  -1  12    1.10    0.90
  -2   1 -12    1.30    0.80
   2  -1  13   29.70    2.30
  -2   1 -13   31.50    1.60
   2  -1  14   15.60    2.10
  -2   1 -14   14.20    1.40
   2  -1  15   60.80    3.80
  -2   1 -15   62.10    2.70
   2  -1  16   18.10    2.70
  -2   1 -16   19.50    1.90
   2  -1  17    9.60    2.00
  -2   1 -17   13.00    2.00
  -2   1 -18    3.50    2.40
  -2   1 -19   -4.70    3.10
  -2   1 -20   24.10    4.30
   2   0 -20    4.00    2.90
  -2   0  20    3.90    2.90
   2   0 -19    3.50    2.10
  -2   0  19   -1.90    2.70
   2   0 -18   29.50    2.50
  -2   0  18   29.50    3.60
   2   0 -17   -1.50    1.30
  -2   0  17    2.20    2.20
   2   0 -16  248.40    7.70
  -2   0  16  237.30   10.40
   2   0 -15    1.10    1.80
  -2   0  15   -1.30    1.70
   2   0 -14   23.10    2.20
  -2   0  14   22.60    2.30
   2   0 -13   -1.00    1.10
  -2   0  13    1.50    1.40
   2   0 -12   35.90    1.70
  -2   0  12   32.10    2.50
   2   0 -11    0.00    0.60
  -2   0  11    1.30    1.00
   2   0 -10    6.00    0.70
  -2   0  10    4.40    1.40
   2   0  -9   -0.30    0.50
  -2   0   9   -0.70    1.10
   2   0  -8    1.40    0.40
  -2   0   8    2.10    0.90
   2   0  -7    0.40    0.30
  -2   0   7   -0.40    0.60
   2   0  -6   48.40    1.10
  -2   0   6   49.50    1.40
   2   0  -5    0.00    0.30
  -2   0   5    0.70    0.40
   2   0  -4   32.90    1.10
  -2   0   4   32.10    1.00
   2   0  -3   -0.10    0.30
  -2   0   3   -0.20    0.40
   2   0  -2    4.20    0.30
  -2   0   2    4.20    0.40
   2   0  -1    0.10    0.20
  -2   0   1    0.50    0.20
   2   0   0 1587.00   23.30
  -2   0   0 1565.10   20.90
   2   0   1    0.20    0.20
  -2   0  -1    0.20    0.20
   2   0   2   15.40    0.50
  -2   0  -2   16.00    0.60
   2   0   3   -0.30    0.20
  -2   0  -3    0.40    0.30
   2   0   4  113.30    1.90
  -2   0  -4  112.00    2.10
   2   0   5    0.10    0.30
  -2   0  -5   -0.10    0.20
   2   0   6  596.00    7.70
  -2   0  -6  586.60    8.10
   2   0   7    0.50    0.40
  -2   0  -7    0.00    0.30
   2   0   8   97.60    2.00
  -2   0  -8   97.10    1.90
   2   0   9   -0.50    0.50
  -2   0  -9    0.60    0.50
   2   0  10   38.30    2.10
  -2   0 -10   38.50    1.20
   2   0  11    1.40    1.10
  -2   0 -11   -0.70    0.50
   2   0  12    2.80    1.30
  -2   0 -12    0.60    0.60
   2   0  13    0.80    1.00
  -2   0 -13    0.10    0.50
   2   0  14   72.80    4.10
  -2   0 -14   73.90    2.60
   2   0  15    2.00    1.90
  -2   0 -15    0.80    1.40
   2   0  16    2.90    1.60
  -2   0 -16    3.00    1.40
   2   0  17    1.60    2.00
  -2   0 -17   -0.80    1.50
   2   0  18  104.40    9.00
  -2   0 -18  116.00    4.90
   2   0  19   -0.10    3.10
  -2   0 -19    5.10    2.30
  -2   0 -20   -1.40    2.60
   2   1 -20    8.40    2.70
  -2  -1  20   -2.70    3.40
   2   1 -19    9.90    2.40
  -2  -1  19    2.50    3.00
   2   1 -18   13.10    2.00
  -2  -1  18   15.30    3.70
   2   1 -17    0.50    1.70
  -2  -1  17    1.40    2.10
   2   1 -16    8.20    1.70
  -2  -1  16    5.60    2.20
   2   1 -15    1.70    1.10
  -2  -1  15    1.60    1.70
   2   1 -14   33.40    1.90
  -2  -1  14   32.00    2.50
   2   1 -13    7.50    1.00
  -2  -1  13    7.80    1.70
   2   1 -12   11.40    0.90
  -2  -1  12   10.20    1.70
   2   1 -11    1.10    0.50
  -2  -1  11    0.30    1.30
   2   1 -10  229.40    4.40
  -2  -1  10  220.30    6.90
   2   1  -9  283.20    5.20
  -2  -1   9  264.70    7.90
   2   1  -8   86.30    1.80
  -2  -1   8   84.10    2.50
   2   1  -7  236.20    3.40
  -2  -1   7  243.90    4.90
   2   1  -6  175.70    2.90
  -2  -1   6  174.90    4.50
   2   1  -5   18.60    0.50
  -2  -1   5   20.30    1.00
   2   1  -4    7.60    0.30
  -2  -1   4    7.40    0.60
   2   1  -3  155.50    3.00
  -2  -1   3  164.30    3.70
   2   1  -2   12.00    0.50
  -2  -1   2   12.90    0.60
   2   1  -1   28.00    0.70
  -2  -1   1   28.70    0.70
   2   1   0  342.00    5.80
  -2  -1   0  332.00    5.70
   2   1   1   31.10    0.70
  -2  -1  -1   32.10    0.90
   2   1   2    3.10    0.30
  -2  -1  -2    2.50    0.40
   2   1   3    6.80    0.40
  -2  -1  -3    7.10    0.60
   2   1   4  167.50    3.20
  -2  -1  -4  168.50    3.20
   2   1   5   15.20    0.70
  -2  -1  -5   16.50    0.60
   2   1   6  158.60    3.10
  -2  -1  -6  156.10    2.60
   2   1   7   38.70    1.20
  -2  -1  -7   37.10    1.00
   2   1   8   41.50    1.60
  -2  -1  -8   47.40    1.20
   2   1   9  252.30    8.00
  -2  -1  -9  286.00    5.00
   2   1  10    0.10    2.30
  -2  -1 -10    2.10    0.60
   2   1  11    7.90    1.50
  -2  -1 -11    5.70    0.70
   2   1  12    1.20    1.10
  -2  -1 -12    0.40    0.80
   2   1  13   14.80    3.50
  -2  -1 -13   27.80    1.50
   2   1  14   12.60    3.50
  -2  -1 -14   12.50    1.30
   2   1  15   34.70    4.50
  -2  -1 -15   58.00    3.30
   2   1  16   12.10    4.10
  -2  -1 -16   18.70    2.40
   2   1  17    8.60    3.80
  -2  -1 -17   12.20    2.10
   2   1  18    9.30    5.30
  -2  -1 -18    8.80    2.10
   2   1  19   -0.40    5.80
  -2  -1 -19    2.00    2.00
   2   1  20    7.80    5.10
  -2  -1 -20   16.50    2.80
   2   2 -20    8.00    6.20
  -2  -2  20   16.10    5.90
   2   2 -19   26.90    3.40
  -2  -2  19   24.30    3.80
   2   2 -18    9.80    2.10
  -2  -2  18    6.50    2.90
   2   2 -17    6.30    1.70
  -2  -2  17    7.30    2.30
   2   2 -16    5.80    1.50
  -2  -2  16    3.60    2.10
   2   2 -15   38.10    2.20
  -2  -2  15   32.00    3.00
   2   2 -14    0.80    1.00
  -2  -2  14    0.30    1.50
   2   2 -13   14.60    1.40
  -2  -2  13   11.20    1.80
   2   2 -12   68.20    1.80
  -2  -2  12   65.70    3.50
   2   2 -11   23.40    1.00
  -2  -2  11   21.30    1.90
   2   2 -10   29.40    1.00
  -2  -2  10   26.30    2.00
   2   2  -9   99.40    2.10
  -2  -2   9  100.40    3.80
   2   2  -8   12.50    0.60
  -2  -2   8   12.60    1.10
   2   2  -7    9.90    0.50
  -2  -2   7    9.40    0.80
   2   2  -6  163.70    2.40
  -2  -2   6  172.00    3.80
   2   2  -5   94.70    1.40
  -2  -2   5   99.10    2.30
   2   2  -4  158.10    2.40
  -2  -2   4  156.50    3.40
   2   2  -3  311.20    5.50
  -2  -2   3  304.50    5.20
   2   2  -2    0.90    0.30
  -2  -2   2    1.10    0.20
   2   2  -1  250.70    4.70
  -2  -2   1  255.50    4.30
   2   2   0   12.90    0.50
  -2  -2   0   13.20    0.60
   2   2   1    7.20    0.40
  -2  -2  -1    7.70    0.50
   2   2   2   13.80    0.50
  -2  -2  -2   13.80    0.60
   2   2   3  119.30    2.10
  -2  -2  -3  116.20    2.30
   2   2   4  176.10    3.40
  -2  -2  -4  173.10    3.40
   2   2   5   64.60    1.60
  -2  -2  -5   61.60    1.30
   2   2   6    8.10    0.60
  -2  -2  -6    7.60    0.50
   2   2   7    3.60    1.00
  -2  -2  -7    2.60    0.50
   2   2   8   39.60    1.90
  -2  -2  -8   41.30    1.10
   2   2   9   75.70    3.60
  -2  -2  -9   86.60    1.90
  -2  -2 -10  243.70    4.70
   2   2  11    4.80    2.30
  -2  -2 -11   12.60    0.80
  -2  -2 -12   24.90    1.60
   2   2  13    5.00    2.60
  -2  -2 -13   16.20    1.30
   2   2  14   42.10    6.20
  -2  -2 -14   56.40    2.70
  -2  -2 -15   49.70    2.60
   2   2  16   17.60    4.90
  -2  -2 -16   26.50    2.90
   2   2  17    1.70    5.20
  -2  -2 -17    1.60    2.20
   2   2  18    4.10    4.00
  -2  -2 -18   -0.90    2.40
   2   2  19    4.00    4.20
  -2  -2 -19   -2.80    2.20
   2   2  20   -1.40    6.60
  -2  -2 -20   -1.90    2.40
   2   3 -20   -0.40    5.90
  -2  -3  20    0.20    4.70
   2   3 -19    5.10    5.40
  -2  -3  19    0.70    3.50
   2   3 -18    6.70    2.20
  -2  -3  18    2.70    2.30
   2   3 -17    3.90    1.40
  -2  -3  17    5.50    2.50
   2   3 -16    3.60    1.40
  -2  -3  16    4.30    2.00
   2   3 -15  194.40    5.60
  -2  -3  15  185.40    8.00
   2   3 -14    3.50    1.10
  -2  -3  14    4.80    1.90
   2   3 -13   49.40    1.90
  -2  -3  13   45.30    3.20
   2   3 -12   15.90    1.00
  -2  -3  12   13.70    2.00
   2   3 -11    6.00    0.70
  -2  -3  11    6.10    1.40
   2   3 -10   33.20    1.10
  -2  -3  10   31.70    2.40
   2   3  -9   30.00    1.20
  -2  -3   9   30.50    1.90
   2   3  -8   11.20    0.60
  -2  -3   8   10.90    1.00
   2   3  -7   44.40    1.10
  -2  -3   7   43.10    1.40
   2   3  -6   49.20    1.10
  -2  -3   6   45.70    1.30
   2   3  -5    3.00    0.30
  -2  -3   5    2.90    0.40
   2   3  -4   42.20    0.90
  -2  -3   4   43.60    0.90
   2   3  -3    3.70    0.40
  -2  -3   3    4.10    0.30
   2   3  -2    5.40    0.40
  -2  -3   2    5.60    0.30
   2   3  -1  242.20    3.40
  -2  -3   1  249.60    4.70
   2   3   0    1.20    0.30
  -2  -3   0    0.30    0.40
   2   3   1  229.10    3.40
  -2  -3  -1  236.80    5.40
   2   3   2   49.70    1.10
  -2  -3  -2   51.70    1.40
   2   3   3  440.00    6.40
  -2  -3  -3  441.30    7.20
   2   3   4   17.20    0.70
  -2  -3  -4   17.30    0.80
   2   3   5  246.50    4.60
  -2  -3  -5  246.30    4.00
   2   3   6    4.00    0.90
  -2  -3  -6    5.10    0.60
   2   3   7   68.20    3.20
  -2  -3  -7   69.00    1.60
   2   3   8   37.50    3.50
  -2  -3  -8   37.40    1.20
  -2  -3  -9   58.70    1.60
   2   3  10   10.40    2.90
  -2  -3 -10   10.20    0.80
   2   3  11    3.50    2.40
  -2  -3 -11   -0.10    0.70
   2   3  12   -1.30    2.20
  -2  -3 -12   -0.70    0.80
   2   3  13   19.00    3.50
  -2  -3 -13   34.80    1.60
   2   3  14   -2.50    3.60
  -2  -3 -14    5.00    1.40
   2   3  15    5.70    3.30
  -2  -3 -15    3.00    1.50
   2   3  16    5.70    3.80
  -2  -3 -16    0.00    1.80
   2   3  17    5.80    5.70
  -2  -3 -17    6.10    2.90
   2   3  18    5.70    4.20
  -2  -3 -18   14.30    3.10
   2   3  19   51.70    8.10
  -2  -3 -19   61.00    4.90
   2   4 -19   42.40    6.60
  -2  -4  19   34.90    6.50
   2   4 -18    5.60    4.10
  -2  -4  18    4.70    3.40
   2   4 -17   -4.10    3.10
  -2  -4  17    5.70    3.40
   2   4 -16   -1.20    1.10
  -2  -4  16    0.50    1.80
   2   4 -15   60.40    2.80
  -2  -4  15   49.50    3.50
   2   4 -14    1.30    0.90
  -2  -4  14    0.00    1.80
   2   4 -13    4.20    0.80
  -2  -4  13    7.50    1.70
   2   4 -12    3.90    0.90
  -2  -4  12    4.10    2.10
   2   4 -11    0.70    0.70
  -2  -4  11   -1.10    1.20
   2   4 -10   98.70    2.40
  -2  -4  10   92.00    3.80
   2   4  -9  199.20    3.30
  -2  -4   9  185.20    5.10
   2   4  -8    1.00    0.40
  -2  -4   8    1.30    0.70
   2   4  -7  107.00    2.20
  -2  -4   7  103.30    2.20
   2   4  -6  251.40    4.30
  -2  -4   6  262.50    4.50
   2   4  -5   81.90    1.60
  -2  -4   5   83.40    1.50
   2   4  -4   43.80    1.10
  -2  -4   4   48.00    1.00
   2   4  -3   28.30    0.80
  -2  -4   3   30.30    0.70
   2   4  -2   76.30    1.30
  -2  -4   2   79.40    1.50
   2   4  -1  463.10    6.70
  -2  -4   1  463.00    7.90
   2   4   0    0.00    0.30
  -2  -4   0    0.70    0.60
   2   4   1    5.20    0.40
  -2  -4  -1    4.90    0.70
   2   4   2   25.40    0.90
  -2  -4  -2   26.30    1.10
   2   4   3   43.80    1.30
  -2  -4  -3   42.90    1.20
   2   4   4   13.30    1.20
  -2  -4  -4   11.90    0.80
   2   4   5   29.30    3.20
  -2  -4  -5   22.40    1.10
   2   4   6   16.00    2.30
  -2  -4  -6   13.00    0.70
   2   4   7   28.80    3.00
  -2  -4  -7   25.60    1.00
   2   4   8   13.10    3.20
  -2  -4  -8    8.90    0.80
   2   4   9   15.90    2.70
  -2  -4  -9   15.20    1.00
   2   4  10   12.20    2.90
  -2  -4 -10   22.30    1.20
   2   4  11   -2.60    3.20
  -2  -4 -11   -0.70    0.80
  -2  -4 -12  203.60    4.30
   2   4  13    1.00    3.90
  -2  -4 -13    0.90    1.20
   2   4  14   -1.80    2.90
  -2  -4 -14   -0.70    1.20
   2   4  15   48.60    6.40
  -2  -4 -15   74.30    3.30
   2   4  16    7.70    4.10
  -2  -4 -16   12.00    2.00
   2   4  17    4.10    4.40
  -2  -4 -17    5.70    2.70
   2   4  18    3.10    4.50
  -2  -4 -18    1.90    2.70
   2   4  19    6.60    5.30
  -2  -4 -19    3.50    3.50
   2   5 -19   27.80    5.50
  -2  -5  19   22.80    5.50
   2   5 -18   33.00    6.40
  -2  -5  18   18.10    5.10
   2   5 -17    2.20    3.00
  -2  -5  17   11.90    3.90
   2   5 -16   14.60    3.70
  -2  -5  16   10.20    4.30
   2   5 -15    0.10    1.30
  -2  -5  15    0.80    2.50
   2   5 -14    9.90    1.20
  -2  -5  14    6.40    1.80
   2   5 -13   21.60    1.40
  -2  -5  13   18.20    2.30
   2   5 -12   28.60    1.50
  -2  -5  12   25.20    2.40
   2   5 -11   78.10    2.30
  -2  -5  11   76.00    4.00
   2   5 -10  132.20    3.20
  -2  -5  10  129.40    4.90
   2   5  -9   37.60    1.30
  -2  -5   9   35.80    2.10
   2   5  -8    9.60    0.70
  -2  -5   8   10.40    0.80
   2   5  -7   22.80    1.00
  -2  -5   7   22.00    0.80
   2   5  -6   27.20    0.90
  -2  -5   6   26.50    0.80
   2   5  -5    0.70    0.40
  -2  -5   5    0.80    0.40
   2   5  -4   13.40    0.60
  -2  -5   4   14.70    0.60
   2   5  -3   68.70    1.40
  -2  -5   3   69.70    1.40
   2   5  -2   72.30    1.70
  -2  -5   2   68.90    1.50
   2   5  -1    4.60    0.40
  -2  -5   1    5.50    0.80
   2   5   0   69.00    1.50
  -2  -5   0   71.70    2.20
   2   5   1   62.90    1.40
  -2  -5  -1   65.00    2.00
   2   5   2   22.00    1.10
  -2  -5  -2   25.30    1.30
   2   5   3  151.40    4.70
  -2  -5  -3  146.60    2.90
   2   5   4   -0.60    0.70
  -2  -5  -4    0.40    0.50
   2   5   5  136.80    4.60
  -2  -5  -5  120.70    3.00
   2   5   6  245.20   10.90
  -2  -5  -6  237.80    6.30
   2   5   7   15.70    2.90
  -2  -5  -7   15.50    1.00
   2   5   8  125.90    6.90
  -2  -5  -8  131.20    3.30
   2   5   9  117.10    8.00
  -2  -5  -9  127.10    3.40
   2   5  10    3.80    2.50
  -2  -5 -10    0.70    0.70
   2   5  11   15.50    3.50
  -2  -5 -11   29.30    1.40
   2   5  12   -2.00    2.70
  -2  -5 -12    1.20    1.30
   2   5  13    6.00    3.10
  -2  -5 -13    4.00    1.30
   2   5  14    2.30    3.30
  -2  -5 -14    2.10    1.40
   2   5  15   45.10    7.20
  -2  -5 -15   42.50    2.50
   2   5  16   15.40    5.30
  -2  -5 -16   18.70    2.00
   2   5  17    4.10    4.70
  -2  -5 -17    3.80    2.40
   2   5  18   13.90    5.00
  -2  -5 -18    6.60    2.80
   2   6 -18   18.90    4.80
  -2  -6  18   13.80    4.70
   2   6 -17    1.30    3.00
  -2  -6  17    0.20    4.50
   2   6 -16   65.90    7.40
  -2  -6  16   54.00    6.50
   2   6 -15    3.20    1.90
  -2  -6  15   -0.20    2.90
   2   6 -14   -2.40    1.80
  -2  -6  14   -1.70    2.50
   2   6 -13   13.60    2.20
  -2  -6  13    6.20    2.70
   2   6 -12   11.20    1.30
  -2  -6  12    7.60    1.80
   2   6 -11   97.50    3.20
  -2  -6  11   95.40    4.50
   2   6 -10    0.50    0.60
  -2  -6  10    4.40    2.20
   2   6  -9    1.20    0.70
  -2  -6   9    1.00    1.20
   2   6  -8    2.70    0.80
  -2  -6   8    1.60    0.50
   2   6  -7    0.60    0.60
  -2  -6   7    0.70    0.40
   2   6  -6    8.00    0.60
  -2  -6   6    9.40    0.60
   2   6  -5  271.50    4.70
  -2  -6   5  274.20    4.50
   2   6  -4   28.40    0.90
  -2  -6   4   28.50    0.90
   2   6  -3  104.00    2.30
  -2  -6   3  103.90    2.20
   2   6  -2   61.40    1.70
  -2  -6   2   58.10    1.70
   2   6  -1    1.40    0.80
  -2  -6   1    0.60    1.00
   2   6   0  287.20    5.70
  -2  -6   0  308.20    9.90
   2   6   1   27.80    1.00
  -2  -6  -1   29.20    1.80
   2   6   2   51.90    2.00
  -2  -6  -2   45.40    2.20
   2   6   3   45.50    2.00
  -2  -6  -3   41.20    1.90
   2   6   4    8.30    1.10
  -2  -6  -4    5.00    0.60
   2   6   5    5.30    1.20
  -2  -6  -5    4.30    0.80
   2   6   6   63.10    3.10
  -2  -6  -6   58.80    2.90
   2   6   7   28.20    3.70
  -2  -6  -7   17.70    1.30
   2   6   8    1.10    2.20
  -2  -6  -8    1.40    0.70
   2   6   9    2.10    3.30
  -2  -6  -9    0.60    0.70
   2   6  10   12.20    3.10
  -2  -6 -10   13.40    1.40
   2   6  11   57.00    6.00
  -2  -6 -11   66.40    2.70
   2   6  12    4.00    3.50
  -2  -6 -12    2.10    1.30
   2   6  13   13.90    4.10
  -2  -6 -13   15.50    1.80
   2   6  14   31.40    5.30
  -2  -6 -14   40.40    2.70
   2   6  15   -3.70    3.60
  -2  -6 -15    2.10    1.70
   2   6  16   -2.10    6.30
  -2  -6 -16    9.00    2.00
   2   6  17   14.40    5.50
  -2  -6 -17   19.90    2.80
   2   6  18   19.40    6.10
  -2  -6 -18   18.40    3.70
   2   7 -17   -4.30    3.20
  -2  -7  17    1.40    3.90
   2   7 -16    2.20    4.30
   2   7 -15   -0.40    2.40
  -2  -7  15   -2.10    3.10
   2   7 -14   92.20    5.40
  -2  -7  14   93.80    8.20
   2   7 -13    3.00    2.00
  -2  -7  13    3.00    2.70
   2   7 -12   15.70    2.50
  -2  -7  12   17.10    3.40
   2   7 -11    5.20    1.60
  -2  -7  11    7.60    3.50
   2   7 -10   46.90    2.00
  -2  -7  10   47.50    3.10
   2   7  -9   75.20    2.60
  -2  -7   9   72.90    3.00
   2   7  -8   19.00    1.10
  -2  -7   8   17.70    1.10
   2   7  -7   53.20    1.90
  -2  -7   7   54.20    1.90
   2   7  -6   49.30    1.80
  -2  -7   6   49.10    1.80
   2   7  -5   22.50    1.50
  -2  -7   5   21.20    1.00
   2   7  -4   13.10    1.30
  -2  -7   4    8.20    0.50
   2   7  -3   33.00    1.80
  -2  -7   3   26.10    1.70
   2   7  -2   51.90    2.40
  -2  -7   2   51.20    2.60
   2   7  -1    2.10    1.00
  -2  -7   1    1.90    1.00
   2   7   0   48.20    2.00
  -2  -7   0   45.50    2.20
   2   7   1   26.50    1.70
  -2  -7  -1   22.10    1.80
   2   7   2   27.50    1.80
  -2  -7  -2   27.40    2.20
   2   7   3   58.50    2.20
  -2  -7  -3   54.50    2.70
   2   7   4  191.50    5.20
  -2  -7  -4  199.70    6.00
   2   7   5   15.20    1.50
  -2  -7  -5   11.30    1.00
   2   7   6    9.10    1.40
  -2  -7  -6    7.20    1.10
   2   7   7   14.60    1.80
  -2  -7  -7   13.90    1.30
   2   7   8   -0.80    2.30
  -2  -7  -8    1.80    0.70
   2   7   9    1.10    3.70
  -2  -7  -9    1.00    1.20
   2   7  10    3.40    2.70
  -2  -7 -10   -0.60    1.00
   2   7  11   57.50    6.50
  -2  -7 -11   54.20    2.60
   2   7  12   12.20    3.90
  -2  -7 -12   11.20    1.80
   2   7  13   56.50    6.80
  -2  -7 -13   66.50    3.30
   2   7  14   20.60    5.10
  -2  -7 -14   17.70    2.20
   2   7  15    2.50    4.60
  -2  -7 -15   -0.50    1.80
   2   7  16    0.70    4.90
  -2  -7 -16    3.20    2.10
   2   7  17   -5.80    6.70
  -2  -7 -17   -0.40    2.30
  -2  -8  16    6.90    4.20
   2   8 -15    6.90    5.70
  -2  -8  15    5.40    4.00
   2   8 -14    4.60    3.70
  -2  -8  14   -1.30    4.30
   2   8 -13   61.80    7.50
  -2  -8  13   66.70    6.90
   2   8 -12   22.80    2.50
  -2  -8  12   26.90    4.00
   2   8 -11    4.00    1.70
  -2  -8  11    6.00    3.60
   2   8 -10    7.50    1.60
  -2  -8  10   10.60    3.30
   2   8  -9    1.90    1.40
  -2  -8   9    0.60    1.30
   2   8  -8   11.90    1.00
  -2  -8   8   10.60    1.30
   2   8  -7   20.70    1.90
  -2  -8   7   23.80    1.40
   2   8  -6    5.10    1.00
  -2  -8   6    4.10    0.90
   2   8  -5   14.50    1.80
  -2  -8   5   13.70    1.30
   2   8  -4   49.50    2.70
  -2  -8   4   46.20    2.30
   2   8  -3  152.20    5.80
  -2  -8   3  156.70    6.30
   2   8  -2   21.50    1.80
  -2  -8   2   18.10    1.50
   2   8  -1   -0.10    1.00
  -2  -8   1    1.00    1.10
   2   8   0   12.70    1.30
  -2  -8   0   11.00    1.50
   2   8   1   16.00    1.70
  -2  -8  -1   14.60    1.80
   2   8   2   27.30    1.90
  -2  -8  -2   27.30    2.10
   2   8   3    1.60    1.20
  -2  -8  -3    1.30    1.90
   2   8   4   90.90    4.50
  -2  -8  -4   82.80    3.20
   2   8   5  139.30    4.70
  -2  -8  -5  146.80    5.10
   2   8   6    0.30    0.80
  -2  -8  -6    1.40    1.50
   2   8   7    2.20    1.10
  -2  -8  -7    2.60    1.40
   2   8   8    4.00    1.40
  -2  -8  -8    3.80    1.50
   2   8   9   39.60    3.20
  -2  -8  -9   34.00    2.40
   2   8  10   74.10    7.20
  -2  -8 -10   65.20    3.40
   2   8  11   34.90    3.60
  -2  -8 -11   37.10    2.90
   2   8  12    4.10    3.70
  -2  -8 -12    8.20    1.90
   2   8  13   17.70    5.10
  -2  -8 -13   23.60    2.90
   2   8  14   33.60    6.60
  -2  -8 -14   45.60    3.70
   2   8  15    4.20    5.10
  -2  -8 -15    8.40    2.30
   2   8  16    2.60    5.20
  -2  -8 -16   -2.60    2.70
   2   9 -14    1.30    4.00
  -2  -9  14    2.60    3.90
   2   9 -13    7.10    5.80
  -2  -9  13   -3.00    3.20
   2   9 -12   37.30    5.70
  -2  -9  12   20.60    5.40
   2   9 -11    8.10    4.00
  -2  -9  11    5.20    3.30
   2   9 -10   36.60    5.50
  -2  -9  10   36.10    5.20
   2   9  -9    9.00    3.60
  -2  -9   9   18.00    4.70
   2   9  -8   17.80    4.20
  -2  -9   8   16.40    2.30
   2   9  -7    9.80    4.40
  -2  -9   7    8.20    2.00
   2   9  -6   65.60    2.80
  -2  -9   6   60.60    2.70
   2   9  -5    6.00    1.70
  -2  -9   5    5.50    1.50
   2   9  -4  211.90    6.80
  -2  -9   4  204.80    5.70
   2   9  -3    2.10    1.30
  -2  -9   3   -0.20    1.40
   2   9  -2    6.00    1.50
  -2  -9   2    3.80    1.40
   2   9  -1   -2.60    1.00
  -2  -9   1   -0.60    1.30
   2   9   0    4.50    1.30
  -2  -9   0    6.70    1.40
   2   9   1   28.00    2.10
  -2  -9  -1   23.20    2.20
   2   9   2   29.30    2.70
  -2  -9  -2   28.90    2.70
   2   9   3   50.80    2.80
  -2  -9  -3   44.10    2.80
   2   9   4   12.00    1.70
  -2  -9  -4   14.20    2.20
   2   9   5   40.60    3.50
  -2  -9  -5   40.30    2.80
   2   9   6   10.80    2.20
  -2  -9  -6    9.50    1.70
   2   9   7   24.50    2.80
  -2  -9  -7   24.70    2.30
   2   9   8   26.20    3.20
  -2  -9  -8   32.70    2.70
   2   9   9    0.80    2.40
  -2  -9  -9    1.40    1.90
   2   9  10   53.00    4.50
  -2  -9 -10   61.90    4.00
   2   9  11    4.40    2.40
  -2  -9 -11    0.30    1.90
   2   9  12    5.90    4.90
  -2  -9 -12    6.10    2.30
   2   9  13    5.70    5.30
  -2  -9 -13   -0.20    2.40
   2   9  14   24.70    6.20
  -2  -9 -14   31.50    3.60
   2  10 -13   11.30    5.50
  -2 -10  13    8.20    5.70
   2  10 -12   10.00    6.30
  -2 -10  12   14.70    4.40
   2  10 -11    6.90    4.60
  -2 -10  11    2.20    4.90
   2  10 -10    9.40    5.50
  -2 -10  10   11.60    3.90
   2  10  -9    5.60    3.60
  -2 -10   9    2.30    2.90
   2  10  -8    5.70    3.70
  -2 -10   8    3.60    4.40
   2  10  -7    2.00    3.40
  -2 -10   7    4.70    2.10
   2  10  -6   19.30    5.60
  -2 -10   6   14.40    2.40
  -2 -10   5    4.50    1.70
   2  10  -4    0.80    1.70
  -2 -10   4    2.80    1.90
   2  10  -3    7.00    1.50
  -2 -10   3    5.00    1.30
   2  10  -2   10.90    2.10
  -2 -10   2   11.00    2.10
   2  10  -1   89.40    4.10
  -2 -10   1   85.70    4.30
   2  10   0   10.30    1.90
  -2 -10   0   13.00    2.50
   2  10   1   70.10    3.70
  -2 -10  -1   66.50    3.60
   2  10   2   43.00    2.80
  -2 -10  -2   41.80    3.00
   2  10   3    6.50    2.30
  -2 -10  -3    1.20    1.90
   2  10   4   41.70    2.90
  -2 -10  -4   46.20    3.40
   2  10   5   54.40    3.60
  -2 -10  -5   51.50    3.50
   2  10   6   13.30    2.10
  -2 -10  -6   14.90    2.40
   2  10   7   14.30    2.70
  -2 -10  -7   15.20    2.20
   2  10   8    4.50    2.40
  -2 -10  -8    3.30    1.80
   2  10   9    1.90    2.70
  -2 -10  -9    0.40    2.20
   2  10  10   13.10    3.10
  -2 -10 -10   10.90    2.40
   2  10  11   -5.40    4.70
  -2 -10 -11    0.90    2.60
   2  10  12   51.00    9.00
  -2 -10 -12   35.10    4.10
   2  10  13   17.80    7.90
  -2 -10 -13   11.90    3.70
   2  11 -11   21.20    5.80
   2  11 -10   12.10    6.70
  -2 -11  10    7.10    4.10
  -2 -11   9   -5.50    3.30
   2  11  -8   63.90    8.60
  -2 -11   8   73.30    9.00
   2  11  -7    2.20    3.60
  -2 -11   7    3.60    4.00
   2  11  -6    2.90    3.80
  -2 -11   6    3.20    2.90
   2  11  -5   10.90    4.30
  -2 -11   5    6.60    2.60
   2  11  -4    9.10    2.60
  -2 -11   4    9.80    2.40
   2  11  -3    2.30    2.30
  -2 -11   3   -1.10    2.70
   2  11  -2   72.70    5.20
  -2 -11   2   79.90    5.60
   2  11  -1    7.20    1.80
  -2 -11   1    5.20    1.80
   2  11   0    4.60    1.70
  -2 -11   0    5.20    1.90
   2  11   1   20.10    2.30
  -2 -11  -1   16.00    2.90
   2  11   2    1.60    2.00
  -2 -11  -2    3.10    1.80
   2  11   3    3.10    1.90
  -2 -11  -3    0.40    2.00
   2  11   4   11.30    2.30
  -2 -11  -4    5.70    2.50
   2  11   5   24.30    2.70
  -2 -11  -5   27.50    3.30
   2  11   6   51.90    3.70
  -2 -11  -6   65.90    4.70
   2  11   7   10.10    2.50
  -2 -11  -7    5.80    2.60
   2  11   8   35.00    3.60
  -2 -11  -8   38.40    3.40
   2  11   9    8.00    3.60
  -2 -11  -9    7.70    2.30
   2  11  10    5.30    7.10
  -2 -11 -10    7.20    2.90
   2  11  11    6.70    5.10
  -2 -11 -11    7.50    3.50
   2  12  -7   -0.10    6.90
  -2 -12   7    5.60    5.70
   2  12  -6   -0.60    6.80
  -2 -12   6    6.30    4.30
   2  12  -5  108.60   11.00
  -2 -12   5   94.90    7.20
   2  12  -4   13.00    7.10
  -2 -12   4   14.40    3.10
   2  12  -3   18.40    3.50
  -2 -12   3   16.00    3.00
   2  12  -2   31.20    4.00
  -2 -12   2   27.50    3.90
   2  12  -1   -2.60    2.80
  -2 -12   1   -4.20    2.80
   2  12   0    5.30    3.40
  -2 -12   0    6.10    3.60
   2  12   1    1.00    2.30
  -2 -12  -1    6.10    3.80
   2  12   2    6.80    2.50
  -2 -12  -2    5.40    3.40
   2  12   3   14.10    2.60
  -2 -12  -3   10.70    2.70
   2  12   4   -4.80    2.10
  -2 -12  -4    4.20    2.80
   2  12   5    1.90    2.40
  -2 -12  -5    2.10    2.40
   2  12   6    5.40    2.20
  -2 -12  -6    9.50    2.80
   2  12   7   15.50    3.60
  -2 -12  -7   26.00    3.70
   2  12   8    3.30    7.00
  -2 -12  -8    6.00    6.00
  -2 -13   2    3.50    4.30
   2  13  -1    6.00    5.30
  -2 -13   1    3.00    3.40
   2  13   0   -4.60    6.30
  -2 -13   0    3.20    4.20
   2  13   1    0.00    4.70
  -2 -13  -1   -0.20    3.60
  -2 -13  -2   53.80    5.80
   3 -12  -6   28.20    7.10
   3 -12  -5   16.60    4.70
  -3  12   5   16.80    4.60
   3 -12  -4    5.40    3.90
  -3  12   4    1.70    3.60
   3 -12  -3    3.40    3.10
  -3  12   3    2.90    3.60
   3 -12  -2   25.80    4.20
  -3  12   2   30.80    6.50
   3 -12  -1   23.30    4.70
  -3  12   1   38.90    5.80
   3 -12   0    5.70    4.00
  -3  12   0   20.30    4.70
   3 -12   1    1.00    3.60
  -3  12  -1    5.20    4.20
   3 -12   2    3.20    3.50
  -3  12  -2    0.30    3.70
   3 -12   3   -7.70    4.60
  -3  12  -3    3.70    3.60
   3 -12   4   -2.40    4.50
  -3  12  -4    6.10    3.70
  -3  12  -5   13.20    4.50
   3 -11  -9    4.40    2.70
  -3  11   9   10.40    6.40
   3 -11  -8   10.60    2.80
  -3  11   8   20.10    6.40
   3 -11  -7    6.70    1.90
  -3  11   7    6.00    2.70
   3 -11  -6    4.20    3.00
  -3  11   6    1.60    3.20
   3 -11  -5   -3.00    3.20
  -3  11   5    5.00    3.40
   3 -11  -4   -7.50    3.10
  -3  11   4    1.40    3.30
   3 -11  -3    5.40    3.50
  -3  11   3    6.90    4.70
   3 -11  -2   12.10    3.30
  -3  11   2   19.90    4.40
   3 -11  -1    2.40    2.80
  -3  11   1    6.40    4.70
   3 -11   0   15.10    4.20
  -3  11   0   10.60    3.80
   3 -11   1   16.10    3.30
  -3  11  -1   23.10    5.40
   3 -11   2   16.30    3.20
  -3  11  -2   21.50    4.70
   3 -11   3   43.40    5.20
  -3  11  -3   41.40    6.30
   3 -11   4    7.10    2.90
  -3  11  -4    0.40    4.60
   3 -11   5   28.40    6.20
  -3  11  -5   22.20    4.80
   3 -11   6   27.60    7.10
   3 -11   7   18.60    5.00
  -3  11  -7   26.10    6.00
   3 -11   8    0.80    2.90
   3 -10 -12   10.90    2.80
   3 -10 -11    3.80    2.30
  -3  10  11   12.70    5.20
   3 -10 -10   -1.90    1.90
  -3  10  10    2.70    3.80
   3 -10  -9   21.00    2.70
  -3  10   9   26.60    6.10
   3 -10  -8   26.80    3.40
  -3  10   8   32.70    6.10
   3 -10  -7    7.50    2.00
  -3  10   7    8.30    4.00
   3 -10  -6   44.00    3.20
  -3  10   6   51.20    5.30
   3 -10  -5    0.70    1.80
  -3  10   5   -0.90    2.40
   3 -10  -4   44.60    2.70
  -3  10   4   53.20    4.20
   3 -10  -3    6.10    1.40
  -3  10   3    7.10    2.10
   3 -10  -2    7.10    2.60
  -3  10   2    9.80    4.20
   3 -10  -1   51.40    4.50
  -3  10   1   62.70    6.00
   3 -10   0    9.00    2.70
  -3  10   0   22.60    4.70
   3 -10   1   21.80    5.70
  -3  10  -1   27.90    4.70
   3 -10   2    6.10    2.50
  -3  10  -2    5.40    3.00
   3 -10   3    4.00    2.50
  -3  10  -3    3.50    2.70
   3 -10   4    8.10    2.70
  -3  10  -4    7.70    4.50
   3 -10   5    1.70    2.70
  -3  10  -5    6.00    4.00
   3 -10   6   13.40    4.30
  -3  10  -6   17.50    4.20
   3 -10   7    7.30    2.40
  -3  10  -7    1.90    3.10
   3 -10   8    8.80    4.00
   3 -10   9   19.80    3.60
   3 -10  10   29.10    6.70
   3  -9 -14    3.00    2.10
  -3   9  14    0.80    5.70
   3  -9 -13   17.60    2.70
  -3   9  13   20.00    7.60
   3  -9 -12   10.40    2.50
  -3   9  12    1.30    4.20
   3  -9 -11   -0.60    2.10
  -3   9  11   -4.40    5.40
   3  -9 -10   20.50    2.30
  -3   9  10   23.30    5.10
   3  -9  -9   -1.00    1.70
  -3   9   9   -0.50    3.40
   3  -9  -8   19.70    2.20
  -3   9   8   28.70    5.60
   3  -9  -7   58.40    3.40
  -3   9   7   60.30    7.00
   3  -9  -6    1.10    1.90
  -3   9   6   -0.80    3.90
   3  -9  -5   21.20    2.10
  -3   9   5   27.90    4.10
   3  -9  -4   -0.40    1.40
  -3   9   4   -0.10    1.70
   3  -9  -3   48.10    2.40
  -3   9   3   57.90    3.70
   3  -9  -2   14.50    1.70
  -3   9   2   16.60    2.70
   3  -9  -1    3.50    1.10
  -3   9   1    2.70    1.90
   3  -9   0   30.20    1.60
  -3   9   0   34.70    2.30
   3  -9   1   41.00    2.60
  -3   9  -1   42.90    4.70
   3  -9   2   23.60    2.00
  -3   9  -2   24.10    2.70
   3  -9   3   15.90    1.80
  -3   9  -3   17.70    2.60
   3  -9   4   14.20    1.70
  -3   9  -4   13.70    2.70
   3  -9   5    3.20    1.50
  -3   9  -5    4.90    2.10
   3  -9   6   19.80    2.50
  -3   9  -6   25.80    3.30
   3  -9   7   13.30    2.60
  -3   9  -7   18.30    3.50
   3  -9   8   38.10    5.30
   3  -9   9   50.50    4.00
   3  -9  10    1.90    2.10
   3  -9  11   -0.80    4.60
   3  -8 -15    1.50    2.50
  -3   8  15    0.60    7.30
   3  -8 -14    2.30    2.00
  -3   8  14   -1.60    4.40
   3  -8 -13   -3.00    2.10
  -3   8  13   -4.10    3.90
   3  -8 -12   20.00    2.60
  -3   8  12   19.30    6.10
   3  -8 -11   17.90    2.00
  -3   8  11   28.90    5.00
   3  -8 -10    9.60    2.10
  -3   8  10    5.20    5.00
   3  -8  -9    6.90    1.90
  -3   8   9    3.80    3.20
   3  -8  -8    2.10    1.50
  -3   8   8   -1.20    2.70
   3  -8  -7   27.70    2.80
  -3   8   7   22.40    4.50
   3  -8  -6    9.10    2.40
  -3   8   6    4.50    3.30
   3  -8  -5    4.00    2.10
  -3   8   5    1.40    1.40
   3  -8  -4   11.50    1.40
  -3   8   4   10.60    1.80
   3  -8  -3   32.30    1.80
  -3   8   3   23.00    2.20
   3  -8  -2    9.40    1.30
  -3   8   2   11.50    1.70
   3  -8  -1    7.80    1.10
  -3   8   1    8.90    1.30
   3  -8   0   63.90    2.30
  -3   8   0   59.80    2.80
   3  -8   1  131.70    3.80
  -3   8  -1  116.80    4.60
   3  -8   2  116.70    6.10
  -3   8  -2   98.50    5.90
   3  -8   3   11.70    2.00
  -3   8  -3   13.30    2.80
   3  -8   4   24.40    1.70
  -3   8  -4   29.40    3.20
   3  -8   5    1.30    1.20
  -3   8  -5    0.50    2.00
   3  -8   6  122.70    4.80
  -3   8  -6  103.10    5.90
   3  -8   7   45.20    2.20
  -3   8  -7   41.60    3.80
   3  -8   8   -0.60    1.10
  -3   8  -8    1.00    3.30
   3  -8   9    9.90    1.70
  -3   8  -9    2.90    5.40
   3  -8  10    1.80    1.40
  -3   8 -10    1.40    3.80
   3  -8  11    7.10    1.50
   3  -8  12    0.80    1.80
   3  -8  13    7.70    3.00
  -3   8 -14   21.30    4.70
  -3   8 -15    9.70    4.00
   3  -7 -16    2.00    2.10
  -3   7  16    0.50    6.70
   3  -7 -15    5.70    2.30
  -3   7  15    7.50    5.20
   3  -7 -14    1.70    1.70
  -3   7  14    0.90    4.50
   3  -7 -13   14.20    2.30
  -3   7  13    5.80    4.70
   3  -7 -12    2.00    1.80
  -3   7  12   -0.20    3.10
   3  -7 -11    2.20    1.90
  -3   7  11    2.80    2.90
   3  -7 -10   16.20    2.20
  -3   7  10   18.00    3.90
   3  -7  -9   82.20    7.50
  -3   7   9   62.90    6.20
   3  -7  -8   36.80    2.50
  -3   7   8   38.90    4.30
   3  -7  -7   20.50    2.80
  -3   7   7   25.80    4.20
   3  -7  -6    0.60    1.30
  -3   7   6   -1.10    1.10
   3  -7  -5    1.60    1.10
  -3   7   5    2.70    1.30
   3  -7  -4   16.70    1.50
  -3   7   4   17.50    2.10
   3  -7  -3   62.00    2.40
  -3   7   3   63.50    3.30
   3  -7  -2   50.10    2.30
  -3   7   2   48.10    2.60
   3  -7  -1   24.00    1.70
  -3   7   1   21.10    1.70
   3  -7   0  113.90    2.90
  -3   7   0  115.00    3.30
   3  -7   1    0.10    0.70
  -3   7  -1    0.60    0.90
   3  -7   2   -0.40    0.60
  -3   7  -2    0.80    0.90
   3  -7   3    2.20    0.40
  -3   7  -3    2.70    0.60
   3  -7   4    7.50    1.60
  -3   7  -4    2.80    1.80
   3  -7   5    3.20    1.40
  -3   7  -5    1.70    2.10
   3  -7   6    0.80    1.60
  -3   7  -6   -0.10    1.50
   3  -7   7   87.00    3.40
  -3   7  -7   78.80    4.20
   3  -7   8   22.10    2.20
  -3   7  -8   13.20    5.10
   3  -7   9   17.20    2.00
  -3   7  -9   14.70    2.50
   3  -7  10   33.10    2.70
  -3   7 -10   26.00    3.00
   3  -7  11   44.00    3.40
  -3   7 -11   33.70    3.20
   3  -7  12    2.40    2.40
  -3   7 -12   -2.10    1.90
   3  -7  13   61.60    4.40
  -3   7 -13   59.30    6.40
   3  -7  14    4.80    3.40
  -3   7 -14    8.20    4.30
   3  -7  15    2.10    4.80
  -3   7 -15   -0.10    4.40
   3  -7  16   -0.10    4.80
  -3   7 -16   -5.10    4.70
   3  -6 -17   -1.00    2.30
  -3   6  17    2.60    5.10
   3  -6 -16    6.40    2.20
  -3   6  16    5.20    4.70
   3  -6 -15   -1.50    1.80
  -3   6  15    2.20    4.10
   3  -6 -14    8.80    1.80
  -3   6  14    9.60    4.40
   3  -6 -13   38.30    3.10
  -3   6  13   30.60    5.30
   3  -6 -12   21.40    2.40
  -3   6  12   14.40    4.10
   3  -6 -11    5.90    2.00
  -3   6  11    5.40    3.10
   3  -6 -10    1.60    2.00
  -3   6  10    1.80    3.70
   3  -6  -9    7.60    2.00
  -3   6   9    9.30    2.80
   3  -6  -8   25.10    2.10
  -3   6   8   26.20    2.00
   3  -6  -7  134.80    4.70
  -3   6   7  137.10    7.50
   3  -6  -6   55.90    2.40
  -3   6   6   62.30    3.10
   3  -6  -5   10.30    1.20
  -3   6   5   10.60    1.30
   3  -6  -4   -0.20    0.70
  -3   6   4    0.70    0.90
   3  -6  -3  103.40    2.70
  -3   6   3   97.20    4.00
   3  -6  -2   74.60    2.30
  -3   6   2   80.30    3.00
   3  -6  -1    2.30    0.70
  -3   6   1    2.50    0.70
   3  -6   0   45.10    1.50
  -3   6   0   49.30    1.80
   3  -6   1    5.80    0.70
  -3   6  -1    5.90    1.00
   3  -6   2    0.80    0.50
  -3   6  -2    0.90    0.70
   3  -6   3    8.80    0.60
  -3   6  -3    8.50    0.70
   3  -6   4   29.90    0.90
  -3   6  -4   30.00    1.10
   3  -6   5   84.70    5.60
  -3   6  -5   81.70    3.90
   3  -6   6    0.60    1.80
  -3   6  -6   -0.80    1.20
   3  -6   7   13.60    1.60
  -3   6  -7   11.30    1.60
   3  -6   8   60.40    3.10
  -3   6  -8   53.50    3.40
   3  -6   9   61.40    3.40
  -3   6  -9   53.30    3.50
   3  -6  10   15.20    1.80
  -3   6 -10   11.20    2.60
   3  -6  11   75.70    4.10
  -3   6 -11   58.70    4.30
   3  -6  12    0.20    1.30
  -3   6 -12    1.10    1.80
   3  -6  13    5.30    3.10
  -3   6 -13    6.40    2.00
   3  -6  14   17.90    3.80
  -3   6 -14    9.60    2.50
   3  -6  15    7.90    4.80
  -3   6 -15    6.00    2.40
   3  -6  16   52.20    7.70
  -3   6 -16   62.30    5.40
   3  -6  17    0.20    5.20
  -3   6 -17    2.20    2.70
   3  -5 -18   -2.90    2.40
  -3   5  18   -2.30    4.50
   3  -5 -17   -2.80    1.90
  -3   5  17    1.80    5.10
   3  -5 -16   14.60    2.40
  -3   5  16   13.20    4.90
   3  -5 -15   37.60    2.50
  -3   5  15   26.10    5.50
   3  -5 -14   27.60    2.40
  -3   5  14   22.70    4.50
   3  -5 -13   90.60    4.60
  -3   5  13   77.50    7.00
   3  -5 -12   34.30    2.70
  -3   5  12   27.80    4.00
   3  -5 -11    0.50    1.60
  -3   5  11    2.30    2.40
   3  -5 -10   26.10    2.10
  -3   5  10   20.00    3.50
   3  -5  -9    0.10    1.20
  -3   5   9    0.90    0.70
   3  -5  -8   24.80    2.20
  -3   5   8   31.80    2.00
   3  -5  -7   40.20    2.00
  -3   5   7   46.10    3.20
   3  -5  -6   27.00    1.30
  -3   5   6   25.80    1.90
   3  -5  -5   16.30    1.10
  -3   5   5   17.50    1.60
   3  -5  -4  115.90    3.10
  -3   5   4  130.30    4.70
   3  -5  -3    8.70    0.80
  -3   5   3    8.40    1.10
   3  -5  -2   41.70    1.30
  -3   5   2   45.90    1.70
   3  -5  -1    0.60    0.50
  -3   5   1   -0.30    0.60
   3  -5   0   25.50    1.00
  -3   5   0   27.70    1.20
   3  -5   1   18.00    0.80
  -3   5  -1   16.70    0.80
   3  -5   2  377.10    7.20
  -3   5  -2  378.90    7.50
   3  -5   3  405.80    7.60
  -3   5  -3  407.20    7.90
   3  -5   4   20.10    0.70
  -3   5  -4   20.60    0.80
   3  -5   5   76.70    1.70
  -3   5  -5   76.50    1.80
   3  -5   6   46.70    2.30
  -3   5  -6   44.20    2.10
   3  -5   7    8.60    0.90
  -3   5  -7    9.50    1.70
   3  -5   8   34.10    2.10
  -3   5  -8   26.50    2.30
   3  -5   9    4.70    1.20
  -3   5  -9    0.40    1.40
   3  -5  10   11.50    1.50
  -3   5 -10    8.40    1.70
   3  -5  11   42.50    2.60
  -3   5 -11   43.70    3.00
   3  -5  12    3.90    1.70
  -3   5 -12    4.40    1.70
   3  -5  13    0.70    2.50
  -3   5 -13    0.00    1.50
   3  -5  14    5.50    3.30
  -3   5 -14    4.70    1.90
   3  -5  15    6.80    4.60
  -3   5 -15    2.10    2.00
   3  -5  16    3.50    5.20
  -3   5 -16    2.50    2.30
   3  -5  17   -1.30    5.40
  -3   5 -17    0.70    2.40
   3  -5  18    1.80    4.40
   3  -4 -18    3.90    2.80
  -3   4  18    5.50    5.30
   3  -4 -17    6.10    2.40
  -3   4  17   -0.20    4.20
   3  -4 -16    1.60    1.90
  -3   4  16    5.80    5.90
   3  -4 -15    1.60    1.80
  -3   4  15    4.50    2.70
   3  -4 -14   50.80    2.80
  -3   4  14   44.20    3.50
   3  -4 -13   -0.90    1.20
  -3   4  13    0.80    1.90
   3  -4 -12   19.90    2.00
  -3   4  12   22.40    2.60
   3  -4 -11   10.60    1.80
  -3   4  11    8.40    1.00
   3  -4 -10   31.10    2.20
  -3   4  10   33.00    1.70
   3  -4  -9   73.00    3.80
  -3   4   9   81.90    2.90
   3  -4  -8   60.10    3.40
  -3   4   8   63.00    3.00
   3  -4  -7   -0.40    0.90
  -3   4   7   -0.80    0.90
   3  -4  -6   92.40    2.30
  -3   4   6  104.00    3.80
   3  -4  -5   77.50    2.00
  -3   4   5   74.70    3.10
   3  -4  -4  166.10    3.60
  -3   4   4  168.10    5.50
   3  -4  -3   65.50    1.50
  -3   4   3   63.10    2.30
   3  -4  -2    2.60    0.50
  -3   4   2    2.00    0.60
   3  -4  -1  331.70    5.50
  -3   4   1  335.10    7.00
   3  -4   0    5.50    0.60
  -3   4   0    4.50    0.50
   3  -4   1    7.20    0.50
  -3   4  -1    7.50    0.60
   3  -4   2  148.90    2.90
  -3   4  -2  151.80    3.20
   3  -4   3    6.40    0.60
  -3   4  -3    6.40    0.50
   3  -4   4    4.40    0.40
  -3   4  -4    4.20    0.50
   3  -4   5    4.30    0.40
  -3   4  -5    4.40    0.50
   3  -4   6   11.00    0.50
  -3   4  -6   11.90    0.60
   3  -4   7   12.60    0.50
  -3   4  -7   11.20    0.70
   3  -4   8   45.80    1.30
  -3   4  -8   45.60    1.40
   3  -4   9   72.40    1.70
  -3   4  -9   71.00    1.90
   3  -4  10   -0.20    1.00
  -3   4 -10    0.50    0.60
   3  -4  11   26.40    2.30
  -3   4 -11   21.40    1.90
   3  -4  12  255.80    9.70
  -3   4 -12  222.10    7.50
   3  -4  13   10.10    1.70
  -3   4 -13   10.80    1.90
   3  -4  14   -3.30    2.70
  -3   4 -14   -2.30    1.70
   3  -4  15   20.80    4.20
  -3   4 -15   29.20    3.00
   3  -4  16   10.10    3.90
  -3   4 -16    7.30    2.70
   3  -4  17   47.90    7.20
  -3   4 -17   38.40    4.80
   3  -4  18    5.60    4.40
  -3   4 -18    0.10    2.70
   3  -3 -19    8.30    3.10
  -3   3  19    8.90    3.90
   3  -3 -18   23.30    3.70
  -3   3  18   14.70    3.50
   3  -3 -17    5.40    2.40
  -3   3  17   11.10    3.60
   3  -3 -16    3.50    2.20
  -3   3  16    5.80    2.40
   3  -3 -15   -1.30    1.90
  -3   3  15    1.60    2.40
   3  -3 -14   30.50    2.20
  -3   3  14   25.70    2.90
   3  -3 -13    9.30    1.60
  -3   3  13   13.70    2.60
   3  -3 -12   46.50    2.60
  -3   3  12   49.70    3.50
   3  -3 -11    0.80    1.60
  -3   3  11   -0.20    1.40
   3  -3 -10   87.60    3.40
  -3   3  10   85.90    4.00
   3  -3  -9   -1.00    0.90
  -3   3   9    0.10    1.40
   3  -3  -8  174.60    4.50
  -3   3   8  179.00    6.10
   3  -3  -7   16.10    1.20
  -3   3   7   17.60    1.70
   3  -3  -6   54.80    1.50
  -3   3   6   53.40    2.50
   3  -3  -5   15.70    0.80
  -3   3   5   16.80    1.00
   3  -3  -4   96.40    2.10
  -3   3   4   90.30    2.80
   3  -3  -3   23.70    0.90
  -3   3   3   20.00    1.00
   3  -3  -2  267.30    4.50
  -3   3   2  268.50    6.10
   3  -3  -1    2.20    0.40
  -3   3   1    2.50    0.50
   3  -3   0   45.50    1.10
  -3   3   0   42.50    1.30
   3  -3   1   28.50    0.80
  -3   3  -1   29.80    1.00
   3  -3   2   52.00    1.20
  -3   3  -2   50.20    1.20
   3  -3   3   10.80    0.50
  -3   3  -3   11.50    0.60
   3  -3   4  218.60    4.10
  -3   3  -4  210.80    3.80
   3  -3   5    1.00    0.30
  -3   3  -5    1.60    0.40
   3  -3   6  315.20    5.20
  -3   3  -6  307.30    6.20
   3  -3   7    0.40    0.40
  -3   3  -7    1.20    0.60
   3  -3   8  180.50    3.40
  -3   3  -8  182.20    4.20
   3  -3   9   34.10    1.10
  -3   3  -9   35.00    1.30
   3  -3  10   23.40    1.40
  -3   3 -10   20.30    1.50
   3  -3  11    0.00    0.80
  -3   3 -11   -0.70    0.90
   3  -3  12   33.80    2.10
  -3   3 -12   32.50    1.80
   3  -3  13    1.90    1.20
  -3   3 -13    3.30    1.10
  -3   3 -14    5.60    1.70
  -3   3 -15   22.20    2.60
  -3   3 -16   12.70    2.50
  -3   3 -17    9.60    2.70
  -3   3 -18   29.10    4.00
   3  -2 -19   11.80    3.20
  -3   2  19   10.70    3.20
   3  -2 -18   20.80    3.40
  -3   2  18   27.50    4.60
   3  -2 -17   34.00    3.30
  -3   2  17   24.10    3.50
   3  -2 -16   12.70    2.80
  -3   2  16   15.50    2.80
   3  -2 -15    0.20    2.00
  -3   2  15    5.40    2.90
   3  -2 -14   38.20    2.10
  -3   2  14   35.90    3.20
   3  -2 -13   -0.90    1.10
  -3   2  13    3.20    2.00
   3  -2 -12   52.50    2.40
  -3   2  12   47.40    3.20
   3  -2 -11   67.40    2.90
  -3   2  11   68.00    3.60
   3  -2 -10    5.10    1.20
  -3   2  10    7.40    1.80
   3  -2  -9    0.70    0.90
  -3   2   9    1.70    1.40
   3  -2  -8    1.40    0.80
  -3   2   8    4.20    1.40
   3  -2  -7   19.20    1.20
  -3   2   7   18.60    1.70
   3  -2  -6   42.30    1.30
  -3   2   6   37.30    2.10
   3  -2  -5  119.20    3.10
  -3   2   5  110.40    4.00
   3  -2  -4  118.20    2.80
  -3   2   4  119.20    2.80
   3  -2  -3  203.20    4.50
  -3   2   3  202.90    5.70
   3  -2  -2    0.60    0.40
  -3   2   2    1.10    0.50
   3  -2  -1   80.80    2.00
  -3   2   1   77.70    2.40
   3  -2   0   46.50    1.20
  -3   2   0   44.40    1.20
   3  -2   1  333.10    4.90
  -3   2  -1  319.00    5.30
   3  -2   2  229.80    3.80
  -3   2  -2  222.80    4.00
   3  -2   3   82.70    1.60
  -3   2  -3   80.70    1.80
   3  -2   4   50.30    0.90
  -3   2  -4   49.00    1.30
   3  -2   5    5.60    0.30
  -3   2  -5    5.80    0.70
   3  -2   6   95.00    2.00
  -3   2  -6   91.40    2.10
   3  -2   7  186.70    3.40
  -3   2  -7  178.50    4.00
   3  -2   8   47.70    1.30
  -3   2  -8   45.30    1.50
   3  -2   9    0.90    0.40
  -3   2  -9   -0.10    0.70
   3  -2  10   15.90    0.90
  -3   2 -10   16.60    1.10
   3  -2  11   -0.40    0.80
  -3   2 -11    1.10    0.80
   3  -2  12  140.00    5.80
  -3   2 -12  126.60    3.90
   3  -2  13    4.60    1.30
  -3   2 -13    5.30    1.20
   3  -2  14   -1.80    2.10
  -3   2 -14   -0.20    1.20
   3  -2  15   28.30    3.70
  -3   2 -15   24.20    2.10
  -3   2 -16   12.40    2.40
  -3   2 -17   33.30    4.40
  -3   2 -18   -2.50    2.50
  -3   2 -19   -4.70    3.30
   3  -1 -19    0.10    2.40
  -3   1  19    8.30    3.10
   3  -1 -18    3.80    3.00
  -3   1  18   -4.00    3.20
   3  -1 -17   23.50    2.90
  -3   1  17   18.80    3.00
   3  -1 -16   22.80    2.60
  -3   1  16   14.20    3.10
   3  -1 -15    0.50    1.80
  -3   1  15   -2.60    1.80
   3  -1 -14    9.10    1.90
  -3   1  14    6.60    2.00
   3  -1 -13  147.90    4.30
  -3   1  13  142.80    6.00
   3  -1 -12   43.80    2.00
  -3   1  12   49.70    3.30
   3  -1 -11   15.00    1.30
  -3   1  11   15.70    1.80
   3  -1 -10   -0.90    0.90
  -3   1  10   -0.20    1.20
   3  -1  -9   90.60    3.10
  -3   1   9  104.30    4.00
   3  -1  -8   18.60    0.80
  -3   1   8   19.90    1.70
   3  -1  -7   41.40    1.40
  -3   1   7   35.70    2.10
   3  -1  -6   16.00    1.10
  -3   1   6   17.40    1.40
   3  -1  -5   24.70    1.20
  -3   1   5   21.40    1.30
   3  -1  -4  363.90    6.60
  -3   1   4  377.10    9.70
   3  -1  -3  136.90    3.00
  -3   1   3  136.50    3.70
   3  -1  -2   30.90    1.00
  -3   1   2   31.10    1.20
   3  -1  -1   44.90    1.10
  -3   1   1   45.20    1.40
   3  -1   0  135.00    2.90
  -3   1   0  131.70    2.30
   3  -1   1    4.80    0.40
  -3   1  -1    5.00    0.40
   3  -1   2  317.90    5.20
  -3   1  -2  314.70    5.20
   3  -1   3  395.90    6.10
  -3   1  -3  367.40    6.70
   3  -1   4    0.70    0.40
  -3   1  -4    1.20    0.50
   3  -1   5   14.90    0.70
  -3   1  -5   14.90    0.80
   3  -1   6   50.00    1.40
  -3   1  -6   51.40    1.50
   3  -1   7   79.20    2.00
  -3   1  -7   80.70    2.10
   3  -1   8   12.90    0.90
  -3   1  -8   14.80    0.90
   3  -1   9   -0.10    0.40
  -3   1  -9    0.20    0.70
   3  -1  10   41.00    1.70
  -3   1 -10   37.70    1.70
   3  -1  11  168.70    6.40
  -3   1 -11  168.20    4.20
   3  -1  12    0.60    0.90
  -3   1 -12    0.20    0.80
   3  -1  13   67.40    3.70
  -3   1 -13   61.50    2.40
   3  -1  14   36.60    4.70
  -3   1 -14   46.00    2.10
   3  -1  15    1.90    2.90
  -3   1 -15    1.70    1.20
   3  -1  16   -0.50    2.20
  -3   1 -16    1.00    1.20
  -3   1 -17   20.60    3.30
  -3   1 -18   54.00    5.40
  -3   1 -19   -0.20    2.80
   3   0 -19   18.70    3.50
  -3   0  19   20.40    4.70
   3   0 -18    1.60    2.30
  -3   0  18   -1.20    2.40
   3   0 -17    6.20    2.20
  -3   0  17    4.60    2.30
   3   0 -16    0.10    1.20
  -3   0  16    0.80    2.20
   3   0 -15   16.40    1.50
  -3   0  15   14.30    2.50
   3   0 -14    3.80    2.20
  -3   0  14    0.10    2.00
   3   0 -13  117.20    4.30
  -3   0  13  122.50    5.50
   3   0 -12    0.30    0.50
  -3   0  12    0.50    2.10
   3   0 -11    4.80    0.70
  -3   0  11    7.00    1.40
   3   0 -10    0.20    0.40
  -3   0  10   -1.50    1.10
   3   0  -9   21.70    1.00
  -3   0   9   21.30    1.70
   3   0  -8   -0.10    0.50
  -3   0   8    0.20    1.10
   3   0  -7  623.40   11.00
  -3   0   7  618.20   16.40
   3   0  -6   -0.20    0.40
  -3   0   6    0.30    1.20
   3   0  -5   27.70    1.20
  -3   0   5   26.80    1.40
   3   0  -4    0.30    0.30
  -3   0   4    0.20    0.60
   3   0  -3  693.60    9.90
  -3   0   3  741.40   13.90
   3   0  -2    0.00    0.30
  -3   0   2   -0.90    0.50
   3   0  -1    9.40    0.60
  -3   0   1    8.00    0.40
   3   0   0   -0.50    0.30
  -3   0   0   -0.10    0.20
   3   0   1   11.30    0.70
  -3   0  -1   11.00    0.40
   3   0   2   -0.80    0.50
  -3   0  -2    0.10    0.20
   3   0   3   91.50    1.80
  -3   0  -3   87.00    2.10
   3   0   4    0.30    0.40
  -3   0  -4   -0.40    0.50
   3   0   5  716.30   10.40
  -3   0  -5  686.10   10.60
   3   0   6    0.30    0.40
  -3   0  -6    0.50    0.50
   3   0   7    5.50    0.60
  -3   0  -7    5.60    0.70
   3   0   8    0.20    0.70
  -3   0  -8    0.10    0.50
   3   0   9  232.30    7.60
  -3   0  -9  219.70    4.00
   3   0  10   -0.70    1.00
  -3   0 -10    0.20    0.40
   3   0  11  150.90    5.90
  -3   0 -11  159.40    3.40
   3   0  12    0.20    1.80
  -3   0 -12    0.00    0.70
   3   0  13    7.70    2.30
  -3   0 -13    8.70    1.10
   3   0  14   -1.70    2.00
  -3   0 -14    0.60    1.00
   3   0  15   20.30    4.10
  -3   0 -15   25.40    1.80
   3   0  16    0.80    2.50
  -3   0 -16    0.50    1.30
   3   0  17    8.70    4.10
  -3   0 -17    5.80    1.60
   3   0  18   -2.00    3.00
  -3   0 -18   -1.70    1.90
  -3   0 -19   17.30    3.40
   3   1 -19    2.90    2.60
  -3  -1  19    7.20    3.30
   3   1 -18    2.20    2.30
  -3  -1  18   -2.00    2.60
   3   1 -17   22.70    3.00
  -3  -1  17   20.30    3.80
   3   1 -16   24.00    2.60
  -3  -1  16   26.00    3.10
   3   1 -15   -0.40    1.00
  -3  -1  15   -0.80    1.80
   3   1 -14   10.60    1.30
  -3  -1  14    9.60    2.20
   3   1 -13  158.70    4.80
  -3  -1  13  145.10    5.90
   3   1 -12   46.20    1.60
  -3  -1  12   49.50    3.10
   3   1 -11   16.10    0.90
  -3  -1  11   15.20    2.00
   3   1 -10    0.10    0.50
  -3  -1  10    0.30    1.30
   3   1  -9  100.60    1.70
  -3  -1   9  100.60    4.00
   3   1  -8   19.30    0.60
  -3  -1   8   19.00    1.60
   3   1  -7   40.10    1.00
  -3  -1   7   39.20    2.20
   3   1  -6   17.40    0.60
  -3  -1   6   18.50    1.60
   3   1  -5   23.70    1.00
  -3  -1   5   23.70    1.30
   3   1  -4  356.40    6.10
  -3  -1   4  348.50    7.10
   3   1  -3  139.60    2.80
  -3  -1   3  139.50    3.30
   3   1  -2   32.20    0.90
  -3  -1   2   32.70    1.20
   3   1  -1   44.40    1.10
  -3  -1   1   40.70    0.80
   3   1   0  143.60    3.00
  -3  -1   0  135.20    2.50
   3   1   1    5.20    0.50
  -3  -1  -1    4.60    0.40
   3   1   2  363.50    6.60
  -3  -1  -2  344.10    6.30
   3   1   3  398.20    6.10
  -3  -1  -3  394.70    8.60
   3   1   4    2.00    0.40
  -3  -1  -4    0.90    0.20
   3   1   5   15.50    0.70
  -3  -1  -5   15.40    0.60
   3   1   6   50.40    1.40
  -3  -1  -6   49.00    1.30
   3   1   7   76.10    2.50
  -3  -1  -7   82.00    1.80
   3   1   8   12.90    1.40
  -3  -1  -8   14.80    0.70
   3   1   9    0.20    1.00
  -3  -1  -9    1.20    0.50
   3   1  10   33.60    2.50
  -3  -1 -10   34.30    1.30
   3   1  11  166.90    9.20
  -3  -1 -11  166.90    3.80
   3   1  12    0.30    2.10
  -3  -1 -12   -0.60    0.90
   3   1  13   56.40    5.60
  -3  -1 -13   57.50    2.30
   3   1  14   37.70    4.80
  -3  -1 -14   38.90    1.80
   3   1  15   -0.70    3.60
  -3  -1 -15    1.80    1.20
   3   1  16    2.00    3.10
  -3  -1 -16    0.70    1.40
   3   1  17   17.20    5.50
  -3  -1 -17   17.50    2.20
   3   1  18   29.50    5.20
  -3  -1 -18   42.60    3.20
   3   1  19    2.80    5.70
  -3  -1 -19    3.40    2.20
   3   2 -19    7.70    2.50
  -3  -2  19   12.00    3.50
   3   2 -18   36.90    3.60
  -3  -2  18   22.80    3.40
   3   2 -17   32.00    3.30
  -3  -2  17   28.50    3.80
   3   2 -16   10.10    2.10
  -3  -2  16   12.30    2.40
   3   2 -15    2.90    1.60
  -3  -2  15    1.50    1.70
   3   2 -14   37.40    2.20
  -3  -2  14   31.50    3.10
   3   2 -13    1.00    0.80
  -3  -2  13    1.60    1.70
   3   2 -12   57.00    1.90
  -3  -2  12   54.20    3.30
   3   2 -11   75.50    2.10
  -3  -2  11   68.10    3.50
   3   2 -10    5.40    0.80
  -3  -2  10    6.10    1.30
   3   2  -9    0.70    0.50
  -3  -2   9    1.30    1.10
   3   2  -8    1.50    0.40
  -3  -2   8    2.20    1.10
   3   2  -7   20.30    0.60
  -3  -2   7   16.50    1.50
   3   2  -6   43.80    1.30
  -3  -2   6   42.60    2.00
   3   2  -5  118.60    2.30
  -3  -2   5  122.00    3.60
   3   2  -4  114.20    2.00
  -3  -2   4  113.60    2.70
   3   2  -3  179.80    3.60
  -3  -2   3  189.90    3.60
   3   2  -2    0.70    0.40
  -3  -2   2    0.80    0.30
   3   2  -1   74.40    1.80
  -3  -2   1   73.50    1.60
   3   2   0   46.90    1.20
  -3  -2   0   46.30    1.30
   3   2   1  332.90    5.50
  -3  -2  -1  362.60    7.30
   3   2   2  238.10    4.40
  -3  -2  -2  255.50    6.50
   3   2   3   87.90    1.70
  -3  -2  -3   89.80    3.10
   3   2   4   46.20    1.50
  -3  -2  -4   50.30    1.90
   3   2   5    5.50    0.70
  -3  -2  -5    7.10    0.60
   3   2   6   94.80    2.90
  -3  -2  -6   94.40    2.10
   3   2   7  181.60    5.30
  -3  -2  -7  181.30    3.40
   3   2   8   50.20    3.70
  -3  -2  -8   48.80    1.40
   3   2   9   -3.60    1.80
  -3  -2  -9   -0.10    0.50
   3   2  10   18.50    2.90
  -3  -2 -10   19.10    1.10
   3   2  11   -3.10    1.90
  -3  -2 -11    0.30    0.70
   3   2  12  109.60    8.10
  -3  -2 -12  109.20    3.20
   3   2  13    1.00    2.30
  -3  -2 -13    4.20    1.20
   3   2  14    1.20    2.60
  -3  -2 -14    0.10    1.00
   3   2  15   11.40    3.60
  -3  -2 -15   24.70    2.10
   3   2  16   11.60    3.60
  -3  -2 -16   10.00    2.10
   3   2  17   10.90    5.90
  -3  -2 -17   32.90    2.90
   3   2  18   -1.80    4.10
  -3  -2 -18    1.00    1.90
   3   2  19    3.70    6.60
  -3  -2 -19    3.50    2.40
   3   3 -19    7.30    4.40
  -3  -3  19   10.70    5.60
   3   3 -18   16.50    2.70
  -3  -3  18   22.30    3.70
   3   3 -17    6.50    2.30
  -3  -3  17    5.30    2.40
   3   3 -16    5.40    1.90
  -3  -3  16    4.50    2.10
   3   3 -15    1.00    1.80
  -3  -3  15    1.70    2.10
   3   3 -14   26.20    1.80
  -3  -3  14   20.30    3.50
   3   3 -13   10.40    1.00
  -3  -3  13   10.10    2.10
   3   3 -12   58.20    2.10
  -3  -3  12   52.10    3.20
   3   3 -11    0.30    0.70
  -3  -3  11    2.90    1.90
   3   3 -10  102.20    2.80
  -3  -3  10   96.40    3.90
   3   3  -9    0.60    0.50
  -3  -3   9   -0.50    1.00
   3   3  -8  183.90    4.00
  -3  -3   8  188.00    5.20
   3   3  -7   17.10    0.90
  -3  -3   7   17.30    1.20
   3   3  -6   56.40    1.30
  -3  -3   6   63.80    2.00
   3   3  -5   15.70    0.70
  -3  -3   5   16.90    0.80
   3   3  -4   89.40    2.00
  -3  -3   4   96.60    2.30
   3   3  -3   23.00    0.90
  -3  -3   3   22.80    0.80
   3   3  -2  252.20    4.90
  -3  -3   2  269.90    4.60
   3   3  -1    2.00    0.50
  -3  -3   1    1.30    0.50
   3   3   0   44.30    1.10
  -3  -3   0   44.60    1.30
   3   3   1   27.60    0.90
  -3  -3  -1   31.60    1.30
   3   3   2   52.30    1.20
  -3  -3  -2   57.90    2.30
   3   3   3   10.40    0.90
  -3  -3  -3   13.10    1.30
   3   3   4  229.80    5.90
  -3  -3  -4  236.30    5.30
   3   3   5    0.60    0.70
  -3  -3  -5    1.30    0.80
   3   3   6  313.60    7.80
  -3  -3  -6  316.10    4.90
   3   3   7    1.20    0.90
  -3  -3  -7    0.10    0.60
   3   3   8  171.50    6.90
  -3  -3  -8  176.90    3.30
   3   3   9   28.40    3.50
  -3  -3  -9   34.90    1.20
   3   3  10   17.70    3.10
  -3  -3 -10   20.00    1.20
   3   3  11   -0.10    2.00
  -3  -3 -11    0.60    0.80
   3   3  12   20.80    4.30
  -3  -3 -12   25.60    1.60
   3   3  13   -0.10    3.30
  -3  -3 -13    1.00    1.00
   3   3  14    3.30    4.20
  -3  -3 -14    3.50    1.30
   3   3  15   10.30    5.00
  -3  -3 -15   18.50    2.10
   3   3  16    7.70    4.10
  -3  -3 -16   19.20    2.90
   3   3  17    9.70    5.00
  -3  -3 -17   10.40    2.40
   3   3  18   17.70    7.80
  -3  -3 -18   25.10    3.90
   3   3  19    5.60    5.10
  -3  -3 -19   -3.20    2.60
   3   4 -18   15.50    4.20
  -3  -4  18   16.80    5.60
   3   4 -17    5.70    2.80
  -3  -4  17   -0.10    3.50
   3   4 -16    5.30    1.90
  -3  -4  16    4.10    2.50
   3   4 -15    0.50    1.30
  -3  -4  15    3.00    2.80
   3   4 -14   55.30    2.70
  -3  -4  14   59.70    3.90
   3   4 -13    0.10    1.10
  -3  -4  13    0.60    1.50
   3   4 -12   24.50    1.40
  -3  -4  12   23.90    2.70
   3   4 -11    9.90    1.10
  -3  -4  11   13.00    1.80
   3   4 -10   34.40    1.70
  -3  -4  10   34.10    2.40
   3   4  -9   83.90    3.00
  -3  -4   9   85.60    3.90
   3   4  -8   61.90    2.10
  -3  -4   8   69.70    3.30
   3   4  -7    0.60    0.70
  -3  -4   7    0.50    0.90
   3   4  -6   91.10    2.10
  -3  -4   6  100.60    2.40
   3   4  -5   76.40    2.00
  -3  -4   5   83.30    2.00
   3   4  -4  165.50    3.40
  -3  -4   4  183.80    3.20
   3   4  -3   60.80    1.60
  -3  -4   3   64.30    1.50
   3   4  -2    2.30    0.40
  -3  -4   2    2.10    0.40
   3   4  -1  307.40    5.20
  -3  -4   1  341.00    6.20
   3   4   0    5.00    0.50
  -3  -4   0    6.20    0.80
   3   4   1    8.30    0.60
  -3  -4  -1    8.30    1.10
   3   4   2  153.50    3.70
  -3  -4  -2  158.30    4.50
   3   4   3    5.70    1.00
  -3  -4  -3    7.40    1.10
   3   4   4    5.50    1.00
  -3  -4  -4    4.80    1.30
   3   4   5    2.90    1.10
  -3  -4  -5    4.60    0.80
   3   4   6   12.70    1.60
  -3  -4  -6   12.70    0.90
   3   4   7   13.90    1.60
  -3  -4  -7   12.90    0.80
   3   4   8   48.80    3.20
  -3  -4  -8   45.40    1.40
   3   4   9   60.90    5.10
  -3  -4  -9   65.60    1.90
   3   4  10    4.90    2.40
  -3  -4 -10    0.50    1.00
   3   4  11   12.80    3.10
  -3  -4 -11   19.00    1.20
   3   4  12  110.70    9.00
  -3  -4 -12  132.80    5.70
   3   4  13   -3.10    3.80
  -3  -4 -13    5.80    1.20
   3   4  14    3.90    4.40
  -3  -4 -14    2.70    1.40
   3   4  15    1.80    5.10
  -3  -4 -15   23.40    2.30
   3   4  16    5.80    4.30
  -3  -4 -16    8.50    2.80
   3   4  17   30.60    5.80
  -3  -4 -17   37.00    3.60
   3   4  18   -0.40    6.90
  -3  -4 -18    3.80    3.00
   3   5 -18    4.00    4.30
  -3  -5  18    2.80    4.00
   3   5 -17   -3.00    3.00
  -3  -5  17   -2.10    5.00
   3   5 -16   23.60    5.00
  -3  -5  16   18.60    4.10
   3   5 -15   41.60    2.60
  -3  -5  15   39.20    3.90
   3   5 -14   32.10    2.00
  -3  -5  14   35.20    3.40
   3   5 -13  104.00    3.90
  -3  -5  13  100.60    8.30
   3   5 -12   39.20    2.10
  -3  -5  12   38.30    2.90
   3   5 -11    3.30    1.10
  -3  -5  11    3.50    1.60
   3   5 -10   25.80    1.60
  -3  -5  10   29.30    2.50
   3   5  -9    0.00    0.70
  -3  -5   9   -1.50    1.30
   3   5  -8   31.80    1.40
  -3  -5   8   33.10    2.40
   3   5  -7   48.60    1.70
  -3  -5   7   46.60    2.00
   3   5  -6   27.90    1.00
  -3  -5   6   28.50    1.20
   3   5  -5   16.10    0.90
  -3  -5   5   18.20    0.80
   3   5  -4  118.70    2.80
  -3  -5   4  137.80    2.70
   3   5  -3    7.60    0.50
  -3  -5   3    8.40    0.60
   3   5  -2   41.00    1.80
  -3  -5   2   44.70    1.30
   3   5  -1   -0.50    0.40
  -3  -5   1   -0.30    0.50
   3   5   0   27.10    1.20
  -3  -5   0   31.10    1.60
   3   5   1   18.60    1.00
  -3  -5  -1   16.10    1.40
   3   5   2  406.50   11.40
  -3  -5  -2  383.60    9.00
   3   5   3  414.60   11.40
  -3  -5  -3  397.80    9.60
   3   5   4   20.10    1.50
  -3  -5  -4   21.70    1.60
   3   5   5   80.80    3.50
  -3  -5  -5   77.20    2.20
   3   5   6   48.60    2.60
  -3  -5  -6   48.80    1.80
   3   5   7    9.30    1.50
  -3  -5  -7    9.40    0.90
   3   5   8   25.50    2.50
  -3  -5  -8   27.40    1.30
   3   5   9    2.10    1.90
  -3  -5  -9    1.60    0.90
   3   5  10    1.20    3.40
  -3  -5 -10    9.60    1.10
   3   5  11   21.70    4.40
  -3  -5 -11   33.60    1.70
   3   5  12   -0.40    3.00
  -3  -5 -12    2.80    1.20
   3   5  13    5.20    3.30
  -3  -5 -13   -0.10    1.30
   3   5  14    5.60    3.60
  -3  -5 -14    4.70    1.70
   3   5  15    3.50    4.20
  -3  -5 -15    5.30    2.10
   3   5  16    1.00    4.50
  -3  -5 -16    0.10    1.90
   3   5  17    5.40    6.80
  -3  -5 -17    1.50    2.50
   3   5  18    9.40    5.50
  -3  -5 -18    2.40    3.20
   3   6 -17   -0.20    3.30
  -3  -6  17    0.60    3.30
   3   6 -16    4.00    4.10
  -3  -6  16   12.50    4.40
   3   6 -15   -1.90    1.90
  -3  -6  15   -1.30    3.00
   3   6 -14    9.90    2.70
  -3  -6  14   13.40    3.80
   3   6 -13   39.10    2.30
  -3  -6  13   38.30    5.90
   3   6 -12   27.50    1.80
  -3  -6  12   26.70    2.60
   3   6 -11    5.80    0.90
  -3  -6  11    4.00    1.50
   3   6 -10    3.40    0.80
  -3  -6  10    5.90    1.60
   3   6  -9    7.60    1.00
  -3  -6   9    9.30    1.60
   3   6  -8   30.90    1.50
  -3  -6   8   35.10    1.90
   3   6  -7  149.10    3.90
  -3  -6   7  150.90    4.60
   3   6  -6   69.30    2.10
  -3  -6   6   74.40    2.40
   3   6  -5   10.50    0.80
  -3  -6   5   12.30    0.80
   3   6  -4    0.20    1.00
  -3  -6   4    0.00    0.60
   3   6  -3  103.30    3.20
  -3  -6   3  117.70    2.60
   3   6  -2   79.30    2.60
  -3  -6   2   84.00    2.20
   3   6  -1    2.50    0.70
  -3  -6   1    3.70    1.10
   3   6   0   49.40    1.80
  -3  -6   0   51.90    2.20
   3   6   1    6.60    0.80
  -3  -6  -1    7.80    1.40
   3   6   2    1.20    0.60
  -3  -6  -2    1.50    1.30
   3   6   3    8.60    0.90
  -3  -6  -3    8.30    1.40
   3   6   4   31.30    2.00
  -3  -6  -4   33.80    2.00
   3   6   5   88.00    3.60
  -3  -6  -5   79.00    3.10
   3   6   6    1.90    1.50
  -3  -6  -6    0.80    0.70
   3   6   7   11.00    1.60
  -3  -6  -7   10.30    1.10
   3   6   8   54.80    3.30
  -3  -6  -8   55.30    1.90
   3   6   9   59.40    3.90
  -3  -6  -9   56.00    2.00
   3   6  10   16.10    2.30
  -3  -6 -10   16.00    1.30
   3   6  11   66.20    5.00
  -3  -6 -11   66.20    2.90
   3   6  12    4.40    3.70
  -3  -6 -12    0.70    1.20
   3   6  13   10.50    4.10
  -3  -6 -13    6.40    1.50
   3   6  14    1.90    4.20
  -3  -6 -14    9.40    1.80
   3   6  15    0.00    4.40
  -3  -6 -15    7.70    2.10
   3   6  16   44.40    9.00
  -3  -6 -16   69.00    4.90
   3   6  17    3.40    5.10
  -3  -6 -17    4.30    4.10
  -3  -7  16    5.80    5.70
   3   7 -15    3.50    4.80
  -3  -7  15    7.00    4.00
   3   7 -14    5.80    4.50
  -3  -7  14   -2.50    4.40
   3   7 -13   15.70    2.70
  -3  -7  13   19.00    4.20
   3   7 -12    1.70    1.60
  -3  -7  12   -0.50    3.70
   3   7 -11    1.10    1.20
  -3  -7  11    0.70    1.80
   3   7 -10   19.50    1.50
  -3  -7  10   21.20    2.40
   3   7  -9   89.10    3.20
  -3  -7   9   88.20    4.50
   3   7  -8   41.80    1.80
  -3  -7   8   41.20    2.20
   3   7  -7   27.30    1.40
  -3  -7   7   28.70    1.90
   3   7  -6    1.20    0.60
  -3  -7   6    0.80    0.70
   3   7  -5    0.70    1.10
  -3  -7   5    1.40    0.80
   3   7  -4   22.20    2.20
  -3  -7   4   23.20    1.40
   3   7  -3   71.30    3.80
  -3  -7   3   77.20    2.70
   3   7  -2   54.80    2.50
  -3  -7   2   54.60    2.10
   3   7  -1   28.20    2.10
  -3  -7   1   26.90    2.70
   3   7   0  128.30    3.30
  -3  -7   0  118.60    4.10
   3   7   1    1.70    0.60
  -3  -7  -1    2.30    1.20
   3   7   2    0.40    0.60
  -3  -7  -2   -0.90    1.30
   3   7   3    2.40    0.70
  -3  -7  -3    2.20    1.40
   3   7   4    8.10    1.20
  -3  -7  -4    3.60    1.60
   3   7   5    1.20    0.90
  -3  -7  -5    2.60    1.60
   3   7   6    0.20    1.30
  -3  -7  -6   -0.80    1.10
   3   7   7   88.70    4.50
  -3  -7  -7   87.40    4.10
   3   7   8   22.10    2.40
  -3  -7  -8   22.20    1.70
   3   7   9   16.60    2.40
  -3  -7  -9   11.40    1.70
   3   7  10   33.50    3.20
  -3  -7 -10   29.20    2.40
   3   7  11   35.80    3.50
  -3  -7 -11   32.20    2.60
   3   7  12   -3.30    2.60
  -3  -7 -12    1.20    1.80
   3   7  13   66.30    5.20
  -3  -7 -13   61.60    3.80
   3   7  14    2.80    3.20
  -3  -7 -14   11.70    2.40
   3   7  15    1.70    3.80
  -3  -7 -15    2.50    2.60
   3   7  16    1.90    3.90
  -3  -7 -16    3.70    2.50
   3   8 -15    3.20    5.20
  -3  -8  15    0.30    3.80
   3   8 -14   -1.90    5.40
  -3  -8  14   -3.50    3.60
   3   8 -13    0.80    4.70
  -3  -8  13    0.20    3.30
   3   8 -12   24.70    4.70
  -3  -8  12   34.70    6.10
   3   8 -11   19.50    4.50
  -3  -8  11   25.50    4.70
   3   8 -10   11.60    3.80
  -3  -8  10    4.50    4.00
   3   8  -9   13.60    1.60
  -3  -8   9   12.50    1.60
   3   8  -8    2.00    1.30
  -3  -8   8    2.20    1.20
   3   8  -7   26.00    1.80
  -3  -8   7   26.50    2.00
   3   8  -6   10.60    1.30
  -3  -8   6    8.10    1.10
   3   8  -5    3.70    1.50
  -3  -8   5    3.00    1.00
   3   8  -4   12.00    1.80
  -3  -8   4   13.40    1.30
   3   8  -3   35.30    2.70
  -3  -8   3   38.10    2.00
   3   8  -2   12.30    1.50
  -3  -8   2   12.90    1.50
   3   8  -1   15.50    1.80
  -3  -8   1    9.60    2.30
   3   8   0   94.50    4.10
  -3  -8   0   90.50    5.10
   3   8   1  141.30    5.20
  -3  -8  -1  150.70    7.30
   3   8   2  111.60    4.00
  -3  -8  -2  104.70    5.00
   3   8   3   11.00    1.30
  -3  -8  -3   10.10    1.80
   3   8   4   27.10    2.10
  -3  -8  -4   22.70    2.20
   3   8   5   -0.70    1.60
  -3  -8  -5    0.10    1.50
   3   8   6  135.90    9.40
  -3  -8  -6  137.10    6.80
   3   8   7   44.90    5.30
  -3  -8  -7   43.00    2.70
   3   8   8    3.30    4.10
  -3  -8  -8    2.40    1.80
   3   8   9   14.10    3.80
  -3  -8  -9    6.50    1.80
   3   8  10   -1.30    4.70
  -3  -8 -10    0.80    1.70
   3   8  11   -1.10    3.50
  -3  -8 -11    7.20    2.10
   3   8  12    1.80    4.00
  -3  -8 -12   -2.50    2.20
   3   8  13    4.40    4.30
  -3  -8 -13    1.10    2.30
  -3  -8 -14   21.30    3.20
   3   8  15    8.80    6.20
  -3  -8 -15    3.00    3.00
   3   9 -14    2.70    3.90
   3   9 -13   12.50    5.00
  -3  -9  13   21.70    6.10
   3   9 -12    9.50    5.40
  -3  -9  12    9.20    4.10
   3   9 -11   -0.60    3.00
  -3  -9  11    2.80    4.50
   3   9 -10   21.50    4.70
  -3  -9  10   27.10    4.90
   3   9  -9   -0.30    3.10
  -3  -9   9   -1.50    4.10
   3   9  -8   20.20    4.20
  -3  -9   8   26.40    2.90
   3   9  -7   69.90    3.20
  -3  -9   7   75.80    3.70
   3   9  -6    0.80    1.40
  -3  -9   6    2.10    1.30
   3   9  -5   28.60    2.90
  -3  -9   5   25.10    1.80
   3   9  -4    0.70    1.50
  -3  -9   4   -1.70    1.40
   3   9  -3   69.00    4.00
  -3  -9   3   59.20    2.70
   3   9  -2   14.90    1.90
  -3  -9   2   16.10    1.70
   3   9  -1    6.00    1.80
  -3  -9   1    4.20    1.60
   3   9   0   39.70    2.70
  -3  -9   0   39.60    2.60
   3   9   1   39.80    2.60
  -3  -9  -1   38.20    3.30
   3   9   2   25.60    2.30
  -3  -9  -2   24.70    2.50
   3   9   3   18.50    1.80
  -3  -9  -3   16.20    2.00
   3   9   4   15.00    2.40
  -3  -9  -4   11.80    2.10
   3   9   5    3.70    1.40
  -3  -9  -5   -1.30    1.90
   3   9   6   19.60    2.10
  -3  -9  -6   16.70    2.30
   3   9   7   13.80    2.70
  -3  -9  -7   12.20    2.60
   3   9   8   43.40    4.20
  -3  -9  -8   31.20    3.30
   3   9   9   39.50    4.50
  -3  -9  -9   45.80    3.30
   3   9  10    5.50    3.50
  -3  -9 -10    0.90    2.20
   3   9  11    1.90    2.50
  -3  -9 -11    4.10    2.10
   3   9  12    0.40    2.80
  -3  -9 -12   -2.20    2.50
   3   9  13    4.70    4.80
  -3  -9 -13    0.00    2.40
   3  10 -12   11.50    4.40
   3  10 -11    0.70    3.90
  -3 -10  11    7.80    4.30
   3  10 -10   -3.80    3.40
  -3 -10  10   -1.60    4.90
   3  10  -9   22.80    5.20
  -3 -10   9   21.10    5.20
   3  10  -8   35.20    7.20
  -3 -10   8   32.90    6.70
   3  10  -7   10.20    4.10
  -3 -10   7   10.80    2.30
   3  10  -6   49.50    6.80
  -3 -10   6   55.60    4.60
   3  10  -5    0.80    3.50
  -3 -10   5    2.60    2.00
   3  10  -4   50.30    3.70
  -3 -10   4   45.20    2.80
   3  10  -3    5.40    2.40
  -3 -10   3    8.40    1.60
   3  10  -2   18.80    2.40
  -3 -10   2   15.10    2.00
   3  10  -1   62.30    3.40
  -3 -10   1   69.10    4.50
   3  10   0    4.10    1.70
  -3 -10   0    3.60    1.60
   3  10   1   26.50    2.40
  -3 -10  -1   24.20    2.70
   3  10   2    0.70    1.60
  -3 -10  -2    2.90    2.20
   3  10   3    5.10    1.70
  -3 -10  -3    4.60    1.80
   3  10   4    9.00    1.90
  -3 -10  -4    8.90    2.50
   3  10   5   -0.80    1.60
  -3 -10  -5   -1.60    2.20
   3  10   6   15.70    2.30
  -3 -10  -6   12.00    2.70
   3  10   7    8.90    3.10
  -3 -10  -7    6.40    2.90
   3  10   8   17.60    4.40
  -3 -10  -8   15.90    2.80
   3  10   9   20.90    3.40
  -3 -10  -9   22.40    3.50
   3  10  10   32.00    4.40
  -3 -10 -10   33.50    4.00
   3  10  11   -8.00    4.70
  -3 -10 -11   -0.60    2.40
   3  10  12   37.20    8.10
  -3 -10 -12   44.90    5.30
   3  11  -9    8.40    4.60
  -3 -11   9   18.70    5.30
   3  11  -8   15.40    5.30
  -3 -11   8    7.00    6.00
   3  11  -7    4.50    4.20
  -3 -11   7    7.10    4.10
   3  11  -6   -5.90    5.40
  -3 -11   6    2.30    2.40
   3  11  -5   -2.70    5.70
  -3 -11   5    0.60    2.60
   3  11  -4   -1.70    6.20
  -3 -11   4    3.50    2.50
   3  11  -3   21.40    6.70
  -3 -11   3    5.50    2.50
   3  11  -2   12.40    2.60
  -3 -11   2   19.50    2.20
   3  11  -1    3.40    2.50
  -3 -11   1    5.70    2.10
   3  11   0    6.90    2.80
  -3 -11   0    4.30    2.20
   3  11   1   14.20    3.20
  -3 -11  -1   16.80    2.80
   3  11   2   24.10    3.60
  -3 -11  -2   19.60    2.90
   3  11   3   48.30    4.40
  -3 -11  -3   48.10    4.10
   3  11   4    2.60    2.80
  -3 -11  -4    5.70    2.60
   3  11   5   25.00    4.00
  -3 -11  -5   18.90    3.00
   3  11   6    8.60    3.70
  -3 -11  -6   18.60    3.70
   3  11   7   14.50    3.40
  -3 -11  -7   24.80    3.80
   3  11   8   -0.30    3.40
  -3 -11  -8   -3.40    2.80
   3  11   9   -4.60    4.20
  -3 -11  -9   -2.20    3.40
   3  12  -5   16.90    5.90
  -3 -12   5   14.90    3.50
   3  12  -4    1.50    5.00
  -3 -12   4    6.60    3.90
   3  12  -3    1.50    6.50
  -3 -12   3    2.10    2.70
   3  12  -2   24.30    7.10
  -3 -12   2   25.60    3.90
   3  12  -1   28.30    6.30
  -3 -12   1   24.70    3.30
   3  12   0   15.40    5.80
  -3 -12   0   20.10    4.40
   3  12   1   -0.70    6.30
  -3 -12  -1    2.10    4.50
   3  12   2   -2.40    3.10
  -3 -12  -2    3.20    2.90
   3  12   3    4.80    3.20
  -3 -12  -3    4.80    2.50
   3  12   4    0.00    3.40
  -3 -12  -4    9.70    3.10
   3  12   5   12.70    3.60
  -3 -12  -5    9.70    3.60
   3  12   6   -0.80    3.40
  -3 -12  -6   -7.90    4.40
   4 -11  -7   -4.70    3.10
  -4  11   7    1.80    4.00
   4 -11  -6   10.30    4.20
  -4  11   6   10.50    4.50
   4 -11  -5    1.90    3.10
  -4  11   5    3.10    4.00
   4 -11  -4    1.30    3.10
  -4  11   4    0.50    4.80
   4 -11  -3    8.30    3.50
  -4  11   3   13.40    4.40
   4 -11  -2   30.50    4.40
  -4  11   2   45.20    6.40
   4 -11  -1    8.10    3.90
  -4  11   1   15.40    5.40
   4 -11   0   -2.90    3.40
  -4  11   0   -3.80    3.40
   4 -11   1   13.20    4.00
  -4  11  -1   16.60    5.60
   4 -11   2    5.60    3.10
  -4  11  -2    7.10    3.90
   4 -11   3   -0.90    3.10
  -4  11  -3   -1.70    4.70
   4 -11   4    5.70    5.30
  -4  11  -4    8.70    4.30
   4 -11   5   -5.10    4.60
  -4  11  -5   -0.10    3.40
   4 -11   6   24.10    7.60
  -4  11  -6   32.10    6.80
   4 -11   7   12.70    5.30
   4 -10 -10    7.60    3.50
  -4  10  10   19.00    7.30
   4 -10  -9    4.20    2.40
  -4  10   9   -3.60    5.80
   4 -10  -8   -0.30    1.80
  -4  10   8   -0.30    3.60
   4 -10  -7    0.40    1.70
  -4  10   7   -1.20    3.00
   4 -10  -6   -0.70    1.90
  -4  10   6   -0.90    2.30
   4 -10  -5    4.00    1.90
  -4  10   5    9.00    3.40
   4 -10  -4   26.50    3.80
  -4  10   4   40.30    5.50
   4 -10  -3    9.60    4.40
  -4  10   3   11.60    3.60
   4 -10  -2    2.50    2.60
  -4  10   2    2.20    4.30
   4 -10  -1   27.70    3.70
  -4  10   1   28.10    3.40
   4 -10   0    7.10    3.00
  -4  10   0    9.10    2.70
   4 -10   1    6.40    3.70
  -4  10  -1   15.20    3.20
   4 -10   2    4.80    2.80
  -4  10  -2    8.50    2.60
   4 -10   3    1.60    2.40
  -4  10  -3    3.60    2.50
   4 -10   4   -4.20    2.50
  -4  10  -4   -1.00    3.40
   4 -10   5   49.90    6.80
  -4  10  -5   48.30    4.80
   4 -10   6    7.10    4.00
  -4  10  -6    3.50    2.80
   4 -10   7   13.70    6.30
  -4  10  -7   11.60    5.20
   4 -10   8    4.00    4.30
   4 -10   9   -0.30    3.90
   4 -10  10   -2.40    4.20
   4  -9 -12   -1.40    2.20
  -4   9  12   -0.30    4.90
   4  -9 -11   14.30    2.70
  -4   9  11    3.00    4.40
   4  -9 -10   -1.50    1.70
  -4   9  10   -1.10    3.90
   4  -9  -9    0.20    2.60
  -4   9   9   -8.50    5.10
   4  -9  -8    4.00    2.00
  -4   9   8   -4.30    4.00
   4  -9  -7    1.50    1.80
  -4   9   7    1.30    2.90
   4  -9  -6   40.10    3.20
  -4   9   6   39.40    5.30
   4  -9  -5    1.10    1.50
  -4   9   5    0.90    1.80
   4  -9  -4   97.20    3.90
  -4   9   4   90.60    5.50
   4  -9  -3    2.00    1.70
  -4   9   3    0.80    1.80
   4  -9  -2   11.20    1.40
  -4   9   2    7.90    1.70
   4  -9  -1   11.50    2.10
  -4   9   1    8.60    2.20
   4  -9   0    2.90    2.10
  -4   9   0    6.30    2.40
   4  -9   1   23.70    2.80
  -4   9  -1   22.00    3.00
   4  -9   2   91.70    5.40
  -4   9  -2   80.70    5.30
   4  -9   3   38.00    3.90
  -4   9  -3   26.00    3.40
   4  -9   4   37.00    3.30
  -4   9  -4   32.50    3.90
   4  -9   5   14.70    2.30
  -4   9  -5   18.10    3.00
   4  -9   6   -0.90    3.20
  -4   9  -6    4.80    3.20
   4  -9   7   -3.20    4.80
  -4   9  -7    2.70    3.00
   4  -9   8   11.10    4.00
  -4   9  -8   17.00    5.40
   4  -9   9   -2.30    3.50
  -4   9  -9    2.50    4.70
   4  -9  10    3.40    3.80
  -4   9 -10    6.50    5.70
   4  -9  11    4.00    4.00
   4  -9  12    7.20    5.60
   4  -8 -14    8.70    2.50
  -4   8  14   18.10    5.60
   4  -8 -13   12.40    2.50
  -4   8  13    7.80    4.70
   4  -8 -12   29.00    3.50
  -4   8  12   29.20    7.10
   4  -8 -11    8.50    2.60
  -4   8  11   10.10    4.70
   4  -8 -10   11.20    2.30
  -4   8  10    5.30    3.90
   4  -8  -9    8.10    2.80
  -4   8   9    3.00    4.60
   4  -8  -8    4.90    1.90
  -4   8   8   -3.90    2.90
   4  -8  -7   85.80    5.50
  -4   8   7   71.80    6.80
   4  -8  -6   40.80    3.00
  -4   8   6   35.00    5.30
   4  -8  -5   13.40    1.60
  -4   8   5   16.10    2.20
   4  -8  -4    3.50    1.20
  -4   8   4   -0.40    1.40
   4  -8  -3   19.90    1.70
  -4   8   3   23.90    2.00
   4  -8  -2   35.30    2.50
  -4   8   2   38.30    2.40
   4  -8  -1    1.30    1.20
  -4   8   1    3.20    1.40
   4  -8   0    1.00    1.30
  -4   8   0   -0.50    1.30
   4  -8   1    2.90    1.20
  -4   8  -1    5.20    1.40
   4  -8   2    4.60    2.10
  -4   8  -2    5.10    2.00
   4  -8   3   19.50    2.20
  -4   8  -3   18.70    2.80
   4  -8   4   -0.50    1.40
  -4   8  -4    0.50    2.20
   4  -8   5   50.80    3.60
  -4   8  -5   48.90    3.90
   4  -8   6    1.10    1.60
  -4   8  -6    6.10    2.50
   4  -8   7    3.00    1.90
  -4   8  -7    4.60    3.50
   4  -8   8    3.40    2.20
  -4   8  -8   -3.40    5.10
   4  -8   9   40.20    3.60
  -4   8  -9   34.90    6.40
   4  -8  10   83.70    5.50
  -4   8 -10   48.50    7.20
   4  -8  11   81.80    5.70
  -4   8 -11   60.50    8.20
   4  -8  12    1.20    2.20
  -4   8 -12    0.20    4.50
   4  -8  13    2.40    3.50
   4  -7 -15    2.70    4.20
  -4   7  15   -6.50    6.30
   4  -7 -14   27.20    3.40
  -4   7  14   12.80    4.60
   4  -7 -13   16.50    2.80
  -4   7  13   10.30    4.70
   4  -7 -12   11.40    2.60
  -4   7  12   14.80    4.80
   4  -7 -11    8.70    2.20
  -4   7  11    2.00    3.50
   4  -7 -10    0.40    2.20
  -4   7  10    1.90    4.40
   4  -7  -9   10.30    2.10
  -4   7   9   13.80    3.70
   4  -7  -8    9.60    2.10
  -4   7   8    9.10    2.90
   4  -7  -7    4.40    1.60
  -4   7   7    4.60    3.20
   4  -7  -6    1.20    1.20
  -4   7   6    0.50    1.50
   4  -7  -5    1.20    1.60
  -4   7   5    1.70    1.40
   4  -7  -4    2.20    1.20
  -4   7   4   -0.70    1.20
   4  -7  -3   87.00    3.60
  -4   7   3   85.40    3.40
   4  -7  -2   19.80    1.90
  -4   7   2   18.00    1.80
   4  -7  -1    0.70    1.00
  -4   7   1    2.00    1.10
   4  -7   0   75.40    2.80
  -4   7   0   82.20    3.30
   4  -7   1   10.70    1.30
  -4   7  -1   12.80    1.50
   4  -7   2   44.20    2.00
  -4   7  -2   48.20    2.50
   4  -7   3    1.50    1.00
  -4   7  -3    1.90    1.00
   4  -7   4  218.30    8.00
  -4   7  -4  211.40    7.90
   4  -7   5   17.80    2.70
  -4   7  -5   19.70    3.30
   4  -7   6    2.40    1.90
  -4   7  -6    0.30    1.70
   4  -7   7    1.10    1.20
  -4   7  -7    4.90    2.10
   4  -7   8    8.90    2.50
  -4   7  -8    4.90    3.40
   4  -7   9    6.00    3.50
  -4   7  -9    2.50    3.70
   4  -7  10   35.50    5.00
  -4   7 -10   22.80    3.10
   4  -7  11   22.40    4.90
  -4   7 -11   13.40    3.20
   4  -7  12    9.10    3.30
  -4   7 -12   11.30    2.80
   4  -7  13   11.70    3.80
  -4   7 -13    7.80    3.40
   4  -7  14    0.50    4.90
  -4   7 -14   -1.00    2.60
   4  -7  15    5.50    3.90
   4  -6 -16   14.70    2.90
  -4   6  16   12.30    5.40
   4  -6 -15   -1.00    2.80
  -4   6  15    3.10    3.70
   4  -6 -14    3.00    2.40
  -4   6  14   -3.80    3.90
   4  -6 -13   -1.80    2.30
  -4   6  13    3.00    4.00
   4  -6 -12    9.80    2.90
  -4   6  12    4.30    3.50
   4  -6 -11    5.00    1.70
  -4   6  11    5.40    3.70
   4  -6 -10   32.60    2.60
  -4   6  10   30.60    4.10
   4  -6  -9    0.30    1.50
  -4   6   9   -4.10    2.60
   4  -6  -8    1.80    1.20
  -4   6   8    2.40    1.30
   4  -6  -7    1.00    1.20
  -4   6   7    1.80    1.50
   4  -6  -6   22.70    1.70
  -4   6   6   27.90    2.20
   4  -6  -5  154.50    4.50
  -4   6   5  169.70    6.60
   4  -6  -4   16.10    1.40
  -4   6   4   20.80    2.00
   4  -6  -3   12.80    1.30
  -4   6   3   13.90    1.70
   4  -6  -2   77.50    2.60
  -4   6   2   84.20    3.20
   4  -6  -1    5.20    1.00
  -4   6   1    6.50    1.10
   4  -6   0    8.50    1.00
  -4   6   0    9.00    1.20
   4  -6   1   66.20    2.30
  -4   6  -1   71.90    2.80
   4  -6   2   24.50    1.50
  -4   6  -2   26.30    1.60
   4  -6   3   85.30    3.10
  -4   6  -3   88.30    3.30
   4  -6   4   18.30    1.20
  -4   6  -4   18.30    1.30
   4  -6   5    5.00    0.70
  -4   6  -5    7.70    0.90
   4  -6   6   71.00    3.60
  -4   6  -6   70.10    4.00
   4  -6   7   19.90    1.80
  -4   6  -7   23.30    2.30
   4  -6   8   24.60    2.20
  -4   6  -8   16.30    2.40
   4  -6   9    6.00    2.30
  -4   6  -9    3.20    1.80
   4  -6  10    5.90    2.70
  -4   6 -10    3.50    2.00
   4  -6  11    0.70    3.50
  -4   6 -11   -1.60    1.90
   4  -6  12   -3.30    3.90
  -4   6 -12    4.10    2.30
   4  -6  13   25.20    4.70
  -4   6 -13   26.10    3.40
   4  -6  14   42.50    7.00
  -4   6 -14   49.00    5.10
   4  -6  15   13.40    4.60
  -4   6 -15    9.90    3.70
   4  -6  16   -2.60    4.00
   4  -5 -17   -1.00    3.00
  -4   5  17   -0.10    4.50
   4  -5 -16    0.20    2.60
  -4   5  16   12.20    4.80
   4  -5 -15    5.20    2.40
  -4   5  15    5.10    4.30
   4  -5 -14    4.30    2.10
  -4   5  14    8.80    4.30
   4  -5 -13   22.90    2.80
  -4   5  13   23.00    4.80
   4  -5 -12   14.10    2.20
  -4   5  12   11.70    3.70
   4  -5 -11  103.00    4.50
  -4   5  11  108.00    8.70
   4  -5 -10   84.20    3.90
  -4   5  10   97.70    7.90
   4  -5  -9    4.30    1.60
  -4   5   9    3.20    1.30
   4  -5  -8   28.30    1.90
  -4   5   8   31.60    2.50
   4  -5  -7   55.10    2.30
  -4   5   7   58.50    3.20
   4  -5  -6   11.70    1.40
  -4   5   6   11.60    1.50
   4  -5  -5   54.60    1.90
  -4   5   5   60.90    3.20
   4  -5  -4    8.50    1.00
  -4   5   4   10.80    1.50
   4  -5  -3   -0.50    0.70
  -4   5   3    1.90    1.10
   4  -5  -2    5.00    1.00
  -4   5   2    5.70    1.80
   4  -5  -1   54.40    2.20
  -4   5   1   58.80    2.40
   4  -5   0   82.90    2.50
  -4   5   0   82.30    2.90
   4  -5   1    2.00    0.60
  -4   5  -1    0.70    0.70
   4  -5   2    5.70    0.70
  -4   5  -2    7.20    0.80
   4  -5   3    6.80    0.70
  -4   5  -3    6.10    0.80
   4  -5   4    1.30    0.50
  -4   5  -4    1.70    0.60
   4  -5   5    2.70    0.90
  -4   5  -5    3.80    0.70
   4  -5   6    6.20    0.60
  -4   5  -6    6.70    0.80
   4  -5   7   29.40    1.20
  -4   5  -7   30.20    1.60
   4  -5   8  140.30    5.40
  -4   5  -8  117.80    5.30
   4  -5   9   60.60    5.30
  -4   5  -9   58.40    3.80
   4  -5  10    1.50    2.20
  -4   5 -10   -0.60    2.00
   4  -5  11   28.10    4.70
  -4   5 -11   15.40    2.50
   4  -5  12   23.80    4.50
  -4   5 -12   13.40    3.30
   4  -5  13    3.10    3.00
  -4   5 -13    0.90    2.60
   4  -5  14   19.20    4.50
  -4   5 -14   10.10    2.90
   4  -5  15   29.60    7.20
  -4   5 -15   28.30    3.80
   4  -5  16    0.10    5.50
  -4   5 -16    2.10    2.40
   4  -4 -17   18.30    3.40
  -4   4  17   22.10    7.20
   4  -4 -16    0.60    2.80
  -4   4  16   -2.60    5.70
   4  -4 -15   -1.90    2.30
  -4   4  15   -0.20    3.80
   4  -4 -14   10.70    2.50
  -4   4  14    6.10    2.40
   4  -4 -13   -0.80    1.60
  -4   4  13    1.20    2.10
   4  -4 -12   -0.60    1.40
  -4   4  12    2.10    2.00
   4  -4 -11    0.60    1.60
  -4   4  11    3.70    1.20
   4  -4 -10    4.20    1.40
  -4   4  10    5.20    1.10
   4  -4  -9   39.00    2.00
  -4   4   9   37.50    2.40
   4  -4  -8    2.50    1.20
  -4   4   8    1.90    1.20
   4  -4  -7   -0.10    0.90
  -4   4   7    1.10    1.20
   4  -4  -6  108.00    2.80
  -4   4   6  113.90    4.70
   4  -4  -5   30.40    1.50
  -4   4   5   33.20    2.10
   4  -4  -4  133.40    3.20
  -4   4   4  138.70    5.10
   4  -4  -3    0.80    0.70
  -4   4   3    1.90    1.00
   4  -4  -2   24.30    1.10
  -4   4   2   24.70    1.70
   4  -4  -1  349.90    7.30
  -4   4   1  334.60    8.20
   4  -4   0   64.10    2.00
  -4   4   0   66.20    2.30
   4  -4   1    4.40    0.60
  -4   4  -1    2.50    0.70
   4  -4   2   12.50    0.80
  -4   4  -2   14.00    0.90
   4  -4   3   20.60    0.90
  -4   4  -3   20.20    1.00
   4  -4   4   27.20    1.10
  -4   4  -4   27.50    1.10
   4  -4   5  128.20    2.40
  -4   4  -5  124.00    2.80
   4  -4   6    0.60    0.30
  -4   4  -6    1.50    0.60
   4  -4   7    4.60    0.50
  -4   4  -7    7.00    0.90
   4  -4   8    0.60    0.50
  -4   4  -8   -0.10    0.70
   4  -4   9  131.00    5.80
  -4   4  -9  124.20    4.20
   4  -4  10    3.70    3.50
  -4   4 -10    0.40    1.90
   4  -4  11    4.80    2.80
  -4   4 -11   -2.60    1.70
   4  -4  12   68.70    6.80
  -4   4 -12   63.00    3.60
   4  -4  13   21.00    4.10
  -4   4 -13   24.30    2.90
   4  -4  14    2.10    4.40
  -4   4 -14    6.90    2.40
   4  -4  15    4.50    3.70
  -4   4 -15    1.70    2.30
   4  -4  16   18.70    5.70
  -4   4 -16   12.80    3.00
   4  -4  17   32.50    6.70
  -4   4 -17   29.90    3.40
   4  -3 -18   -0.80    2.70
  -4   3  18   -4.80    3.10
   4  -3 -17    1.50    2.60
  -4   3  17    5.80    3.40
   4  -3 -16    4.20    2.60
  -4   3  16    0.00    2.50
   4  -3 -15   89.60    5.10
  -4   3  15  107.70    6.50
   4  -3 -14    2.20    2.00
  -4   3  14   -0.80    2.00
   4  -3 -13   40.50    2.60
  -4   3  13   36.50    3.20
   4  -3 -12    0.40    1.50
  -4   3  12    0.50    1.80
   4  -3 -11   29.30    2.10
  -4   3  11   29.00    2.70
   4  -3 -10    1.50    1.20
  -4   3  10    2.90    1.50
   4  -3  -9   68.60    2.60
  -4   3   9   81.80    3.90
   4  -3  -8    2.00    0.90
  -4   3   8    0.30    1.20
   4  -3  -7   46.80    1.70
  -4   3   7   45.60    2.80
   4  -3  -6    6.10    0.90
  -4   3   6    6.40    1.30
   4  -3  -5    2.30    0.60
  -4   3   5    1.60    0.90
   4  -3  -4   56.20    1.80
  -4   3   4   57.20    2.70
   4  -3  -3   19.10    0.90
  -4   3   3   16.00    1.40
   4  -3  -2   16.30    0.90
  -4   3   2   18.30    1.60
   4  -3  -1   37.30    1.40
  -4   3   1   42.30    1.80
   4  -3   0    8.40    0.70
  -4   3   0    9.10    0.90
   4  -3   1   15.20    1.00
  -4   3  -1   17.30    1.00
   4  -3   2   44.60    1.30
  -4   3  -2   42.30    1.40
   4  -3   3  415.30    8.60
  -4   3  -3  409.80    7.40
   4  -3   4   16.90    0.70
  -4   3  -4   16.80    0.90
   4  -3   5  213.20    4.20
  -4   3  -5  206.20    4.60
   4  -3   6    7.50    0.70
  -4   3  -6    7.40    0.80
   4  -3   7   12.80    1.10
  -4   3  -7   15.30    1.10
   4  -3   8   20.60    1.80
  -4   3  -8   21.60    1.50
   4  -3   9   15.80    1.70
  -4   3  -9   13.70    1.20
   4  -3  10    2.40    1.20
  -4   3 -10    1.70    0.90
   4  -3  11    1.30    1.30
  -4   3 -11   -1.40    0.90
   4  -3  12    0.20    1.10
  -4   3 -12    4.50    1.20
   4  -3  13   51.40    6.20
  -4   3 -13   43.70    3.10
   4  -3  14   21.50    4.40
  -4   3 -14   17.00    2.50
   4  -3  15   47.70    6.60
  -4   3 -15   38.70    3.50
   4  -3  16    2.60    4.20
  -4   3 -16    1.30    2.30
   4  -3  17   -4.70    4.50
  -4   3 -17   -0.90    2.80
   4  -2 -18    7.90    2.80
  -4   2  18   13.00    3.80
   4  -2 -17   -1.10    2.90
  -4   2  17   -0.30    2.50
   4  -2 -16    2.00    2.50
  -4   2  16   -3.80    3.20
   4  -2 -15    7.70    2.20
  -4   2  15    4.20    2.30
   4  -2 -14    9.40    2.50
  -4   2  14    8.30    2.60
   4  -2 -13    2.70    1.60
  -4   2  13    3.20    1.90
   4  -2 -12   49.60    2.70
  -4   2  12   49.20    3.50
   4  -2 -11    4.60    1.70
  -4   2  11    5.70    1.90
   4  -2 -10    6.30    1.40
  -4   2  10    7.50    1.70
   4  -2  -9   47.50    2.00
  -4   2   9   48.60    2.90
   4  -2  -8    0.60    0.40
  -4   2   8   -2.20    1.30
   4  -2  -7   70.60    2.40
  -4   2   7   73.40    3.50
   4  -2  -6  268.90    6.00
  -4   2   6  273.20    8.60
   4  -2  -5   54.10    1.90
  -4   2   5   48.60    2.40
   4  -2  -4   28.80    1.20
  -4   2   4   26.40    1.90
   4  -2  -3   12.50    0.90
  -4   2   3   12.40    1.30
   4  -2  -2   10.20    0.80
  -4   2   2    8.80    1.00
   4  -2  -1  124.00    3.10
  -4   2   1  128.40    3.90
   4  -2   0  127.70    2.80
  -4   2   0  119.50    3.50
   4  -2   1   57.90    1.40
  -4   2  -1   54.10    1.50
   4  -2   2    1.10    0.40
  -4   2  -2    1.40    0.40
   4  -2   3    1.50    0.70
  -4   2  -3    0.90    0.60
   4  -2   4   12.00    0.90
  -4   2  -4   13.90    1.00
   4  -2   5   29.40    1.40
  -4   2  -5   27.70    1.30
   4  -2   6    7.30    0.70
  -4   2  -6    8.10    0.90
   4  -2   7   34.60    1.40
  -4   2  -7   31.90    1.50
   4  -2   8    0.30    0.90
  -4   2  -8    1.40    0.90
   4  -2   9  246.40    8.80
  -4   2  -9  239.90    5.70
   4  -2  10  100.40    4.90
  -4   2 -10  101.80    3.30
   4  -2  11   34.40    2.80
  -4   2 -11   31.00    1.80
   4  -2  12   16.90    2.00
  -4   2 -12   15.70    1.50
   4  -2  13   29.00    3.00
  -4   2 -13   27.40    2.00
   4  -2  14   21.70    4.50
  -4   2 -14   27.20    2.70
   4  -2  15   -0.10    3.20
  -4   2 -15    1.00    2.50
   4  -2  16   34.00    6.50
  -4   2 -16   33.30    3.70
   4  -2  17   16.30    5.10
  -4   2 -17    7.60    2.60
   4  -2  18   -4.70    4.60
  -4   2 -18    2.90    3.20
   4  -1 -18   -0.20    2.40
  -4   1  18   -5.20    3.10
   4  -1 -17    3.10    2.40
  -4   1  17    2.70    2.60
   4  -1 -16   27.70    3.10
  -4   1  16   24.80    3.60
   4  -1 -15   -0.10    2.60
  -4   1  15   -0.10    2.00
   4  -1 -14    4.10    1.70
  -4   1  14    5.50    2.40
   4  -1 -13    0.40    1.70
  -4   1  13    1.60    2.10
   4  -1 -12   30.00    1.70
  -4   1  12   34.40    2.90
   4  -1 -11   12.90    1.70
  -4   1  11   14.40    2.80
   4  -1 -10   65.00    2.70
  -4   1  10   70.70    3.80
   4  -1  -9   16.70    0.90
  -4   1   9   19.00    1.80
   4  -1  -8    0.30    0.60
  -4   1   8   -0.80    1.10
   4  -1  -7   83.30    2.60
  -4   1   7   78.30    3.20
   4  -1  -6    4.50    0.60
  -4   1   6    3.90    1.10
   4  -1  -5   45.60    1.60
  -4   1   5   44.00    2.30
   4  -1  -4   14.00    0.80
  -4   1   4   13.60    1.30
   4  -1  -3  227.50    5.00
  -4   1   3  216.40    7.40
   4  -1  -2   93.30    2.70
  -4   1   2   84.80    3.30
   4  -1  -1  126.10    3.00
  -4   1   1  117.80    3.20
   4  -1   0  317.70    6.50
  -4   1   0  318.90    6.20
   4  -1   1   57.20    1.90
  -4   1  -1   63.60    1.70
   4  -1   2   10.10    1.30
  -4   1  -2    7.80    0.70
   4  -1   3    1.00    1.00
  -4   1  -3    1.70    0.70
   4  -1   4  182.90    5.50
  -4   1  -4  172.50    4.80
   4  -1   5   25.90    1.40
  -4   1  -5   22.70    1.30
   4  -1   6   10.50    1.20
  -4   1  -6   10.20    1.20
   4  -1   7   18.60    1.60
  -4   1  -7   17.30    1.40
   4  -1   8  149.90    4.70
  -4   1  -8  147.40    3.70
   4  -1   9   23.00    2.10
  -4   1  -9   25.00    1.40
   4  -1  10   37.20    2.90
  -4   1 -10   29.40    1.70
   4  -1  11    1.70    1.70
  -4   1 -11    1.50    1.10
   4  -1  12    0.30    1.80
  -4   1 -12    1.10    1.20
   4  -1  13    6.80    1.90
  -4   1 -13    9.10    1.60
   4  -1  14    9.80    2.30
  -4   1 -14   11.20    1.70
   4  -1  15   81.80    5.30
  -4   1 -15   93.40    3.90
   4  -1  16   -2.20    3.70
  -4   1 -16   -0.10    2.00
   4  -1  17    0.50    3.80
  -4   1 -17    2.30    2.30
   4  -1  18   17.00    8.20
  -4   1 -18   44.20    4.50
   4   0 -18    1.40    3.00
  -4   0  18    4.00    3.20
   4   0 -17   -7.70    2.40
  -4   0  17    0.90    2.50
   4   0 -16  143.00    6.10
  -4   0  16  148.80    7.80
   4   0 -15    1.50    1.90
  -4   0  15    2.40    2.90
   4   0 -14   15.30    2.30
  -4   0  14   12.20    2.40
   4   0 -13    0.80    1.30
  -4   0  13    1.80    1.60
   4   0 -12   17.30    2.00
  -4   0  12   15.40    2.60
   4   0 -11   -0.50    0.70
  -4   0  11    0.10    1.90
   4   0 -10  155.40    4.50
  -4   0  10  161.50    6.20
   4   0  -9    1.10    0.80
  -4   0   9    0.80    1.30
   4   0  -8  121.00    3.30
  -4   0   8  125.40    4.80
   4   0  -7   -0.10    0.40
  -4   0   7    0.50    1.00
   4   0  -6   93.80    2.50
  -4   0   6   95.40    4.30
   4   0  -5    0.30    0.30
  -4   0   5    0.30    1.00
   4   0  -4   18.10    1.10
  -4   0   4   18.00    1.30
   4   0  -3    0.00    0.70
  -4   0   3   -0.40    0.70
   4   0  -2  218.70    4.70
  -4   0   2  213.80    9.60
   4   0  -1    0.60    0.70
  -4   0   1   -0.40    0.40
   4   0   0   44.80    1.70
  -4   0   0   44.40    1.20
   4   0   1    0.70    0.70
  -4   0  -1    0.40    0.40
   4   0   2  232.80    6.70
  -4   0  -2  206.40    4.40
   4   0   3   -0.30    0.70
  -4   0  -3   -0.30    0.60
   4   0   4   11.90    1.50
  -4   0  -4   13.50    1.00
   4   0   5    0.50    0.70
  -4   0  -5    0.80    0.80
   4   0   6  373.90    9.40
  -4   0  -6  346.70    8.50
   4   0   7   -1.80    1.00
  -4   0  -7   -0.10    0.80
   4   0   8   10.20    1.50
  -4   0  -8    8.50    1.20
   4   0   9    1.40    1.60
  -4   0  -9   -1.30    0.90
   4   0  10    1.30    1.60
  -4   0 -10    0.30    1.10
   4   0  11   -0.40    1.40
  -4   0 -11    0.80    1.40
   4   0  12    3.50    1.80
  -4   0 -12   -0.20    1.20
   4   0  13    1.50    1.60
  -4   0 -13   -0.60    1.20
   4   0  14  119.70    6.60
  -4   0 -14  133.30    5.00
   4   0  15    3.70    2.60
  -4   0 -15    1.20    1.70
   4   0  16    2.30    2.20
  -4   0 -16   -0.20    1.50
   4   0  17   -1.30    3.60
  -4   0 -17   -4.50    2.70
   4   0  18   27.40    6.40
  -4   0 -18   31.80    4.80
   4   1 -18    0.80    2.70
  -4  -1  18   -0.80    2.60
   4   1 -17    4.30    2.30
  -4  -1  17    3.50    2.80
   4   1 -16   30.20    3.10
  -4  -1  16   24.70    3.60
   4   1 -15    0.10    1.80
  -4  -1  15   -0.40    2.30
   4   1 -14    4.40    2.00
  -4  -1  14    1.50    1.90
   4   1 -13   -0.10    1.50
  -4  -1  13   -2.10    1.90
   4   1 -12   28.10    2.00
  -4  -1  12   31.80    2.90
   4   1 -11   17.70    0.90
  -4  -1  11   13.50    1.90
   4   1 -10   65.00    1.80
  -4  -1  10   66.10    3.30
   4   1  -9   16.80    0.80
  -4  -1   9   17.80    1.80
   4   1  -8    0.60    0.40
  -4  -1   8    1.30    1.10
   4   1  -7   87.40    2.30
  -4  -1   7   80.70    3.40
   4   1  -6    3.10    0.80
  -4  -1   6    4.40    1.20
   4   1  -5   43.80    1.60
  -4  -1   5   42.00    2.20
   4   1  -4   12.20    0.90
  -4  -1   4   16.80    1.60
   4   1  -3  215.80    5.10
  -4  -1   3  203.70    6.00
   4   1  -2  106.80    2.80
  -4  -1   2  106.10    3.50
   4   1  -1  126.70    3.40
  -4  -1   1  116.40    3.00
   4   1   0  343.90    7.00
  -4  -1   0  312.10    7.60
   4   1   1   65.10    2.40
  -4  -1  -1   63.50    2.20
   4   1   2    8.50    1.10
  -4  -1  -2    8.70    0.60
   4   1   3    0.50    0.80
  -4  -1  -3    1.00    0.30
   4   1   4  197.10    4.70
  -4  -1  -4  195.70    4.90
   4   1   5   24.80    1.30
  -4  -1  -5   24.30    1.40
   4   1   6    9.10    1.20
  -4  -1  -6   12.70    1.00
   4   1   7   19.70    2.00
  -4  -1  -7   16.20    1.10
   4   1   8  170.70    5.30
  -4  -1  -8  146.20    3.40
   4   1   9   21.50    2.50
  -4  -1  -9   24.00    1.30
   4   1  10   30.10    2.80
  -4  -1 -10   32.50    1.50
   4   1  11    1.00    1.60
  -4  -1 -11    2.40    1.00
   4   1  12   -4.20    2.30
  -4  -1 -12    0.90    1.00
   4   1  13    6.10    2.40
  -4  -1 -13    9.00    1.20
   4   1  14    9.40    2.30
  -4  -1 -14    9.70    1.70
   4   1  15   69.50    7.50
  -4  -1 -15   88.30    4.00
   4   1  16    1.00    2.40
  -4  -1 -16    0.40    1.80
   4   1  17   -1.10    3.00
  -4  -1 -17    3.10    3.00
   4   1  18   23.00    4.10
  -4  -1 -18   31.70    3.40
   4   2 -18    6.40    2.50
  -4  -2  18    7.30    3.10
   4   2 -17    2.70    2.50
  -4  -2  17   -0.60    2.80
   4   2 -16    4.60    2.70
  -4  -2  16    4.30    2.70
   4   2 -15    6.20    2.00
  -4  -2  15    6.60    2.40
   4   2 -14    4.50    1.70
  -4  -2  14    5.70    2.10
   4   2 -13    3.80    1.50
  -4  -2  13    4.80    1.90
   4   2 -12   50.30    2.30
  -4  -2  12   54.40    3.30
   4   2 -11    3.30    1.10
  -4  -2  11    6.60    1.70
   4   2 -10    5.50    1.10
  -4  -2  10    6.60    1.80
   4   2  -9   45.50    2.30
  -4  -2   9   49.50    2.80
   4   2  -8    1.10    0.30
  -4  -2   8    1.90    1.10
   4   2  -7   80.00    2.30
  -4  -2   7   80.70    3.50
   4   2  -6  273.10    7.00
  -4  -2   6  294.90    9.60
   4   2  -5   53.90    1.80
  -4  -2   5   57.30    2.60
   4   2  -4   24.90    1.20
  -4  -2   4   28.80    1.30
   4   2  -3   12.30    1.00
  -4  -2   3   13.60    0.80
   4   2  -2   10.50    1.00
  -4  -2   2   10.50    1.30
   4   2  -1  130.40    4.00
  -4  -2   1  122.40    3.00
   4   2   0  118.40    3.10
  -4  -2   0  131.40    3.50
   4   2   1   55.30    2.00
  -4  -2  -1   58.10    1.80
   4   2   2    0.60    0.70
  -4  -2  -2    1.50    0.50
   4   2   3    1.80    0.80
  -4  -2  -3    0.40    0.50
   4   2   4   13.70    0.70
  -4  -2  -4   13.60    0.90
   4   2   5   29.00    1.40
  -4  -2  -5   29.90    1.00
   4   2   6   10.30    1.00
  -4  -2  -6    9.80    0.50
   4   2   7   37.20    2.10
  -4  -2  -7   38.70    1.10
   4   2   8   -0.40    1.20
  -4  -2  -8    0.80    0.40
   4   2   9  247.20    9.20
  -4  -2  -9  241.60    5.90
   4   2  10   97.50    4.70
  -4  -2 -10   94.40    3.10
   4   2  11   27.00    2.60
  -4  -2 -11   29.70    1.80
   4   2  12   17.70    3.10
  -4  -2 -12   18.20    1.80
   4   2  13   22.90    2.70
  -4  -2 -13   24.00    1.60
   4   2  14   18.00    3.10
  -4  -2 -14   22.80    1.70
   4   2  15    5.40    2.50
  -4  -2 -15   -1.70    1.40
   4   2  16   22.30    3.90
  -4  -2 -16   33.00    3.20
   4   2  17    4.90    3.40
  -4  -2 -17    6.30    2.80
   4   2  18   -6.50    3.00
  -4  -2 -18   -5.50    2.50
   4   3 -18   -3.20    2.60
  -4  -3  18    6.00    3.20
   4   3 -17    4.20    2.40
  -4  -3  17    6.10    2.80
   4   3 -16    2.00    1.80
  -4  -3  16   -1.00    2.40
   4   3 -15  133.90    5.50
  -4  -3  15  126.60    6.30
   4   3 -14    0.50    1.50
  -4  -3  14    1.70    2.20
   4   3 -13   39.20    2.20
  -4  -3  13   36.30    3.30
   4   3 -12   -0.20    1.00
  -4  -3  12   -1.00    1.50
   4   3 -11   31.60    1.70
  -4  -3  11   30.20    2.80
   4   3 -10    1.20    0.90
  -4  -3  10    2.40    1.40
   4   3  -9   81.70    2.70
  -4  -3   9   85.20    4.10
   4   3  -8   -0.40    0.70
  -4  -3   8    2.40    1.50
   4   3  -7   46.50    1.40
  -4  -3   7   52.10    2.20
   4   3  -6    5.20    0.60
  -4  -3   6    5.60    0.90
   4   3  -5    2.80    0.70
  -4  -3   5    1.40    0.70
   4   3  -4   62.40    2.40
  -4  -3   4   64.70    2.20
   4   3  -3   17.40    1.30
  -4  -3   3   20.00    1.20
   4   3  -2   14.80    1.20
  -4  -3   2   17.50    1.30
   4   3  -1   44.10    1.50
  -4  -3   1   44.00    1.30
   4   3   0   11.00    0.90
  -4  -3   0    9.00    1.00
   4   3   1   15.70    1.00
  -4  -3  -1   16.80    1.30
   4   3   2   44.60    1.80
  -4  -3  -2   48.10    1.90
   4   3   3  440.70   10.10
  -4  -3  -3  463.90   10.80
   4   3   4   18.90    0.90
  -4  -3  -4   19.10    1.20
   4   3   5  230.70    5.00
  -4  -3  -5  214.30    5.50
   4   3   6    7.90    0.90
  -4  -3  -6    5.90    0.80
   4   3   7   15.90    2.10
  -4  -3  -7   15.10    0.90
   4   3   8   21.40    2.10
  -4  -3  -8   20.50    1.30
   4   3   9   15.00    2.20
  -4  -3  -9   13.10    1.30
   4   3  10    2.70    2.00
  -4  -3 -10    2.40    1.10
   4   3  11   -0.40    2.00
  -4  -3 -11    0.30    1.00
   4   3  12    4.90    2.20
  -4  -3 -12    2.60    1.20
   4   3  13   40.10    4.20
  -4  -3 -13   34.70    2.10
   4   3  14   14.60    3.00
  -4  -3 -14   13.60    1.60
   4   3  15   30.80    4.20
  -4  -3 -15   28.20    3.20
   4   3  16   -2.20    2.90
  -4  -3 -16    1.50    2.10
   4   3  17    1.70    3.00
  -4  -3 -17    4.40    2.50
   4   3  18    5.20    3.60
  -4  -3 -18    2.20    3.20
   4   4 -17   23.40    3.00
  -4  -4  17   26.00    3.90
   4   4 -16   -0.30    2.10
  -4  -4  16    1.60    2.40
   4   4 -15   -0.90    1.70
  -4  -4  15    5.30    3.50
   4   4 -14   13.90    2.10
  -4  -4  14    5.70    2.90
   4   4 -13   -0.70    1.10
  -4  -4  13    1.10    1.90
   4   4 -12    0.90    1.00
  -4  -4  12    0.10    1.50
   4   4 -11    8.50    1.30
  -4  -4  11    6.00    1.70
   4   4 -10    6.10    1.00
  -4  -4  10    8.20    1.90
   4   4  -9   40.60    1.90
  -4  -4   9   44.80    2.90
   4   4  -8   -1.60    0.90
  -4  -4   8    1.30    1.50
   4   4  -7    0.10    0.70
  -4  -4   7   -0.50    0.90
   4   4  -6  105.10    2.50
  -4  -4   6  118.40    3.70
   4   4  -5   31.20    1.20
  -4  -4   5   38.00    1.50
   4   4  -4  137.70    3.50
  -4  -4   4  151.40    4.30
   4   4  -3    0.50    0.60
  -4  -4   3    1.30    0.90
   4   4  -2   26.70    1.10
  -4  -4   2   26.10    1.00
   4   4  -1  363.20    8.10
  -4  -4   1  387.20    8.60
   4   4   0   67.30    2.10
  -4  -4   0   76.00    2.40
   4   4   1    4.50    0.60
  -4  -4  -1    4.60    0.90
   4   4   2   14.70    1.00
  -4  -4  -2   15.80    1.40
   4   4   3   21.40    1.20
  -4  -4  -3   24.30    1.50
   4   4   4   29.90    1.50
  -4  -4  -4   33.60    2.40
   4   4   5  136.00    3.90
  -4  -4  -5  131.60    5.30
   4   4   6    1.20    0.90
  -4  -4  -6    0.50    0.80
   4   4   7    5.70    2.10
  -4  -4  -7    6.00    1.20
   4   4   8    2.00    1.60
  -4  -4  -8   -0.30    1.00
   4   4   9  128.50    5.70
  -4  -4  -9  125.20    3.90
   4   4  10    0.60    1.70
  -4  -4 -10    0.60    1.00
   4   4  11    1.80    1.80
  -4  -4 -11   -0.60    1.00
   4   4  12   58.80    4.60
  -4  -4 -12   46.20    2.30
   4   4  13   17.60    2.90
  -4  -4 -13   16.90    1.60
   4   4  14    3.40    2.30
  -4  -4 -14    1.20    1.70
   4   4  15   -1.40    2.90
  -4  -4 -15   -0.20    2.40
   4   4  16    9.40    4.40
  -4  -4 -16   18.80    3.40
   4   4  17   20.60    5.40
  -4  -4 -17   17.20    3.50
   4   5 -17    2.00    4.00
   4   5 -16    0.60    3.10
  -4  -5  16   -0.40    5.00
   4   5 -15    6.40    1.90
  -4  -5  15    9.90    3.00
   4   5 -14    2.10    1.50
  -4  -5  14    5.00    2.30
   4   5 -13   23.80    1.90
  -4  -5  13   28.30    3.30
   4   5 -12   11.00    1.50
  -4  -5  12   18.40    2.70
   4   5 -11  109.80    3.80
  -4  -5  11  120.90    5.80
   4   5 -10  103.40    3.40
  -4  -5  10  111.90    5.80
   4   5  -9    4.80    0.90
  -4  -5   9    9.00    1.70
   4   5  -8   31.40    1.60
  -4  -5   8   35.50    2.60
   4   5  -7   60.70    2.30
  -4  -5   7   65.00    3.50
   4   5  -6   13.30    0.90
  -4  -5   6   11.90    1.40
   4   5  -5   57.80    1.90
  -4  -5   5   66.70    2.70
   4   5  -4    8.60    0.70
  -4  -5   4   11.20    1.30
   4   5  -3    0.70    0.30
  -4  -5   3    0.80    0.40
   4   5  -2    5.80    1.10
  -4  -5   2    6.40    0.60
   4   5  -1   61.40    2.70
  -4  -5   1   63.50    2.20
   4   5   0   87.30    3.50
  -4  -5   0   96.10    3.30
   4   5   1    0.40    0.90
  -4  -5  -1    2.40    1.00
   4   5   2    8.40    1.40
  -4  -5  -2    7.90    1.50
   4   5   3    5.60    0.60
  -4  -5  -3    3.50    1.20
   4   5   4    0.90    0.60
  -4  -5  -4    1.30    1.20
   4   5   5    5.50    1.50
  -4  -5  -5    4.90    1.50
   4   5   6    3.90    1.70
  -4  -5  -6    5.00    2.00
   4   5   7   32.00    2.50
  -4  -5  -7   29.60    1.70
   4   5   8  130.40    5.80
  -4  -5  -8  124.40    3.50
   4   5   9   50.20    3.60
  -4  -5  -9   55.90    2.20
   4   5  10   -0.70    1.50
  -4  -5 -10    0.10    1.00
   4   5  11   18.10    2.60
  -4  -5 -11   17.90    1.70
   4   5  12   17.10    3.40
  -4  -5 -12   16.10    1.90
   4   5  13    1.40    2.30
  -4  -5 -13    1.90    1.60
   4   5  14   10.10    3.40
  -4  -5 -14    3.80    1.80
   4   5  15   15.10    3.80
  -4  -5 -15   16.90    3.00
   4   5  16   -1.60    3.60
  -4  -5 -16    0.20    3.60
  -4  -6  16   25.70    5.60
  -4  -6  15   -1.70    3.50
   4   6 -14    1.70    2.00
  -4  -6  14    1.80    4.80
   4   6 -13    0.60    1.40
  -4  -6  13    4.30    2.10
   4   6 -12   13.10    1.80
  -4  -6  12   17.00    2.80
   4   6 -11    2.90    1.10
  -4  -6  11    4.10    2.00
   4   6 -10   36.50    2.00
  -4  -6  10   43.90    3.30
   4   6  -9    0.10    0.90
  -4  -6   9    0.10    2.00
   4   6  -8   -0.30    0.90
  -4  -6   8    0.90    1.40
   4   6  -7   -0.10    0.70
  -4  -6   7    0.10    1.10
   4   6  -6   24.90    1.40
  -4  -6   6   29.80    2.00
   4   6  -5  155.80    6.10
  -4  -6   5  180.00    5.40
   4   6  -4   17.20    1.50
  -4  -6   4   19.80    1.80
   4   6  -3   12.20    1.30
  -4  -6   3   14.20    1.60
   4   6  -2   88.00    3.70
  -4  -6   2   89.40    3.30
   4   6  -1    7.30    1.20
  -4  -6   1    8.60    1.20
   4   6   0    7.90    1.30
  -4  -6   0    9.80    1.30
   4   6   1   78.50    3.60
  -4  -6  -1   79.00    2.80
   4   6   2   26.40    1.40
  -4  -6  -2   24.60    2.10
   4   6   3   96.00    3.40
  -4  -6  -3   94.60    4.60
   4   6   4   20.80    1.30
  -4  -6  -4   21.30    2.10
   4   6   5    6.90    1.90
  -4  -6  -5    8.00    1.90
   4   6   6   83.60    4.00
  -4  -6  -6   70.70    4.50
   4   6   7   17.00    2.30
  -4  -6  -7   20.70    1.70
   4   6   8   24.40    2.70
  -4  -6  -8   22.80    1.90
   4   6   9    6.40    2.20
  -4  -6  -9    5.70    1.20
   4   6  10    2.80    2.50
  -4  -6 -10    3.50    1.60
   4   6  11   -2.60    2.20
  -4  -6 -11    1.50    1.70
   4   6  12    1.40    2.40
  -4  -6 -12    0.10    2.30
   4   6  13   19.10    3.80
  -4  -6 -13   24.60    3.50
   4   6  14   35.60    4.90
  -4  -6 -14   41.30    4.00
   4   6  15   14.50    4.90
  -4  -6 -15   11.60    3.00
   4   6  16   -7.20    4.70
  -4  -6 -16   -1.80    3.90
  -4  -7  15    5.50    5.80
   4   7 -14   25.80    6.00
  -4  -7  14   36.00    6.00
   4   7 -13   27.10    4.60
  -4  -7  13   21.30    4.80
   4   7 -12   18.40    2.10
  -4  -7  12   21.00    3.60
   4   7 -11    6.90    1.60
  -4  -7  11    2.90    1.90
   4   7 -10   -0.20    1.10
  -4  -7  10   -0.40    1.70
   4   7  -9   11.50    1.70
  -4  -7   9   15.00    2.40
   4   7  -8   13.40    1.90
  -4  -7   8   15.00    3.40
   4   7  -7    6.50    1.30
  -4  -7   7    8.90    1.60
   4   7  -6    1.90    1.20
  -4  -7   6    2.80    1.50
   4   7  -5    3.50    1.80
  -4  -7   5    4.10    1.30
   4   7  -4    1.10    1.50
  -4  -7   4    0.50    1.10
   4   7  -3   92.40    4.40
  -4  -7   3  107.40    3.50
   4   7  -2   22.10    1.70
  -4  -7   2   22.70    1.70
   4   7  -1    1.60    0.90
  -4  -7   1    4.00    1.70
   4   7   0   88.20    4.00
  -4  -7   0   88.20    3.20
   4   7   1   13.50    1.10
  -4  -7  -1   12.50    2.10
   4   7   2   52.80    2.50
  -4  -7  -2   56.00    2.80
   4   7   3    3.30    0.90
  -4  -7  -3    1.60    1.70
   4   7   4  229.10    6.70
  -4  -7  -4  201.80    6.90
   4   7   5   20.20    1.70
  -4  -7  -5   21.60    2.20
   4   7   6    3.50    1.70
  -4  -7  -6    1.90    2.20
   4   7   7    2.30    1.70
  -4  -7  -7    1.80    1.70
   4   7   8    8.20    2.10
  -4  -7  -8    8.80    1.60
   4   7   9    1.00    1.70
  -4  -7  -9    1.60    1.90
   4   7  10   19.60    3.10
  -4  -7 -10   20.90    2.70
   4   7  11   17.80    3.40
  -4  -7 -11   20.80    2.90
   4   7  12   12.40    3.10
  -4  -7 -12    7.50    2.80
   4   7  13   16.80    3.40
  -4  -7 -13    9.30    2.50
   4   7  14    3.10    4.30
  -4  -7 -14   -3.60    3.10
   4   7  15    6.80    6.10
  -4  -7 -15    8.50    3.40
   4   8 -13   11.00    4.10
  -4  -8  13   11.80    4.60
   4   8 -12   31.40    5.40
  -4  -8  12   40.80    7.10
   4   8 -11    7.40    3.70
  -4  -8  11   14.00    4.30
   4   8 -10   13.60    2.30
  -4  -8  10    9.20    3.60
   4   8  -9    8.00    2.00
  -4  -8   9    8.70    2.40
   4   8  -8    3.90    1.60
  -4  -8   8    3.30    1.50
   4   8  -7   94.90    4.40
  -4  -8   7   94.80    4.10
   4   8  -6   54.00    3.00
  -4  -8   6   60.90    3.20
   4   8  -5   19.30    2.30
  -4  -8   5   20.10    2.00
   4   8  -4    2.30    1.60
  -4  -8   4    0.70    1.00
   4   8  -3   27.80    2.80
  -4  -8   3   27.60    2.00
   4   8  -2   46.20    3.60
  -4  -8   2   50.20    2.50
   4   8  -1    2.00    2.00
  -4  -8   1    1.80    1.40
   4   8   0    1.20    2.00
  -4  -8   0   -1.00    1.40
   4   8   1    8.70    2.00
  -4  -8  -1    4.10    1.80
   4   8   2    5.00    2.10
  -4  -8  -2    4.20    1.60
   4   8   3   14.90    4.10
  -4  -8  -3   20.50    2.30
   4   8   4    2.00    3.40
  -4  -8  -4    0.70    2.00
   4   8   5   50.00    5.40
  -4  -8  -5   43.80    3.50
   4   8   6    4.20    3.20
  -4  -8  -6    4.10    1.90
   4   8   7    1.70    2.60
  -4  -8  -7    3.30    1.80
   4   8   8    5.60    4.80
  -4  -8  -8   -1.10    2.20
   4   8   9   28.80    5.50
  -4  -8  -9   24.60    3.00
   4   8  10   84.70    9.20
  -4  -8 -10   64.70    4.80
   4   8  11   72.60    8.50
  -4  -8 -11   70.30    5.30
   4   8  12   -4.30    4.40
  -4  -8 -12   -1.20    2.30
   4   8  13    2.10    6.40
  -4  -8 -13    3.70    4.30
  -4  -9  12   -1.10    3.60
   4   9 -11    6.80    4.00
  -4  -9  11   19.90    6.10
   4   9 -10    3.30    3.50
  -4  -9  10   -3.60    3.40
   4   9  -9    0.20    3.20
  -4  -9   9    0.30    3.40
   4   9  -8    8.70    4.00
  -4  -9   8    4.40    2.10
   4   9  -7   -0.10    1.40
  -4  -9   7    0.90    1.60
   4   9  -6   46.00    3.20
  -4  -9   6   48.20    3.10
   4   9  -5   -1.00    1.70
  -4  -9   5    1.70    1.40
   4   9  -4  113.30    6.30
  -4  -9   4  122.40    5.30
   4   9  -3    4.60    2.50
  -4  -9   3   -1.50    1.70
   4   9  -2   19.30    2.80
  -4  -9   2   15.10    1.80
   4   9  -1   10.90    2.40
  -4  -9   1    8.10    1.60
   4   9   0    6.00    2.20
  -4  -9   0    8.80    1.70
   4   9   1   38.70    4.40
  -4  -9  -1   27.50    3.10
   4   9   2   95.90    5.60
  -4  -9  -2   79.70    4.30
   4   9   3   40.70    4.00
  -4  -9  -3   33.20    3.00
   4   9   4   33.30    3.80
  -4  -9  -4   29.70    2.80
   4   9   5   21.40    3.00
  -4  -9  -5   16.00    2.60
   4   9   6    2.30    2.70
  -4  -9  -6    4.40    2.10
   4   9   7    1.00    2.20
  -4  -9  -7    2.80    2.10
   4   9   8   17.30    3.20
  -4  -9  -8   14.60    3.00
   4   9   9    0.90    2.60
  -4  -9  -9    0.70    2.50
   4   9  10    1.20    4.50
  -4  -9 -10   -0.10    2.40
   4   9  11   -0.90    2.90
  -4  -9 -11   -0.10    2.70
   4   9  12   10.30    3.70
  -4  -9 -12    6.30    4.00
   4  10 -10   21.70    7.10
   4  10  -9    1.50    3.80
  -4 -10   9   -1.90    4.10
   4  10  -8    4.80    4.00
  -4 -10   8    0.80    3.70
  -4 -10   7   -0.70    3.00
   4  10  -6    1.80    4.20
  -4 -10   6    3.30    2.70
   4  10  -5    6.90    1.70
  -4 -10   5    8.70    1.90
   4  10  -4   31.60    3.70
  -4 -10   4   41.50    3.50
   4  10  -3   10.30    2.60
  -4 -10   3   13.30    2.10
   4  10  -2   11.80    3.10
  -4 -10   2   12.70    2.00
   4  10  -1   37.30    3.60
  -4 -10   1   38.80    2.80
   4  10   0    1.20    2.10
  -4 -10   0    4.80    1.70
   4  10   1   23.00    3.10
  -4 -10  -1   14.50    2.60
   4  10   2    5.50    3.00
  -4 -10  -2    8.80    4.20
   4  10   3    3.20    2.40
  -4 -10  -3    0.00    2.90
   4  10   4    0.90    2.50
  -4 -10  -4   -1.80    2.10
   4  10   5   43.80    4.90
  -4 -10  -5   47.90    4.10
   4  10   6    1.00    2.60
  -4 -10  -6    2.10    2.30
   4  10   7   16.80    3.40
  -4 -10  -7   13.40    3.10
   4  10   8    1.90    2.70
  -4 -10  -8    0.80    2.80
   4  10   9   -2.00    4.10
  -4 -10  -9   -0.50    2.70
   4  10  10    7.90    3.40
  -4 -10 -10    1.30    3.20
   4  11  -7  -10.70    4.80
  -4 -11   7   -0.90    6.40
   4  11  -6    9.70    4.70
  -4 -11   6   12.30    3.60
   4  11  -5   -1.60    4.40
  -4 -11   5    3.00    2.70
   4  11  -4   -1.50    4.70
  -4 -11   4   -1.10    3.20
   4  11  -3   -1.60    4.50
  -4 -11   3   13.80    4.30
   4  11  -2   43.20    4.50
  -4 -11   2   42.70    3.50
   4  11  -1    7.30    2.70
  -4 -11   1    5.80    2.20
   4  11   0    3.70    2.50
  -4 -11   0    0.10    1.90
   4  11   1   19.40    5.10
  -4 -11  -1   16.60    2.90
   4  11   2    4.30    3.30
  -4 -11  -2    7.70    2.40
   4  11   3    5.30    3.40
  -4 -11  -3    8.20    3.10
   4  11   4   12.00    3.20
  -4 -11  -4   12.30    2.90
   4  11   5    4.10    3.20
  -4 -11  -5   -2.10    2.60
   4  11   6   18.80    3.80
  -4 -11  -6   28.90    3.90
   4  11   7    9.50    3.40
  -4 -11  -7   12.20    4.10
   5 -11  -1    4.70    4.30
  -5  11   1   14.70    5.10
   5 -11   0    3.80    4.60
  -5  11   0    2.30    5.80
   5 -11   1    2.00    5.90
  -5  11  -1    8.20    4.30
   5 -10  -7    6.60    5.40
  -5  10   7    6.40    4.20
   5 -10  -6   29.20    6.50
  -5  10   6   30.20    6.20
   5 -10  -5   -1.30    4.20
  -5  10   5   -4.80    4.60
   5 -10  -4   10.80    5.20
  -5  10   4   13.30    5.30
   5 -10  -3    4.90    6.30
  -5  10   3    4.30    3.60
   5 -10  -2   -6.40    6.20
  -5  10   2    5.00    5.00
   5 -10  -1   30.10    6.20
  -5  10   1   39.40    5.80
   5 -10   0    6.10    4.70
  -5  10   0    6.90    2.90
   5 -10   1    3.00    4.30
  -5  10  -1    5.20    2.90
   5 -10   2    0.60    5.90
  -5  10  -2    5.60    3.10
   5 -10   3    3.70    4.50
  -5  10  -3    0.50    2.60
   5 -10   4   -0.80    4.10
  -5  10  -4    3.00    3.30
   5 -10   5   12.00    5.20
  -5  10  -5   17.10    4.30
   5 -10   6    6.30    6.10
  -5  10  -6    2.90    3.00
   5 -10   7    9.90    4.90
  -5  10  -7    8.70    5.90
   5  -9 -10    7.40    2.70
  -5   9  10    8.50    4.60
   5  -9  -9    1.90    3.40
  -5   9   9    0.10    5.50
   5  -9  -8    4.20    2.30
  -5   9   8   -1.90    3.40
   5  -9  -7   49.80    3.70
  -5   9   7   36.40    5.50
   5  -9  -6   -1.30    2.40
  -5   9   6    4.20    3.50
   5  -9  -5    7.70    2.30
  -5   9   5   12.70    3.10
   5  -9  -4    6.10    2.00
  -5   9   4    9.40    3.10
   5  -9  -3    4.60    2.60
  -5   9   3    6.90    4.50
   5  -9  -2   12.00    2.80
  -5   9   2   13.50    3.00
   5  -9  -1   35.20    3.70
  -5   9   1   43.70    4.30
   5  -9   0   25.60    3.40
  -5   9   0   24.80    3.80
   5  -9   1   90.30    5.20
  -5   9  -1   90.50    6.20
   5  -9   2   19.20    3.30
  -5   9  -2   13.70    3.30
   5  -9   3    5.50    2.50
  -5   9  -3    7.90    3.10
   5  -9   4    5.30    2.20
  -5   9  -4    4.20    2.70
   5  -9   5    0.20    2.50
  -5   9  -5    3.00    2.50
   5  -9   6    4.30    4.20
  -5   9  -6    0.50    2.50
   5  -9   7   15.30    6.40
  -5   9  -7   10.00    5.30
   5  -9   8   10.90    4.60
  -5   9  -8    4.50    5.10
   5  -9   9   -1.90    3.80
  -5   9  -9    0.90    4.90
   5  -8 -12   14.00    3.30
  -5   8  12   16.40    5.90
   5  -8 -11    3.10    2.70
  -5   8  11   11.50    4.90
   5  -8 -10   41.20    6.00
  -5   8  10   42.90    7.20
   5  -8  -9    5.30    2.40
  -5   8   9    1.90    3.80
   5  -8  -8    5.50    2.80
  -5   8   8    8.80    4.00
   5  -8  -7    1.60    1.80
   5  -8  -6    0.20    1.60
  -5   8   6    1.20    3.20
   5  -8  -5    4.10    1.60
  -5   8   5    3.10    2.40
   5  -8  -4    2.20    1.70
  -5   8   4    1.80    1.80
   5  -8  -3   33.80    2.80
  -5   8   3   44.40    3.20
   5  -8  -2   29.80    2.10
  -5   8   2   32.70    2.70
   5  -8  -1    2.50    1.40
  -5   8   1    1.90    1.80
   5  -8   0    2.00    1.90
  -5   8   0    0.90    2.10
   5  -8   1   16.90    2.40
  -5   8  -1   18.20    2.80
   5  -8   2   24.20    2.90
  -5   8  -2   23.70    3.00
   5  -8   3    9.50    2.40
  -5   8  -3    3.70    2.10
   5  -8   4   23.30    3.00
  -5   8  -4   18.60    2.80
   5  -8   5    1.60    2.70
  -5   8  -5    0.20    2.30
   5  -8   6   79.10    5.10
  -5   8  -6   70.80    5.20
   5  -8   7  101.20    6.40
  -5   8  -7   73.90    8.20
   5  -8   8   14.60    3.20
  -5   8  -8   13.80    6.40
   5  -8   9    4.70    2.60
  -5   8  -9  -16.20    6.10
   5  -8  10    5.10    2.80
  -5   8 -10    9.00    5.30
   5  -8  11    6.10    2.90
  -5   8 -11   -2.30    4.60
   5  -7 -13    9.40    2.90
  -5   7  13    8.00    5.00
   5  -7 -12    1.90    2.90
  -5   7  12    5.60    5.90
   5  -7 -11    0.80    2.70
  -5   7  11    8.80    5.80
   5  -7 -10    1.30    2.50
  -5   7  10    4.30    3.80
   5  -7  -9   54.30    3.90
  -5   7   9   54.90    6.60
   5  -7  -8   -1.90    1.50
  -5   7   8    1.20    2.90
   5  -7  -7    2.20    1.80
  -5   7   7   -4.20    3.80
   5  -7  -6    4.30    1.60
  -5   7   6    7.40    2.10
   5  -7  -5    0.80    1.30
  -5   7   5    1.00    1.50
   5  -7  -4    1.00    1.40
  -5   7   4   -0.20    1.40
   5  -7  -3  129.90    4.40
  -5   7   3  140.00    5.30
   5  -7  -2   42.60    2.80
  -5   7   2   43.80    3.40
   5  -7  -1   14.70    1.70
  -5   7   1   15.00    1.80
   5  -7   0   41.10    2.20
  -5   7   0   46.40    3.10
   5  -7   1   20.70    1.70
  -5   7  -1   20.20    1.90
   5  -7   2   22.00    2.70
  -5   7  -2   24.80    2.10
   5  -7   3    2.70    1.80
  -5   7  -3    1.20    1.70
   5  -7   4   21.60    3.40
  -5   7  -4   14.70    2.40
   5  -7   5   37.00    4.40
  -5   7  -5   34.40    3.50
   5  -7   6   24.80    4.40
  -5   7  -6   19.20    2.90
   5  -7   7   17.80    3.70
  -5   7  -7   14.70    5.40
   5  -7   8   24.80    4.30
  -5   7  -8   18.40    5.30
   5  -7   9   14.20    3.80
  -5   7  -9   16.20    4.80
   5  -7  10   15.00    3.90
  -5   7 -10    4.40    4.40
   5  -7  11   -1.80    3.20
  -5   7 -11   -1.10    4.00
   5  -7  12   -2.40    3.90
  -5   7 -12    3.50    2.80
   5  -7  13   31.60    7.60
   5  -6 -14    3.20    3.20
  -5   6  14    1.60    4.10
   5  -6 -13    2.30    2.20
  -5   6  13    5.70    4.40
   5  -6 -12   23.90    3.00
  -5   6  12   23.30    5.20
   5  -6 -11    3.00    2.30
  -5   6  11    5.80    3.90
   5  -6 -10    5.20    1.90
  -5   6  10    5.30    3.40
   5  -6  -9   22.60    2.30
  -5   6   9   26.10    4.20
   5  -6  -8   28.60    2.30
  -5   6   8   31.90    5.00
   5  -6  -7   85.80    4.10
  -5   6   7   82.70    4.60
   5  -6  -6   62.00    2.80
  -5   6   6   59.70    3.90
   5  -6  -5   23.90    2.20
  -5   6   5   25.00    2.40
   5  -6  -4    0.40    1.30
  -5   6   4    0.90    1.40
   5  -6  -3    9.50    1.30
  -5   6   3    8.70    1.30
   5  -6  -2    4.50    1.30
  -5   6   2    4.70    1.40
   5  -6  -1    2.30    1.00
  -5   6   1    3.60    1.10
   5  -6   0   92.10    3.10
  -5   6   0   95.60    3.60
   5  -6   1   -3.60    1.80
  -5   6  -1   -2.00    1.40
   5  -6   2   11.30    1.30
  -5   6  -2   13.70    2.10
   5  -6   3   16.70    1.40
  -5   6  -3   22.40    1.60
   5  -6   4   12.30    1.20
  -5   6  -4   15.10    1.50
   5  -6   5    2.10    2.20
  -5   6  -5    3.80    2.00
   5  -6   6   10.20    3.80
  -5   6  -6    7.00    1.90
   5  -6   7    9.30    3.10
  -5   6  -7   11.20    3.50
   5  -6   8    2.40    2.60
  -5   6  -8   -0.70    1.90
   5  -6   9   22.40    4.20
  -5   6  -9   17.60    2.80
   5  -6  10   -0.90    3.10
  -5   6 -10   -1.20    2.50
   5  -6  11  102.30   10.10
  -5   6 -11   81.10    6.10
   5  -6  12    7.70    3.90
  -5   6 -12   -3.10    3.50
   5  -6  13    3.80    5.30
  -5   6 -13    2.60    2.80
   5  -6  14   -1.80    4.20
  -5   6 -14    8.20    3.40
   5  -5 -15    8.50    2.80
  -5   5  15   -2.90    4.40
   5  -5 -14   36.50    4.40
  -5   5  14   47.20    6.60
   5  -5 -13   45.30    4.50
  -5   5  13   47.50    6.60
   5  -5 -12   -1.30    1.70
  -5   5  12    2.20    3.20
   5  -5 -11    1.70    1.80
  -5   5  11    1.80    3.00
   5  -5 -10    1.80    1.70
  -5   5  10    2.40    2.70
   5  -5  -9   22.70    1.90
  -5   5   9   24.00    2.50
   5  -5  -8    7.90    1.50
  -5   5   8    7.90    1.80
   5  -5  -7   -1.70    1.40
  -5   5   7    3.10    1.70
   5  -5  -6   -0.50    1.10
  -5   5   6    0.20    1.30
   5  -5  -5   13.60    1.40
  -5   5   5   12.00    2.00
   5  -5  -4   19.30    1.60
  -5   5   4   17.80    2.00
   5  -5  -3   15.10    1.50
  -5   5   3   17.40    1.50
   5  -5  -2   16.20    1.40
  -5   5   2   23.10    1.80
   5  -5  -1   19.10    1.60
  -5   5   1   22.90    1.70
   5  -5   0    0.90    1.00
  -5   5   0    0.40    1.00
   5  -5   1    4.70    1.00
  -5   5  -1    3.60    1.20
   5  -5   2  117.10    4.00
  -5   5  -2  122.90    3.90
   5  -5   3   45.00    2.10
  -5   5  -3   44.30    2.20
   5  -5   4    2.40    0.90
  -5   5  -4    1.70    0.80
   5  -5   5   76.90    3.60
  -5   5  -5   73.00    3.00
   5  -5   6   38.50    1.90
  -5   5  -6   39.50    2.10
   5  -5   7    6.00    3.40
  -5   5  -7    9.80    2.40
   5  -5   8   91.30    7.50
  -5   5  -8   79.00    4.40
   5  -5   9   29.80    4.60
  -5   5  -9   21.70    2.70
   5  -5  10    0.60    2.80
  -5   5 -10   -1.40    1.90
   5  -5  11   -2.10    2.80
  -5   5 -11    1.90    3.00
   5  -5  12    8.20    4.90
  -5   5 -12    6.00    2.50
   5  -5  13    3.90    3.80
  -5   5 -13   -1.80    2.50
   5  -5  14   12.30    6.20
  -5   5 -14   10.80    3.80
   5  -5  15    9.40    4.70
  -5   5 -15   10.50    4.40
   5  -4 -16    3.90    3.00
  -5   4  16    1.50    4.80
   5  -4 -15   -0.40    3.10
  -5   4  15   -4.70    5.60
   5  -4 -14   24.30    3.90
  -5   4  14   16.80    5.00
   5  -4 -13    4.20    2.50
  -5   4  13   14.80    4.20
   5  -4 -12   25.90    2.40
  -5   4  12   22.20    4.40
   5  -4 -11    2.10    1.60
  -5   4  11    3.30    2.70
   5  -4 -10   -0.90    1.60
  -5   4  10    2.50    1.80
   5  -4  -9    9.90    1.40
  -5   4   9    8.80    1.50
   5  -4  -8   67.10    3.20
  -5   4   8   74.30    4.00
   5  -4  -7    2.60    1.30
  -5   4   7    5.20    1.60
   5  -4  -6    8.00    1.30
  -5   4   6    6.80    1.60
   5  -4  -5   44.50    2.00
  -5   4   5   39.40    2.70
   5  -4  -4  214.90    5.40
  -5   4   4  214.80    8.00
   5  -4  -3    1.20    1.20
  -5   4   3    2.90    1.40
   5  -4  -2   11.60    1.40
  -5   4   2   15.50    1.50
   5  -4  -1  121.50    4.00
  -5   4   1  134.00    4.00
   5  -4   0   -1.00    0.90
  -5   4   0    0.80    0.90
   5  -4   1   16.50    1.50
  -5   4  -1   16.00    1.30
   5  -4   2    4.00    0.90
  -5   4  -2    6.30    1.00
   5  -4   3   44.10    2.20
  -5   4  -3   47.70    2.10
   5  -4   4    7.00    1.10
  -5   4  -4    8.50    1.00
   5  -4   5   64.50    2.80
  -5   4  -5   71.20    2.40
   5  -4   6   41.60    2.30
  -5   4  -6   42.80    2.20
   5  -4   7    1.00    0.80
  -5   4  -7    0.90    0.90
   5  -4   8   23.60    1.60
  -5   4  -8   24.00    1.70
   5  -4   9   25.20    5.00
  -5   4  -9   19.60    2.50
   5  -4  10   32.60    5.70
  -5   4 -10   23.10    3.20
   5  -4  11    2.50    2.90
  -5   4 -11    2.80    2.20
   5  -4  12   48.20    6.60
  -5   4 -12   47.70    4.40
   5  -4  13    3.80    3.80
  -5   4 -13    5.40    2.50
   5  -4  14    5.70    3.80
  -5   4 -14    3.90    2.60
   5  -4  15   -0.30    3.80
  -5   4 -15   -5.00    2.40
   5  -3 -16    4.20    2.50
  -5   3  16    8.30    2.90
   5  -3 -15    0.30    2.40
  -5   3  15   -2.00    2.70
   5  -3 -14    4.10    4.90
  -5   3  14    0.90    2.20
   5  -3 -13    6.90    2.50
  -5   3  13    6.20    2.40
   5  -3 -12   -1.00    1.40
  -5   3  12   -1.70    1.80
   5  -3 -11    1.90    2.20
  -5   3  11    1.90    2.20
   5  -3 -10  129.30    4.00
  -5   3  10  138.90    6.20
   5  -3  -9    1.70    1.20
  -5   3   9    3.20    1.50
   5  -3  -8   81.00    3.00
  -5   3   8   81.40    4.20
   5  -3  -7   20.00    1.50
  -5   3   7   22.50    1.70
   5  -3  -6   29.80    1.80
  -5   3   6   28.80    1.90
   5  -3  -5    7.10    1.30
  -5   3   5    5.40    1.50
   5  -3  -4   36.90    2.10
  -5   3   4   42.70    2.50
   5  -3  -3    0.90    0.90
  -5   3   3   -0.80    1.20
   5  -3  -2   64.30    2.30
  -5   3   2   75.30    2.80
   5  -3  -1   28.60    1.50
  -5   3   1   29.50    1.70
   5  -3   0   38.90    1.60
  -5   3   0   42.30    2.00
   5  -3   1   45.70    1.80
  -5   3  -1   48.80    2.10
   5  -3   2   88.10    2.80
  -5   3  -2   89.00    3.20
   5  -3   3    1.00    0.40
  -5   3  -3    1.10    0.60
   5  -3   4   39.00    2.00
  -5   3  -4   35.40    1.60
   5  -3   5    2.00    0.90
  -5   3  -5    1.90    0.90
   5  -3   6   92.40    4.50
  -5   3  -6   90.80    3.40
   5  -3   7    6.00    1.50
  -5   3  -7    5.60    1.20
   5  -3   8   62.30    3.50
  -5   3  -8   60.80    2.70
   5  -3   9   -0.50    1.50
  -5   3  -9    0.00    1.10
   5  -3  10   41.20    3.10
  -5   3 -10   45.60    2.50
   5  -3  11   -4.50    2.90
  -5   3 -11   -1.20    1.90
   5  -3  12  157.70   12.10
  -5   3 -12  142.80    7.60
   5  -3  13   -6.70    4.70
  -5   3 -13    2.60    2.20
   5  -3  14    4.80    3.70
  -5   3 -14    7.90    3.10
   5  -3  15   23.70    6.00
  -5   3 -15   12.30    3.10
   5  -3  16   21.40    5.90
  -5   3 -16   20.70    4.10
   5  -2 -17    4.20    3.00
  -5   2  17    7.50    3.10
   5  -2 -16   -3.10    2.50
  -5   2  16    4.80    2.70
   5  -2 -15    4.20    2.40
  -5   2  15    2.10    2.70
   5  -2 -14   11.10    2.50
  -5   2  14   10.20    3.20
   5  -2 -13   21.20    3.40
  -5   2  13   30.80    3.50
   5  -2 -12   69.40    4.50
  -5   2  12   69.90    4.40
   5  -2 -11   24.00    2.10
  -5   2  11   22.40    2.80
   5  -2 -10   22.70    1.60
  -5   2  10   23.90    2.40
   5  -2  -9   19.60    1.70
  -5   2   9   22.00    2.50
   5  -2  -8    7.90    1.60
  -5   2   8   10.70    2.00
   5  -2  -7    0.50    1.20
  -5   2   7   -0.90    1.30
   5  -2  -6    0.80    1.00
  -5   2   6    1.70    1.30
   5  -2  -5   22.40    2.20
  -5   2   5   23.80    2.50
   5  -2  -4  167.90    4.70
  -5   2   4  153.50    6.10
   5  -2  -3   17.10    1.20
  -5   2   3   20.70    1.50
   5  -2  -2    0.10    0.60
  -5   2   2    1.90    0.90
   5  -2  -1   44.00    1.60
  -5   2   1   47.20    2.00
   5  -2   0   14.60    0.90
  -5   2   0   15.00    1.20
   5  -2   1   91.20    2.50
  -5   2  -1   90.90    3.00
   5  -2   2    1.50    0.40
  -5   2  -2    0.50    0.80
   5  -2   3   62.20    3.40
  -5   2  -3   64.30    2.00
   5  -2   4    4.10    1.30
  -5   2  -4    2.90    0.90
   5  -2   5   18.40    1.70
  -5   2  -5   13.50    1.30
   5  -2   6  154.20    6.10
  -5   2  -6  142.20    4.60
   5  -2   7   99.80    4.70
  -5   2  -7  101.50    3.60
   5  -2   8   21.70    2.50
  -5   2  -8   17.30    1.60
   5  -2   9   14.80    2.30
  -5   2  -9   13.90    1.70
   5  -2  10    1.70    1.50
  -5   2 -10   -0.50    1.40
   5  -2  11    1.40    1.40
  -5   2 -11    2.40    1.30
   5  -2  12    8.20    2.30
  -5   2 -12   10.70    1.90
   5  -2  13   10.30    4.00
  -5   2 -13   10.60    3.20
   5  -2  14   15.20    5.00
  -5   2 -14   17.60    3.40
   5  -2  15   22.80    5.80
  -5   2 -15   29.80    3.40
   5  -2  16   10.60    5.60
  -5   2 -16    5.50    2.60
   5  -1 -17    8.00    2.90
  -5   1  17    9.50    3.70
   5  -1 -16   33.60    3.60
  -5   1  16   42.50    5.80
   5  -1 -15    0.00    2.20
  -5   1  15   -0.80    2.30
   5  -1 -14   17.30    2.60
  -5   1  14   24.80    3.40
   5  -1 -13   77.00    4.10
  -5   1  13   85.90    5.20
   5  -1 -12    3.00    2.10
  -5   1  12    0.90    2.00
   5  -1 -11    4.20    2.00
  -5   1  11    4.40    2.00
   5  -1 -10   -0.30    1.10
  -5   1  10   -1.50    1.50
   5  -1  -9   19.80    1.40
  -5   1   9   27.80    2.40
   5  -1  -8    9.00    1.20
  -5   1   8    9.60    1.60
   5  -1  -7    1.90    1.20
  -5   1   7    0.30    1.30
   5  -1  -6   24.40    1.90
  -5   1   6   26.00    2.20
   5  -1  -5   45.50    1.80
  -5   1   5   46.60    2.90
   5  -1  -4   22.90    1.20
  -5   1   4   20.40    1.60
   5  -1  -3  244.80    7.00
  -5   1   3  248.70    8.10
   5  -1  -2   54.40    2.00
  -5   1   2   54.10    2.20
   5  -1  -1   16.10    1.20
  -5   1   1   15.00    1.00
   5  -1   0   42.80    1.70
  -5   1   0   43.40    1.90
   5  -1   1   25.40    1.80
  -5   1  -1   29.30    1.20
   5  -1   2  222.20    7.40
  -5   1  -2  240.40    6.10
   5  -1   3    3.80    1.20
  -5   1  -3    2.90    0.80
   5  -1   4    2.40    1.40
  -5   1  -4    6.60    1.10
   5  -1   5  125.60    5.30
  -5   1  -5  113.00    3.60
   5  -1   6    2.10    2.00
  -5   1  -6   -1.00    1.00
   5  -1   7    0.10    1.60
  -5   1  -7    1.80    1.20
   5  -1   8   10.80    2.00
  -5   1  -8    9.20    1.20
   5  -1   9   -0.30    1.80
  -5   1  -9    0.60    1.20
   5  -1  10    1.30    1.80
  -5   1 -10    0.70    1.20
   5  -1  11   -0.50    1.90
  -5   1 -11   -3.40    1.50
   5  -1  12    6.20    1.90
  -5   1 -12    8.80    1.60
   5  -1  13    8.40    2.50
  -5   1 -13   15.40    1.80
   5  -1  14   18.60    3.30
  -5   1 -14   29.90    2.50
   5  -1  15   12.40    6.40
  -5   1 -15   18.20    2.90
   5  -1  16    6.80    5.00
  -5   1 -16    1.40    2.90
  -5   1 -17   24.30    5.00
   5   0 -17    7.30    2.50
  -5   0  17    3.10    2.80
   5   0 -16    2.60    2.70
  -5   0  16   -1.80    3.60
   5   0 -15    0.60    2.20
  -5   0  15    3.30    2.40
   5   0 -14   -1.30    1.80
  -5   0  14   -0.10    2.10
   5   0 -13    2.50    1.70
  -5   0  13   -3.10    3.80
   5   0 -12   -1.30    1.40
  -5   0  12    3.10    1.90
   5   0 -11   64.30    3.90
  -5   0  11   61.50    3.90
   5   0 -10    0.70    0.80
  -5   0  10   -1.60    1.70
   5   0  -9   36.90    1.60
  -5   0   9   46.00    3.10
   5   0  -8    0.00    0.90
  -5   0   8    0.00    1.30
  -5   0   7  294.10    9.80
   5   0  -6    0.40    1.00
  -5   0   6   -0.50    1.10
   5   0  -5   16.60    1.40
  -5   0   5   16.80    1.70
   5   0  -4    0.90    1.10
  -5   0   4    0.30    1.10
   5   0  -3   23.30    1.40
  -5   0   3   26.00    2.00
   5   0  -2    0.70    0.70
  -5   0   2    0.00    0.60
   5   0  -1    0.70    0.70
  -5   0   1   -0.40    0.50
   5   0   0    0.40    1.10
  -5   0   0   -0.40    0.60
   5   0   1    4.10    1.20
  -5   0  -1    4.80    0.60
   5   0   2    0.50    1.20
  -5   0  -2    0.10    0.70
   5   0   3  219.60    9.00
  -5   0  -3  216.90    6.80
   5   0   4    2.20    1.30
  -5   0  -4    1.90    1.00
   5   0   5   59.10    3.30
  -5   0  -5   50.70    2.20
   5   0   6    0.60    1.40
  -5   0  -6   -0.10    1.00
   5   0   7    8.90    2.10
  -5   0  -7   12.80    1.40
   5   0   8   -1.00    2.00
  -5   0  -8    1.70    1.20
   5   0   9   65.10    4.30
  -5   0  -9   66.10    3.00
   5   0  10    0.80    1.80
  -5   0 -10   -0.60    1.30
   5   0  11  352.30   14.30
  -5   0 -11  350.00   10.70
   5   0  12    2.50    2.30
  -5   0 -12    0.60    1.50
   5   0  13    1.10    2.40
  -5   0 -13    1.60    1.60
   5   0  14   -1.20    2.00
  -5   0 -14    1.40    1.60
   5   0  15    0.20    2.30
  -5   0 -15    4.60    1.70
   5   0  16   -1.00    4.50
  -5   0 -16   -0.10    2.90
  -5   0 -17    6.60    3.40
   5   1 -17    7.70    2.80
  -5  -1  17    3.70    2.90
   5   1 -16   33.80    3.60
  -5  -1  16   38.20    4.80
   5   1 -15    2.80    2.10
  -5  -1  15    0.30    2.80
   5   1 -14   26.40    2.80
  -5  -1  14   21.10    3.10
   5   1 -13   82.00    5.30
  -5  -1  13   90.20    8.00
   5   1 -12    2.20    1.70
  -5  -1  12    2.00    2.00
   5   1 -11    3.40    1.50
  -5  -1  11    1.70    1.90
   5   1 -10    1.60    1.00
  -5  -1  10   -1.50    1.50
   5   1  -9   24.40    1.30
  -5  -1   9   27.70    2.40
   5   1  -8    8.70    1.10
  -5  -1   8   12.30    2.00
   5   1  -7    1.90    1.10
  -5  -1   7    2.80    1.30
   5   1  -6   21.80    1.70
  -5  -1   6   26.80    2.00
   5   1  -5   41.90    2.20
  -5  -1   5   41.60    2.60
   5   1  -4   21.00    1.60
  -5  -1   4   18.20    1.60
   5   1  -3  259.80    7.20
  -5  -1   3  241.80    5.90
   5   1  -2   54.30    2.20
  -5  -1   2   51.10    2.60
   5   1  -1   18.00    1.70
  -5  -1   1   17.90    1.50
   5   1   0   44.80    2.70
  -5  -1   0   39.40    1.60
   5   1   1   24.30    2.10
  -5  -1  -1   30.90    1.40
   5   1   2  223.60    9.40
  -5  -1  -2  216.30    6.20
   5   1   3    1.70    1.30
  -5  -1  -3    4.80    1.00
   5   1   4    5.60    2.00
  -5  -1  -4    3.00    1.10
   5   1   5  115.90    4.70
  -5  -1  -5  113.70    3.80
   5   1   6    1.20    1.60
  -5  -1  -6   -1.50    1.00
   5   1   7    2.70    2.10
  -5  -1  -7    0.20    1.30
   5   1   8   10.20    2.50
  -5  -1  -8    7.90    1.50
   5   1   9    1.00    2.00
  -5  -1  -9    2.00    1.40
   5   1  10    0.10    1.90
  -5  -1 -10   -1.90    1.30
   5   1  11    0.70    2.50
  -5  -1 -11   -1.10    1.20
   5   1  12    3.20    2.00
  -5  -1 -12    6.30    1.50
   5   1  13   17.00    3.40
  -5  -1 -13   15.90    2.00
   5   1  14   19.70    3.60
  -5  -1 -14   25.70    2.50
   5   1  15   19.30    3.50
  -5  -1 -15   16.90    2.20
   5   1  16   -0.90    3.20
  -5  -1 -16   -1.70    2.20
  -5  -1 -17    6.10    5.40
   5   2 -17    6.70    2.80
  -5  -2  17    2.10    3.60
   5   2 -16    3.10    2.50
  -5  -2  16    2.70    2.70
   5   2 -15    2.30    1.90
  -5  -2  15    0.80    2.60
   5   2 -14   16.30    2.10
  -5  -2  14   16.40    3.30
   5   2 -13   22.00    2.40
  -5  -2  13   22.60    3.10
   5   2 -12   77.60    3.80
  -5  -2  12   75.90    4.80
   5   2 -11   21.40    1.70
  -5  -2  11   22.50    2.60
   5   2 -10   25.90    2.00
  -5  -2  10   30.80    2.80
   5   2  -9   21.40    1.40
  -5  -2   9   27.00    2.60
   5   2  -8   11.70    1.00
  -5  -2   8   16.80    2.50
   5   2  -7   -1.60    1.20
  -5  -2   7    1.40    1.80
   5   2  -6   -2.60    1.30
  -5  -2   6    0.60    1.30
   5   2  -5   26.80    1.80
  -5  -2   5   27.60    1.40
   5   2  -4  168.20    5.30
  -5  -2   4  179.50    4.70
   5   2  -3   19.50    1.60
  -5  -2   3   16.90    1.80
   5   2  -2    0.90    1.20
  -5  -2   2    4.50    1.20
   5   2  -1   47.50    2.20
  -5  -2   1   46.90    2.40
   5   2   0   15.60    1.30
  -5  -2   0   14.10    1.00
   5   2   1   94.50    3.80
  -5  -2  -1   97.30    3.40
   5   2   2    2.20    1.00
  -5  -2  -2    0.40    0.60
   5   2   3   71.10    3.10
  -5  -2  -3   77.30    2.40
   5   2   4    2.40    1.50
  -5  -2  -4    3.40    0.30
   5   2   5   14.50    1.90
  -5  -2  -5   14.60    1.30
   5   2   6  152.00    6.00
  -5  -2  -6  149.30    4.10
   5   2   7  120.80    5.50
  -5  -2  -7  108.60    3.30
   5   2   8   25.20    2.80
  -5  -2  -8   23.40    1.70
   5   2   9   16.30    2.50
  -5  -2  -9   13.40    1.40
   5   2  10    3.40    2.50
  -5  -2 -10    1.40    1.10
   5   2  11    1.50    1.90
  -5  -2 -11    3.70    1.30
   5   2  12    6.70    2.80
  -5  -2 -12    7.90    1.40
   5   2  13   16.30    3.30
  -5  -2 -13   12.60    1.70
   5   2  14   13.00    3.10
  -5  -2 -14   15.00    2.20
   5   2  15   28.30    3.90
  -5  -2 -15   34.80    3.00
   5   2  16    8.20    3.30
  -5  -2 -16    4.70    2.60
   5   3 -16    6.40    2.30
  -5  -3  16    2.70    2.70
   5   3 -15    1.50    2.30
  -5  -3  15    1.60    2.50
   5   3 -14    1.30    2.50
  -5  -3  14   -2.70    2.70
   5   3 -13    7.90    1.90
  -5  -3  13   12.50    2.80
   5   3 -12    0.50    1.40
  -5  -3  12   -0.60    2.00
   5   3 -11    4.10    1.20
  -5  -3  11    5.20    2.30
   5   3 -10  135.30    4.40
  -5  -3  10  155.90    6.40
   5   3  -9    1.00    1.20
  -5  -3   9    2.50    2.30
   5   3  -8   81.00    2.60
  -5  -3   8   86.70    4.30
   5   3  -7   23.60    1.30
  -5  -3   7   26.10    2.50
   5   3  -6   30.90    1.90
  -5  -3   6   25.20    2.20
   5   3  -5    7.60    1.20
  -5  -3   5    8.60    1.50
   5   3  -4   43.50    2.30
  -5  -3   4   42.60    2.60
   5   3  -3   -2.00    1.10
  -5  -3   3    1.10    1.10
   5   3  -2   73.60    2.70
  -5  -3   2   77.20    3.30
   5   3  -1   28.90    1.60
  -5  -3   1   27.40    1.60
   5   3   0   40.80    2.00
  -5  -3   0   46.50    1.60
   5   3   1   47.40    2.20
  -5  -3  -1   48.40    1.70
   5   3   2   91.30    3.30
  -5  -3  -2   85.80    2.60
   5   3   3    1.30    0.80
  -5  -3  -3    0.30    0.60
   5   3   4   41.20    3.00
  -5  -3  -4   40.80    1.70
   5   3   5   -2.80    1.60
  -5  -3  -5    0.00    0.60
   5   3   6   96.80    4.80
  -5  -3  -6   98.50    3.10
   5   3   7    9.70    2.10
  -5  -3  -7    7.60    1.50
   5   3   8   64.70    4.00
  -5  -3  -8   61.60    3.00
   5   3   9    1.10    1.70
  -5  -3  -9    0.10    1.10
   5   3  10   50.80    4.30
  -5  -3 -10   43.60    2.40
   5   3  11    1.70    2.00
  -5  -3 -11    0.00    1.20
   5   3  12  152.60    8.30
  -5  -3 -12  153.50    4.90
   5   3  13   -0.70    2.80
  -5  -3 -13   -2.50    1.30
   5   3  14    6.10    3.30
  -5  -3 -14    7.60    2.50
   5   3  15    9.40    3.40
  -5  -3 -15    4.60    2.20
   5   3  16   20.60    4.20
  -5  -3 -16   14.20    2.80
   5   4 -16   -1.30    3.10
  -5  -4  16    2.60    3.30
   5   4 -15    1.90    2.00
  -5  -4  15    3.50    3.10
   5   4 -14   29.20    3.00
  -5  -4  14   30.90    3.90
   5   4 -13    3.60    1.80
  -5  -4  13    5.60    2.40
   5   4 -12   23.40    1.90
  -5  -4  12   31.80    3.10
   5   4 -11    2.50    1.30
  -5  -4  11    2.30    2.20
   5   4 -10    2.10    1.10
  -5  -4  10    4.70    2.10
   5   4  -9    8.00    1.30
  -5  -4   9   11.00    2.30
   5   4  -8   71.00    2.70
  -5  -4   8   76.40    3.80
   5   4  -7    4.00    1.00
  -5  -4   7    5.40    1.60
   5   4  -6    7.90    1.10
  -5  -4   6    8.80    1.70
   5   4  -5   40.80    1.90
  -5  -4   5   47.40    2.80
   5   4  -4  239.90    8.50
  -5  -4   4  261.80    9.00
   5   4  -3    7.00    1.60
  -5  -4   3    3.50    1.30
   5   4  -2   14.50    1.80
  -5  -4   2   13.90    1.60
   5   4  -1  136.10    5.80
  -5  -4   1  146.20    3.80
   5   4   0   -0.10    1.40
  -5  -4   0    0.70    0.60
   5   4   1   15.10    1.70
  -5  -4  -1   17.10    1.20
   5   4   2   10.60    2.40
  -5  -4  -2    5.50    1.00
   5   4   3   52.80    3.10
  -5  -4  -3   54.40    3.10
   5   4   4    7.70    1.80
  -5  -4  -4   10.60    1.30
   5   4   5   69.90    4.00
  -5  -4  -5   78.20    3.00
   5   4   6   49.10    3.20
  -5  -4  -6   47.40    2.10
   5   4   7    2.40    1.60
  -5  -4  -7    0.10    1.20
   5   4   8   22.10    2.60
  -5  -4  -8   22.50    2.10
   5   4   9   20.70    2.90
  -5  -4  -9   14.50    1.90
   5   4  10   23.00    3.20
  -5  -4 -10   29.30    2.30
   5   4  11    2.40    2.50
  -5  -4 -11    2.20    2.10
   5   4  12   38.20    4.30
  -5  -4 -12   41.30    2.60
   5   4  13    1.40    3.00
  -5  -4 -13   -0.70    1.90
   5   4  14    2.30    2.70
  -5  -4 -14    6.50    2.30
   5   4  15    2.20    3.40
  -5  -4 -15   -0.50    3.90
   5   5 -15   16.40    3.40
  -5  -5  15    9.90    3.10
   5   5 -14   48.30    4.70
  -5  -5  14   49.70    4.80
   5   5 -13   58.70    4.40
  -5  -5  13   65.10    5.20
   5   5 -12    2.30    1.60
  -5  -5  12   -0.80    2.20
   5   5 -11    0.40    1.20
  -5  -5  11    0.20    1.70
   5   5 -10    3.50    1.20
  -5  -5  10    1.00    1.90
   5   5  -9   22.10    1.70
  -5  -5   9   28.40    2.90
   5   5  -8    9.20    1.30
  -5  -5   8   13.90    2.30
   5   5  -7   -0.10    0.80
  -5  -5   7   -0.30    1.40
   5   5  -6    0.70    0.60
  -5  -5   6    0.70    1.70
   5   5  -5   13.10    1.00
  -5  -5   5   14.70    2.10
   5   5  -4   22.10    2.20
  -5  -5   4   21.30    1.80
   5   5  -3   18.00    2.00
  -5  -5   3   17.70    1.60
   5   5  -2   22.70    2.10
  -5  -5   2   26.20    1.90
   5   5  -1   25.20    2.20
  -5  -5   1   27.00    1.30
   5   5   0    2.00    1.50
  -5  -5   0    0.70    1.00
   5   5   1    5.60    1.50
  -5  -5  -1    3.20    1.20
   5   5   2  127.10    5.50
  -5  -5  -2  126.90    4.60
   5   5   3   48.50    3.10
  -5  -5  -3   59.50    2.90
   5   5   4    3.60    1.70
  -5  -5  -4    2.30    1.10
   5   5   5   81.20    4.40
  -5  -5  -5   81.40    3.70
   5   5   6   40.40    3.40
  -5  -5  -6   43.60    2.70
   5   5   7    4.90    2.10
  -5  -5  -7    7.00    1.50
   5   5   8   87.80    5.30
  -5  -5  -8   77.80    3.80
   5   5   9   27.80    3.10
  -5  -5  -9   25.50    2.30
   5   5  10    5.70    2.30
  -5  -5 -10    1.00    1.50
   5   5  11    2.00    2.30
  -5  -5 -11    1.30    1.60
   5   5  12    0.30    2.40
  -5  -5 -12    1.30    2.50
   5   5  13    3.30    3.70
  -5  -5 -13    8.50    3.50
   5   5  14   11.50    3.60
  -5  -5 -14    7.10    3.30
   5   5  15    4.20    4.00
  -5  -5 -15    3.30    6.10
   5   6 -14   -0.20    3.20
  -5  -6  14    1.50    4.00
   5   6 -13   -0.40    1.90
  -5  -6  13    3.80    3.70
   5   6 -12   28.30    2.60
  -5  -6  12   35.60    3.70
   5   6 -11    4.10    1.90
  -5  -6  11    0.90    2.00
   5   6 -10   13.00    2.10
  -5  -6  10    5.10    2.90
   5   6  -9   26.70    2.70
  -5  -6   9   33.00    3.40
   5   6  -8   35.90    2.50
  -5  -6   8   35.30    3.10
   5   6  -7  102.10    4.30
  -5  -6   7   99.00    5.10
   5   6  -6   69.40    3.40
  -5  -6   6   79.90    4.60
   5   6  -5   28.40    1.80
  -5  -6   5   34.50    2.50
   5   6  -4    1.20    1.30
  -5  -6   4   -0.30    1.20
   5   6  -3    7.40    1.40
  -5  -6   3   11.50    1.70
   5   6  -2    3.50    1.30
  -5  -6   2    5.00    1.60
   5   6  -1    5.20    1.50
  -5  -6   1    5.90    2.20
   5   6   0  103.50    5.00
  -5  -6   0  111.50    4.40
   5   6   1    0.00    1.40
  -5  -6  -1   -0.10    1.20
   5   6   2   16.40    2.30
  -5  -6  -2   18.60    2.00
   5   6   3   26.20    2.40
  -5  -6  -3   28.20    2.20
   5   6   4   17.20    2.50
  -5  -6  -4   15.60    1.80
   5   6   5    4.40    1.80
  -5  -6  -5    2.30    1.40
   5   6   6   11.90    2.30
  -5  -6  -6    7.10    1.60
   5   6   7   12.60    2.70
  -5  -6  -7    9.60    1.80
   5   6   8   -0.20    1.70
  -5  -6  -8    0.80    1.30
   5   6   9   21.10    3.20
  -5  -6  -9   19.50    2.30
   5   6  10    1.80    2.30
  -5  -6 -10   -2.20    1.80
   5   6  11   89.20    6.40
  -5  -6 -11   70.40    5.90
   5   6  12   -2.20    3.00
  -5  -6 -12   -0.90    2.40
   5   6  13    4.40    3.20
  -5  -6 -13    2.10    3.20
   5   6  14   -2.10    4.20
  -5  -6 -14    7.90    3.80
   5   7 -13    8.80    5.30
  -5  -7  13    5.10    4.10
   5   7 -12    1.50    1.70
  -5  -7  12    3.50    2.30
   5   7 -11    0.90    1.90
  -5  -7  11    2.70    2.20
   5   7 -10    5.80    2.00
  -5  -7  10    6.60    2.90
   5   7  -9   69.40    3.80
  -5  -7   9   74.80    5.00
   5   7  -8    0.80    1.70
  -5  -7   8    0.60    1.70
   5   7  -7    1.60    1.60
  -5  -7   7    2.30    2.60
   5   7  -6    8.30    1.70
  -5  -7   6    7.10    1.60
   5   7  -5   -1.50    1.30
  -5  -7   5    0.40    1.30
   5   7  -4    0.70    1.20
  -5  -7   4    0.80    1.30
   5   7  -3  152.60    5.50
  -5  -7   3  168.20    6.00
   5   7  -2   36.80    2.40
  -5  -7   2   47.80    2.90
   5   7  -1   15.60    1.90
  -5  -7   1   19.10    2.20
   5   7   0   43.60    3.00
  -5  -7   0   54.90    3.10
   5   7   1   18.90    2.00
  -5  -7  -1   22.40    2.40
   5   7   2   21.30    2.30
  -5  -7  -2   24.60    2.50
   5   7   3    1.80    1.40
  -5  -7  -3    3.30    1.50
   5   7   4   16.50    2.30
  -5  -7  -4   22.60    2.10
   5   7   5   37.10    3.20
  -5  -7  -5   38.60    3.10
   5   7   6   25.10    3.20
  -5  -7  -6   20.60    3.40
   5   7   7   21.00    3.10
  -5  -7  -7   17.00    2.30
   5   7   8   24.70    2.80
  -5  -7  -8   23.40    2.60
   5   7   9   22.80    3.70
  -5  -7  -9   13.60    3.50
   5   7  10   13.10    2.90
  -5  -7 -10   13.00    2.90
   5   7  11    9.80    6.30
  -5  -7 -11    5.60    3.90
   5   7  12   -2.20    4.30
  -5  -7 -12   -0.50    2.70
   5   7  13   19.80    6.00
  -5  -7 -13   33.50    4.70
  -5  -8  12   25.70    6.10
   5   8 -11    8.40    5.60
  -5  -8  11   18.70    6.50
   5   8 -10   54.30    3.90
  -5  -8  10   59.70    5.10
   5   8  -9    9.60    1.90
  -5  -8   9    6.90    2.40
   5   8  -8    9.60    2.00
  -5  -8   8   11.50    2.60
   5   8  -7    0.50    1.70
  -5  -8   7   -1.00    2.70
   5   8  -6   -0.80    1.40
  -5  -8   6    1.40    1.80
   5   8  -5    4.50    1.50
  -5  -8   5    1.50    1.60
   5   8  -4    5.00    2.30
  -5  -8   4    3.00    1.60
   5   8  -3   43.30    3.70
  -5  -8   3   50.60    3.40
   5   8  -2   29.30    3.20
  -5  -8   2   26.10    2.60
   5   8  -1    3.10    2.10
  -5  -8   1    2.40    1.60
   5   8   0    1.70    2.30
  -5  -8   0    2.40    2.00
   5   8   1   25.50    3.00
  -5  -8  -1   19.70    2.40
   5   8   2   30.80    5.20
  -5  -8  -2   25.30    2.70
   5   8   3    3.60    2.90
  -5  -8  -3    4.50    1.80
   5   8   4   11.60    4.10
  -5  -8  -4   14.40    2.00
   5   8   5    2.00    3.20
  -5  -8  -5   -1.40    1.80
   5   8   6   92.10    8.20
  -5  -8  -6   72.90    4.60
   5   8   7  111.00   10.00
  -5  -8  -7   84.20    6.20
   5   8   8   21.50    6.30
  -5  -8  -8   15.70    4.20
   5   8   9    3.70    4.40
  -5  -8  -9    2.40    3.20
   5   8  10    1.00    4.20
  -5  -8 -10    8.50    3.60
   5   8  11    3.40    4.60
  -5  -8 -11    8.90    3.40
   5   9 -10    7.10    4.80
  -5  -9  10   -3.70    5.60
  -5  -9   9   17.60    5.50
   5   9  -8   -2.30    4.10
  -5  -9   8    6.60    4.20
   5   9  -7   61.00    4.30
  -5  -9   7   62.60    4.10
   5   9  -6   -1.20    2.00
  -5  -9   6    0.80    2.60
   5   9  -5    9.70    2.20
  -5  -9   5   15.20    2.50
   5   9  -4   10.10    3.30
  -5  -9   4    9.90    2.40
   5   9  -3    8.10    2.60
  -5  -9   3    6.10    2.20
   5   9  -2   24.40    3.60
  -5  -9   2   26.00    2.90
   5   9  -1   43.20    4.40
  -5  -9   1   39.80    3.20
   5   9   0   40.10    4.30
  -5  -9   0   43.20    3.40
   5   9   1   95.30    5.80
  -5  -9  -1  107.00    5.40
   5   9   2    3.00    2.90
  -5  -9  -2    3.50    1.90
   5   9   3   10.70    3.30
  -5  -9  -3    5.10    1.90
   5   9   4    7.10    3.10
  -5  -9  -4    5.30    2.40
   5   9   5    0.50    3.00
  -5  -9  -5    2.60    3.10
   5   9   6    5.00    5.80
  -5  -9  -6   -4.70    2.50
   5   9   7    4.30    4.40
  -5  -9  -7   -0.40    2.30
   5   9   8    0.60    4.30
  -5  -9  -8    6.40    2.70
   5   9   9   -4.30    6.10
  -5  -9  -9   -5.40    3.50
   5  10  -7    3.40    4.80
  -5 -10   7    5.00    3.80
   5  10  -6   22.90    6.00
  -5 -10   6   31.40    4.20
   5  10  -5   -1.80    1.80
  -5 -10   5    0.60    2.20
   5  10  -4   11.70    3.30
  -5 -10   4   14.00    2.60
   5  10  -3    4.80    2.60
  -5 -10   3    4.50    2.10
   5  10  -2    8.70    2.90
  -5 -10   2    6.20    2.20
   5  10  -1   47.30    6.00
  -5 -10   1   48.00    4.10
   5  10   0    7.90    3.80
  -5 -10   0   -1.20    2.50
   5  10   1    4.00    2.90
  -5 -10  -1    0.90    2.20
   5  10   2   10.20    3.70
  -5 -10  -2    8.50    2.60
   5  10   3   -0.20    5.10
  -5 -10  -3    2.30    2.40
   5  10   4    2.50    3.10
  -5 -10  -4    0.80    2.50
   5  10   5   18.30    5.30
  -5 -10  -5   13.60    2.70
   5  10   6    3.10    3.40
  -5 -10  -6   -1.40    2.80
   5  10   7   22.30    4.60
  -5 -10  -7   18.40    6.40
   5  11  -2   32.50    5.00
  -5 -11   2   22.30    3.30
   5  11  -1   17.50    4.50
  -5 -11   1   15.60    2.90
   5  11   0   -2.10    5.30
  -5 -11   0   -0.70    2.60
   5  11   1   -2.70    3.70
  -5 -11  -1    0.80    2.40
   5  11   2  -11.10    5.50
  -5 -11  -2    2.90    4.10
   6  -9  -6    2.50    3.10
  -6   9   6   -0.20    3.70
   6  -9  -5    3.10    3.60
  -6   9   5    4.00    5.60
   6  -9  -4   -3.40    2.60
  -6   9   4    7.00    5.50
   6  -9  -3   -1.30    2.80
  -6   9   3    0.70    3.50
   6  -9  -2   28.70    4.30
  -6   9   2   34.20    6.70
   6  -9  -1   16.40    3.70
  -6   9   1   18.60    3.40
   6  -9   0    2.10    2.50
  -6   9   0    2.70    2.90
   6  -9   1   20.30    3.50
  -6   9  -1   26.40    4.00
   6  -9   2   53.80    5.10
  -6   9  -2   53.90    5.40
   6  -9   3    7.50    4.70
  -6   9  -3   12.80    3.80
   6  -9   4    0.20    4.20
  -6   9  -4    0.10    3.20
   6  -9   5   11.50    5.20
  -6   9  -5   12.20    3.40
   6  -8  -9    7.90    3.20
  -6   8   9   -2.80    6.00
   6  -8  -8    1.10    2.70
  -6   8   8   -0.50    4.00
   6  -8  -7   49.50    3.40
  -6   8   7   50.00    5.60
   6  -8  -6   48.30    3.40
  -6   8   6   59.50    4.80
   6  -8  -5   40.00    3.30
  -6   8   5   36.00    4.10
   6  -8  -4    6.30    2.30
  -6   8   4    1.40    2.70
   6  -8  -3    0.50    1.90
  -6   8   3    3.70    1.70
   6  -8  -2    5.10    3.00
  -6   8   2    8.40    2.80
   6  -8  -1    5.40    5.20
  -6   8   1    4.00    2.40
   6  -8   0   16.60    3.80
  -6   8   0   10.50    2.90
   6  -8   1    2.50    2.40
  -6   8  -1    2.90    2.30
   6  -8   2    1.70    2.50
  -6   8  -2    0.30    3.20
   6  -8   3    6.00    3.10
  -6   8  -3    0.10    2.80
   6  -8   4   32.00    4.10
  -6   8  -4   26.50    4.10
   6  -8   5   -2.00    2.80
  -6   8  -5   -2.00    2.50
   6  -8   6    5.00    2.90
  -6   8  -6    0.10    4.60
   6  -8   7    1.40    2.60
  -6   8  -7    4.50    4.70
   6  -8   8    5.80    2.80
  -6   8  -8   11.40    7.00
   6  -7 -11   -0.20    2.70
  -6   7  11    3.90    6.20
   6  -7 -10    9.60    4.20
  -6   7  10    2.60    6.20
   6  -7  -9   -2.30    3.10
  -6   7   9    4.50    3.90
   6  -7  -8   -1.20    1.80
  -6   7   8    0.00    3.50
   6  -7  -7    1.10    1.70
  -6   7   7   -0.50    3.20
   6  -7  -6    5.20    2.20
  -6   7   6   -0.50    4.30
   6  -7  -5   10.00    2.20
  -6   7   5    9.20    1.80
   6  -7  -4    2.00    1.60
  -6   7   4    0.60    1.70
   6  -7  -3   44.00    2.80
  -6   7   3   50.00    3.10
   6  -7  -2   -1.30    1.40
  -6   7   2    0.20    1.80
   6  -7  -1    5.40    1.50
  -6   7   1    7.00    1.70
   6  -7   0   31.80    3.50
  -6   7   0   31.60    2.60
   6  -7   1    3.00    2.30
  -6   7  -1    3.80    2.30
   6  -7   2   55.90    4.40
  -6   7  -2   58.10    4.60
   6  -7   3   33.60    5.50
  -6   7  -3   23.80    3.50
   6  -7   4   52.60    5.70
  -6   7  -4   54.00    4.80
   6  -7   5   37.00    6.30
  -6   7  -5   26.50    3.80
   6  -7   6    6.60    3.60
  -6   7  -6   21.30    6.90
   6  -7   7    0.20    3.20
  -6   7  -7    1.40    4.30
   6  -7   8    1.10    3.30
  -6   7  -8    1.30    4.40
   6  -7   9    2.60    3.70
  -6   7  -9   -6.40    4.10
   6  -7  10   32.80    5.80
  -6   7 -10   25.40    6.60
   6  -6 -12    7.40    3.50
  -6   6  12    1.40    4.00
   6  -6 -11    3.50    2.40
  -6   6  11    7.70    4.30
   6  -6 -10   43.30    3.50
  -6   6  10   49.10    6.50
   6  -6  -9    0.30    1.70
  -6   6   9    4.10    3.70
   6  -6  -8    0.60    1.60
  -6   6   8   -0.40    3.10
   6  -6  -7    7.50    2.00
  -6   6   7    0.60    4.20
   6  -6  -6    4.30    1.60
  -6   6   6    2.50    2.50
   6  -6  -5    7.50    1.60
  -6   6   5    8.40    1.80
   6  -6  -4    0.00    1.30
  -6   6   4    2.10    1.50
   6  -6  -3    3.60    1.40
  -6   6   3    7.90    1.70
   6  -6  -2   52.80    2.80
  -6   6   2   55.40    3.90
   6  -6  -1   14.00    2.10
  -6   6   1   15.90    2.20
   6  -6   0    2.10    1.10
  -6   6   0    2.10    1.30
   6  -6   1   29.10    2.40
  -6   6  -1   35.90    2.40
   6  -6   2    1.00    1.10
  -6   6  -2    2.50    1.40
   6  -6   3   19.50    3.70
  -6   6  -3   25.30    3.00
   6  -6   4   18.80    4.00
  -6   6  -4   15.30    2.40
   6  -6   5   -1.00    3.00
  -6   6  -5    3.40    1.80
   6  -6   6   29.30    5.50
  -6   6  -6   25.40    4.80
   6  -6   7    3.40    3.30
  -6   6  -7    8.10    4.10
   6  -6   8   67.10    8.10
  -6   6  -8   43.20    6.30
   6  -6   9   39.00    5.90
  -6   6  -9   20.30    5.50
   6  -6  10    5.30    4.20
  -6   6 -10   -1.20    2.50
   6  -6  11    5.90    4.60
  -6   6 -11   -1.60    2.70
   6  -5 -13   10.40    3.40
  -6   5  13    8.60    4.80
   6  -5 -12   -1.90    2.50
  -6   5  12   -0.90    3.90
   6  -5 -11   21.80    5.40
  -6   5  11   26.70    5.30
   6  -5 -10    8.40    1.90
  -6   5  10    7.30    3.80
   6  -5  -9   -3.00    1.90
  -6   5   9   -2.20    2.80
   6  -5  -8   25.10    2.90
  -6   5   8   20.60    2.70
   6  -5  -7   16.70    2.10
  -6   5   7   20.30    2.60
   6  -5  -6   11.70    2.00
  -6   5   6   15.00    2.20
   6  -5  -5   87.80    3.40
  -6   5   5  104.60    4.30
   6  -5  -4   61.90    3.00
  -6   5   4   60.20    3.20
   6  -5  -3    1.70    1.50
  -6   5   3    0.60    1.40
   6  -5  -2    1.50    1.50
  -6   5   2    1.30    1.20
   6  -5  -1   79.80    3.70
  -6   5   1   86.10    3.80
   6  -5   0    9.00    1.90
  -6   5   0   11.20    1.50
   6  -5   1    4.00    1.30
  -6   5  -1    2.40    1.10
   6  -5   2   18.50    1.70
  -6   5  -2   20.30    1.80
   6  -5   3   11.60    1.50
  -6   5  -3   16.50    1.80
   6  -5   4    3.30    1.50
  -6   5  -4    2.70    1.30
   6  -5   5    2.10    3.20
  -6   5  -5   -3.70    3.90
   6  -5   6    5.90    3.40
  -6   5  -6   -0.10    3.90
   6  -5   7   32.70    5.60
  -6   5  -7   33.70    5.10
   6  -5   8   50.80    6.60
  -6   5  -8   41.30    3.90
   6  -5   9   -0.20    5.00
  -6   5  -9    2.30    2.60
   6  -5  10   23.10    6.30
  -6   5 -10    6.20    2.50
   6  -5  11    1.70    4.00
  -6   5 -11  -10.40    4.40
   6  -5  12   43.90    7.50
  -6   5 -12   17.50    3.80
   6  -5  13   24.10    8.20
  -6   5 -13   24.60    5.40
   6  -4 -14    7.30    3.00
  -6   4  14    6.50    4.50
   6  -4 -13    0.10    2.80
  -6   4  13   -3.20    3.60
   6  -4 -12    1.50    2.60
  -6   4  12   -2.20    3.80
   6  -4 -11   35.60    3.20
  -6   4  11   43.90    5.80
   6  -4 -10    4.40    1.80
  -6   4  10    7.10    4.20
   6  -4  -9    1.80    1.60
  -6   4   9    1.10    1.60
   6  -4  -8    3.00    1.30
  -6   4   8    5.90    2.00
   6  -4  -7   39.00    2.30
  -6   4   7   50.90    3.50
   6  -4  -6   13.20    1.60
  -6   4   6   12.10    2.00
   6  -4  -5    5.80    1.50
  -6   4   5    3.90    2.20
   6  -4  -4   59.60    2.70
  -6   4   4   65.90    3.20
   6  -4  -3    0.40    1.10
  -6   4   3   -0.20    1.20
   6  -4  -2    0.20    1.10
  -6   4   2   -0.50    1.00
   6  -4  -1   29.60    2.10
  -6   4   1   35.70    2.20
   6  -4   0   58.90    3.00
  -6   4   0   61.60    2.90
   6  -4   1   -0.60    1.40
  -6   4  -1   -0.50    1.00
   6  -4   2    9.60    2.30
  -6   4  -2    8.80    1.70
   6  -4   3    8.60    1.60
  -6   4  -3    7.30    1.40
   6  -4   4   65.60    3.10
  -6   4  -4   65.10    3.80
   6  -4   5  143.30    4.70
  -6   4  -5  144.50    6.20
   6  -4   6    0.40    1.20
  -6   4  -6    0.30    1.10
   6  -4   7    1.40    2.80
  -6   4  -7    1.10    1.00
   6  -4   8   19.80    4.00
  -6   4  -8   19.10    2.80
   6  -4   9   63.70    6.80
  -6   4  -9   43.30    3.90
   6  -4  10   11.70    4.50
  -6   4 -10   12.80    3.20
   6  -4  11   -2.70    5.20
  -6   4 -11   -0.20    2.50
   6  -4  12    6.60    4.20
  -6   4 -12   -1.20    2.40
   6  -4  13    7.40    6.70
  -6   4 -13   13.50    3.90
  -6   3  15   37.80    7.40
  -6   3  14    7.60    3.40
   6  -3 -13   23.80    3.70
  -6   3  13   28.50    3.70
   6  -3 -12    4.00    2.60
  -6   3  12    2.40    2.30
   6  -3 -11   34.30    4.00
  -6   3  11   34.30    2.70
   6  -3 -10    2.80    1.50
  -6   3  10    1.10    1.80
   6  -3  -9   81.40    4.20
  -6   3   9   97.80    4.20
   6  -3  -8    3.60    1.30
  -6   3   8    5.00    1.50
   6  -3  -7    0.20    1.20
  -6   3   7    2.70    2.20
   6  -3  -6   -1.10    1.00
  -6   3   6   -1.00    1.60
   6  -3  -5    0.10    1.10
  -6   3   5    0.50    1.40
   6  -3  -4   -0.60    1.30
  -6   3   4   -0.80    1.30
   6  -3  -3   27.50    2.00
  -6   3   3   31.10    2.10
   6  -3  -2    9.30    1.60
  -6   3   2   10.40    1.50
   6  -3  -1  209.50    6.90
  -6   3   1  222.00    7.00
   6  -3   0    1.60    1.30
  -6   3   0    1.40    1.20
   6  -3   1    5.00    1.40
  -6   3  -1    8.40    1.40
   6  -3   2   24.60    1.90
  -6   3  -2   22.00    1.60
   6  -3   3  127.40    4.70
  -6   3  -3  133.40    5.60
   6  -3   4   -0.10    1.10
  -6   3  -4    0.10    1.20
   6  -3   5   14.80    1.60
  -6   3  -5   17.80    1.90
   6  -3   6    1.50    1.20
  -6   3  -6   -0.10    1.20
   6  -3   7   -0.40    1.10
  -6   3  -7    1.30    1.40
   6  -3   8   13.10    1.60
  -6   3  -8   15.50    2.00
   6  -3   9  123.10    6.90
  -6   3  -9  117.50    5.10
   6  -3  10    5.60    3.70
  -6   3 -10    4.70    2.50
   6  -3  11    7.10    5.40
  -6   3 -11    1.00    2.20
   6  -3  12    6.40    4.40
  -6   3 -12    1.50    2.80
   6  -3  13   10.90    6.00
  -6   3 -13    8.20    3.10
   6  -3  14   11.70    5.40
  -6   3 -14    4.50    3.00
   6  -2 -15   13.50    3.20
  -6   2  15   11.80    3.80
   6  -2 -14    2.80    2.30
  -6   2  14   -3.80    2.40
   6  -2 -13   -0.30    3.50
  -6   2  13    1.20    2.90
   6  -2 -12   17.20    3.10
  -6   2  12   24.60    3.10
   6  -2 -11   -2.10    2.40
  -6   2  11    2.90    2.00
   6  -2 -10    4.40    2.40
  -6   2  10    6.70    2.30
   6  -2  -9    0.40    1.10
  -6   2   9    0.10    1.70
   6  -2  -8    0.90    1.30
  -6   2   8    3.70    2.30
   6  -2  -7   94.40    3.40
  -6   2   7  104.90    5.00
   6  -2  -6  106.50    3.50
  -6   2   6  122.70    5.30
   6  -2  -5   23.20    1.90
  -6   2   5   23.60    2.20
   6  -2  -4    1.70    1.40
  -6   2   4    0.20    1.00
   6  -2  -3    3.20    1.50
  -6   2   3    3.20    1.10
   6  -2  -2    9.80    1.50
  -6   2   2   13.00    1.40
   6  -2  -1    3.40    1.40
  -6   2   1    2.90    1.20
   6  -2   0  125.70    4.30
  -6   2   0  139.00    4.70
   6  -2   1    2.40    1.70
  -6   2  -1   -1.40    1.00
   6  -2   2    1.40    1.20
  -6   2  -2    2.90    1.70
   6  -2   3    6.50    1.40
  -6   2  -3    5.90    1.20
   6  -2   4    2.10    1.30
  -6   2  -4    0.60    0.90
   6  -2   5   45.50    3.40
  -6   2  -5   44.40    2.60
   6  -2   6   31.60    2.70
  -6   2  -6   28.50    2.00
   6  -2   7   13.10    2.60
  -6   2  -7   12.50    1.70
   6  -2   8   34.70    3.60
  -6   2  -8   35.70    2.40
   6  -2   9   52.90    4.10
  -6   2  -9   52.90    3.20
   6  -2  10   21.00    2.90
  -6   2 -10   20.90    2.10
   6  -2  11   21.30    5.10
  -6   2 -11   19.20    3.20
   6  -2  12   39.50    6.20
  -6   2 -12   28.80    3.80
   6  -2  13   21.70    7.00
  -6   2 -13   10.20    3.30
   6  -2  14    0.60    4.50
  -6   2 -14   -0.30    2.80
   6  -1 -15    4.40    2.70
  -6   1  15    4.50    2.80
   6  -1 -14    0.70    3.10
  -6   1  14   -0.40    2.40
   6  -1 -13   -0.90    1.90
  -6   1  13   -0.30    2.30
   6  -1 -12   16.20    3.20
  -6   1  12   14.90    3.10
   6  -1 -11   24.60    3.00
  -6   1  11   22.30    3.00
   6  -1 -10    2.60    2.20
  -6   1  10    2.80    1.90
   6  -1  -9    1.00    1.10
  -6   1   9   -0.40    1.60
   6  -1  -8   12.10    1.50
  -6   1   8   13.50    2.30
   6  -1  -7   13.40    1.50
  -6   1   7   14.80    2.10
   6  -1  -6   27.30    2.30
  -6   1   6   25.90    2.80
   6  -1  -5    2.10    1.40
  -6   1   5    2.60    1.30
   6  -1  -4   28.20    2.40
  -6   1   4   29.90    1.80
   6  -1  -3   34.10    2.40
  -6   1   3   38.70    2.00
   6  -1  -2    2.70    1.40
  -6   1   2    0.70    0.80
   6  -1  -1  103.60    3.90
  -6   1   1  108.50    3.60
   6  -1   0   74.20    3.10
  -6   1   0   77.90    2.80
   6  -1   1   46.50    2.60
  -6   1  -1   42.30    2.80
   6  -1   2   74.30    3.30
  -6   1  -2   82.80    3.30
   6  -1   3   15.00    2.00
  -6   1  -3   16.00    1.50
   6  -1   4   79.60    4.20
  -6   1  -4   78.50    3.60
   6  -1   5    6.30    2.30
  -6   1  -5    3.40    1.20
   6  -1   6   37.40    3.20
  -6   1  -6   38.30    3.10
   6  -1   7   51.60    3.90
  -6   1  -7   46.60    2.70
   6  -1   8   26.60    3.10
  -6   1  -8   24.20    2.20
   6  -1   9   -3.20    2.10
  -6   1  -9    0.20    1.60
   6  -1  10   11.90    2.30
  -6   1 -10   10.30    1.90
   6  -1  11   -0.50    2.20
  -6   1 -11   -1.90    1.70
   6  -1  12    0.10    1.90
  -6   1 -12    1.10    1.60
   6  -1  13    2.30    4.30
  -6   1 -13    8.90    2.90
   6  -1  14   45.90    7.50
  -6   1 -14   48.00    4.80
  -6   1 -15   33.70    4.90
   6   0 -15   -3.10    2.50
  -6   0  15   -2.00    3.20
   6   0 -14    3.90    2.90
  -6   0  14    2.40    2.90
   6   0 -13    0.40    2.30
  -6   0  13   -2.20    2.30
   6   0 -12   10.00    2.20
  -6   0  12   10.20    2.50
   6   0 -11    1.20    2.60
  -6   0  11   -1.60    2.20
   6   0 -10  224.40    8.10
  -6   0  10  267.40   11.00
   6   0  -9   -0.30    1.50
  -6   0   9    0.80    2.10
   6   0  -8   11.70    1.30
  -6   0   8   12.40    2.30
   6   0  -7    0.20    1.30
  -6   0   7    0.90    1.80
   6   0  -6   15.80    2.00
  -6   0   6   17.60    2.30
   6   0  -5    1.20    1.40
  -6   0   5    0.10    1.30
   6   0  -4   -0.60    1.30
  -6   0   4    1.00    0.80
   6   0  -3    0.30    1.50
  -6   0   3    0.30    1.50
   6   0  -2  282.20    7.80
  -6   0   2  299.90   10.00
   6   0  -1   -1.50    1.30
  -6   0   1    0.30    1.20
   6   0   0   51.50    2.60
  -6   0   0   51.40    2.60
   6   0   1    1.40    1.40
  -6   0  -1   -0.50    0.80
   6   0   2   12.00    2.10
  -6   0  -2   15.30    1.50
   6   0   3    1.30    2.10
  -6   0  -3    1.20    1.00
   6   0   4   52.80    3.70
  -6   0  -4   54.80    2.70
   6   0   5   -0.40    1.60
  -6   0  -5   -1.00    1.00
   6   0   6  118.30    5.80
  -6   0  -6  115.40    4.40
   6   0   7   -1.90    1.90
  -6   0  -7   -0.90    1.30
   6   0   8  203.80    9.20
  -6   0  -8  186.70    6.60
   6   0   9   -3.30    2.00
  -6   0  -9   -1.00    1.40
   6   0  10   15.10    3.20
  -6   0 -10    9.30    2.10
   6   0  11   -0.70    2.00
  -6   0 -11    2.90    1.80
   6   0  12    3.30    2.60
  -6   0 -12    6.00    2.20
   6   0  13   -0.10    2.30
  -6   0 -13    1.40    1.90
   6   0  14   28.20    7.80
  -6   0 -14   23.10    4.10
  -6   0 -15    1.30    4.10
   6   1 -15    4.60    2.90
  -6  -1  15    1.00    2.60
   6   1 -14   -2.90    2.10
  -6  -1  14    0.30    3.00
   6   1 -13    1.40    3.40
  -6  -1  13   -1.10    3.00
   6   1 -12   10.70    2.10
  -6  -1  12   12.50    2.50
   6   1 -11   23.00    2.30
  -6  -1  11   20.50    2.80
   6   1 -10    1.10    1.70
  -6  -1  10   -2.40    1.90
   6   1  -9    2.00    1.40
  -6  -1   9    3.10    1.80
   6   1  -8    9.60    1.20
  -6  -1   8   13.60    2.40
   6   1  -7   13.80    2.00
  -6  -1   7   15.40    2.40
   6   1  -6   26.50    2.30
  -6  -1   6   31.20    2.60
   6   1  -5    5.20    1.40
  -6  -1   5    4.90    1.50
   6   1  -4   30.70    2.20
  -6  -1   4   31.50    2.30
   6   1  -3   36.70    2.40
  -6  -1   3   43.10    2.80
   6   1  -2    1.90    1.30
  -6  -1   2   -0.30    1.00
   6   1  -1  111.10    4.10
  -6  -1   1  110.00    4.80
   6   1   0   80.60    4.10
  -6  -1   0   74.30    3.60
   6   1   1   50.10    3.30
  -6  -1  -1   46.80    2.10
   6   1   2   73.70    4.40
  -6  -1  -2   81.20    3.50
   6   1   3   20.10    2.40
  -6  -1  -3   16.40    1.60
   6   1   4   74.00    4.40
  -6  -1  -4   77.90    3.40
   6   1   5    4.90    1.90
  -6  -1  -5    6.00    1.30
   6   1   6   42.40    3.30
  -6  -1  -6   32.90    2.30
   6   1   7   51.50    4.00
  -6  -1  -7   54.80    3.10
   6   1   8   27.00    3.10
  -6  -1  -8   24.40    2.30
   6   1   9    4.10    2.30
  -6  -1  -9   -0.10    1.40
   6   1  10   10.00    3.10
  -6  -1 -10    5.20    2.00
   6   1  11    3.10    2.30
  -6  -1 -11   -1.60    1.70
   6   1  12   -1.80    2.70
  -6  -1 -12    1.30    2.10
   6   1  13    7.60    3.30
  -6  -1 -13    6.10    2.20
   6   1  14   37.70    4.60
  -6  -1 -14   43.90    3.70
  -6  -1 -15   31.00    3.50
   6   2 -15    9.80    2.80
  -6  -2  15   11.20    3.40
   6   2 -14    2.30    2.50
  -6  -2  14    0.80    5.10
   6   2 -13   -1.40    2.00
  -6  -2  13   -3.50    3.10
   6   2 -12   15.30    2.40
  -6  -2  12   19.00    3.00
   6   2 -11    3.20    1.90
  -6  -2  11   -0.40    2.00
   6   2 -10    7.40    1.50
  -6  -2  10   19.30    4.60
   6   2  -9   -0.40    1.40
  -6  -2   9    0.90    1.90
   6   2  -8    0.30    1.60
  -6  -2   8    3.40    2.00
   6   2  -7  102.70    4.30
  -6  -2   7  114.70    5.80
   6   2  -6  123.00    4.70
  -6  -2   6  138.60    6.60
   6   2  -5   25.60    2.20
  -6  -2   5   27.40    2.50
   6   2  -4    1.40    1.40
  -6  -2   4    0.10    1.20
   6   2  -3    3.00    1.40
  -6  -2   3    2.90    1.30
   6   2  -2   10.60    1.60
  -6  -2   2   11.70    1.60
   6   2  -1    0.90    1.80
  -6  -2   1    1.80    1.40
   6   2   0  141.40    5.90
  -6  -2   0  148.20    6.00
   6   2   1    0.70    1.80
  -6  -2  -1    0.00    0.70
   6   2   2    2.90    1.60
  -6  -2  -2    2.50    1.20
   6   2   3    6.00    2.00
  -6  -2  -3    3.70    1.20
   6   2   4   -1.20    2.20
  -6  -2  -4    0.80    1.50
   6   2   5   47.10    3.30
  -6  -2  -5   49.50    2.70
   6   2   6   32.70    3.10
  -6  -2  -6   27.90    2.20
   6   2   7   15.60    2.50
  -6  -2  -7   16.30    1.90
   6   2   8   36.30    3.90
  -6  -2  -8   36.50    2.70
   6   2   9   60.00    4.90
  -6  -2  -9   57.70    3.40
   6   2  10   25.90    3.30
  -6  -2 -10   21.50    2.50
   6   2  11   22.50    3.50
  -6  -2 -11   24.80    2.60
   6   2  12   21.10    4.10
  -6  -2 -12   27.30    3.00
   6   2  13   15.30    3.60
  -6  -2 -13   14.80    2.70
   6   2  14   -4.70    3.80
  -6  -2 -14    3.60    2.50
   6   3 -15   28.20    3.90
  -6  -3  15   43.00    7.60
   6   3 -14    7.60    2.40
  -6  -3  14    1.80    5.50
   6   3 -13   38.60    3.40
  -6  -3  13   32.00    4.10
   6   3 -12   -0.20    1.60
  -6  -3  12   12.00    3.60
   6   3 -11   34.00    2.80
  -6  -3  11   44.50    4.10
   6   3 -10   -1.40    1.30
  -6  -3  10    2.80    2.10
   6   3  -9   92.60    3.60
  -6  -3   9  114.10    5.90
   6   3  -8    4.80    1.30
  -6  -3   8    1.10    2.10
   6   3  -7    1.30    1.50
  -6  -3   7   -2.70    1.70
   6   3  -6   -0.60    1.20
  -6  -3   6   -3.40    1.80
   6   3  -5   -0.90    1.30
  -6  -3   5    1.30    1.30
   6   3  -4    2.60    1.40
  -6  -3   4   -2.30    1.40
   6   3  -3   35.40    2.60
  -6  -3   3   33.40    2.60
   6   3  -2   11.50    2.40
  -6  -3   2    9.60    1.90
   6   3  -1  199.00    7.50
  -6  -3   1  206.20    7.70
   6   3   0    2.80    1.60
  -6  -3   0   -1.60    1.40
   6   3   1   11.20    1.90
  -6  -3  -1    7.60    1.40
   6   3   2   25.10    2.50
  -6  -3  -2   25.70    1.50
   6   3   3  132.80    6.20
  -6  -3  -3  137.00    4.60
   6   3   4   -0.30    1.50
  -6  -3  -4    1.60    1.10
   6   3   5   19.00    2.70
  -6  -3  -5   18.40    1.70
   6   3   6    0.90    1.80
  -6  -3  -6    1.40    1.30
   6   3   7   -1.20    2.20
  -6  -3  -7   -0.20    1.20
   6   3   8   23.60    3.00
  -6  -3  -8   17.00    1.90
   6   3   9  133.50    7.70
  -6  -3  -9  124.60    4.70
   6   3  10    3.00    2.40
  -6  -3 -10    5.20    1.60
   6   3  11    3.90    3.50
  -6  -3 -11    0.10    1.60
   6   3  12    7.00    2.90
  -6  -3 -12    1.20    1.70
   6   3  13    7.10    3.20
  -6  -3 -13   11.20    2.80
   6   3  14    9.10    4.20
  -6  -3 -14    7.90    3.50
   6   4 -14    3.00    2.40
  -6  -4  14   10.30    3.60
   6   4 -13    0.50    2.40
  -6  -4  13    0.90    2.80
   6   4 -12    0.20    1.90
  -6  -4  12    1.00    2.30
   6   4 -11   46.30    6.10
  -6  -4  11   52.40    4.50
   6   4 -10    8.00    2.00
  -6  -4  10   11.40    3.00
   6   4  -9    2.30    1.60
  -6  -4   9    1.50    2.20
   6   4  -8    5.90    1.70
  -6  -4   8    4.80    2.00
   6   4  -7   42.80    2.40
  -6  -4   7   52.60    4.00
   6   4  -6   13.50    1.70
  -6  -4   6   11.10    2.30
   6   4  -5    5.90    1.60
  -6  -4   5    5.80    1.80
   6   4  -4   66.10    3.30
  -6  -4   4   72.20    4.40
   6   4  -3   -0.50    1.80
  -6  -4   3   -0.60    2.00
   6   4  -2   -0.50    1.50
  -6  -4   2    0.60    1.30
   6   4  -1   38.80    3.10
  -6  -4   1   38.20    3.00
   6   4   0   65.10    4.20
  -6  -4   0   65.40    3.30
   6   4   1   -0.60    1.50
  -6  -4  -1   -0.60    1.30
   6   4   2   12.40    2.10
  -6  -4  -2   11.30    1.50
   6   4   3    9.80    2.20
  -6  -4  -3    7.90    1.60
   6   4   4   65.00    4.30
  -6  -4  -4   73.80    3.50
   6   4   5  161.80    7.50
  -6  -4  -5  163.40    5.00
   6   4   6    0.80    1.90
  -6  -4  -6    2.20    1.30
   6   4   7   -0.70    2.30
  -6  -4  -7    0.80    1.50
   6   4   8   30.90    3.60
  -6  -4  -8   22.20    2.10
   6   4   9   48.80    4.50
  -6  -4  -9   51.10    2.90
   6   4  10   13.70    3.10
  -6  -4 -10   14.70    1.90
   6   4  11   -2.80    2.50
  -6  -4 -11    2.10    1.80
   6   4  12    3.10    3.80
  -6  -4 -12    6.20    2.30
   6   4  13    1.60    3.10
  -6  -4 -13    8.70    2.70
   6   5 -13    7.20    3.00
  -6  -5  13    4.90    2.80
   6   5 -12   -1.90    2.40
  -6  -5  12   -3.30    2.30
   6   5 -11   21.40    2.80
  -6  -5  11   31.70    3.50
   6   5 -10   11.20    2.40
  -6  -5  10   10.20    2.60
   6   5  -9   -1.20    1.40
  -6  -5   9   -0.60    2.10
   6   5  -8   26.10    2.50
  -6  -5   8   20.40    2.90
   6   5  -7   18.50    1.90
  -6  -5   7   25.00    2.80
   6   5  -6   12.10    1.70
  -6  -5   6   13.90    2.50
   6   5  -5  104.50    4.70
  -6  -5   5  133.10    6.00
   6   5  -4   66.50    3.30
  -6  -5   4   76.90    5.00
   6   5  -3   -0.40    1.60
  -6  -5   3   -1.90    1.50
   6   5  -2    4.30    2.00
  -6  -5   2    0.40    1.50
   6   5  -1   87.80    4.90
  -6  -5   1  103.20    4.60
   6   5   0   16.00    2.30
  -6  -5   0   15.80    2.00
   6   5   1    5.30    1.90
  -6  -5  -1    6.50    1.80
   6   5   2   22.00    2.80
  -6  -5  -2   24.80    2.10
   6   5   3   12.70    2.60
  -6  -5  -3   17.30    2.80
   6   5   4    1.80    2.60
  -6  -5  -4    1.30    1.70
   6   5   5    5.80    2.30
  -6  -5  -5    7.70    1.80
   6   5   6    6.70    2.50
  -6  -5  -6    1.10    1.80
   6   5   7   42.50    4.30
  -6  -5  -7   43.00    2.70
   6   5   8   39.60    3.80
  -6  -5  -8   39.30    2.80
   6   5   9   -2.20    2.70
  -6  -5  -9    4.40    1.90
   6   5  10   11.20    3.10
  -6  -5 -10    5.00    1.90
   6   5  11    2.40    3.00
  -6  -5 -11   -0.70    2.10
   6   5  12   23.00    4.50
  -6  -5 -12   24.40    3.20
   6   5  13   12.50    3.70
  -6  -5 -13   14.60    3.10
   6   6 -12    4.90    3.30
  -6  -6  12    7.70    3.70
   6   6 -11    0.20    2.10
  -6  -6  11   11.50    3.50
   6   6 -10   55.10    4.80
  -6  -6  10   66.30    5.50
   6   6  -9    2.70    2.00
  -6  -6   9    1.20    3.30
   6   6  -8   -3.20    3.80
  -6  -6   8    2.20    3.10
   6   6  -7    7.80    2.40
  -6  -6   7    3.60    2.50
   6   6  -6    2.30    1.50
  -6  -6   6    4.90    2.30
   6   6  -5    7.00    1.60
  -6  -6   5    6.50    2.30
   6   6  -4    4.00    1.60
  -6  -6   4    0.90    2.00
   6   6  -3    7.00    2.00
  -6  -6   3    5.40    1.90
   6   6  -2   65.10    4.10
  -6  -6   2   63.60    3.70
   6   6  -1   17.70    2.50
  -6  -6   1   16.40    1.90
   6   6   0    3.30    1.80
  -6  -6   0    4.10    1.70
   6   6   1   33.30    2.80
  -6  -6  -1   43.60    2.90
   6   6   2    0.80    2.10
  -6  -6  -2    2.10    1.60
   6   6   3   23.80    3.30
  -6  -6  -3   25.90    3.40
   6   6   4   22.00    3.30
  -6  -6  -4   22.10    3.40
   6   6   5    4.10    2.50
  -6  -6  -5    2.10    2.60
   6   6   6   30.30    3.60
  -6  -6  -6   27.90    3.00
   6   6   7    1.30    3.30
  -6  -6  -7    3.90    2.30
   6   6   8   62.90    5.10
  -6  -6  -8   59.00    4.00
   6   6   9   23.80    4.00
  -6  -6  -9   31.00    3.00
   6   6  10   -0.20    3.70
  -6  -6 -10   -3.70    3.90
   6   6  11    3.70    3.40
  -6  -6 -11   -0.20    3.50
   6   6  12    1.70    3.30
  -6  -6 -12    4.30    2.60
   6   7 -11    4.90    2.60
  -6  -7  11    4.60    3.00
   6   7 -10    4.90    2.50
  -6  -7  10    7.90    3.20
   6   7  -9    0.20    2.20
  -6  -7   9   -1.30    2.80
   6   7  -8    1.50    1.90
  -6  -7   8   -1.20    2.80
   6   7  -7    1.00    1.90
  -6  -7   7   -0.80    2.60
   6   7  -6    6.10    2.30
  -6  -7   6    9.90    2.90
   6   7  -5   10.00    2.50
  -6  -7   5   15.00    2.70
   6   7  -4    2.60    2.50
  -6  -7   4    0.20    1.80
   6   7  -3   51.70    4.30
  -6  -7   3   50.10    3.30
   6   7  -2    0.40    2.50
  -6  -7   2    0.40    1.80
   6   7  -1    7.30    3.60
  -6  -7   1    8.20    2.00
   6   7   0   35.30    5.20
  -6  -7   0   32.40    2.80
   6   7   1    4.50    3.30
  -6  -7  -1    2.10    2.20
   6   7   2   64.70    7.40
  -6  -7  -2   61.80    4.00
   6   7   3   29.60    6.10
  -6  -7  -3   38.20    4.40
   6   7   4   57.60    6.60
  -6  -7  -4   49.00    4.60
   6   7   5   35.60    6.00
  -6  -7  -5   33.80    4.60
   6   7   6   25.40    6.40
  -6  -7  -6   15.70    2.80
   6   7   7   -6.50    5.20
  -6  -7  -7    2.50    2.50
   6   7   8    5.60    4.40
  -6  -7  -8   -0.20    2.80
   6   7   9    3.20    4.60
  -6  -7  -9   -0.20    2.90
   6   7  10   25.70    5.90
  -6  -7 -10   27.70    4.80
   6   8  -9    2.80    2.80
  -6  -8   9    6.40    3.40
   6   8  -8    3.00    2.40
  -6  -8   8    6.40    3.60
   6   8  -7   60.80    4.20
  -6  -8   7   54.60    5.60
   6   8  -6   76.20    5.80
  -6  -8   6   73.90    6.10
   6   8  -5   44.70    3.80
  -6  -8   5   49.90    4.60
   6   8  -4    0.50    2.40
  -6  -8   4    7.70    2.30
   6   8  -3    9.10    3.10
  -6  -8   3    4.10    2.00
   6   8  -2    8.00    3.20
  -6  -8   2   12.00    2.40
   6   8  -1    2.40    2.50
  -6  -8   1    3.90    2.00
   6   8   0    9.90    3.20
  -6  -8   0   11.20    2.70
   6   8   1    3.40    3.70
  -6  -8  -1    2.40    1.90
   6   8   2    6.50    5.30
  -6  -8  -2    3.80    2.70
   6   8   3    9.80    5.30
  -6  -8  -3   -4.90    4.60
   6   8   4   39.60    7.60
  -6  -8  -4   28.80    4.30
   6   8   5    4.20    5.40
  -6  -8  -5    3.80    3.50
   6   8   6    2.20    5.50
  -6  -8  -6    3.50    2.40
   6   8   7    0.10    4.00
  -6  -8  -7    4.40    3.30
   6   8   8    3.00    4.70
  -6  -8  -8    2.60    3.40
   6   9  -6   -0.30    2.70
  -6  -9   6    4.40    2.70
   6   9  -5    1.80    2.00
  -6  -9   5    3.70    2.30
   6   9  -4    0.50    2.10
  -6  -9   4    6.50    2.40
   6   9  -3    5.30    4.00
  -6  -9   3    2.30    2.50
   6   9  -2   36.80    4.80
  -6  -9   2   41.80    3.50
   6   9  -1   18.00    4.00
  -6  -9   1   20.50    2.90
   6   9   0    4.30    3.30
  -6  -9   0    3.30    2.60
   6   9   1   36.10    5.20
  -6  -9  -1   44.30    5.20
   6   9   2   55.80    5.30
  -6  -9  -2   53.60    5.60
   6   9   3    6.10    3.20
  -6  -9  -3   11.70    3.60
   6   9   4   -4.30    2.90
  -6  -9  -4    3.60    3.20
   6   9   5    8.60    4.70
  -6  -9  -5    7.90    3.70
   6   9   6   -0.70    4.30
  -6  -9  -6    9.60    4.80
   7  -8  -2   26.50    5.70
  -7   8   2   34.30    6.70
   7  -8  -1    6.30    4.00
  -7   8   1    6.20    3.50
   7  -8   0   -6.10    4.10
  -7   8   0   -0.70    2.90
   7  -8   1    2.70    4.20
  -7   8  -1   13.10    4.20
   7  -8   2  -11.40    5.50
  -7   8  -2    6.90    3.70
   7  -7  -6    7.30    2.80
  -7   7   6    8.60    3.10
   7  -7  -5    6.90    2.40
  -7   7   5   15.80    4.00
   7  -7  -4   -2.50    1.90
  -7   7   4   -0.30    2.50
   7  -7  -3   76.30    4.90
  -7   7   3   85.40    5.00
   7  -7  -2   -2.40    2.70
  -7   7   2    5.20    2.60
   7  -7  -1   17.60    4.70
  -7   7   1    7.50    2.90
   7  -7   0   -1.50    2.80
  -7   7   0    2.90    2.50
   7  -7   1   11.40    4.20
  -7   7  -1   16.20    3.90
   7  -7   2   29.30    4.50
  -7   7  -2   19.80    3.70
   7  -7   3   19.40    4.20
  -7   7  -3   16.50    3.70
   7  -7   4   12.90    4.90
  -7   7  -4    4.90    2.90
   7  -7   5    5.10    4.30
  -7   7  -5   10.40    5.10
   7  -7   6   15.80    6.20
  -7   7  -6    7.30    4.40
   7  -6  -9   11.00    2.60
  -7   6   9   14.30    5.40
   7  -6  -8    2.90    2.50
  -7   6   8    1.20    4.10
   7  -6  -7   12.50    2.40
  -7   6   7   15.60    3.50
   7  -6  -6    5.40    2.00
  -7   6   6    3.40    2.50
   7  -6  -5   35.60    2.90
  -7   6   5   47.00    3.40
   7  -6  -4    2.10    1.90
  -7   6   4    3.60    2.20
   7  -6  -3   -1.50    1.80
  -7   6   3    1.30    1.90
   7  -6  -2   -0.20    1.60
  -7   6   2    6.20    1.80
   7  -6  -1    1.40    1.70
  -7   6   1    1.40    2.00
   7  -6   0   61.00    3.40
  -7   6   0   72.50    4.30
   7  -6   1   22.40    5.00
  -7   6  -1    5.00    2.30
   7  -6   2   -3.60    3.50
  -7   6  -2   -0.50    2.00
   7  -6   3    7.60    4.00
  -7   6  -3   10.30    2.70
   7  -6   4   -3.80    4.60
  -7   6  -4    5.50    4.10
   7  -6   5    1.40    4.00
  -7   6  -5    5.60    3.90
   7  -6   6   41.40    6.60
  -7   6  -6   26.50    5.80
   7  -6   7    9.40    4.20
  -7   6  -7    3.50    5.40
   7  -6   8   12.90    4.90
  -7   6  -8   15.80    6.70
   7  -5 -10    0.90    2.30
   7  -5  -9   10.50    2.30
  -7   5   9    4.20    3.90
   7  -5  -8   35.70    3.10
  -7   5   8   34.20    5.30
   7  -5  -7    8.50    2.00
  -7   5   7   10.40    2.90
   7  -5  -6    3.10    1.60
  -7   5   6    3.00    1.90
   7  -5  -5    2.80    2.20
  -7   5   5    5.60    2.10
   7  -5  -4   -1.20    1.80
  -7   5   4   -2.00    1.70
   7  -5  -3   -0.90    1.50
  -7   5   3    1.00    1.70
   7  -5  -2   -2.20    1.60
  -7   5   2    0.50    1.70
   7  -5  -1   14.40    2.30
  -7   5   1   15.60    2.40
   7  -5   0   19.60    2.20
  -7   5   0   26.20    2.80
   7  -5   1   29.90    2.50
  -7   5  -1   31.40    3.00
   7  -5   2   11.30    2.10
  -7   5  -2   15.70    2.70
   7  -5   3   -6.10    5.00
  -7   5  -3    4.40    4.90
   7  -5   4    5.00    3.70
  -7   5  -4    7.10    4.90
   7  -5   5   31.20    5.10
  -7   5  -5   22.40    6.30
   7  -5   6   13.00    6.10
  -7   5  -6    4.10    5.50
   7  -5   7   -3.50    5.70
  -7   5  -7    1.10    6.00
   7  -5   8   25.30    7.60
  -7   5  -8   18.10    6.80
   7  -5   9   19.60    6.70
  -7   5  -9   22.20    7.30
   7  -4 -11    3.80    2.80
  -7   4  11    4.80    4.00
   7  -4 -10    2.70    2.60
  -7   4  10    6.50    4.10
   7  -4  -9    2.90    1.80
  -7   4   9    4.80    3.80
   7  -4  -8   31.30    2.60
  -7   4   8   32.50    3.40
   7  -4  -7    3.50    1.80
  -7   4   7    4.20    2.10
   7  -4  -6    2.50    1.60
  -7   4   6   -1.30    2.30
   7  -4  -5   -3.40    1.70
  -7   4   5    1.40    2.20
   7  -4  -4   47.70    2.80
  -7   4   4   65.40    4.50
   7  -4  -3    0.30    1.70
  -7   4   3    1.60    1.90
   7  -4  -2   12.70    2.00
  -7   4   2   17.60    2.80
   7  -4  -1   18.20    2.30
  -7   4   1   15.80    2.80
   7  -4   0   -0.40    1.70
  -7   4   0    0.30    1.90
   7  -4   1   37.20    3.00
  -7   4  -1   38.40    3.40
   7  -4   2   80.20    4.00
  -7   4  -2   75.60    4.40
   7  -4   3   14.10    2.20
  -7   4  -3   12.10    2.10
   7  -4   4   14.90    1.90
  -7   4  -4   15.90    2.30
   7  -4   5   61.80    4.60
  -7   4  -5   68.80    4.10
   7  -4   6   33.00    6.80
  -7   4  -6   27.50    5.00
   7  -4   7    7.20    5.60
  -7   4  -7   -0.50    3.20
   7  -4   8    9.10    5.90
  -7   4  -8    2.20    2.80
   7  -4   9    5.50    5.90
  -7   4  -9   -0.90    2.40
   7  -4  10   62.20    7.70
  -7   4 -10   35.20    4.40
   7  -3 -12   15.70    4.80
  -7   3  12   14.80    4.70
   7  -3 -11    1.90    2.60
  -7   3  11   -2.20    5.30
   7  -3 -10   41.30    3.70
  -7   3  10   46.70    4.10
   7  -3  -9   -0.50    1.90
  -7   3   9    0.20    2.00
   7  -3  -8   -1.70    1.70
  -7   3   8    2.00    2.30
   7  -3  -7    0.70    1.50
  -7   3   7    1.80    2.40
   7  -3  -6    2.10    1.40
  -7   3   6   -0.40    1.80
   7  -3  -5    1.40    1.30
  -7   3   5    1.00    2.20
   7  -3  -4  191.50    7.30
  -7   3   4  200.90    8.70
   7  -3  -3    2.70    2.10
  -7   3   3    1.60    1.70
   7  -3  -2   16.40    3.30
  -7   3   2   16.50    2.70
   7  -3  -1   14.30    2.20
  -7   3   1   14.70    2.80
   7  -3   0   13.40    2.10
  -7   3   0    9.60    2.70
   7  -3   1   14.90    2.20
  -7   3  -1   17.80    4.50
   7  -3   2   -1.00    1.60
  -7   3  -2    1.30    1.80
   7  -3   3    2.00    1.80
  -7   3  -3    2.00    2.40
   7  -3   4   -1.30    1.50
  -7   3  -4    2.00    2.00
   7  -3   5    4.00    1.70
  -7   3  -5    6.60    2.20
   7  -3   6    3.40    1.80
  -7   3  -6    0.70    1.40
   7  -3   7   23.30    2.60
  -7   3  -7   19.90    2.30
   7  -3   8    7.50    5.80
  -7   3  -8    0.80    3.00
   7  -3   9   -3.50    5.80
  -7   3  -9    0.20    2.30
   7  -3  10   19.00    5.20
  -7   3 -10   12.50    3.20
   7  -3  11    3.20    4.80
  -7   3 -11   -3.20    3.80
   7  -2 -12    6.60    3.10
  -7   2  12   12.00    3.60
   7  -2 -11    1.20    2.40
  -7   2  11    3.60    2.80
   7  -2 -10   25.80    3.50
  -7   2  10   43.60    6.40
   7  -2  -9   22.30    2.70
  -7   2   9   25.70    2.70
   7  -2  -8    7.90    1.70
  -7   2   8    9.80    1.90
   7  -2  -7   17.40    2.00
  -7   2   7   20.60    2.60
   7  -2  -6    9.70    2.00
  -7   2   6    5.20    2.20
   7  -2  -5    0.10    2.00
  -7   2   5   -1.90    1.80
   7  -2  -4   28.30    2.70
  -7   2   4   28.60    3.40
   7  -2  -3    1.60    1.60
  -7   2   3   -1.30    1.80
   7  -2  -2    3.60    1.80
  -7   2   2    2.00    2.00
   7  -2  -1   52.00    3.20
  -7   2   1   52.10    3.70
   7  -2   0    3.30    1.70
  -7   2   0    3.60    2.10
   7  -2   1    3.80    1.70
  -7   2  -1    6.70    2.30
   7  -2   2   88.90    4.20
  -7   2  -2   79.70    4.80
   7  -2   3   11.00    1.90
  -7   2  -3   14.10    2.10
   7  -2   4    1.00    1.70
  -7   2  -4   -0.50    1.70
   7  -2   5   45.40    3.10
  -7   2  -5   49.30    3.00
   7  -2   6   79.30    4.00
  -7   2  -6   82.80    4.10
   7  -2   7   45.90    3.20
  -7   2  -7   49.20    3.20
   7  -2   8   13.70    2.80
  -7   2  -8   13.90    2.10
   7  -2   9    4.30    4.10
  -7   2  -9   -2.40    2.80
   7  -2  10   30.00    6.50
  -7   2 -10   19.20    3.60
   7  -2  11  -11.30    6.10
  -7   2 -11   -2.80    3.00
  -7   2 -12    2.10    3.40
   7  -1 -13    1.00    3.10
  -7   1  13    7.80    4.10
   7  -1 -12   -1.80    3.10
  -7   1  12    0.30    3.60
   7  -1 -11    5.70    2.30
  -7   1  11    0.00    2.70
   7  -1 -10    2.30    2.70
  -7   1  10    0.20    2.50
   7  -1  -9    1.40    1.90
  -7   1   9    1.20    2.30
   7  -1  -8   11.50    2.30
  -7   1   8   11.00    2.20
   7  -1  -7   22.50    2.10
  -7   1   7   28.10    2.90
   7  -1  -6   -2.10    1.80
  -7   1   6    2.10    1.70
   7  -1  -5    2.10    2.40
  -7   1   5    4.10    2.10
   7  -1  -4    0.40    1.70
  -7   1   4    3.10    1.40
   7  -1  -3   89.50    4.20
  -7   1   3   89.10    5.20
   7  -1  -2   23.50    2.50
  -7   1   2   18.10    2.60
   7  -1  -1    2.50    1.80
  -7   1   1    5.70    2.80
   7  -1   0    8.00    1.90
  -7   1   0   13.90    2.50
   7  -1   1   79.90    4.00
  -7   1  -1   76.90    4.40
   7  -1   2  101.90    4.40
  -7   1  -2   98.10    5.40
   7  -1   3   21.20    2.60
  -7   1  -3   21.50    2.70
   7  -1   4   34.60    2.70
  -7   1  -4   41.50    2.80
   7  -1   5   58.90    4.80
  -7   1  -5   59.90    3.30
   7  -1   6    4.60    4.90
  -7   1  -6    6.50    1.90
   7  -1   7    0.60    2.40
  -7   1  -7    3.00    1.70
   7  -1   8   27.00    3.80
  -7   1  -8   24.80    2.40
   7  -1   9   -1.60    3.10
  -7   1  -9    2.70    2.30
   7  -1  10   -0.50    2.30
  -7   1 -10   -2.20    1.70
   7  -1  11   35.50    7.10
  -7   1 -11   37.40    5.10
   7  -1  12    0.70    6.50
  -7   1 -12    7.30    3.10
   7   0 -13   42.00    5.50
  -7   0  13   32.10    5.00
   7   0 -12   -4.70    2.10
  -7   0  12   -1.20    2.60
   7   0 -11   26.20    3.30
  -7   0  11   19.70    3.40
   7   0 -10    0.40    1.90
  -7   0  10   -0.30    2.10
   7   0  -9   38.40    3.30
  -7   0   9   40.00    4.00
   7   0  -8    1.00    1.70
  -7   0   8   -0.70    2.10
   7   0  -7   54.70    3.60
  -7   0   7   49.60    3.80
   7   0  -6    0.20    1.60
  -7   0   6    0.00    1.70
   7   0  -5  160.30    6.50
  -7   0   5  173.10    7.90
   7   0  -4    0.40    2.00
  -7   0   4    2.50    2.20
   7   0  -3   26.80    2.50
  -7   0   3   26.30    2.20
   7   0  -2   -2.70    1.70
  -7   0   2    3.30    3.60
   7   0  -1    5.50    1.70
  -7   0   1   13.60    2.50
   7   0   0    2.30    1.80
  -7   0   0    1.20    2.20
   7   0   1    9.40    2.10
  -7   0  -1    7.00    2.20
   7   0   2   -0.30    1.70
  -7   0  -2   -1.90    2.10
   7   0   3   18.00    3.20
  -7   0  -3   17.40    2.00
   7   0   4    0.20    1.90
  -7   0  -4    0.90    1.50
   7   0   5    7.40    2.50
  -7   0  -5    3.40    1.60
   7   0   6   -2.10    3.00
  -7   0  -6    1.20    1.40
   7   0   7    0.40    2.60
  -7   0  -7   -0.80    1.60
   7   0   8    0.70    2.40
  -7   0  -8    0.40    1.60
   7   0   9    1.00    2.20
  -7   0  -9   -0.60    1.70
   7   0  10    1.30    3.40
  -7   0 -10   -1.50    2.40
   7   0  11  141.20    9.00
  -7   0 -11  137.10    6.80
   7   0  12    1.50    2.80
  -7   0 -12    3.70    2.10
   7   1 -13    8.80    4.30
  -7  -1  13    1.10    3.10
   7   1 -12    2.20    2.20
  -7  -1  12   -1.10    2.70
   7   1 -11    3.70    2.60
  -7  -1  11    9.50    3.70
   7   1 -10   -0.10    2.10
  -7  -1  10   -0.90    2.10
   7   1  -9    1.10    1.90
  -7  -1   9    1.80    2.10
   7   1  -8   10.10    2.40
  -7  -1   8   10.10    2.60
   7   1  -7   26.20    2.70
  -7  -1   7   29.60    3.50
   7   1  -6    1.60    1.80
  -7  -1   6   -0.10    2.10
   7   1  -5    0.60    1.60
  -7  -1   5    0.50    1.70
   7   1  -4    1.90    1.90
  -7  -1   4    3.80    1.90
   7   1  -3   94.40    4.50
  -7  -1   3   87.30    4.80
   7   1  -2   20.50    2.30
  -7  -1   2   27.20    3.90
   7   1  -1    4.60    1.90
  -7  -1   1   11.30    3.80
   7   1   0    9.20    1.90
  -7  -1   0   11.30    3.30
   7   1   1   76.40    5.10
  -7  -1  -1   78.00    4.80
   7   1   2   92.30    5.70
  -7  -1  -2   99.00    5.60
   7   1   3   30.90    3.70
  -7  -1  -3   26.80    3.60
   7   1   4   34.00    3.60
  -7  -1  -4   35.20    3.40
   7   1   5   68.30    4.80
  -7  -1  -5   62.10    3.50
   7   1   6   12.90    3.40
  -7  -1  -6    4.40    1.70
   7   1   7    7.00    2.90
  -7  -1  -7    3.30    2.10
   7   1   8   36.70    4.20
  -7  -1  -8   27.20    2.60
   7   1   9    4.60    2.90
  -7  -1  -9    3.80    1.80
   7   1  10   -2.70    3.50
  -7  -1 -10   -0.50    2.70
   7   1  11   46.50    5.10
  -7  -1 -11   38.40    3.40
   7   1  12    2.10    2.80
  -7  -1 -12    6.50    2.20
   7   2 -12    5.90    2.80
  -7  -2  12    9.00    3.30
   7   2 -11    4.00    2.00
  -7  -2  11    2.80    2.70
   7   2 -10   22.80    2.60
  -7  -2  10   33.10    3.80
   7   2  -9   23.30    2.80
  -7  -2   9   19.40    3.30
   7   2  -8    6.20    1.90
  -7  -2   8    8.10    2.50
   7   2  -7   13.10    2.20
  -7  -2   7   15.90    3.00
   7   2  -6    9.30    2.60
  -7  -2   6   11.30    4.00
   7   2  -5   -0.20    2.10
  -7  -2   5    0.40    2.10
   7   2  -4   31.00    2.60
  -7  -2   4   31.40    3.00
   7   2  -3    1.00    1.80
  -7  -2   3    0.70    1.40
   7   2  -2    1.60    1.70
  -7  -2   2    0.90    3.80
   7   2  -1   52.60    3.20
  -7  -2   1   58.20    5.70
   7   2   0    5.20    2.30
  -7  -2   0    1.20    3.60
   7   2   1    4.00    2.90
  -7  -2  -1    3.80    2.90
   7   2   2   83.10    5.80
  -7  -2  -2   92.40    5.70
   7   2   3   20.20    2.70
  -7  -2  -3   15.50    2.60
   7   2   4    1.40    2.40
  -7  -2  -4    1.10    1.90
   7   2   5   48.90    4.20
  -7  -2  -5   47.90    3.90
   7   2   6   94.10    6.10
  -7  -2  -6   80.80    5.60
   7   2   7   45.90    4.50
  -7  -2  -7   39.10    3.10
   7   2   8   10.50    4.00
  -7  -2  -8   12.30    2.60
   7   2   9    5.70    3.00
  -7  -2  -9    1.00    2.10
   7   2  10   23.80    3.90
  -7  -2 -10   20.70    3.00
   7   2  11   -4.00    2.90
  -7  -2 -11    1.90    2.40
   7   2  12    2.50    3.70
  -7  -2 -12    0.70    3.30
   7   3 -12   13.40    3.10
  -7  -3  12   19.60    3.60
   7   3 -11    0.70    2.60
  -7  -3  11    2.80    2.80
   7   3 -10   44.30    4.30
  -7  -3  10   41.50    4.20
   7   3  -9   -1.00    1.80
  -7  -3   9   -0.50    2.50
   7   3  -8   -1.80    1.80
  -7  -3   8    0.10    2.60
   7   3  -7   -0.90    1.50
  -7  -3   7   -0.20    2.00
   7   3  -6    3.50    2.20
  -7  -3   6   -1.20    2.30
   7   3  -5   -1.60    2.30
  -7  -3   5    2.10    1.80
   7   3  -4  239.10    8.40
  -7  -3   4  242.20   10.00
   7   3  -3    1.30    2.00
  -7  -3   3   -0.70    1.70
   7   3  -2   19.30    2.20
  -7  -3   2   18.20    3.70
   7   3  -1   19.00    2.60
  -7  -3   1   12.10    3.40
   7   3   0   11.90    2.90
  -7  -3   0   16.60    4.50
   7   3   1   22.90    2.80
  -7  -3  -1   22.30    4.00
   7   3   2    3.60    2.60
  -7  -3  -2    5.70    3.00
   7   3   3    0.90    2.00
  -7  -3  -3    2.70    2.40
   7   3   4    0.80    2.50
  -7  -3  -4   -3.90    2.40
   7   3   5    8.40    2.90
  -7  -3  -5   11.40    3.30
   7   3   6    2.30    2.80
  -7  -3  -6    1.30    2.20
   7   3   7   25.40    3.60
  -7  -3  -7   22.60    3.20
   7   3   8    5.80    2.80
  -7  -3  -8   -5.60    2.50
   7   3   9    3.90    3.30
  -7  -3  -9   -0.10    2.30
   7   3  10   10.10    3.40
  -7  -3 -10   12.70    2.50
   7   3  11    6.90    4.60
  -7  -3 -11    0.80    2.70
   7   4 -11    6.60    3.00
  -7  -4  11    6.80    2.80
   7   4 -10    4.60    2.50
  -7  -4  10    4.50    2.70
   7   4  -9    0.10    2.00
  -7  -4   9   -4.30    2.80
   7   4  -8   34.20    3.00
  -7  -4   8   43.20    4.40
   7   4  -7    1.40    1.60
  -7  -4   7    5.20    2.40
   7   4  -6   -1.20    1.50
  -7  -4   6   -1.80    2.70
   7   4  -5   -0.40    1.80
  -7  -4   5   -0.50    2.20
   7   4  -4   64.30    3.60
  -7  -4   4   63.20    4.50
   7   4  -3    0.70    2.00
  -7  -4   3   -0.90    2.10
   7   4  -2   16.20    2.20
  -7  -4   2   17.50    3.80
   7   4  -1   16.00    2.60
  -7  -4   1   15.10    3.70
   7   4   0    1.40    2.20
  -7  -4   0    2.60    4.10
   7   4   1   41.10    3.70
  -7  -4  -1   52.30    5.60
   7   4   2   96.60    6.20
  -7  -4  -2   85.90    7.40
   7   4   3   13.50    2.80
  -7  -4  -3    9.70    3.50
   7   4   4   14.50    3.00
  -7  -4  -4   19.20    3.00
   7   4   5   70.30    5.40
  -7  -4  -5   69.80    5.40
   7   4   6   36.40    4.00
  -7  -4  -6   30.20    3.60
   7   4   7   -1.70    2.30
  -7  -4  -7   -1.10    2.20
   7   4   8    1.60    3.10
  -7  -4  -8    4.20    3.40
   7   4   9   -1.90    2.90
  -7  -4  -9   -1.40    2.80
   7   4  10   35.90    4.80
  -7  -4 -10   46.50    5.10
   7   5 -10    6.80    3.20
  -7  -5  10    6.10    3.70
   7   5  -9   11.30    2.80
  -7  -5   9   13.00    3.60
   7   5  -8   46.20    3.30
  -7  -5   8   39.00    4.10
   7   5  -7   10.00    2.40
  -7  -5   7   10.80    3.20
   7   5  -6    1.70    2.10
  -7  -5   6    4.00    2.70
   7   5  -5    8.20    1.90
  -7  -5   5    7.80    2.50
   7   5  -4   -2.80    2.00
  -7  -5   4    2.20    2.90
   7   5  -3    1.80    1.80
  -7  -5   3    0.30    1.80
   7   5  -2    2.00    2.80
  -7  -5   2   -5.20    4.30
   7   5  -1   21.90    3.30
  -7  -5   1   22.60    4.40
   7   5   0   27.80    3.40
  -7  -5   0   23.30    4.70
   7   5   1   40.50    4.00
  -7  -5  -1   52.20    6.90
   7   5   2   10.60    2.70
  -7  -5  -2   19.00    4.90
   7   5   3    7.30    2.70
  -7  -5  -3   -0.30    2.50
   7   5   4    5.50    2.80
  -7  -5  -4   11.50    2.40
   7   5   5   28.80    3.60
  -7  -5  -5   30.10    3.20
   7   5   6   -0.20    2.90
  -7  -5  -6    2.30    2.30
   7   5   7   -2.90    2.80
  -7  -5  -7    2.30    2.40
   7   5   8   25.60    3.80
  -7  -5  -8   25.00    3.20
   7   5   9   20.90    3.80
  -7  -5  -9   13.60    2.90
   7   6  -9   14.00    2.80
  -7  -6   9   17.00    4.00
   7   6  -8    4.20    2.30
  -7  -6   8    5.30    2.90
   7   6  -7   16.40    2.70
  -7  -6   7   21.20    3.60
   7   6  -6    8.90    2.40
  -7  -6   6    1.10    2.80
   7   6  -5   55.90    4.10
  -7  -6   5   51.20    5.00
   7   6  -4    0.80    2.00
  -7  -6   4    0.00    2.20
   7   6  -3    2.80    2.20
  -7  -6   3    4.10    4.50
   7   6  -2    2.10    2.60
  -7  -6   2    5.10    3.50
   7   6  -1    6.40    3.20
  -7  -6   1    1.10    3.80
   7   6   0   85.90    6.10
  -7  -6   0   78.40    8.90
   7   6   1   12.00    2.50
  -7  -6  -1   10.20    2.80
   7   6   2   -1.90    2.10
  -7  -6  -2   -0.10    3.00
   7   6   3    6.00    2.60
  -7  -6  -3   10.70    3.20
   7   6   4    3.00    2.90
  -7  -6  -4    2.20    2.80
   7   6   5    2.80    2.50
  -7  -6  -5    6.10    2.40
   7   6   6   38.70    4.10
  -7  -6  -6   37.60    3.90
   7   6   7    7.30    3.00
  -7  -6  -7    5.30    2.60
   7   6   8   15.60    6.90
  -7  -6  -8   12.60    3.30
   7   7  -7   -1.40    2.40
  -7  -7   7   -2.70    2.90
   7   7  -6    4.00    2.50
  -7  -7   6    6.50    2.90
   7   7  -5    7.80    2.80
  -7  -7   5   10.00    5.70
   7   7  -4    2.00    2.70
  -7  -7   4    5.10    3.80
   7   7  -3   94.20    5.50
  -7  -7   3   87.80    9.80
   7   7  -2   -2.80    2.70
  -7  -7   2   -1.30    3.60
   7   7  -1    8.30    5.40
  -7  -7   1   10.50    5.20
   7   7   0   -0.70    3.70
  -7  -7   0    2.10    2.70
   7   7   1   13.00    5.00
  -7  -7  -1   14.10    3.40
   7   7   2   30.10    5.90
  -7  -7  -2   28.10    4.40
   7   7   3   10.20    6.20
  -7  -7  -3   19.00    4.30
   7   7   4   13.00    6.30
  -7  -7  -4   15.00    3.90
   7   7   5   15.70    6.90
  -7  -7  -5   12.80    3.00
   7   7   6   18.40    6.10
  -7  -7  -6   11.40    2.60
   7   8  -3   -1.10    2.50
  -7  -8   3    9.30    6.30
   7   8  -2   28.70    4.40
  -7  -8   2   32.10    6.40
   7   8  -1    8.30    3.90
  -7  -8   1    3.90    3.20
   7   8   0    7.30    3.40
  -7  -8   0    1.80    2.80
   7   8   1    5.80    4.30
  -7  -8  -1   10.90    4.90
   7   8   2    1.20    4.40
  -7  -8  -2   -0.50    4.10
   8  -5  -4   43.70    3.20
  -8   5   4   52.80    4.70
   8  -5  -3    7.10    2.10
  -8   5   3   10.90    3.00
   8  -5  -2   19.20    2.60
  -8   5   2   18.40    6.00
   8  -5  -1   11.50    2.90
  -8   5   1   23.80    3.90
   8  -5   0   -0.70    2.60
  -8   5   0    2.40    2.50
   8  -5   1   16.00    6.50
  -8   5  -1   13.00    5.90
   8  -5   2    9.00    4.80
  -8   5  -2   -1.00    3.80
   8  -5   3    0.40    4.30
  -8   5  -3    4.60    3.70
   8  -4  -6   -1.90    2.00
  -8   4   6   -0.30    2.50
   8  -4  -5   -0.70    1.90
  -8   4   5    6.20    3.10
   8  -4  -4    2.50    1.90
  -8   4   4    4.80    2.50
   8  -4  -3    2.90    2.20
  -8   4   3    5.80    3.90
   8  -4  -2    2.50    2.30
  -8   4   2    1.90    2.60
   8  -4  -1    5.30    2.60
  -8   4   1    6.90    3.20
   8  -4   0   15.40    2.70
  -8   4   0   15.40    3.00
   8  -4   1    9.40    2.50
  -8   4  -1   13.50    2.80
   8  -4   2   28.10    3.00
  -8   4  -2   29.30    3.30
   8  -4   3   30.90    6.40
  -8   4  -3   17.40    5.10
   8  -4   4    8.80    6.50
  -8   4  -4   10.90    4.70
   8  -4   5   33.30    8.50
  -8   4  -5   21.00    5.40
   8  -3  -7   24.20    3.00
  -8   3   7   37.00    4.20
   8  -3  -6    2.90    1.90
  -8   3   6    4.40    2.60
   8  -3  -5   -0.30    1.70
  -8   3   5   -1.70    2.60
   8  -3  -4    4.40    2.20
  -8   3   4    0.80    2.40
   8  -3  -3    7.90    2.40
  -8   3   3    9.70    3.00
   8  -3  -2   12.60    2.60
  -8   3   2   17.10    2.90
   8  -3  -1   69.20    4.80
  -8   3   1   67.30    5.10
   8  -3   0    2.60    2.20
  -8   3   0   -2.30    2.10
   8  -3   1   24.50    2.90
  -8   3  -1   27.20    3.50
   8  -3   2    0.50    2.10
  -8   3  -2   -0.20    2.30
   8  -3   3   25.40    3.00
  -8   3  -3   18.80    3.60
   8  -3   4    4.00    2.30
  -8   3  -4    1.70    2.30
   8  -3   5    4.20    4.90
  -8   3  -5    2.10    5.50
   8  -3   6    5.60    6.70
  -8   3  -6    5.50    4.30
   8  -2  -8   11.20    2.80
  -8   2   8   14.10    3.30
   8  -2  -7   43.80    3.90
  -8   2   7   51.30    4.30
   8  -2  -6   24.10    2.80
  -8   2   6   30.50    4.30
   8  -2  -5    4.00    2.60
  -8   2   5   11.40    2.80
   8  -2  -4   -1.10    2.60
  -8   2   4    1.50    3.20
   8  -2  -3   -0.20    2.20
  -8   2   3   -0.30    2.60
   8  -2  -2    0.00    2.20
  -8   2   2   -2.00    2.60
   8  -2  -1   39.60    3.50
  -8   2   1   42.20    4.50
   8  -2   0   59.40    4.30
  -8   2   0   61.30    5.50
   8  -2   1    8.20    2.50
  -8   2  -1   -2.80    3.20
   8  -2   2    1.00    2.20
  -8   2  -2    2.60    3.10
   8  -2   3   16.30    3.00
  -8   2  -3   15.10    3.60
   8  -2   4    1.70    2.20
  -8   2  -4    2.10    2.40
   8  -2   5   15.50    2.80
  -8   2  -5   20.20    3.10
   8  -2   6   13.60    2.70
  -8   2  -6    6.60    2.90
   8  -2   7   17.90    5.60
  -8   2  -7    6.20    4.70
   8  -1  -9    9.50    4.70
  -8   1   9    9.40    3.10
   8  -1  -8    5.80    3.20
  -8   1   8   13.50    3.50
   8  -1  -7    2.50    2.30
  -8   1   7    2.00    2.90
   8  -1  -6   23.40    2.90
  -8   1   6   24.00    3.60
   8  -1  -5    4.70    2.60
  -8   1   5    5.10    2.70
   8  -1  -4    3.30    2.40
  -8   1   4   -3.20    2.20
   8  -1  -3   27.70    3.20
  -8   1   3   26.90    3.90
   8  -1  -2   28.80    3.10
  -8   1   2   43.20    4.10
   8  -1  -1   65.00    4.20
  -8   1   1   64.10    5.50
   8  -1   0    0.10    2.10
  -8   1   0    3.40    2.60
   8  -1   1   -0.20    1.90
  -8   1  -1   -0.80    2.20
   8  -1   2   45.10    3.90
  -8   1  -2   47.00    4.70
   8  -1   3   13.80    2.50
  -8   1  -3   16.70    3.20
   8  -1   4   -0.60    2.40
  -8   1  -4   -4.40    2.60
   8  -1   5   -1.60    2.30
  -8   1  -5   -2.30    2.70
   8  -1   6    5.10    2.40
  -8   1  -6    4.10    2.50
   8  -1   7   37.90    3.60
  -8   1  -7   34.40    4.40
   8  -1   8   13.60    4.10
  -8   1  -8    7.90    3.40
   8   0  -9   -2.50    3.40
  -8   0   9   -7.30    5.20
   8   0  -8    7.40    2.60
  -8   0   8    6.30    4.10
   8   0  -7   -3.50    2.40
  -8   0   7    1.80    3.80
   8   0  -6   21.30    3.30
  -8   0   6   25.30    6.10
   8   0  -5   -1.00    2.20
  -8   0   5    1.20    3.50
   8   0  -4   13.30    2.70
  -8   0   4    9.80    2.70
   8   0  -3    0.30    2.20
  -8   0   3   -0.70    2.40
   8   0  -2   71.70    4.70
  -8   0   2   74.80    5.60
   8   0  -1   -0.20    2.00
  -8   0   1   -1.10    2.50
   8   0   0    4.20    2.20
  -8   0   0    7.00    3.10
   8   0   1    4.40    2.20
  -8   0  -1    1.70    2.50
   8   0   2   10.50    2.50
  -8   0  -2    3.60    2.50
   8   0   3    0.90    2.10
  -8   0  -3   -1.70    2.10
   8   0   4   52.10    4.00
  -8   0  -4   54.00    4.80
   8   0   5   -3.40    2.40
  -8   0  -5   -1.80    2.80
   8   0   6    8.20    6.50
  -8   0  -6    3.60    3.50
   8   0   7   11.30    3.80
  -8   0  -7   -1.60    2.50
   8   0   8   98.10    7.60
  -8   0  -8  110.70    7.30
   8   1  -9    3.10    2.90
  -8  -1   9    9.50    4.10
   8   1  -8    4.90    2.80
  -8  -1   8   12.10    4.60
   8   1  -7    4.40    2.80
   8   1  -6   24.80    3.10
  -8  -1   6   27.80    5.20
   8   1  -5    8.00    2.60
  -8  -1   5    4.50    3.80
   8   1  -4    5.50    2.50
  -8  -1   4    4.30    4.80
   8   1  -3   31.10    3.40
  -8  -1   3   22.90    4.60
   8   1  -2   38.70    3.50
  -8  -1   2   40.90    4.40
   8   1  -1   74.10    5.60
  -8  -1   1   69.00    5.70
   8   1   0    4.60    2.40
  -8  -1   0    3.80    3.00
   8   1   1    7.50    2.60
  -8  -1  -1   -3.20    2.80
   8   1   2   43.00    3.80
  -8  -1  -2   57.30    5.20
   8   1   3   15.60    3.00
  -8  -1  -3   18.90    3.70
   8   1   4    0.60    3.10
  -8  -1  -4    3.10    3.60
   8   1   5   -2.60    3.10
  -8  -1  -5    0.60    3.20
   8   1   6    2.50    2.90
  -8  -1  -6    5.30    2.90
   8   1   7   43.80    4.90
  -8  -1  -7   32.90    4.50
   8   1   8    8.90    4.20
  -8  -1  -8   14.50    3.80
   8   2  -8   14.30    3.40
  -8  -2   8   13.80    5.60
   8   2  -7   49.70    4.00
  -8  -2   7   59.20    7.20
   8   2  -6   23.40    3.30
  -8  -2   6   34.90    5.90
   8   2  -5    9.80    2.90
  -8  -2   5   12.80    5.20
   8   2  -4   -1.40    2.20
  -8  -2   4   -2.30    3.40
   8   2  -3   -0.40    2.30
  -8  -2   3   -4.40    3.40
   8   2  -2   -0.30    2.40
  -8  -2   2   -9.90    4.70
   8   2  -1   36.80    3.40
  -8  -2   1   27.50    5.40
   8   2   0   65.30    4.40
  -8  -2   0   73.40    6.00
   8   2   1    3.70    2.20
  -8  -2  -1   11.40    3.40
   8   2   2    0.30    2.10
  -8  -2  -2   -2.30    2.90
   8   2   3   17.30    3.30
  -8  -2  -3   13.30    3.20
   8   2   4    3.40    3.30
  -8  -2  -4    6.10    2.90
   8   2   5   14.60    3.70
  -8  -2  -5   22.00    3.80
   8   2   6   14.70    4.00
  -8  -2  -6    9.90    3.60
   8   2   7   15.10    3.80
  -8  -2  -7   12.40    3.60
   8   2   8   38.40    5.10
  -8  -2  -8   30.30    4.30
   8   3  -8    0.90    3.30
  -8  -3   8    0.80    3.90
   8   3  -7   30.40    3.40
  -8  -3   7   43.20    6.60
   8   3  -6    5.70    2.70
  -8  -3   6    4.50    3.90
   8   3  -5    2.60    3.30
  -8  -3   5    3.90    4.90
   8   3  -4    1.30    2.10
  -8  -3   4    0.60    3.40
   8   3  -3    9.60    2.80
  -8  -3   3   13.80    4.70
   8   3  -2   16.60    2.90
  -8  -3   2   15.90    5.90
   8   3  -1   85.20    5.20
  -8  -3   1   66.70    7.90
   8   3   0   -0.60    2.10
  -8  -3   0    3.80    3.80
   8   3   1   29.70    4.20
  -8  -3  -1   23.60    3.90
   8   3   2    0.50    2.70
  -8  -3  -2   -1.60    3.20
   8   3   3   19.80    4.00
  -8  -3  -3   31.20    4.30
   8   3   4    0.00    2.70
  -8  -3  -4    2.60    2.70
   8   3   5    2.70    3.20
  -8  -3  -5    3.90    3.40
   8   3   6   -1.30    3.00
  -8  -3  -6    2.30    2.90
   8   3   7    8.60    4.70
  -8  -3  -7   11.40    4.50
   8   4  -6    1.50    2.60
  -8  -4   6    1.30    4.00
   8   4  -5    7.80    2.90
  -8  -4   5    9.80    6.10
   8   4  -4    1.00    2.30
  -8  -4   4    5.20    4.10
   8   4  -3    3.70    2.50
  -8  -4   3   -1.60    3.50
   8   4  -2   -2.00    2.60
  -8  -4   2   -7.40    5.20
   8   4  -1    7.80    2.60
  -8  -4   1    6.00    4.00
   8   4   0   19.10    2.80
  -8  -4   0   16.10    4.60
   8   4   1   15.70    3.70
  -8  -4  -1   16.70    5.30
   8   4   2   30.70    4.10
  -8  -4  -2   32.70    4.40
   8   4   3   26.10    4.40
  -8  -4  -3   20.70    4.40
   8   4   4   14.40    3.70
  -8  -4  -4   15.10    3.70
   8   4   5   38.90    4.90
  -8  -4  -5   37.20    4.90
   8   4   6    4.60    4.90
  -8  -4  -6   -3.50    3.50
   8   5  -4   61.50    4.90
  -8  -5   4   78.60   10.00
   8   5  -3   10.10    2.70
  -8  -5   3    3.90    4.40
   8   5  -2   28.00    3.60
  -8  -5   2   32.00    6.40
   8   5  -1   25.10    3.70
  -8  -5   1   12.70    5.20
   8   5   0    4.60    4.00
  -8  -5   0    7.30    6.10
   8   5   1   14.00    3.40
  -8  -5  -1   14.20    6.20
   8   5   2    5.10    3.40
  -8  -5  -2    8.20    4.40
   8   5   3    4.50    3.20
  -8  -5  -3    9.30    3.40
   8   5   4   -2.10    5.80
  -8  -5  -4    3.40    4.30
   0   0   0    0.00    0.00
;
_shelx_hkl_checksum              53489
_shelx_res_file
;
TITL SrZnAs2O7 in P2(1)/n
CELL 0.71073   5.5114   8.3524  13.1057  90.000  91.015  90.000
ZERR    4.00   0.0011   0.0017   0.0026   0.000   0.030   0.000
LATT   1
SYMM  1/2 - X, 1/2 + Y, 1/2 - Z
SFAC  O    ZN   AS   Sr
UNIT  28   4    8    4
MERG   2
FMAP   2
PLAN   20
SIZE     0.02   0.03   0.16
ACTA
omit   2  10   0
CONN SR1 15
BOND
shel 100 .7
L.S.  10
TEMP    20.00
WGHT    0.040100    1.070200
FVAR       0.11436
MOLE    1
SR1   4    0.209486    0.670338    0.218593    11.00000    0.00753    0.01197 =
         0.01402    0.00130   -0.00140   -0.00041
AS1   3   -0.244856    0.476583    0.338565    11.00000    0.00647    0.00780 =
         0.01041   -0.00028   -0.00097    0.00031
AS2   3    0.672781    0.694979    0.014570    11.00000    0.00617    0.00960 =
         0.00881   -0.00011   -0.00062    0.00015
ZN1   2    0.837759    0.356544    0.109627    11.00000    0.00824    0.01015 =
         0.01339    0.00016   -0.00143   -0.00048
O1    1    0.957463    0.382584    0.266311    11.00000    0.00816    0.01502 =
         0.01185   -0.00163    0.00103    0.00320
O2    1    0.471983    0.453660    0.297177    11.00000    0.00662    0.01372 =
         0.02527   -0.00066   -0.00548   -0.00005
O3    1    0.652247    0.166514    0.152057    11.00000    0.01184    0.00633 =
         0.01892    0.00147    0.00041    0.00069
O4    1   -0.220410    0.398735    0.461802    11.00000    0.01831    0.00937 =
         0.01175    0.00058   -0.00051    0.00334
O5    1    1.198951    0.327030    0.098947    11.00000    0.00769    0.01742 =
         0.01062   -0.00016    0.00020   -0.00002
O6    1    0.829394    0.598632    0.107175    11.00000    0.01167    0.01043 =
         0.01612    0.00154   -0.00529    0.00040
O7    1    0.624460    0.344539   -0.025073    11.00000    0.00437    0.01568 =
         0.01362    0.00153   -0.00012   -0.00109
HKLF 4
REM  SrZnAs2O7 in P2(1)/n
REM R1 =  0.0318 for   1555 Fo > 4sig(Fo)  and  0.0408 for all   1834 data
REM    100 parameters refined using      0 restraints
END
WGHT      0.0401      1.0702
REM Highest difference peak  1.354,  deepest hole -1.203,  1-sigma level  0.266
Q1    1  -0.1856  0.3139  0.4802  11.00000  0.05    1.35
Q2    1   0.2103  0.5678  0.2161  11.00000  0.05    1.35
Q3    1   0.6788  0.6006  0.0163  11.00000  0.05    1.31
Q4    1  -0.2547  0.5803  0.3580  11.00000  0.05    1.31
Q5    1   0.2105  0.7720  0.2214  11.00000  0.05    1.29
Q6    1   0.2075  0.6692  0.2790  11.00000  0.05    1.19
Q7    1   0.7011  0.6049  0.1025  11.00000  0.05    1.09
Q8    1   0.8268  0.2638  0.1050  11.00000  0.05    1.07
Q9    1  -0.2492  0.3827  0.3531  11.00000  0.05    1.00
Q10   1   0.8458  0.4747  0.0992  11.00000  0.05    0.97
Q11   1   0.6789  0.7164  0.0810  11.00000  0.05    0.97
Q12   1  -0.2517  0.4738  0.2776  11.00000  0.05    0.95
Q13   1   0.4936  0.3043 -0.0145  11.00000  0.05    0.94
Q14   1   0.2233  0.6767  0.1610  11.00000  0.05    0.93
Q15   1  -0.2517  0.4813  0.4031  11.00000  0.05    0.89
Q16   1   0.3391  0.6761  0.2236  11.00000  0.05    0.86
Q17   1   0.8541  0.3695  0.2217  11.00000  0.05    0.86
Q18   1   0.9002  0.3587  0.3101  11.00000  0.05    0.85
Q19   1   0.2198  0.5453  0.2832  11.00000  0.05    0.84
Q20   1  -0.3880  0.4787  0.3338  11.00000  0.05    0.84
;
_shelx_res_checksum              42515
_shelxl_version_number           .2013
#END Tags that were not found in dictionaries
loop_
_space_group_symop_operation_xyz
'x, y, z'
'-x+1/2, y+1/2, -z+1/2'
'-x, -y, -z'
'x-1/2, -y-1/2, z-1/2'
loop_
_atom_site_type_symbol
_atom_site_label
_atom_site_fract_x
_atom_site_fract_y
_atom_site_fract_z
_atom_site_U_iso_or_equiv
_atom_site_adp_type
_atom_site_calc_flag
_atom_site_occupancy
Sr Sr1 0.20949(7) 0.67034(5) 0.21859(3) 0.01119(11) Uani d 1
As As1 -0.24486(7) 0.47658(5) 0.33857(3) 0.00824(11) Uani d 1
As As2 0.67278(7) 0.69498(5) 0.01457(3) 0.00820(11) Uani d 1
Zn Zn1 0.83776(9) 0.35654(6) 0.10963(4) 0.01061(12) Uani d 1
O O1 0.9575(5) 0.3826(4) 0.2663(2) 0.0117(6) Uani d 1
O O2 0.4720(5) 0.4537(4) 0.2972(3) 0.0153(7) Uani d 1
O O3 0.6522(6) 0.1665(4) 0.1521(3) 0.0124(6) Uani d 1
O O4 -0.2204(6) 0.3987(4) 0.4618(2) 0.0132(6) Uani d 1
O O5 1.1990(5) 0.3270(4) 0.0989(2) 0.0119(6) Uani d 1
O O6 0.8294(5) 0.5986(4) 0.1072(2) 0.0128(6) Uani d 1
O O7 0.6245(5) 0.3445(4) -0.0251(2) 0.0112(6) Uani d 1
loop_
_atom_site_aniso_label
_atom_site_aniso_U_11
_atom_site_aniso_U_22
_atom_site_aniso_U_33
_atom_site_aniso_U_12
_atom_site_aniso_U_13
_atom_site_aniso_U_23
Sr1 0.00753(19) 0.0120(2) 0.0140(2) -0.00041(14) -0.00140(15) 0.00130(15)
As1 0.00647(19) 0.0078(2) 0.0104(2) 0.00031(14) -0.00097(15) -0.00028(15)
As2 0.0062(2) 0.0096(2) 0.0088(2) 0.00015(14) -0.00062(15) -0.00011(15)
Zn1 0.0082(2) 0.0101(2) 0.0134(3) -0.00048(18) -0.00143(18) 0.00016(19)
O1 0.0082(14) 0.0150(15) 0.0118(15) 0.0032(11) 0.0010(12) -0.0016(12)
O2 0.0066(14) 0.0137(16) 0.0253(19) -0.0001(11) -0.0055(13) -0.0007(13)
O3 0.0118(15) 0.0063(14) 0.0189(16) 0.0007(11) 0.0004(12) 0.0015(12)
O4 0.0183(15) 0.0094(15) 0.0118(15) 0.0033(12) -0.0005(12) 0.0006(12)
O5 0.0077(14) 0.0174(16) 0.0106(15) 0.0000(11) 0.0002(11) -0.0002(12)
O6 0.0117(15) 0.0104(15) 0.0161(16) 0.0004(11) -0.0053(12) 0.0015(12)
O7 0.0044(13) 0.0157(16) 0.0136(15) -0.0011(11) -0.0001(11) 0.0015(13)
loop_
_atom_type_symbol
_atom_type_description
_atom_type_scat_dispersion_real
_atom_type_scat_dispersion_imag
_atom_type_scat_source
O O 0.0106 0.0060 'International Tables Vol C Tables 4.2.6.8 and 6.1.1.4'
Zn Zn 0.2839 1.4301 'International Tables Vol C Tables 4.2.6.8 and 6.1.1.4'
As As 0.0499 2.0058 'International Tables Vol C Tables 4.2.6.8 and 6.1.1.4'
Sr Sr -1.5307 3.2498 'International Tables Vol C Tables 4.2.6.8 and 6.1.1.4'
loop_
_geom_angle_atom_site_label_1
_geom_angle_atom_site_label_2
_geom_angle_atom_site_label_3
_geom_angle_site_symmetry_1
_geom_angle_site_symmetry_3
_geom_angle
_geom_angle_publ_flag
O2 Sr1 O1 . 2_655 93.44(10) yes
O2 Sr1 O2 . 2 155.50(7) yes
O1 Sr1 O2 2_655 2 69.30(10) yes
O2 Sr1 O6 . 1_455 120.91(10) yes
O1 Sr1 O6 2_655 1_455 140.59(10) yes
O2 Sr1 O6 2 1_455 81.88(10) yes
O2 Sr1 O3 . 2 99.39(10) yes
O1 Sr1 O3 2_655 2 120.53(10) yes
O2 Sr1 O3 2 2 76.47(10) yes
O6 Sr1 O3 1_455 2 75.40(10) yes
O2 Sr1 O7 . 3_665 98.52(11) yes
O1 Sr1 O7 2_655 3_665 81.41(10) yes
O2 Sr1 O7 2 3_665 95.96(10) yes
O6 Sr1 O7 1_455 3_665 75.32(9) yes
O3 Sr1 O7 2 3_665 150.51(10) yes
O2 Sr1 O5 . 2_655 83.80(10) yes
O1 Sr1 O5 2_655 2_655 59.01(10) yes
O2 Sr1 O5 2 2_655 72.49(10) yes
O6 Sr1 O5 1_455 2_655 136.65(10) yes
O3 Sr1 O5 2 2_655 65.08(9) yes
O7 Sr1 O5 3_665 2_655 140.40(9) yes
O2 Sr1 O1 . 1_455 65.43(9) yes
O1 Sr1 O1 2_655 1_455 156.84(6) yes
O2 Sr1 O1 2 1_455 127.02(9) yes
O6 Sr1 O1 1_455 1_455 62.52(9) yes
O3 Sr1 O1 2 1_455 58.16(9) yes
O7 Sr1 O1 3_665 1_455 109.88(9) yes
O5 Sr1 O1 2_655 1_455 106.95(9) yes
O2 Sr1 O5 . 1_455 64.66(10) yes
O1 Sr1 O5 2_655 1_455 130.69(9) yes
O2 Sr1 O5 2 1_455 139.81(9) yes
O6 Sr1 O5 1_455 1_455 61.41(9) yes
O3 Sr1 O5 2 1_455 106.87(9) yes
O7 Sr1 O5 3_665 1_455 60.98(9) yes
O5 Sr1 O5 2_655 1_455 146.28(9) yes
O1 Sr1 O5 1_455 1_455 50.28(8) yes
O2 Sr1 As1 . . 83.76(7) ?
O1 Sr1 As1 2_655 . 146.09(7) ?
O2 Sr1 As1 2 . 100.76(7) ?
O6 Sr1 As1 1_455 . 63.68(7) ?
O3 Sr1 As1 2 . 28.87(7) ?
O7 Sr1 As1 3_665 . 132.48(7) ?
O5 Sr1 As1 2_655 . 87.12(7) ?
O1 Sr1 As1 1_455 . 29.47(6) ?
O5 Sr1 As1 1_455 . 78.27(6) ?
O2 Sr1 Zn1 . 1_455 87.59(8) ?
O1 Sr1 Zn1 2_655 1_455 159.49(7) ?
O2 Sr1 Zn1 2 1_455 114.76(7) ?
O6 Sr1 Zn1 1_455 1_455 33.32(7) ?
O3 Sr1 Zn1 2 1_455 79.36(7) ?
O7 Sr1 Zn1 3_665 1_455 78.19(7) ?
O5 Sr1 Zn1 2_655 1_455 141.29(7) ?
O1 Sr1 Zn1 1_455 1_455 36.73(6) ?
O5 Sr1 Zn1 1_455 1_455 33.60(5) ?
As1 Sr1 Zn1 . 1_455 54.392(17) ?
O2 Sr1 Zn1 . 2_655 71.08(8) ?
O1 Sr1 Zn1 2_655 2_655 34.99(7) ?
O2 Sr1 Zn1 2 2_655 85.35(7) ?
O6 Sr1 Zn1 1_455 2_655 166.41(7) ?
O3 Sr1 Zn1 2 2_655 97.12(7) ?
O7 Sr1 Zn1 3_665 2_655 110.80(7) ?
O5 Sr1 Zn1 2_655 2_655 32.70(6) ?
O1 Sr1 Zn1 1_455 2_655 123.39(6) ?
O5 Sr1 Zn1 1_455 2_655 132.15(5) ?
As1 Sr1 Zn1 . 2_655 114.63(2) ?
Zn1 Sr1 Zn1 1_455 2_655 157.632(18) ?
O2 As1 O3 1_455 2 114.79(16) yes
O2 As1 O1 1_455 1_455 113.26(16) yes
O3 As1 O1 2 1_455 106.36(16) yes
O2 As1 O4 1_455 . 108.51(17) yes
O3 As1 O4 2 . 105.51(16) yes
O1 As1 O4 1_455 . 107.95(15) yes
O2 As1 Sr1 1_455 . 127.11(12) ?
O3 As1 Sr1 2 . 49.74(11) ?
O1 As1 Sr1 1_455 . 57.05(11) ?
O4 As1 Sr1 . . 124.17(11) ?
O2 As1 Sr1 1_455 2_445 37.37(11) ?
O3 As1 Sr1 2 2_445 152.14(11) ?
O1 As1 Sr1 1_455 2_445 91.54(11) ?
O4 As1 Sr1 . 2_445 88.37(11) ?
Sr1 As1 Sr1 . 2_445 138.830(16) ?
O2 As1 Sr1 1_455 1_455 33.36(11) ?
O3 As1 Sr1 2 1_455 82.08(11) ?
O1 As1 Sr1 1_455 1_455 120.33(11) ?
O4 As1 Sr1 . 1_455 126.83(11) ?
Sr1 As1 Sr1 . 1_455 101.16(2) ?
Sr1 As1 Sr1 2_445 1_455 70.374(18) ?
O5 As2 O7 3_765 3_665 118.74(15) yes
O5 As2 O6 3_765 . 111.75(16) yes
O7 As2 O6 3_665 . 109.62(15) yes
O5 As2 O4 3_765 2 101.56(15) yes
O7 As2 O4 3_665 2 108.69(15) yes
O6 As2 O4 . 2 105.33(15) yes
O5 As2 Sr1 3_765 . 159.71(11) ?
O7 As2 Sr1 3_665 . 41.43(11) ?
O6 As2 Sr1 . . 78.79(11) ?
O4 As2 Sr1 2 . 91.67(11) ?
O3 Zn1 O5 . . 116.04(13) yes
O3 Zn1 O6 . . 142.82(13) yes
O5 Zn1 O6 . . 98.26(13) yes
O3 Zn1 O7 . . 85.04(13) yes
O5 Zn1 O7 . . 118.29(12) yes
O6 Zn1 O7 . . 91.26(12) yes
O3 Zn1 O1 . . 87.94(13) yes
O5 Zn1 O1 . . 78.02(12) yes
O6 Zn1 O1 . . 85.46(12) yes
O7 Zn1 O1 . . 163.69(12) yes
O3 Zn1 Sr1 . 1_655 140.05(10) ?
O5 Zn1 Sr1 . 1_655 63.96(9) ?
O6 Zn1 Sr1 . 1_655 44.96(8) ?
O7 Zn1 Sr1 . 1_655 132.18(9) ?
O1 Zn1 Sr1 . 1_655 52.23(9) ?
O3 Zn1 Sr1 . 2_645 80.60(9) ?
O5 Zn1 Sr1 . 2_645 47.89(9) ?
O6 Zn1 Sr1 . 2_645 116.59(9) ?
O7 Zn1 Sr1 . 2_645 148.87(9) ?
O1 Zn1 Sr1 . 2_645 42.84(8) ?
Sr1 Zn1 Sr1 1_655 2_645 71.96(2) ?
As1 O1 Zn1 1_655 . 113.01(15) ?
As1 O1 Sr1 1_655 2_645 140.09(17) ?
Zn1 O1 Sr1 . 2_645 102.17(12) ?
As1 O1 Sr1 1_655 1_655 93.48(13) ?
Zn1 O1 Sr1 . 1_655 91.04(11) ?
Sr1 O1 Sr1 2_645 1_655 104.45(10) ?
As1 O2 Sr1 1_655 . 125.53(17) ?
As1 O2 Sr1 1_655 2_545 119.69(16) ?
Sr1 O2 Sr1 . 2_545 114.01(11) ?
As1 O3 Zn1 2_545 . 128.72(18) ?
As1 O3 Sr1 2_545 2_545 101.39(14) ?
Zn1 O3 Sr1 . 2_545 124.90(14) ?
As1 O4 As2 . 2_545 122.39(18) yes
As2 O5 Zn1 3_765 . 120.70(17) ?
As2 O5 Sr1 3_765 2_645 130.19(16) ?
Zn1 O5 Sr1 . 2_645 99.40(12) ?
As2 O5 Sr1 3_765 1_655 121.35(15) ?
Zn1 O5 Sr1 . 1_655 82.44(10) ?
Sr1 O5 Sr1 2_645 1_655 89.94(9) ?
As2 O6 Zn1 . . 120.07(17) ?
As2 O6 Sr1 . 1_655 133.84(17) ?
Zn1 O6 Sr1 . 1_655 101.73(12) ?
As2 O7 Zn1 3_665 . 118.14(17) ?
As2 O7 Sr1 3_665 3_665 114.40(15) ?
Zn1 O7 Sr1 . 3_665 126.37(12) ?
loop_
_geom_bond_atom_site_label_1
_geom_bond_atom_site_label_2
_geom_bond_site_symmetry_2
_geom_bond_distance
_geom_bond_publ_flag
Sr1 O2 . 2.525(3) yes
Sr1 O1 2_655 2.557(3) yes
Sr1 O2 2 2.576(3) yes
Sr1 O6 1_455 2.602(3) yes
Sr1 O3 2 2.640(3) yes
Sr1 O7 3_665 2.714(3) yes
Sr1 O5 2_655 2.765(3) yes
Sr1 O1 1_455 2.851(3) yes
Sr1 O5 1_455 3.268(3) yes
Sr1 As1 . 3.3913(9) ?
Sr1 Zn1 1_455 3.6059(9) ?
Sr1 Zn1 2_655 3.6762(11) ?
As1 O2 1_455 1.654(3) yes
As1 O3 2 1.670(3) yes
As1 O1 1_455 1.671(3) yes
As1 O4 . 1.744(3) yes
As1 Sr1 2_445 3.6869(8) ?
As1 Sr1 1_455 3.7374(10) ?
As2 O5 3_765 1.669(3) yes
As2 O7 3_665 1.679(3) yes
As2 O6 . 1.682(3) yes
As2 O4 2 1.749(3) yes
Zn1 O3 . 1.973(3) yes
Zn1 O5 . 2.013(3) yes
Zn1 O6 . 2.023(3) yes
Zn1 O7 . 2.106(3) yes
Zn1 O1 . 2.157(3) yes
Zn1 Sr1 1_655 3.6059(9) ?
Zn1 Sr1 2_645 3.6762(11) ?
O1 As1 1_655 1.671(3) ?
O1 Sr1 2_645 2.557(3) ?
O1 Sr1 1_655 2.851(3) ?
O2 As1 1_655 1.654(3) ?
O2 Sr1 2_545 2.576(3) ?
O3 As1 2_545 1.670(3) ?
O3 Sr1 2_545 2.640(3) ?
O4 As2 2_545 1.749(3) ?
O5 As2 3_765 1.669(3) ?
O5 Sr1 2_645 2.765(3) ?
O5 Sr1 1_655 3.268(3) ?
O6 Sr1 1_655 2.602(3) ?
O7 As2 3_665 1.679(3) ?
O7 Sr1 3_665 2.714(3) ?
