#------------------------------------------------------------------------------
#$Date: 2016-02-20 00:18:51 +0200 (Sat, 20 Feb 2016) $
#$Revision: 176760 $
#$URL: svn://www.crystallography.net/cod/cif/2/01/95/2019599.cif $
#------------------------------------------------------------------------------
#
# This file is available in the Crystallography Open Database (COD),
# http://www.crystallography.net/. The original data for this entry
# were provided by IUCr Journals, http://journals.iucr.org/.
#
# The file may be used within the scientific community so long as
# proper attribution is given to the journal article from which the
# data were obtained.
#
data_2019599
loop_
_publ_author_name
'Zeller, Matthias'
'Banerjee, Subhadeep'
'Br\"uckner, Christian'
_publ_section_title
;
 Oxazolochlorins. 14. 8-Oxo-5,10,15,20-tetraphenyl-7-oxaporphyrin
 <i>N</i>^24^-oxide
;
_journal_coeditor_code           GZ3266
_journal_issue                   7
_journal_name_full               'Acta Crystallographica Section C'
_journal_page_first              707
_journal_page_last               711
_journal_paper_doi               10.1107/S2053229614013953
_journal_volume                  70
_journal_year                    2014
_chemical_formula_iupac          'C43 H28 N4 O3'
_chemical_formula_moiety         'C43 H28 N4 O3'
_chemical_formula_sum            'C43 H28 N4 O3'
_chemical_formula_weight         648.69
_chemical_name_systematic
;
8-Oxo-5,10,15,20-tetraphenyl-7-oxaporphyrin <i>N</i>^24^-oxide
;
_space_group_crystal_system      triclinic
_space_group_IT_number           2
_space_group_name_Hall           '-P 1'
_space_group_name_H-M_alt        'P -1'
_symmetry_space_group_name_Hall  '-P 1'
_symmetry_space_group_name_H-M   'P -1'
_atom_sites_solution_hydrogens   geom
_atom_sites_solution_primary     direct
_atom_sites_solution_secondary   difmap
_audit_creation_method           SHELXL2014
_cell_angle_alpha                95.548(3)
_cell_angle_beta                 99.348(3)
_cell_angle_gamma                100.200(3)
_cell_formula_units_Z            1
_cell_length_a                   6.3512(12)
_cell_length_b                   10.405(2)
_cell_length_c                   12.464(2)
_cell_measurement_reflns_used    2036
_cell_measurement_temperature    100(2)
_cell_measurement_theta_max      30.27
_cell_measurement_theta_min      2.44
_cell_volume                     793.2(2)
_computing_cell_refinement       'APEX2 (Bruker, 2009)'
_computing_data_collection       'APEX2 (Bruker, 2009)'
_computing_data_reduction        'APEX2 (Bruker, 2009)'
_computing_molecular_graphics
;
Mercury (Macrae <i>et al.</i>, 2008) and PLATON (Spek, 2009)
;
_computing_publication_material
;
SHELXTL (Sheldrick, 2008) and publCIF (Westrip, 2010)
;
_computing_structure_refinement
;
SHELXL2014 (Sheldrick, 2014) and SHELXLE (H\"ubschle <i>et al.</i>,
2011)
;
_computing_structure_solution    'SHELXS97 (Sheldrick, 2008)'
_diffrn_ambient_temperature      100(2)
_diffrn_measured_fraction_theta_full 0.991
_diffrn_measured_fraction_theta_max 0.986
_diffrn_measurement_device_type  'Bruker SMART APEX CCD area-detector'
_diffrn_measurement_method       \w
_diffrn_radiation_monochromator  graphite
_diffrn_radiation_type           MoK\a
_diffrn_radiation_wavelength     0.71073
_diffrn_reflns_av_R_equivalents  0.0409
_diffrn_reflns_limit_h_max       7
_diffrn_reflns_limit_h_min       -7
_diffrn_reflns_limit_k_max       12
_diffrn_reflns_limit_k_min       -12
_diffrn_reflns_limit_l_max       15
_diffrn_reflns_limit_l_min       -15
_diffrn_reflns_number            6892
_diffrn_reflns_theta_full        25.242
_diffrn_reflns_theta_max         26.371
_diffrn_reflns_theta_min         1.670
_exptl_absorpt_coefficient_mu    0.087
_exptl_absorpt_correction_T_max  0.7461
_exptl_absorpt_correction_T_min  0.4686
_exptl_absorpt_correction_type   multi-scan
_exptl_absorpt_process_details   '(APEX2; Bruker, 2009)'
_exptl_crystal_colour            black
_exptl_crystal_density_diffrn    1.358
_exptl_crystal_description       block
_exptl_crystal_F_000             338
_exptl_crystal_size_max          0.320
_exptl_crystal_size_mid          0.170
_exptl_crystal_size_min          0.110
_refine_diff_density_max         0.284
_refine_diff_density_min         -0.271
_refine_ls_extinction_method     none
_refine_ls_goodness_of_fit_ref   1.065
_refine_ls_hydrogen_treatment    constr
_refine_ls_matrix_type           full
_refine_ls_number_parameters     283
_refine_ls_number_reflns         3185
_refine_ls_number_restraints     152
_refine_ls_restrained_S_all      1.062
_refine_ls_R_factor_all          0.0817
_refine_ls_R_factor_gt           0.0584
_refine_ls_shift/su_max          0.000
_refine_ls_shift/su_mean         0.000
_refine_ls_structure_factor_coef Fsqd
_refine_ls_weighting_details
'w = 1/[\s^2^(Fo^2^)+(0.0520P)^2^+0.4642P] where P=(Fo^2^+2Fc^2^)/3'
_refine_ls_weighting_scheme      calc
_refine_ls_wR_factor_gt          0.1325
_refine_ls_wR_factor_ref         0.1441
_reflns_number_gt                2371
_reflns_number_total             3185
_reflns_threshold_expression     I>2\s(I)
_cod_data_source_file            gz3266sup1.cf
_cod_data_source_block           I
_cod_depositor_comments          'Adding full bibliography for 2019599.cif.'
_cod_original_cell_volume        793.2(3)
_cod_database_code               2019599
_cod_database_fobs_code          2019599
#BEGIN Tags that were not found in dictionaries:
_shelx_space_group_comment
;
The symmetry employed for this shelxl refinement is uniquely defined
by the following loop, which should always be used as a source of
symmetry information in preference to the above space-group names.
They are only intended as comments.
;
_shelx_estimated_absorpt_t_min   0.973
_shelx_estimated_absorpt_t_max   0.991
_shelx_hkl_file
;
  -1   0   0 271.878   9.902   2
   1   0   0 283.030  10.140   1
  -2   0   0 1.25703 1.60329   4
  -2   0   0 2.71851 1.50672   2
   2   0   0 2.69701 2.13980   1
  -3   0   0 57.6610  4.3952   2
   3   0   0 59.8941  4.7965   1
  -4   0   0 2.43189 1.62291   2
   4   0   0 1.51119 2.26649   1
   5   0   0 0.88940 2.69820   1
  -6   0   0 98.2473  5.7376   2
   6   0   0 78.7014  7.6416   1
  -7   0   0 37.4700  2.8621   2
   7   0   0 27.1067  5.4626   1
  -8   0   0 1.27259 2.66711   2
   8   0   0 2.99986 2.81570   1
   8  -1   0 -0.5045  3.1261   1
  -8   1   0 3.58701 2.50266   2
   7  -1   0 52.2687  6.5632   1
  -7   1   0 50.8394  4.9828   2
   6  -1   0 115.334   8.496   1
  -6   1   0 123.439   7.027   2
   5  -1   0 24.5547  4.6667   1
  -5   1   0 41.3693  3.0922   2
   4  -1   0 45.0543  5.0249   1
  -4   1   0 51.4079  3.7476   2
   3  -1   0 207.598   9.332   1
  -3   1   0 190.526   8.507   2
   2  -1   0 204.754   8.435   1
  -2   1   0 185.645   7.840   2
   1  -1   0 706.770  23.826   1
  -1   1   0 653.472  23.303   2
  -1   1   0 712.325  24.536   3
   0  -1   0 684.414  25.783   1
   0   1   0 758.941  25.658   3
   1   1   0 139.182   5.905   2
   1   1   0 146.084   5.765   3
   1   1   0 145.306   6.113   1
  -2  -1   0 58.0629  4.0582   2
  -2  -1   0 59.6345  4.6118   4
   2   1   0 56.5058  4.6081   1
  -3  -1   0 100.831   7.320   4
  -3  -1   0 92.1748  5.8314   2
   3   1   0 103.458   6.522   1
  -4  -1   0 3.16324 2.39799   2
  -4  -1   0 7.75471 3.06153   4
   4   1   0 1.73030 2.88040   1
  -5  -1   0 193.121   9.807   2
   5   1   0 201.693  11.142   1
  -6  -1   0 216.454  10.489   2
   6   1   0 188.537  11.567   1
  -7  -1   0 35.9656  2.3711   2
  -8  -1   0 2.39517 2.09763   2
   8   1   0 1.59866 2.58703   1
   8  -2   0 1.91552 3.12773   1
  -8   2   0 4.67135 2.54863   2
   7  -2   0 147.478  10.293   1
  -7   2   0 149.392   9.796   2
   6  -2   0 0.54597 3.03824   1
  -6   2   0 5.04634 1.80321   2
   5  -2   0 6.44697 3.54033   1
   4  -2   0 19.7705  3.8270   1
  -4   2   0 26.9324  2.5141   2
   3  -2   0 2.35143 2.52057   1
  -3   2   0 2.09130 1.30388   2
   2  -2   0 2541.14   83.88   1
  -2   2   0 2525.25   82.69   2
  -2   2   0 2362.09   86.94   3
   1  -2   0 4809.84  168.90   1
  -1   2   0 5098.95  171.36   3
  -1   2   0 4807.23  163.93   2
   0  -2   0 1284.04   43.18   1
   0   2   0 1291.60   45.37   3
   0   2   0 1246.84   42.32   2
   1   2   0 761.498  27.371   3
   1   2   0 721.095  25.778   2
   1   2   0 775.362  26.391   1
   2   2   0 336.293  13.052   3
   2   2   0 340.329  13.362   1
  -3  -2   0 -0.1051  1.8002   2
  -3  -2   0 -0.0676  1.3610   4
  -3  -2   0 -0.0963  0.6659   3
   3   2   0 2.08999 2.10301   1
  -4  -2   0 344.055  15.152   2
  -4  -2   0 361.680  18.055   4
   4   2   0 370.041  15.762   1
  -5  -2   0 80.7661  5.6108   2
   5   2   0 67.5951  6.3798   1
  -6  -2   0 134.409   7.407   2
   6   2   0 114.622   8.608   1
  -8  -2   0 -1.5301  1.2830   2
   8   2   0 7.38243 2.28178   1
   8  -3   0 7.57992 3.20947   1
  -8   3   0 6.72691 2.88219   2
   7  -3   0 0.19730 3.05744   1
  -7   3   0 3.31805 2.67028   2
   6  -3   0 39.6098  5.5226   1
  -6   3   0 38.6881  4.7048   2
   5  -3   0 10.4267  3.9338   1
  -5   3   0 12.6501  3.4882   2
   4  -3   0 148.749   8.364   1
  -4   3   0 143.982   6.422   3
  -4   3   0 143.950   7.796   2
   3  -3   0 0.63507 2.59356   1
  -3   3   0 -1.6114  1.8212   2
  -3   3   0 -0.1434  1.3366   3
   2  -3   0 167.906   7.767   1
  -2   3   0 160.731   7.514   3
  -2   3   0 166.170   7.180   2
   1  -3   0 250.707  10.182   1
  -1   3   0 268.681  10.872   3
  -1   3   0 260.317   9.598   2
   0  -3   0 26.3112  2.6924   1
   0   3   0 21.1988  2.7736   3
   0   3   0 19.2599  2.2619   2
   1   3   0 13.3970  2.1637   1
   1   3   0 10.4782  1.8740   2
   1   3   0 11.8674  2.2208   3
   2   3   0 862.903  30.812   1
   2   3   0 831.806  30.175   2
   2   3   0 876.609  31.654   3
  -3  -3   0 25.1931  3.8119   2
  -3  -3   0 24.6583  3.2942   4
   3   3   0 19.1101  2.3844   3
   3   3   0 27.5940  3.9132   1
  -4  -3   0 174.117  10.928   4
  -4  -3   0 171.878   9.379   2
   4   3   0 181.853   9.826   1
  -5  -3   0 11.2713  2.8983   2
  -5  -3   0 2.63267 3.06655   4
   5   3   0 7.32012 3.39842   1
   7   3   0 -3.4965  1.6744   1
   8   3   0 85.0692  6.1848   1
   8  -4   0 0.34209 2.45725   1
  -8   4   0 3.34322 3.01906   2
   7  -4   0 4.74191 3.45817   1
  -7   4   0 11.9399  3.1119   2
   6  -4   0 19.7564  4.6507   1
  -6   4   0 28.1666  3.9538   2
   5  -4   0 97.5222  7.4422   1
  -5   4   0 89.2169  6.3329   2
   4  -4   0 19.1869  4.0381   1
  -4   4   0 16.2259  3.1455   2
  -4   4   0 18.6035  2.3152   3
   3  -4   0 738.068  27.367   1
  -3   4   0 746.797  26.518   2
  -3   4   0 724.269  27.772   3
   2  -4   0 11.7038  2.6367   1
  -2   4   0 13.5576  2.3152   2
  -2   4   0 8.74883 2.36367   3
   1  -4   0 230.306   9.724   1
  -1   4   0 229.097   8.952   2
  -1   4   0 239.996  10.538   3
   0  -4   0 99.5494  5.4347   1
   0   4   0 100.773   4.613   2
   0   4   0 98.0159  5.8608   3
   1   4   0 95.0356  4.9339   2
   1   4   0 97.9143  5.8621   3
   1   4   0 93.0828  5.1584   1
   2   4   0 27.0010  3.3217   3
   2   4   0 27.5868  3.4385   2
   2   4   0 26.0113  3.5541   1
   3   4   0 12.8723  2.2723   3
   3   4   0 13.7737  3.2091   1
  -4  -4   0 163.606   8.896   2
  -4  -4   0 162.511  10.133   4
   4   4   0 149.629   9.111   1
  -5  -4   0 38.7387  4.1549   2
  -5  -4   0 32.4552  5.2621   4
   5   4   0 36.4333  5.6288   1
  -6  -4   0 45.1190  3.0834   2
  -6  -4   0 33.1534  5.6131   4
   6   4   0 28.1683  5.1411   1
   7   4   0 2.24427 1.81329   1
   8  -5   0 41.9822  7.0332   1
  -8   5   0 38.1474  4.7225   2
   7  -5   0 1.98501 2.74184   1
  -7   5   0 1.81607 2.10200   2
   6  -5   0 2.75305 2.94432   1
  -6   5   0 1.36056 2.15193   2
   5  -5   0 19.8708  4.5055   1
  -5   5   0 23.0599  3.7539   2
   4  -5   0 64.4544  6.2258   1
  -4   5   0 68.0853  4.6953   3
  -4   5   0 69.8101  5.2086   2
   3  -5   0 368.898  15.753   1
  -3   5   0 390.706  14.918   2
  -3   5   0 377.111  15.992   3
   2  -5   0 579.130  22.513   1
  -2   5   0 627.489  21.582   2
  -2   5   0 593.376  23.770   3
   1  -5   0 507.135  19.625   1
  -1   5   0 536.004  21.232   3
  -1   5   0 532.867  18.564   2
   0  -5   0 130.464   6.880   1
   0   5   0 137.656   7.626   3
   0   5   0 137.834   5.860   2
   1   5   0 138.071   6.500   2
   1   5   0 144.859   7.911   3
   2   5   0 10.3552  2.5346   3
   2   5   0 13.6970  2.5965   2
   2   5   0 14.9606  2.5830   1
   3   5   0 93.7048  6.3087   1
   3   5   0 90.1515  5.8869   3
  -4  -5   0 78.3053  5.9838   2
  -4  -5   0 92.1339  6.5093   4
   4   5   0 78.2198  6.2587   1
  -5  -5   0 4.37189 1.41749   2
  -5  -5   0 1.75418 1.77404   4
   5   5   0 -1.1682  1.7240   1
  -6  -5   0 0.16195 2.14303   4
   6   5   0 -3.6017  1.6840   1
   7   5   0 19.8459  2.5076   1
   8  -6   0 4.04165 3.52496   1
  -8   6   0 9.17188 2.05667   2
   7  -6   0 71.2922  6.8151   1
  -7   6   0 59.0235  5.5442   2
   6  -6   0 7.09404 3.56441   1
  -6   6   0 9.87526 2.72080   2
   5  -6   0 38.4634  5.2760   1
  -5   6   0 38.1405  4.2849   2
   4  -6   0 42.6768  5.3325   1
  -4   6   0 41.7280  4.4876   2
  -4   6   0 48.2424  4.2433   3
   3  -6   0 203.564  10.403   1
  -3   6   0 211.696   9.413   2
  -3   6   0 210.434  10.596   3
   2  -6   0 429.846  17.635   1
  -2   6   0 463.854  16.607   2
  -2   6   0 437.785  18.890   3
   1  -6   0 49.3744  4.5437   1
  -1   6   0 56.4861  5.1157   3
  -1   6   0 57.1990  3.3525   2
   0  -6   0 56.1407  4.6723   1
   0   6   0 57.0839  3.4452   2
   0   6   0 61.8520  5.3917   3
  -1  -6   0 35.1063  4.3879   1
   1   6   0 26.1033  4.1339   3
   1   6   0 23.7809  2.8592   2
   2   6   0 128.151   7.740   3
   2   6   0 122.194   6.677   1
   2   6   0 127.310   6.867   2
   3   6   0 433.680  18.404   3
   3   6   0 419.576  17.469   1
  -4  -6   0 -1.2410  1.0440   2
  -4  -6   0 3.22446 0.99793   4
   4   6   0 0.63161 1.34123   1
  -5  -6   0 47.0170  5.1384   4
  -5  -6   0 62.8266  4.6752   2
   5   6   0 49.8676  4.6971   1
  -6  -6   0 1.36017 1.00609   2
  -6  -6   0 1.01049 1.32508   4
   6   6   0 -0.3392  1.2070   1
   7   6   0 36.2504  2.3086   1
   8  -7   0 4.98412 3.86973   1
  -8   7   0 5.97031 1.49835   2
   7  -7   0 18.2976  4.4681   1
  -7   7   0 13.5954  2.8818   2
   6  -7   0 6.27791 3.19966   1
  -6   7   0 5.76473 1.88783   2
   5  -7   0 2.48313 3.17916   1
  -5   7   0 -2.1962  1.6942   2
   4  -7   0 78.9452  6.6725   1
  -4   7   0 70.8569  5.8974   3
  -4   7   0 83.8145  5.5308   2
   3  -7   0 3.90905 2.89582   1
  -3   7   0 5.17569 1.76763   2
  -3   7   0 6.88340 2.62453   3
   2  -7   0 7.95454 3.00076   1
  -2   7   0 4.55272 1.31385   2
  -2   7   0 5.06754 2.83753   3
   1  -7   0 9.51112 3.04848   1
  -1   7   0 9.23740 3.14908   3
   0  -7   0 9.50252 2.72210   1
   0   7   0 7.89866 3.02140   3
   0   7   0 11.7388  1.8066   2
  -1  -7   0 3.03653 2.00288   1
   1   7   0 2.01058 2.21485   3
   1   7   0 0.32317 1.01723   2
   2   7   0 400.469  16.113   2
   2   7   0 402.120  18.146   3
   3   7   0 98.2760  5.7858   1
   3   7   0 98.9296  6.9480   3
  -4  -7   0 9.09321 2.56997   2
  -4  -7   0 9.30306 1.49306   4
   4   7   0 10.0078  1.2427   1
  -5  -7   0 4.88061 1.30935   2
  -5  -7   0 1.87285 0.88369   4
   5   7   0 3.57090 0.94861   1
  -6  -7   0 4.47658 1.59853   4
  -6  -7   0 6.12771 1.35608   2
   6   7   0 6.38586 1.22984   1
   8  -8   0 16.2028  4.8346   1
   7  -8   0 12.8784  4.0250   1
   6  -8   0 2.82514 2.62614   1
   5  -8   0 6.49177 3.38756   1
   4  -8   0 39.8941  5.3155   1
  -4   8   0 37.0073  3.2808   2
  -4   8   0 42.2884  4.8319   3
   3  -8   0 40.3974  5.0183   1
  -3   8   0 47.9574  5.3912   3
  -3   8   0 45.0664  3.1780   2
   2  -8   0 7.99367 3.08364   1
  -2   8   0 4.78370 2.96957   3
   1  -8   0 30.2312  4.3268   1
  -1   8   0 25.8282  4.8216   3
   0  -8   0 61.7476  5.1033   1
   0   8   0 61.8134  6.3722   3
   0   8   0 58.2740  3.3958   2
  -1  -8   0 2.71829 1.85877   1
   1   8   0 -0.0874  2.2656   3
   1   8   0 3.06423 0.98304   2
  -2  -8   0 44.8653  4.5687   1
   2   8   0 41.6879  4.9368   3
   2   8   0 44.8937  3.8443   2
   3   8   0 115.463   6.952   1
   3   8   0 115.828   7.875   3
  -4  -8   0 1.30481 0.80959   4
  -4  -8   0 2.68679 0.99841   2
   4   8   0 4.16329 0.85118   1
  -5  -8   0 2.54167 0.90784   4
  -5  -8   0 4.58071 1.08130   2
   6   8   0 8.98389 1.59640   1
   7  -9   0 2.60022 3.40080   1
   6  -9   0 2.81321 2.49041   1
   5  -9   0 95.5453  7.5239   1
   4  -9   0 0.82919 2.67342   1
  -4   9   0 4.28351 2.29095   3
   3  -9   0 31.7421  4.5974   1
  -3   9   0 32.3241  4.7385   3
   2  -9   0 -0.6044  2.1802   1
  -2   9   0 1.98487 2.55940   3
   1  -9   0 7.88674 2.74814   1
  -1   9   0 6.24800 3.05946   3
   0  -9   0 194.019  10.020   1
   0   9   0 197.438  11.866   3
  -1  -9   0 96.4404  6.5425   1
   1   9   0 104.860   8.186   3
  -2  -9   0 12.5036  3.1781   1
   2   9   0 12.0685  3.5278   3
   3   9   0 0.02958 1.29725   3
   4   9   0 2.60583 1.24033   1
   5   9   0 61.1500  4.4742   1
   7 -10   0 8.02677 4.05402   1
   6 -10   0 13.4724  3.9703   1
   5 -10   0 25.6140  4.6496   1
  -5  10   0 19.4468  3.7580   3
   4 -10   0 10.8527  3.0621   1
  -4  10   0 9.13011 2.96685   3
   3 -10   0 2.01215 2.01608   1
  -3  10   0 1.82158 2.30890   3
   2 -10   0 20.4031  3.7962   1
  -2  10   0 16.7050  4.4495   3
   1 -10   0 2.46991 1.87879   1
  -1  10   0 0.64497 2.27478   3
   0 -10   0 10.4524  2.6612   1
   0  10   0 7.20648 3.31876   3
  -1 -10   0 1.35859 1.49989   1
   1  10   0 0.23058 2.12504   3
  -2 -10   0 18.2023  3.6610   1
   2  10   0 14.2023  3.8111   3
  -3 -10   0 9.19138 2.84292   1
   3  10   0 9.94061 2.94632   3
   6 -11   0 11.7095  4.4087   1
   5 -11   0 20.0433  4.4799   1
  -5  11   0 14.9980  3.3029   3
   4 -11   0 1.78348 2.29665   1
  -4  11   0 1.21358 2.16028   3
   3 -11   0 3.39730 2.05529   1
  -3  11   0 2.32567 2.32470   3
   2 -11   0 6.07416 1.88726   1
  -2  11   0 1.54138 2.06508   3
   1 -11   0 96.8343  6.6713   1
  -1  11   0 96.6764  8.5774   3
   0 -11   0 16.9353  3.5298   1
   0  11   0 16.5140  4.5902   3
  -1 -11   0 28.7921  3.5521   1
   1  11   0 23.8693  5.1525   3
  -2 -11   0 42.1683  4.4590   1
   2  11   0 44.2764  5.4864   3
   3  11   0 10.8470  2.7791   3
   6 -12   0 2.66351 3.32969   1
   5 -12   0 -0.9612  3.4712   1
  -5  12   0 3.03643 2.37854   3
   4 -12   0 5.64819 2.93888   1
  -4  12   0 3.66608 2.76395   3
   3 -12   0 13.2049  3.2900   1
  -3  12   0 11.5058  3.7641   3
   2 -12   0 0.94423 1.69037   1
  -2  12   0 0.08700 2.25574   3
   1 -12   0 3.87556 1.94362   1
  -1  12   0 2.93917 2.58361   3
   0 -12   0 4.10254 1.97654   1
   0  12   0 -1.2663  2.1242   3
  -1 -12   0 57.6518  5.1321   1
   1  12   0 72.0966  7.2163   3
   2  12   0 1.95606 2.10377   3
   3  12   0 -1.8131  1.1984   3
   5 -13   0 1.52537 2.97690   1
   4 -13   0 17.8954  4.5086   1
  -4  13   0 17.3070  5.2087   3
   3 -13   0 -1.9215  1.9559   1
  -3  13   0 0.81612 3.09247   3
   2 -13   0 2.09952 2.14167   1
  -2  13   0 1.72704 2.72730   3
   1 -13   0 11.2987  2.5114   1
  -1  13   0 2.54578 2.99872   3
   0  13   0 10.7994  3.7636   3
   1  13   0 2.39402 2.79407   3
   2  13   0 16.7198  4.1515   3
   4 -14   0 3.02122 2.19357   1
  -4  14   0 -3.4356  2.3813   3
  -3  14   0 8.25882 4.58584   3
  -2  14   0 19.8806  5.6984   3
  -1  14   0 1.95285 2.63872   3
   0  14   0 -1.8335  2.0321   3
   0  14  -1 33.5423  6.8533   3
  -1  14  -1 88.8520  9.4203   3
  -2  14  -1 14.5618  5.0855   3
  -3  14  -1 3.18207 3.75788   3
  -4  14  -1 3.78063 3.14314   3
   2  13  -1 -3.7219  1.5238   3
   1  13  -1 62.2351  7.4511   3
   0  13  -1 0.02398 2.26388   3
  -1  13  -1 12.3211  4.6416   3
  -2  13  -1 25.7322  5.9922   3
  -3  13  -1 3.25506 3.22283   3
   3 -13   1 3.07359 1.97892   1
  -4  13  -1 1.09670 3.20755   3
   4 -13   1 1.01039 2.39439   1
   5 -13   1 4.84973 2.78615   1
   3  12  -1 0.46233 1.61037   3
   2  12  -1 4.53435 2.51973   3
   1  12  -1 33.0003  5.0185   3
   0  12  -1 41.4224  5.8633   3
  -1  12  -1 5.40154 3.17130   3
   1 -12   1 5.24954 2.14630   1
  -2  12  -1 -1.7587  2.0724   3
   2 -12   1 3.50902 1.94011   1
  -3  12  -1 3.25516 2.64737   3
   3 -12   1 1.37646 2.06904   1
  -4  12  -1 10.9765  3.8116   3
   4 -12   1 11.7859  3.6527   1
   5 -12   1 -3.1120  2.5420   1
   6 -12   1 7.20073 3.15049   1
   3  11  -1 11.1092  3.3343   3
   2  11  -1 36.0620  4.9405   3
   1  11  -1 10.2614  3.7737   3
  -1 -11   1 12.6165  2.7714   1
   0  11  -1 52.3692  6.3611   3
   0 -11   1 51.1856  4.5248   1
  -1  11  -1 77.1081  7.6024   3
   1 -11   1 74.8787  5.6573   1
  -2  11  -1 0.31270 2.32792   3
   2 -11   1 1.97979 1.82931   1
  -3  11  -1 9.09349 3.33417   3
   3 -11   1 8.75554 2.61089   1
  -4  11  -1 2.52913 2.20281   3
   4 -11   1 2.01133 2.57184   1
   5 -11   1 10.4808  3.5088   1
   6 -11   1 0.94407 2.88415   1
   3  10  -1 4.65856 2.04741   3
   2  10  -1 43.9760  5.4892   3
  -2 -10   1 36.6294  4.0262   1
   1  10  -1 0.81688 2.28477   3
  -1 -10   1 3.79643 1.88667   1
   0  10  -1 39.8623  5.5780   3
   0 -10   1 40.6255  4.0920   1
  -1  10  -1 1.03666 2.67934   3
   1 -10   1 7.75113 2.54138   1
  -2  10  -1 12.1008  3.9859   3
   2 -10   1 11.9026  3.1852   1
  -3  10  -1 -0.6075  2.1787   3
   3 -10   1 2.47718 2.10600   1
  -4  10  -1 20.0622  4.1064   3
   4 -10   1 28.7186  3.9003   1
   5 -10   1 38.3815  5.0918   1
   6 -10   1 17.5760  4.4590   1
   7 -10   1 8.09955 3.83798   1
   3   9  -1 0.44841 1.25728   3
   2   9  -1 198.167  11.955   3
   2   9  -1 217.307   9.967   2
  -2  -9   1 209.077  10.708   1
   1   9  -1 131.028   9.299   3
   1   9  -1 131.899   6.568   2
  -1  -9   1 134.483   7.612   1
   0   9  -1 21.8131  4.6394   3
   0  -9   1 25.5205  4.0075   1
  -1   9  -1 -0.5841  2.3455   3
   1  -9   1 1.47030 2.01947   1
  -2   9  -1 17.2678  4.2883   3
   2  -9   1 20.8205  3.6518   1
  -3   9  -1 28.8829  5.0372   3
   3  -9   1 29.1159  4.5771   1
  -4   9  -1 30.0875  4.3290   3
   4  -9   1 27.6527  4.6108   1
   5  -9   1 2.05248 2.38611   1
   6  -9   1 4.74705 2.37185   1
   7  -9   1 2.78908 3.26971   1
  -6  -8   1 28.0131  2.5623   2
   5   8  -1 12.3632  2.0289   1
  -4  -8   1 -0.1460  1.4319   2
  -4  -8   1 -1.1936  0.7492   4
   3   8  -1 68.0696  4.8917   1
   3   8  -1 72.9488  6.0528   3
   3   8  -1 74.8050  5.5810   2
   2   8  -1 251.643  11.423   2
   2   8  -1 251.835  13.285   3
  -2  -8   1 252.103  11.990   1
   1   8  -1 0.68302 2.25229   3
   1   8  -1 2.24157 1.31950   2
  -1  -8   1 -0.3826  1.5557   1
   0   8  -1 2.21116 2.62992   3
   0   8  -1 1.95435 1.09403   2
   0  -8   1 2.91949 1.95490   1
  -1   8  -1 14.6875  1.8966   2
  -1   8  -1 11.8213  3.7593   3
   1  -8   1 14.1223  3.1879   1
  -2   8  -1 5.97330 2.98557   3
  -2   8  -1 5.45313 1.42440   2
   2  -8   1 5.70058 2.71027   1
  -3   8  -1 72.5309  6.3411   3
  -3   8  -1 82.8811  5.2394   2
   3  -8   1 73.8548  6.2104   1
  -4   8  -1 402.424  18.533   3
  -4   8  -1 405.714  16.820   2
   4  -8   1 394.035  17.778   1
  -5   8  -1 0.57557 2.06637   2
   5  -8   1 0.47922 2.24875   1
  -6   8  -1 4.71391 2.24688   2
   6  -8   1 -0.4124  2.1103   1
   7  -8   1 -0.7742  2.4697   1
   8  -8   1 6.40024 3.62850   1
   6   7  -1 20.1275  1.7634   1
  -6  -7   1 18.3402  2.2775   2
   5   7  -1 3.64078 0.94801   1
  -5  -7   1 3.33942 1.29726   4
  -5  -7   1 2.44447 1.74638   2
   4   7  -1 9.74684 1.81218   1
  -4  -7   1 12.0105  1.6138   4
   3   7  -1 1.55322 1.51492   3
   3   7  -1 1.13434 1.78829   2
   2   7  -1 114.535   7.725   3
   2   7  -1 111.613   6.551   2
   1   7  -1 14.4208  3.4912   3
   1   7  -1 14.8836  2.5274   2
  -1  -7   1 16.0299  3.1806   1
   0   7  -1 244.916  10.401   2
   0   7  -1 270.133  13.192   3
   0  -7   1 258.842  11.385   1
  -1   7  -1 75.3580  4.3620   2
  -1   7  -1 70.1747  6.3347   3
   1  -7   1 67.9852  5.1645   1
  -2   7  -1 127.089   8.216   3
  -2   7  -1 127.275   6.540   2
   2  -7   1 119.444   7.296   1
  -3   7  -1 21.6430  3.4604   2
  -3   7  -1 15.6836  3.5590   3
   3  -7   1 19.5225  4.0116   1
  -4   7  -1 272.976  13.347   3
  -4   7  -1 277.784  12.676   2
   4  -7   1 278.569  13.477   1
  -5   7  -1 7.80616 3.04934   2
   5  -7   1 5.90014 3.34443   1
  -6   7  -1 8.72398 2.39815   2
   6  -7   1 8.55872 3.35259   1
  -7   7  -1 5.65663 2.60701   2
   7  -7   1 -0.9385  2.3477   1
  -8   7  -1 10.3495  2.4655   2
   8  -7   1 8.45858 4.53532   1
   7   6  -1 73.2359  4.0305   1
   6   6  -1 17.9437  2.0174   1
  -6  -6   1 11.1611  2.3734   2
   5   6  -1 1.46362 1.05312   1
  -5  -6   1 -0.9371  1.3768   2
  -5  -6   1 -0.0572  1.3278   4
   4   6  -1 21.6043  2.8978   1
  -4  -6   1 26.8801  2.8632   4
   3   6  -1 250.675  11.817   1
   3   6  -1 290.924  12.727   2
   3   6  -1 278.409  12.968   3
   2   6  -1 3.96342 1.16816   1
   2   6  -1 2.03929 1.92715   3
   2   6  -1 1.97623 1.71849   2
   1   6  -1 291.327  13.728   3
   1   6  -1 289.852  11.820   2
  -1  -6   1 299.481  12.488   1
   0   6  -1 26.5097  2.9338   2
   0   6  -1 30.0135  4.1504   3
   0  -6   1 27.2208  3.5403   1
  -1   6  -1 11.4972  2.0101   2
  -1   6  -1 7.89377 2.76382   3
   1  -6   1 9.42399 2.56185   1
  -2   6  -1 4.78778 1.91657   2
  -2   6  -1 4.67822 2.56597   3
   2  -6   1 4.41236 2.74124   1
  -3   6  -1 5.41248 2.44890   2
  -3   6  -1 1.51431 2.00271   3
   3  -6   1 2.11436 2.86912   1
  -4   6  -1 20.7799  3.2091   3
  -4   6  -1 24.6460  4.1138   2
   4  -6   1 24.3240  4.5836   1
  -5   6  -1 5.60741 2.43936   2
   5  -6   1 3.55995 3.08077   1
  -6   6  -1 4.40222 2.41781   2
   6  -6   1 7.55274 3.56894   1
  -7   6  -1 5.30461 2.65523   2
   7  -6   1 8.93964 3.58957   1
  -8   6  -1 5.68297 1.98436   2
   8  -6   1 2.68693 3.51374   1
   7   5  -1 42.2966  3.7449   1
  -7  -5   1 43.8413  3.5279   2
   6   5  -1 -0.9062  1.5782   1
  -6  -5   1 4.64015 2.29824   4
  -6  -5   1 -1.0437  1.3032   2
   5   5  -1 26.5523  4.6512   1
  -5  -5   1 27.3563  4.7902   4
  -5  -5   1 37.2908  5.8406   2
   4   5  -1 6.57060 2.43390   1
  -4  -5   1 14.5950  2.3964   4
   3   5  -1 130.930   7.471   3
   3   5  -1 141.388   7.924   2
   3   5  -1 136.083   7.553   1
   2   5  -1 13.8744  2.0186   1
   2   5  -1 17.5252  3.1134   3
   2   5  -1 21.5941  3.1490   2
   1   5  -1 184.212   9.331   3
   1   5  -1 181.646   8.085   2
   0   5  -1 28.4985  3.8410   3
   0   5  -1 36.1639  3.2526   2
   0  -5   1 30.4892  3.4652   1
  -1   5  -1 585.321  23.059   3
  -1   5  -1 578.245  20.778   2
   1  -5   1 575.430  21.260   1
  -2   5  -1 981.966  33.359   2
  -2   5  -1 937.234  35.731   3
   2  -5   1 928.298  33.888   1
  -3   5  -1 67.8277  4.9139   3
  -3   5  -1 72.2498  5.2277   2
   3  -5   1 74.2175  5.6988   1
  -4   5  -1 3.08366 1.61241   3
  -4   5  -1 2.47474 2.55588   2
   4  -5   1 2.56709 3.01538   1
  -5   5  -1 112.215   7.227   2
   5  -5   1 116.305   8.099   1
  -6   5  -1 8.08167 2.51456   2
   6  -5   1 0.76590 2.66169   1
  -7   5  -1 14.3611  3.2344   2
   7  -5   1 4.98698 2.99851   1
  -8   5  -1 10.5127  2.9091   2
   8  -5   1 9.35059 4.03351   1
   7   4  -1 2.82063 1.88965   1
   6   4  -1 -1.1861  2.0430   1
  -6  -4   1 4.86591 1.38841   2
   5   4  -1 320.017  15.286   1
  -5  -4   1 345.901  15.540   2
  -5  -4   1 312.138  17.414   4
   4   4  -1 82.8956  6.3302   1
  -4  -4   1 83.2816  6.7121   2
  -4  -4   1 89.7526  7.0537   4
   3   4  -1 93.5017  6.2828   1
   3   4  -1 105.205   6.612   2
  -3  -4   1 100.498   6.535   4
   2   4  -1 8.57600 2.21024   3
   2   4  -1 11.0626  2.2280   1
   2   4  -1 11.7743  2.4543   2
   1   4  -1 347.791  13.930   3
   1   4  -1 309.024  12.448   1
   1   4  -1 322.336  12.523   2
   0   4  -1 86.2357  4.6860   2
   0   4  -1 92.0674  5.6132   3
   0  -4   1 90.0581  4.8130   1
  -1   4  -1 227.459   9.045   2
  -1   4  -1 226.510  10.125   3
   1  -4   1 217.694   9.221   1
  -2   4  -1 739.830  26.059   2
  -2   4  -1 738.295  27.639   3
   2  -4   1 718.127  26.444   1
  -3   4  -1 436.728  17.576   3
  -3   4  -1 458.952  17.343   2
   3  -4   1 443.041  17.771   1
  -4   4  -1 86.6074  6.0611   2
  -4   4  -1 88.1613  4.7601   3
   4  -4   1 86.0604  6.6526   1
  -5   4  -1 54.3608  5.1898   2
   5  -4   1 56.1139  5.9890   1
  -6   4  -1 0.56639 2.29018   2
   6  -4   1 3.19403 3.23005   1
  -7   4  -1 2.59579 2.27254   2
   7  -4   1 1.31856 2.47958   1
  -8   4  -1 26.8943  5.0089   2
   8  -4   1 26.6480  5.6658   1
   5   3  -1 47.8483  5.2153   1
  -5  -3   1 47.0257  6.1336   4
  -5  -3   1 51.1945  5.2887   2
   4   3  -1 7.26715 2.83830   1
  -4  -3   1 16.3808  1.5347   3
  -4  -3   1 10.4281  3.2703   4
  -4  -3   1 12.9175  3.7515   2
   3   3  -1 44.8339  4.4237   2
   3   3  -1 40.2234  4.2413   1
  -3  -3   1 42.1255  2.9839   3
  -3  -3   1 44.9986  4.1675   4
   2   3  -1 51.8849  4.2811   2
   2   3  -1 52.8525  3.9813   3
   2   3  -1 52.0402  4.1908   1
   1   3  -1 46.1495  3.8123   3
   1   3  -1 45.4897  3.2693   1
   1   3  -1 46.9601  3.5150   2
   0   3  -1 2342.88   82.86   3
   0   3  -1 2298.51   80.36   2
   0  -3   1 2370.30   78.59   1
  -1   3  -1 4897.75  165.83   3
  -1   3  -1 4695.75  157.98   2
   1  -3   1 4597.51  158.05   1
  -2   3  -1 113.362   5.869   2
  -2   3  -1 109.343   5.687   3
   2  -3   1 116.004   6.012   1
  -3   3  -1 9.16051 2.69677   2
  -3   3  -1 9.88344 1.73483   3
   3  -3   1 10.2290  2.9622   1
  -4   3  -1 135.979   7.661   2
   4  -3   1 140.547   8.217   1
  -5   3  -1 4.66601 2.90256   2
   5  -3   1 5.29590 3.55554   1
  -6   3  -1 6.53701 3.07890   2
   6  -3   1 6.06483 3.19996   1
  -7   3  -1 12.4949  4.0550   2
   7  -3   1 19.6220  4.6010   1
  -8   3  -1 37.9132  5.0391   2
   8  -3   1 39.8570  6.4649   1
   8   2  -1 2.34168 1.99639   1
  -8  -2   1 -2.5794  1.1388   2
   7   2  -1 -1.9126  1.7136   1
   6   2  -1 67.2836  6.3364   1
  -6  -2   1 74.6455  5.5607   2
   5   2  -1 4.30506 2.76177   1
  -5  -2   1 5.27819 2.92155   2
   4   2  -1 29.0385  4.2509   1
  -4  -2   1 25.9208  4.4742   4
  -4  -2   1 31.5151  4.7238   2
   3   2  -1 59.8849  4.8748   1
  -3  -2   1 61.3046  5.3490   4
  -3  -2   1 58.4037  3.6150   3
   2   2  -1 33.3775  3.5193   1
   2   2  -1 27.0200  3.4072   2
  -2  -2   1 35.0811  3.1926   4
  -2  -2   1 32.2155  2.5298   3
   1   2  -1 1427.86   49.45   2
   1   2  -1 1528.72   49.88   1
   1   2  -1 1458.80   52.39   3
   0   2  -1 744.018  27.626   3
   0   2  -1 761.904  25.903   2
   0  -2   1 779.842  25.963   1
  -1   2  -1 9947.27  353.53   3
  -1   2  -1 9999.99  337.35   2
   1  -2   1 9928.02  343.10   1
  -2   2  -1 23.1085  2.8313   2
  -2   2  -1 19.1757  2.2130   3
   2  -2   1 22.6603  2.8752   1
  -3   2  -1 17.1386  3.0971   2
   3  -2   1 16.0316  3.1642   1
  -4   2  -1 120.758   7.219   2
   4  -2   1 125.605   7.765   1
  -5   2  -1 -0.5455  2.4595   2
   5  -2   1 0.96584 3.01971   1
  -6   2  -1 0.64684 2.37615   2
   6  -2   1 3.66427 3.01285   1
  -7   2  -1 74.8250  6.7558   2
   7  -2   1 84.6304  7.5642   1
  -8   2  -1 6.10966 2.71849   2
   8  -2   1 0.78254 5.17335   1
   8   1  -1 4.25711 2.79775   1
   7   1  -1 -1.0259  2.3694   1
   6   1  -1 40.1335  6.0933   1
  -6  -1   1 55.1351  4.2882   2
   5   1  -1 18.7246  4.5269   1
  -5  -1   1 19.0778  3.8384   2
   4   1  -1 52.9479  5.0565   1
  -4  -1   1 47.9447  4.8885   2
   3   1  -1 407.994  16.203   1
  -3  -1   1 417.825  19.011   4
  -3  -1   1 415.568  15.579   3
   2   1  -1 383.952  14.608   1
   2   1  -1 372.538  14.513   2
  -2  -1   1 402.379  17.056   4
  -2  -1   1 400.953  14.674   3
   1   1  -1 101.377   4.870   2
   1   1  -1 111.754   4.863   1
  -1  -1   1 113.860   5.438   4
  -1  -1   1 118.615   4.990   3
   0   1  -1 855.779  28.667   2
  -1   1  -1 96.2268  4.0384   3
  -1   1  -1 94.5724  4.5382   2
   1  -1   1 93.8121  4.5047   1
  -2   1  -1 4.68151 1.83359   2
   2  -1   1 4.53222 2.17198   1
  -3   1  -1 91.0029  5.0656   2
   3  -1   1 87.2546  5.8489   1
  -4   1  -1 171.838   8.446   2
   4  -1   1 187.090   9.617   1
  -5   1  -1 32.9189  3.4555   2
   5  -1   1 25.6018  4.7209   1
  -6   1  -1 126.842   8.443   2
   6  -1   1 131.991   9.241   1
  -7   1  -1 201.814  12.036   2
   7  -1   1 208.346  13.581   1
  -8   1  -1 11.2496  3.8370   2
   8  -1   1 7.69180 3.17033   1
   8   0  -1 4.55245 3.13957   1
   7   0  -1 -4.4521  4.2418   1
   6   0  -1 116.925   8.238   1
  -6   0   1 111.783   6.696   2
   5   0  -1 12.4922  3.5546   1
  -5   0   1 15.0686  3.1953   2
   4   0  -1 2.97228 2.38694   1
  -4   0   1 1.76921 2.13927   2
   3   0  -1 18.1482  3.0346   1
  -3   0   1 17.0154  2.8929   2
   2   0  -1 18.0034  2.3747   1
  -2   0   1 16.7466  1.8424   3
   1   0  -1 52.9644  2.8605   1
   1   0  -1 48.7482  2.7517   2
  -1   0   1 54.4200  2.7165   3
   0   0  -1 572.316  18.776   2
   0   0   1 550.197  18.859   1
  -1   0  -1 284.859  12.094   4
  -1   0  -1 272.014  10.173   2
   1   0   1 286.550  10.481   1
  -2   0  -1 134.082   6.288   2
  -2   0  -1 146.923   7.934   4
   2   0   1 149.799   7.017   1
  -3   0  -1 738.558  28.364   2
  -3   0  -1 836.762  34.203   4
   3   0   1 825.458  29.320   1
  -4   0  -1 18.1637  2.3608   2
   4   0   1 9.04945 3.40915   1
   5   0   1 3.22186 3.78692   1
  -6   0  -1 41.6503  3.6380   2
   6   0   1 33.0237  5.9746   1
  -7   0  -1 -0.8484  2.0230   2
   7   0   1 1.79519 3.12249   1
  -8   0  -1 7.45184 3.56995   2
   8   0   1 5.24330 3.06721   1
   8  -1  -1 9.17401 5.07281   1
  -8   1   1 17.1777  3.0806   2
   7  -1  -1 36.5339  5.8182   1
  -7   1   1 35.7007  2.6374   2
  -6   1   1 59.1529  3.7689   2
   5  -1  -1 134.564   8.636   1
  -5   1   1 133.131   7.312   2
   4  -1  -1 10.8351  3.0760   1
  -4   1   1 12.5345  2.6530   2
   3  -1  -1 41.1239  4.3329   1
  -3   1   1 37.8999  2.4994   3
  -3   1   1 35.9608  3.6399   2
   2  -1  -1 177.858   7.747   1
  -2   1   1 164.583   7.188   2
  -2   1   1 181.318   7.164   3
   1  -1  -1 1917.72   67.04   1
  -1   1   1 2076.80   70.17   3
   0   1   1 165.486   6.614   3
  -1  -1  -1 1808.28   63.71   2
   1   1   1 1994.35   64.80   1
   1   1   1 1944.49   67.18   3
  -2  -1  -1 193.898   9.736   4
  -2  -1  -1 188.868   8.179   2
   2   1   1 200.414   8.775   1
  -3  -1  -1 277.541  12.209   2
  -3  -1  -1 308.564  15.095   4
   3   1   1 319.142  13.113   1
  -4  -1  -1 21.3399  4.3496   4
  -4  -1  -1 29.5890  3.3796   2
   4   1   1 22.4933  4.1508   1
  -5  -1  -1 120.313   6.494   2
   5   1   1 101.412   7.930   1
   6   1   1 7.17473 3.64979   1
  -7  -1  -1 3.16788 1.14094   2
   7   1   1 -2.7341  2.1536   1
  -8  -1  -1 8.80321 3.79281   2
   8   1   1 0.11481 2.35855   1
   8  -2  -1 4.54279 2.99638   1
  -8   2   1 2.65228 2.69896   2
   7  -2  -1 -0.2617  2.9419   1
   6  -2  -1 3.00946 3.29764   1
   5  -2  -1 -0.7585  2.9785   1
   4  -2  -1 55.0085  5.3388   1
  -4   2   1 67.0074  4.0969   2
   3  -2  -1 36.4941  4.0144   1
  -3   2   1 32.9694  2.9219   2
  -3   2   1 35.2896  2.7941   3
   2  -2  -1 719.313  24.709   1
  -2   2   1 627.754  23.620   2
  -2   2   1 715.789  25.292   3
   1  -2  -1 282.844  11.343   1
  -1   2   1 318.148  12.053   3
  -1   2   1 308.867  10.541   2
   0  -2  -1 461.905  16.905   1
   0   2   1 480.747  17.736   3
  -1  -2  -1 31.6618  2.4773   2
   1   2   1 36.5027  2.8569   3
   1   2   1 34.7859  3.6656   1
  -2  -2  -1 77.8455  4.8654   2
   2   2   1 83.7990  4.3830   3
   2   2   1 86.2852  5.5674   1
  -3  -2  -1 230.359  10.648   2
  -3  -2  -1 252.813  12.666   4
   3   2   1 249.096   9.764   3
   3   2   1 255.325  11.440   1
  -4  -2  -1 69.5604  5.2295   2
  -4  -2  -1 63.7397  6.5714   4
   4   2   1 70.0497  6.2444   1
  -5  -2  -1 170.718   8.443   2
  -5  -2  -1 148.045  10.990   4
   5   2   1 156.254   9.785   1
   6   2   1 -4.1245  2.7212   1
   7   2   1 -1.3388  2.2596   1
  -8  -2  -1 -2.7406  2.9654   2
   8   2   1 1.00586 2.02565   1
   8  -3  -1 4.98829 2.79840   1
  -8   3   1 4.75944 2.79353   2
   7  -3  -1 27.6212  5.3973   1
  -7   3   1 29.7062  5.0279   2
   6  -3  -1 26.2274  5.2873   1
  -6   3   1 30.0341  3.2753   2
   5  -3  -1 15.8949  4.0778   1
  -5   3   1 24.3389  2.4187   2
   4  -3  -1 53.8621  5.3304   1
  -4   3   1 53.9831  3.5489   2
  -4   3   1 47.1723  3.3043   3
   3  -3  -1 316.530  13.142   1
  -3   3   1 298.243  12.015   2
  -3   3   1 320.258  12.789   3
   2  -3  -1 229.907   9.918   1
  -2   3   1 239.010  10.174   3
  -2   3   1 238.902   9.168   2
   1  -3  -1 2811.78   98.56   1
  -1   3   1 3046.63  103.51   3
   0  -3  -1 124.662   6.256   1
   0   3   1 128.441   6.485   3
   1   3   1 84.8581  4.9441   3
   1   3   1 78.7687  4.8521   1
  -2  -3  -1 1.57836 1.43689   2
   2   3   1 3.86460 2.15715   1
   2   3   1 0.66274 1.41179   3
  -3  -3  -1 95.4429  6.0330   2
  -3  -3  -1 103.099   6.952   4
   3   3   1 94.1192  6.7207   1
   3   3   1 103.763   5.188   3
  -4  -3  -1 79.9964  5.4918   2
  -4  -3  -1 73.6594  6.7574   4
   4   3   1 63.9462  6.3091   1
  -5  -3  -1 91.9804  5.5195   2
  -5  -3  -1 69.3033  7.6049   4
   5   3   1 70.6501  6.6996   1
   6   3   1 -2.3039  2.8556   1
   7   3   1 5.89874 3.39730   1
   8  -4  -1 37.7123  5.3952   1
  -8   4   1 33.8459  4.8088   2
   7  -4  -1 -1.2223  2.8806   1
  -7   4   1 3.47622 1.90038   2
   6  -4  -1 92.1037  7.6370   1
  -6   4   1 88.4083  6.4967   2
   5  -4  -1 1.78013 3.00506   1
  -5   4   1 2.03114 2.48226   2
   4  -4  -1 41.3421  5.1503   1
  -4   4   1 35.7856  3.2961   3
  -4   4   1 39.5443  3.9929   2
   3  -4  -1 2.22810 2.75034   1
  -3   4   1 2.18103 1.74135   2
  -3   4   1 1.02280 1.76701   3
   2  -4  -1 406.572  16.070   1
  -2   4   1 414.993  14.961   2
  -2   4   1 418.414  16.896   3
   1  -4  -1 103.178   5.743   1
  -1   4   1 111.247   6.215   3
   0  -4  -1 47.5453  4.0913   1
   0   4   1 49.1054  4.3003   3
   1   4   1 68.1816  4.0131   2
   1   4   1 65.1297  4.4806   1
   1   4   1 70.7804  4.9571   3
  -2  -4  -1 63.7587  4.1755   2
   2   4   1 72.3028  4.8286   3
   2   4   1 72.6042  5.3704   1
  -3  -4  -1 203.065   9.646   2
   3   4   1 214.330  10.675   1
   3   4   1 209.115   9.549   3
  -4  -4  -1 91.8606  6.0188   2
  -4  -4  -1 91.5304  7.1515   4
   4   4   1 88.3026  7.0867   1
  -5  -4  -1 3.17428 2.72164   4
   5   4   1 1.91638 2.88601   1
  -6  -4  -1 31.7965  5.8313   4
   6   4   1 24.6319  5.2260   1
  -7  -4  -1 13.5375  1.4043   2
   7   4   1 7.89325 2.67067   1
   8  -5  -1 31.4841  6.1912   1
  -8   5   1 34.0564  4.2118   2
   7  -5  -1 5.57443 3.11233   1
  -7   5   1 11.6519  2.8185   2
   6  -5  -1 77.4448  6.9763   1
  -6   5   1 71.6574  5.5553   2
   5  -5  -1 53.8231  5.9541   1
  -5   5   1 56.7810  4.7645   2
   4  -5  -1 24.6873  4.5048   1
  -4   5   1 19.9430  3.1256   2
  -4   5   1 19.3704  3.0482   3
   3  -5  -1 17.5685  3.5855   1
  -3   5   1 16.8300  2.5746   2
  -3   5   1 14.8164  2.9628   3
   2  -5  -1 70.0060  5.4308   1
  -2   5   1 82.7419  4.2228   2
  -2   5   1 77.6731  5.6186   3
   1  -5  -1 10.7551  2.6279   1
  -1   5   1 9.89556 2.75543   3
   0  -5  -1 82.6076  5.4730   1
   0   5   1 85.6837  6.0119   3
   1   5   1 4.40087 2.13416   3
   1   5   1 5.12255 2.32326   1
   1   5   1 5.02100 1.54286   2
   2   5   1 3.49927 1.87113   3
   2   5   1 5.11294 1.79068   1
  -3  -5  -1 102.290   6.061   2
   3   5   1 101.028   7.134   1
   3   5   1 107.559   6.359   3
  -4  -5  -1 15.4964  2.2656   2
  -4  -5  -1 23.1503  3.2735   4
   4   5   1 14.4075  3.5067   1
  -5  -5  -1 0.41009 1.67068   4
   5   5   1 -1.1866  1.8347   1
  -6  -5  -1 9.96069 3.30934   4
  -6  -5  -1 20.7304  1.3953   2
   6   5   1 14.5416  3.4610   1
  -7  -5  -1 15.8738  2.3782   2
   8  -6  -1 2.55212 3.74782   1
  -8   6   1 2.61446 1.57737   2
   7  -6  -1 6.30770 3.27489   1
  -7   6   1 7.34905 2.71224   2
   6  -6  -1 39.2912  5.1407   1
  -6   6   1 38.0313  3.9207   2
   5  -6  -1 25.3314  5.0228   1
  -5   6   1 23.9643  3.5028   2
   4  -6  -1 111.893   7.935   1
  -4   6   1 121.362   6.619   2
  -4   6   1 110.154   6.997   3
   3  -6  -1 5.12249 3.08620   1
  -3   6   1 4.25902 2.46228   3
  -3   6   1 2.95058 1.63427   2
   2  -6  -1 5.47622 2.70885   1
  -2   6   1 0.38085 2.26092   3
   1  -6  -1 214.123  10.158   1
  -1   6   1 227.547  11.257   3
   0  -6  -1 10.8312  2.9750   1
   0   6   1 7.19800 2.72544   3
  -1  -6  -1 219.674  10.712   1
   1   6   1 231.377   9.279   2
   1   6   1 223.958  11.368   3
   2   6   1 33.2117  4.2135   3
   2   6   1 39.2918  3.5063   1
  -3  -6  -1 7.07671 2.02919   2
   3   6   1 7.31167 1.73681   1
   3   6   1 3.19508 1.91210   3
  -4  -6  -1 92.8167  5.7337   2
  -4  -6  -1 82.1909  6.6521   4
   4   6   1 92.7134  6.4431   1
  -5  -6  -1 18.3870  1.4689   2
   5   6   1 14.7942  2.9658   1
  -6  -6  -1 14.4533  3.2940   4
  -6  -6  -1 7.89732 1.12386   2
   6   6   1 14.9183  2.1666   1
   8  -7  -1 -0.5416  3.2511   1
   7  -7  -1 15.6496  4.4705   1
   6  -7  -1 20.6699  4.6497   1
  -6   7   1 20.1403  2.7634   2
   5  -7  -1 49.2218  5.8521   1
  -5   7   1 51.6156  4.1808   3
  -5   7   1 50.5934  4.1583   2
   4  -7  -1 307.295  15.093   1
  -4   7   1 353.599  13.719   2
  -4   7   1 323.165  15.427   3
   3  -7  -1 32.2448  4.8574   1
  -3   7   1 23.8013  4.1658   3
  -3   7   1 30.3731  2.6014   2
   2  -7  -1 47.0386  4.8802   1
  -2   7   1 47.0803  5.3967   3
   1  -7  -1 31.6262  4.4746   1
  -1   7   1 22.3406  4.2679   3
   0  -7  -1 -0.2740  2.0115   1
   0   7   1 1.72108 2.19391   3
  -1  -7  -1 132.157   8.032   1
   1   7   1 140.920   8.808   3
   1   7   1 138.321   6.365   2
   2   7   1 146.628   8.650   1
   2   7   1 160.946   9.388   3
  -3  -7  -1 8.30867 2.05883   2
   3   7   1 8.84130 2.82092   3
   4   7   1 9.33643 1.14043   1
  -5  -7  -1 9.08730 1.30255   2
   5   7   1 10.0081  1.4560   1
  -6  -7  -1 34.6618  3.2419   2
  -6  -7  -1 48.6077  5.0641   4
   6   7   1 51.8244  3.7481   1
   8  -8  -1 6.35623 3.98800   1
   7  -8  -1 1.25710 2.92080   1
   6  -8  -1 9.51966 3.55814   1
   5  -8  -1 3.95798 3.09851   1
  -5   8   1 3.37867 1.80688   3
   4  -8  -1 9.53817 3.44002   1
  -4   8   1 6.04531 2.65603   3
   3  -8  -1 132.064   8.358   1
  -3   8   1 130.712   8.784   3
   2  -8  -1 21.6630  4.0117   1
  -2   8   1 13.6723  3.8028   3
   1  -8  -1 85.4046  6.2444   1
  -1   8   1 96.9218  7.6985   3
   0  -8  -1 29.0212  4.5884   1
   0   8   1 23.5025  4.6269   3
  -1  -8  -1 3.73668 2.60119   1
   1   8   1 6.06024 2.77670   3
  -2  -8  -1 64.6506  5.4929   1
   2   8   1 59.8288  5.8395   3
   3   8   1 166.466   9.249   1
   3   8   1 168.306   9.880   3
   4   8   1 6.83752 1.06697   1
  -5  -8  -1 13.4334  2.1737   4
   5   8   1 11.0367  1.4381   1
   7  -9  -1 8.10790 3.44007   1
   6  -9  -1 6.94349 3.02493   1
   5  -9  -1 25.2516  4.7909   1
  -5   9   1 24.8442  3.8015   3
   4  -9  -1 0.43601 2.76740   1
  -4   9   1 2.77101 1.85544   3
   3  -9  -1 8.53848 3.46189   1
  -3   9   1 2.30296 2.83743   3
   2  -9  -1 3.60107 2.69213   1
  -2   9   1 1.79058 2.38525   3
   1  -9  -1 16.6041  3.7814   1
  -1   9   1 18.6868  4.2600   3
   0  -9  -1 44.5311  4.5884   1
   0   9   1 45.3278  5.5796   3
  -1  -9  -1 1.91197 2.03870   1
   1   9   1 1.98354 2.21459   3
  -2  -9  -1 0.98462 1.58198   1
   2   9   1 -0.7517  1.7165   3
   3   9   1 -0.1857  1.2768   3
   4   9   1 16.1293  2.1761   1
  -5  -9  -1 -1.1691  1.0335   4
   5   9   1 -2.0401  1.2621   1
   7 -10  -1 3.22756 3.76674   1
   6 -10  -1 14.6051  3.8425   1
   5 -10  -1 4.26119 2.53662   1
  -5  10   1 2.51376 2.17196   3
   4 -10  -1 22.8754  4.2964   1
  -4  10   1 21.7065  4.1867   3
   3 -10  -1 -0.7152  2.1162   1
  -3  10   1 2.05065 2.44990   3
   2 -10  -1 19.8225  3.8190   1
  -2  10   1 13.2760  4.1137   3
   1 -10  -1 29.2778  4.4618   1
  -1  10   1 21.1421  4.7235   3
   0 -10  -1 11.6428  3.0720   1
   0  10   1 7.80698 3.36922   3
  -1 -10  -1 7.62326 2.47207   1
   1  10   1 5.18461 3.11531   3
  -2 -10  -1 41.6564  4.4423   1
   2  10   1 41.4756  5.2128   3
  -3 -10  -1 3.29357 2.12544   1
   3  10   1 1.43108 1.40430   3
   6 -11  -1 4.65317 3.37963   1
   5 -11  -1 7.60757 2.98877   1
  -5  11   1 5.63697 2.96492   3
   4 -11  -1 0.56551 1.99382   1
  -4  11   1 3.13469 2.24744   3
   3 -11  -1 61.2624  5.6064   1
  -3  11   1 67.4482  6.7969   3
   2 -11  -1 5.58700 2.19995   1
  -2  11   1 3.08698 2.63415   3
   1 -11  -1 4.24901 1.88330   1
  -1  11   1 0.58271 2.59567   3
   0 -11  -1 22.6464  4.1321   1
   0  11   1 16.3914  4.6292   3
  -1 -11  -1 28.9242  3.7862   1
   1  11   1 36.4725  5.4531   3
  -2 -11  -1 11.3135  3.2851   1
   2  11   1 8.13056 3.18514   3
  -3 -11  -1 26.9658  5.0427   1
   3  11   1 21.9086  3.0459   3
   6 -12  -1 12.9554  4.1244   1
   5 -12  -1 2.58021 3.40378   1
  -5  12   1 -0.1890  2.4172   3
   4 -12  -1 3.62673 2.72163   1
  -4  12   1 1.77208 2.87977   3
   3 -12  -1 5.38687 2.28778   1
  -3  12   1 1.58928 2.40775   3
   2 -12  -1 24.9683  3.5162   1
  -2  12   1 23.2220  5.2098   3
   1 -12  -1 15.4609  3.3254   1
  -1  12   1 10.7208  3.9588   3
   0 -12  -1 14.2393  3.4308   1
   0  12   1 10.3471  3.7145   3
  -1 -12  -1 1.57114 2.13521   1
   1  12   1 1.80087 2.29456   3
  -2 -12  -1 18.9410  3.7932   1
   2  12   1 11.8153  3.6469   3
   5 -13  -1 2.81850 3.22135   1
  -5  13   1 10.0231  3.7238   3
   4 -13  -1 35.8686  5.1928   1
  -4  13   1 30.7759  6.6047   3
   3 -13  -1 8.22647 3.47895   1
  -3  13   1 9.32804 3.95743   3
   2 -13  -1 -2.4310  2.1424   1
  -2  13   1 0.52920 3.20342   3
   1 -13  -1 48.4066  5.0985   1
  -1  13   1 46.7643  6.4726   3
   0 -13  -1 9.51807 2.90682   1
   0  13   1 9.50496 3.71307   3
   1  13   1 4.39776 2.91640   3
   2  13   1 2.45463 1.71800   3
   4 -14  -1 6.18155 2.57787   1
  -4  14   1 3.90791 3.01241   3
   3 -14  -1 4.51595 2.71739   1
  -3  14   1 2.70768 3.34323   3
   2 -14  -1 6.01855 2.31439   1
  -2  14   1 1.47521 3.64729   3
  -1  14   1 28.7642  6.3548   3
   0  14   1 5.42147 2.41025   3
   0  14  -2 5.88475 3.34517   3
  -1  14  -2 47.8293  8.4625   3
  -2  14  -2 27.7309  6.4864   3
  -3  14  -2 7.32414 4.15548   3
  -4  14  -2 0.64469 3.00278   3
   2  13  -2 2.84486 2.07816   3
   1  13  -2 3.42587 2.73409   3
   0  13  -2 16.1595  4.5992   3
  -1  13  -2 39.1211  5.7986   3
  -2  13  -2 0.92396 2.61862   3
  -3  13  -2 0.36477 3.00914   3
  -4  13  -2 5.82912 3.62738   3
   2  12  -2 11.6308  4.1368   3
   1  12  -2 93.9081  8.4812   3
   0  12  -2 12.0808  4.3089   3
  -1  12  -2 7.72031 3.44906   3
  -2  12  -2 1.76131 2.05889   3
  -3  12  -2 3.35354 2.64399   3
   3 -12   2 2.48470 2.03633   1
  -4  12  -2 14.4253  4.3032   3
   4 -12   2 14.4982  3.5731   1
   5 -12   2 8.12973 3.36295   1
   6 -12   2 -0.9733  2.7233   1
   2  11  -2 3.45151 2.35449   3
   1  11  -2 132.158  10.105   3
   0  11  -2 -1.0695  2.1728   3
  -1  11  -2 9.04019 3.48841   3
   1 -11   2 10.7008  2.5784   1
  -2  11  -2 20.5223  4.7460   3
   2 -11   2 18.3449  3.5918   1
  -3  11  -2 8.22626 3.15862   3
   3 -11   2 7.60217 2.65595   1
  -4  11  -2 13.9655  3.7771   3
   4 -11   2 21.4364  3.9892   1
   5 -11   2 10.4692  3.6025   1
   6 -11   2 5.28137 3.53405   1
   2  10  -2 37.4708  4.9485   3
   1  10  -2 26.4539  5.2048   3
  -1 -10   2 25.7731  3.0128   1
   0  10  -2 4.81629 2.95661   3
   0 -10   2 4.93418 1.91384   1
  -1  10  -2 1.73176 2.66451   3
   1 -10   2 2.42387 1.94257   1
  -2  10  -2 0.80851 2.52590   3
   2 -10   2 5.30994 2.07845   1
  -3  10  -2 -1.1404  1.8007   3
   3 -10   2 -0.0030  1.7441   1
  -4  10  -2 10.7868  3.0792   3
   4 -10   2 7.15620 2.50826   1
   5 -10   2 75.5462  6.4018   1
   6 -10   2 -0.5232  2.9176   1
   7 -10   2 9.35790 3.87274   1
  -5  -9   2 44.6538  3.5065   2
   3   9  -2 33.3896  3.8933   2
   3   9  -2 33.0606  4.4449   3
   2   9  -2 3.03679 2.21722   3
   2   9  -2 2.24164 1.53853   2
  -2  -9   2 1.62982 1.41600   1
   1   9  -2 16.0507  2.9183   2
   1   9  -2 15.6846  3.9908   3
  -1  -9   2 15.4235  3.0285   1
   0   9  -2 2.25151 2.33368   3
   0   9  -2 2.18196 1.03125   2
   0  -9   2 1.90891 1.82288   1
  -1   9  -2 145.154   6.903   2
  -1   9  -2 130.481   9.317   3
   1  -9   2 132.860   7.463   1
  -2   9  -2 14.0922  4.0638   3
  -2   9  -2 14.2541  2.4112   2
   2  -9   2 17.7573  3.4936   1
  -3   9  -2 3.77082 2.57548   3
  -3   9  -2 3.11034 1.50226   2
   3  -9   2 4.55507 2.45928   1
  -4   9  -2 38.9822  4.2262   2
  -4   9  -2 47.0818  5.1132   3
   4  -9   2 50.1977  4.9300   1
   5  -9   2 51.1043  5.1388   1
   6  -9   2 5.78640 2.82720   1
   7  -9   2 -0.3094  2.8864   1
  -6  -8   2 22.9466  2.5081   2
  -5  -8   2 19.1121  3.4794   2
   4   8  -2 0.30797 0.70940   1
   3   8  -2 24.9681  4.3136   3
   3   8  -2 27.9778  3.6394   2
   2   8  -2 288.329  14.699   3
   2   8  -2 295.761  13.101   2
  -2  -8   2 292.731  13.129   1
   1   8  -2 1.44705 1.36309   2
   1   8  -2 0.51158 2.29686   3
  -1  -8   2 0.00556 1.40816   1
   0   8  -2 195.842  11.575   3
   0   8  -2 216.394   9.316   2
   0  -8   2 200.843   9.640   1
  -1   8  -2 -0.5139  2.6352   3
  -1   8  -2 2.67563 1.45579   2
   1  -8   2 3.97634 1.99860   1
  -2   8  -2 29.5224  4.9143   3
  -2   8  -2 30.1392  3.3615   2
   2  -8   2 32.6904  3.8297   1
  -3   8  -2 7.10622 2.53093   2
  -3   8  -2 1.43676 2.45971   3
   3  -8   2 3.65521 2.58613   1
  -4   8  -2 50.5180  5.2022   2
  -4   8  -2 42.1105  4.7882   3
   4  -8   2 45.9014  5.1692   1
  -5   8  -2 48.5600  4.9925   2
   5  -8   2 48.5292  5.1796   1
  -6   8  -2 -0.4780  2.0884   2
   6  -8   2 3.02423 2.53472   1
  -7   8  -2 -0.9536  1.8514   2
   7  -8   2 4.97465 3.53358   1
   6   7  -2 18.9176  1.7387   1
  -6  -7   2 24.6314  2.9816   2
   5   7  -2 0.66115 0.85051   1
  -5  -7   2 2.13477 2.33341   2
   4   7  -2 145.554   7.564   1
   4   7  -2 168.536   9.366   2
  -4  -7   2 132.055   8.563   4
   3   7  -2 80.4721  4.8002   1
   3   7  -2 90.7511  6.2288   2
   2   7  -2 60.8223  4.9173   2
   2   7  -2 54.2895  5.3887   3
   1   7  -2 31.7091  4.7990   3
   1   7  -2 31.5322  3.5790   2
  -1  -7   2 30.1941  3.1511   1
   0   7  -2 4.89463 1.78712   2
   0   7  -2 4.31127 2.59776   3
   0  -7   2 5.18714 2.15286   1
  -1   7  -2 46.4269  5.3504   3
  -1   7  -2 45.6024  3.9567   2
   1  -7   2 46.5938  4.0276   1
  -2   7  -2 163.647   8.101   2
  -2   7  -2 162.688   9.423   3
   2  -7   2 154.770   8.142   1
  -3   7  -2 803.399  29.073   2
  -3   7  -2 781.046  31.005   3
   3  -7   2 747.240  29.261   1
  -4   7  -2 59.4298  4.9836   3
  -4   7  -2 45.3449  5.1684   2
   4  -7   2 50.9828  5.3655   1
  -5   7  -2 67.8419  5.7839   2
   5  -7   2 61.8940  6.1120   1
  -6   7  -2 4.14320 2.39903   2
   6  -7   2 4.18242 2.66581   1
  -7   7  -2 18.8680  3.9630   2
   7  -7   2 19.7549  4.6304   1
  -8   7  -2 8.82727 2.36441   2
   8  -7   2 6.19031 4.12652   1
  -7  -6   2 15.3690  2.3105   2
   6   6  -2 3.95451 1.10152   1
  -6  -6   2 0.61955 1.51509   2
   5   6  -2 3.20518 1.08809   1
  -5  -6   2 1.75475 1.46365   4
  -5  -6   2 1.60010 2.40835   2
   4   6  -2 165.790   9.453   2
   4   6  -2 162.607   8.492   1
  -4  -6   2 152.715   8.703   3
  -4  -6   2 163.415   9.614   4
   3   6  -2 12.0128  1.4446   1
   3   6  -2 11.6668  3.0670   2
   2   6  -2 43.3299  4.4575   3
   2   6  -2 41.7586  2.9219   1
   2   6  -2 38.8651  4.0624   2
   1   6  -2 108.059   7.124   3
   1   6  -2 106.724   6.043   2
  -1  -6   2 109.038   5.825   1
   0   6  -2 -0.0595  1.7305   3
   0   6  -2 -0.2027  1.3463   2
   0  -6   2 -1.7514  1.5037   1
  -1   6  -2 25.7145  3.9798   3
  -1   6  -2 24.6491  3.0896   2
   1  -6   2 25.3779  3.2916   1
  -2   6  -2 243.849  11.713   3
  -2   6  -2 236.045  10.480   2
   2  -6   2 231.475  10.567   1
  -3   6  -2 440.173  17.345   2
  -3   6  -2 416.225  18.086   3
   3  -6   2 431.052  17.529   1
  -4   6  -2 56.4169  4.5541   3
  -4   6  -2 59.6572  5.4858   2
   4  -6   2 53.4102  5.5920   1
  -5   6  -2 14.1349  3.5318   2
   5  -6   2 8.14863 3.53420   1
  -6   6  -2 12.9606  3.1454   2
   6  -6   2 8.19553 3.43439   1
  -7   6  -2 7.19761 2.83543   2
   7  -6   2 3.62508 3.05862   1
  -8   6  -2 14.2615  3.1088   2
   8  -6   2 13.1770  4.7666   1
  -7  -5   2 5.99217 1.61424   2
   6   5  -2 6.02809 1.94463   1
  -6  -5   2 12.1861  3.7976   2
   5   5  -2 0.90909 1.54341   1
  -5  -5   2 -0.3803  2.8109   2
  -5  -5   2 -0.5080  1.6451   4
   4   5  -2 36.2617  3.8242   1
   4   5  -2 37.9030  5.2123   2
  -4  -5   2 27.9657  3.7899   4
  -4  -5   2 39.6409  4.9918   3
   3   5  -2 13.0148  3.0999   2
   3   5  -2 9.98259 2.22078   1
  -3  -5   2 10.1091  1.6265   4
  -3  -5   2 13.5609  1.4778   3
   2   5  -2 1.11350 1.80804   2
   2   5  -2 1.21958 1.67886   3
   2   5  -2 0.56732 0.49844   1
   1   5  -2 41.6550  3.9394   2
   1   5  -2 44.1013  4.5286   3
  -1  -5   2 51.4490  3.6332   1
   0   5  -2 49.7845  3.8819   2
   0   5  -2 50.9926  4.6643   3
   0  -5   2 42.9988  3.5638   1
  -1   5  -2 873.101  30.632   2
  -1   5  -2 863.452  33.064   3
   1  -5   2 869.523  30.707   1
  -2   5  -2 1609.29   59.43   3
  -2   5  -2 1660.70   56.05   2
   2  -5   2 1627.00   56.49   1
  -3   5  -2 13.0868  3.1505   2
  -3   5  -2 8.27789 2.21940   3
   3  -5   2 10.6923  3.1026   1
  -4   5  -2 8.66320 3.26296   2
  -4   5  -2 8.96336 1.97898   3
   4  -5   2 7.67044 3.31997   1
  -5   5  -2 8.48427 3.18355   2
   5  -5   2 5.75818 3.29525   1
  -6   5  -2 2.12508 2.31349   2
   6  -5   2 -1.7215  2.5534   1
  -7   5  -2 3.28817 2.16713   2
   7  -5   2 -1.9945  2.4100   1
  -8   5  -2 5.33253 3.05892   2
   8  -5   2 3.53236 3.60433   1
   7   4  -2 6.68860 2.00934   1
  -7  -4   2 3.34309 1.26889   2
   6   4  -2 -3.4601  1.6398   1
  -6  -4   2 -2.0730  1.9024   2
   5   4  -2 49.8262  5.0030   1
  -5  -4   2 47.3633  5.8567   4
  -5  -4   2 49.5078  5.7583   2
   4   4  -2 0.22833 2.68633   2
   4   4  -2 1.70705 2.22913   1
  -4  -4   2 6.75344 1.93660   3
  -4  -4   2 3.29580 2.06191   4
   3   4  -2 35.5259  4.5386   2
   3   4  -2 27.1554  3.4145   1
  -3  -4   2 33.7400  2.9977   4
  -3  -4   2 26.5710  2.8249   3
   2   4  -2 109.337   5.688   1
   2   4  -2 111.894   6.250   2
   1   4  -2 325.876  12.140   1
   1   4  -2 315.966  13.658   3
   1   4  -2 316.541  12.509   2
   0   4  -2 7.44668 2.14250   3
   0   4  -2 5.62384 1.75787   2
   0  -4   2 3.97052 1.71865   1
  -1   4  -2 62.3137  4.7076   3
  -1   4  -2 65.1752  4.4837   2
   1  -4   2 65.4156  4.1300   1
  -2   4  -2 323.362  13.626   3
  -2   4  -2 322.088  13.228   2
   2  -4   2 340.370  13.162   1
  -3   4  -2 28.5104  2.8709   3
  -3   4  -2 30.6486  3.9811   2
   3  -4   2 29.3766  4.1083   1
  -4   4  -2 41.8689  2.7320   3
  -4   4  -2 42.2514  4.6715   2
   4  -4   2 39.2315  5.0518   1
  -5   4  -2 83.0673  6.3859   2
   5  -4   2 80.5953  6.8404   1
  -6   4  -2 3.84429 2.72214   2
   6  -4   2 1.15990 2.89145   1
  -7   4  -2 15.0832  3.9063   2
   7  -4   2 23.2252  4.7523   1
  -8   4  -2 21.7803  4.7241   2
   8  -4   2 19.4513  5.3030   1
  -8  -3   2 3.15593 1.43300   2
   7   3  -2 0.70476 2.02236   1
  -7  -3   2 2.87834 1.32372   2
   6   3  -2 23.7756  4.4052   1
  -6  -3   2 36.3081  5.8417   2
   5   3  -2 41.5347  4.4730   1
  -5  -3   2 39.7526  5.3708   2
   4   3  -2 -0.4810  1.8824   1
  -4  -3   2 0.11263 1.91845   4
  -4  -3   2 2.54186 1.19746   3
   3   3  -2 3.70055 2.30831   2
   3   3  -2 1.73670 1.71424   1
  -3  -3   2 2.83772 1.68635   4
  -3  -3   2 3.10935 1.84056   3
   2   3  -2 1340.19   45.04   1
   2   3  -2 1280.93   44.95   2
  -2  -3   2 1323.03   52.23   4
  -2  -3   2 1270.08   47.21   3
   1   3  -2 5.15201 1.83049   2
   1   3  -2 4.68512 1.84782   3
   1   3  -2 4.46509 1.07950   1
   0   3  -2 22.8412  2.8188   3
   0   3  -2 21.5239  2.4931   2
   0  -3   2 13.5743  2.0151   1
  -1   3  -2 981.380  33.824   2
  -1   3  -2 984.270  35.798   3
   1  -3   2 975.284  33.736   1
  -2   3  -2 14.2020  2.2662   3
  -2   3  -2 18.4740  3.0608   2
   2  -3   2 17.1741  2.6679   1
  -3   3  -2 281.473  10.945   3
  -3   3  -2 263.773  11.764   2
   3  -3   2 267.046  11.807   1
  -4   3  -2 3.12463 2.60271   2
   4  -3   2 3.98160 3.05685   1
  -5   3  -2 22.3071  4.3484   2
   5  -3   2 21.9833  4.5809   1
  -6   3  -2 -0.4304  2.4928   2
   6  -3   2 2.03049 2.59578   1
  -7   3  -2 23.4224  4.5267   2
   7  -3   2 13.6569  3.6400   1
  -8   3  -2 52.6400  6.0158   2
   8  -3   2 62.3359  9.4311   1
   8   2  -2 5.49648 2.19171   1
  -8  -2   2 3.40504 1.18364   2
   7   2  -2 -3.4569  1.7261   1
   6   2  -2 2.48204 2.56444   1
  -6  -2   2 0.51828 1.72218   2
   5   2  -2 29.2622  4.1419   1
  -5  -2   2 32.5845  5.4322   2
   4   2  -2 70.4797  5.7331   1
  -4  -2   2 67.5521  4.1796   3
   3   2  -2 148.206   7.654   1
   3   2  -2 144.022   7.769   2
  -3  -2   2 151.957   8.642   4
  -3  -2   2 160.351   7.192   3
   2   2  -2 28.1953  3.2566   1
   2   2  -2 28.4295  3.4546   2
  -2  -2   2 32.7588  3.2528   4
  -2  -2   2 35.8790  3.0211   3
   1   2  -2 2527.60   82.50   1
   1   2  -2 2382.18   82.17   2
  -1  -2   2 2485.41   87.05   3
   0   2  -2 281.711  10.533   2
  -1   2  -2 103.397   5.347   2
   1  -2   2 95.9557  4.8210   1
  -2   2  -2 460.261  16.902   2
   2  -2   2 445.523  16.623   3
   2  -2   2 441.339  16.776   1
  -3   2  -2 90.9478  5.8331   2
   3  -2   2 85.6540  5.8464   1
  -4   2  -2 57.2137  5.2316   2
   4  -2   2 62.1230  5.8205   1
  -5   2  -2 7.78046 3.13699   2
   5  -2   2 2.12579 2.69531   1
  -6   2  -2 18.1041  4.2640   2
   6  -2   2 11.4779  3.9720   1
  -7   2  -2 14.8927  4.1178   2
   7  -2   2 5.77626 4.10782   1
  -8   2  -2 6.02884 2.87939   2
   8  -2   2 6.65814 3.76793   1
   8   1  -2 -2.4620  2.2759   1
   7   1  -2 6.77749 3.02750   1
   6   1  -2 71.8958  7.3848   1
  -6  -1   2 90.5832  6.5929   2
   5   1  -2 116.103   7.671   1
  -5  -1   2 118.991   7.856   2
   4   1  -2 98.7748  6.3770   1
  -4  -1   2 98.2073  6.7561   2
  -4  -1   2 99.9542  5.0790   3
   3   1  -2 375.907  14.928   1
   3   1  -2 366.930  15.028   2
  -3  -1   2 396.028  14.931   3
   2   1  -2 300.033  11.331   1
   2   1  -2 266.430  11.352   2
  -2  -1   2 311.639  11.710   3
   1   1  -2 1534.25   51.94   1
   1   1  -2 1426.39   50.86   2
  -1  -1   2 1594.65   54.00   3
   0   1  -2 1361.63   48.55   2
   0  -1   2 1544.56   51.58   3
  -1   1  -2 9.25494 1.92591   2
   1  -1   2 12.5616  1.9022   3
   1  -1   2 8.94989 1.71292   1
  -2   1  -2 399.708  17.527   4
  -2   1  -2 390.123  14.913   2
   2  -1   2 387.683  14.965   1
  -3   1  -2 179.579   8.797   2
   3  -1   2 181.378   8.882   1
  -4   1  -2 15.7446  3.6411   2
   4  -1   2 15.4732  3.6220   1
  -5   1  -2 48.3764  5.2075   2
   5  -1   2 47.6225  5.6350   1
  -6   1  -2 35.1151  5.4950   2
   6  -1   2 21.8618  5.9145   1
  -7   1  -2 53.0576  5.7919   2
   7  -1   2 62.9027  6.8213   1
  -8   1  -2 5.42737 2.87586   2
   8  -1   2 -0.6538  2.4433   1
   8   0  -2 3.16327 2.98550   1
   7   0  -2 25.9733  5.6470   1
  -7   0   2 38.6917  2.6239   2
   6   0  -2 0.69788 2.16635   1
  -6   0   2 5.36039 1.74871   2
   5   0  -2 31.9347  4.7280   1
  -5   0   2 35.5272  4.6488   2
   4   0  -2 30.4132  4.3470   1
  -4   0   2 29.4614  4.2274   2
  -4   0   2 34.6494  2.4720   3
   3   0  -2 525.097  20.203   1
  -3   0   2 556.766  20.275   3
   2   0  -2 1.37736 1.56869   2
   2   0  -2 2.24386 1.99340   1
  -2   0   2 2.22699 1.62606   3
   1   0  -2 157.449   6.483   2
   1   0  -2 162.783   6.410   1
  -1   0   2 177.191   7.137   3
   0   0  -2 185.370   6.920   2
   0   0   2 170.778   6.727   1
   0   0   2 200.431   7.525   3
  -1   0  -2 2661.75   91.74   2
   1   0   2 2928.34   96.65   3
   1   0   2 2695.44   92.73   1
  -2   0  -2 46.1549  4.4022   4
  -2   0  -2 45.6174  3.8772   2
   2   0   2 46.1414  4.3591   1
  -3   0  -2 108.208   7.688   4
  -3   0  -2 118.512   6.336   2
   3   0   2 111.163   7.076   1
  -4   0  -2 84.2556  5.6279   2
  -4   0  -2 83.6457  7.4426   4
   4   0   2 73.3111  6.8253   1
  -5   0  -2 12.5313  3.2941   2
   5   0   2 8.46426 3.65705   1
  -6   0  -2 259.017  13.618   2
   6   0   2 269.250  14.315   1
  -7   0  -2 4.68399 2.80889   2
   7   0   2 -3.0074  2.5062   1
  -8   0  -2 6.28000 3.47649   2
   8   0   2 3.71823 2.61748   1
   8  -1  -2 0.93698 2.57440   1
   7  -1  -2 30.2997  5.4112   1
  -7   1   2 33.8267  2.1946   2
   6  -1  -2 4.19145 3.06507   1
   5  -1  -2 329.728  15.156   1
  -5   1   2 330.136  14.389   2
   4  -1  -2 8.24916 2.87733   1
  -4   1   2 10.2205  1.5752   3
  -4   1   2 9.88853 2.73427   2
   3  -1  -2 0.60338 1.95129   1
  -3   1   2 0.46811 1.80190   2
  -3   1   2 2.43598 1.44899   3
   2  -1  -2 214.807   8.878   2
   2  -1  -2 231.710   9.343   1
  -2   1   2 231.479   9.375   3
   1  -1  -2 119.406   4.913   2
   1  -1  -2 129.934   5.485   1
  -1   1   2 126.934   5.909   3
   0  -1  -2 15.0125  1.7510   2
   0   1   2 13.6913  2.0570   3
   0   1   2 15.4252  1.9004   1
  -1  -1  -2 279.886  10.832   2
   1   1   2 283.568  11.335   1
   1   1   2 303.537  11.256   3
  -2  -1  -2 33.4638  3.8500   4
  -2  -1  -2 33.9975  2.8296   2
   2   1   2 32.4379  3.8909   1
  -3  -1  -2 36.3456  4.4378   4
  -3  -1  -2 40.6486  3.2195   2
   3   1   2 32.4169  4.6889   1
  -4  -1  -2 52.9701  3.8611   2
  -4  -1  -2 38.5098  5.6991   4
   4   1   2 44.5502  5.4885   1
  -5  -1  -2 142.230  10.698   4
  -5  -1  -2 148.158   8.016   2
   5   1   2 141.995   9.272   1
  -6  -1  -2 5.14844 2.18744   2
   6   1   2 -2.9130  2.4252   1
  -7  -1  -2 4.51559 2.75640   2
   7   1   2 -3.5448  1.7932   1
  -8  -1  -2 3.70874 3.28037   2
   8   1   2 0.85709 2.22339   1
   8  -2  -2 6.48902 2.61337   1
  -8   2   2 7.06477 1.58690   2
   7  -2  -2 57.7317  6.2817   1
  -7   2   2 66.4696  4.2010   2
   6  -2  -2 41.6440  5.5931   1
  -6   2   2 56.0032  3.3756   2
   5  -2  -2 281.809  13.369   1
  -5   2   2 270.093  12.030   2
   4  -2  -2 147.970   8.177   1
  -4   2   2 145.270   7.289   2
  -4   2   2 146.198   6.817   3
   3  -2  -2 55.9638  4.7112   1
  -3   2   2 54.3067  3.8379   3
  -3   2   2 52.8829  3.8575   2
   2  -2  -2 34.4797  3.7367   1
  -2   2   2 36.1954  2.7668   2
  -2   2   2 36.5408  3.3968   3
   1  -2  -2 167.284   7.631   1
  -1   2   2 201.854   8.378   3
   0  -2  -2 212.136   8.955   1
   0   2   2 229.056   9.446   3
  -1  -2  -2 0.16932 0.76347   2
   1   2   2 1.76859 1.59968   3
   1   2   2 1.92956 2.05676   1
   2   2   2 0.50565 1.08661   3
   2   2   2 0.56392 2.03488   1
  -3  -2  -2 248.679  12.880   4
  -3  -2  -2 237.041  10.410   2
   3   2   2 254.460  11.681   1
  -4  -2  -2 164.366   8.095   2
  -4  -2  -2 159.697  10.761   4
   4   2   2 167.425   9.636   1
  -5  -2  -2 50.9563  6.8068   4
  -5  -2  -2 72.4052  4.3263   2
   5   2   2 46.2031  6.0320   1
   6   2   2 -0.4789  2.6294   1
  -7  -2  -2 10.8947  4.2018   2
   7   2   2 7.60966 3.45266   1
   8  -3  -2 0.59147 2.53986   1
  -8   3   2 3.51658 2.75607   2
   7  -3  -2 1.39772 3.00409   1
   6  -3  -2 210.797  11.837   1
  -6   3   2 205.562   9.755   2
   5  -3  -2 15.2178  4.1788   1
  -5   3   2 28.9892  2.0011   2
   4  -3  -2 14.1314  3.7006   1
  -4   3   2 17.1249  2.4688   3
  -4   3   2 23.7035  1.8837   2
   3  -3  -2 4.00110 2.61669   1
  -3   3   2 3.57846 1.06436   2
  -3   3   2 4.10748 1.92768   3
   2  -3  -2 72.7143  4.8891   1
  -2   3   2 75.7052  4.8443   3
  -2   3   2 62.0868  3.0889   2
   1  -3  -2 122.097   6.232   1
  -1   3   2 132.500   6.666   3
   0  -3  -2 9.46047 2.20375   1
   0   3   2 9.24760 2.33444   3
  -1  -3  -2 473.073  17.115   2
   1   3   2 470.195  18.217   1
   1   3   2 516.531  19.058   3
  -2  -3  -2 16.7624  2.4261   2
   2   3   2 11.8778  2.1722   3
   2   3   2 15.8439  3.1129   1
  -3  -3  -2 32.6561  3.0134   2
   3   3   2 23.7692  2.3919   3
   3   3   2 33.2380  4.6113   1
  -4  -3  -2 55.6513  3.5105   2
  -4  -3  -2 39.2712  5.1746   4
   4   3   2 37.3130  5.6805   1
   5   3   2 2.86263 3.13543   1
  -6  -3  -2 -0.7066  2.5175   4
   6   3   2 -3.0767  2.2524   1
  -7  -3  -2 -1.7992  2.3586   2
  -9   4   2 2.67023 1.56078   2
   8  -4  -2 3.41773 2.86241   1
  -8   4   2 0.06738 2.20818   2
   7  -4  -2 42.9747  5.8744   1
  -7   4   2 38.4973  4.3876   2
   6  -4  -2 40.3078  5.9935   1
  -6   4   2 40.4943  4.1278   2
   5  -4  -2 155.341   9.463   1
  -5   4   2 151.111   7.736   2
   4  -4  -2 1.86923 2.77235   1
  -4   4   2 5.00252 1.23747   2
  -4   4   2 3.55082 1.64487   3
   3  -4  -2 162.472   8.484   1
  -3   4   2 162.444   7.176   2
  -3   4   2 162.636   8.263   3
   2  -4  -2 351.552  14.543   1
  -2   4   2 386.601  15.566   3
   1  -4  -2 103.326   6.012   1
  -1   4   2 115.224   6.563   3
   0  -4  -2 413.227  16.439   1
   0   4   2 436.715  17.434   3
  -1  -4  -2 382.283  13.762   2
   1   4   2 364.732  15.030   1
   1   4   2 391.567  15.841   3
  -2  -4  -2 330.212  13.384   2
   2   4   2 368.845  14.831   3
   2   4   2 353.087  14.889   1
  -3  -4  -2 75.1629  4.5475   2
   3   4   2 67.8377  6.3179   1
   3   4   2 78.9502  4.7482   3
  -4  -4  -2 37.0929  2.7308   2
  -4  -4  -2 37.5607  4.2334   4
   4   4   2 29.6957  5.1558   1
  -5  -4  -2 20.7672  4.4476   4
   5   4   2 25.1464  5.2120   1
  -6  -4  -2 22.6857  4.8848   4
  -6  -4  -2 32.6942  2.0383   2
   7   4   2 4.40724 1.94530   1
   8  -5  -2 1.60437 3.02203   1
  -8   5   2 3.17812 1.85366   2
   7  -5  -2 7.45016 3.74972   1
  -7   5   2 11.8491  2.8394   2
   6  -5  -2 -0.1467  2.8432   1
  -6   5   2 5.10787 2.14203   2
   5  -5  -2 -1.5975  2.8868   1
  -5   5   2 4.99397 1.18793   3
  -5   5   2 2.31371 2.01001   2
   4  -5  -2 44.8675  5.4393   1
  -4   5   2 41.4752  4.0564   3
  -4   5   2 44.2561  3.6065   2
   3  -5  -2 164.015   8.908   1
  -3   5   2 181.393   9.164   3
  -3   5   2 175.682   7.512   2
   2  -5  -2 7.36074 2.80789   1
  -2   5   2 4.83206 2.39867   3
   1  -5  -2 2.91864 2.29306   1
  -1   5   2 4.21417 2.48213   3
   0  -5  -2 303.079  13.098   1
   0   5   2 326.243  14.170   3
  -1  -5  -2 69.6862  3.4377   2
   1   5   2 63.4875  5.3659   1
   1   5   2 67.3108  5.3206   3
  -2  -5  -2 -0.5939  0.5356   2
   2   5   2 1.96422 1.44584   1
   2   5   2 0.57276 1.54094   3
  -3  -5  -2 28.5284  2.6674   2
   3   5   2 32.4429  3.4057   3
   3   5   2 36.8641  4.6406   1
  -4  -5  -2 47.9803  3.3578   2
  -4  -5  -2 47.4169  5.1057   4
   4   5   2 47.8024  5.1639   1
  -5  -5  -2 1.80181 1.67028   4
   5   5   2 -1.4560  2.0791   1
  -6  -5  -2 45.6466  3.2188   2
  -6  -5  -2 38.6064  5.4539   4
   6   5   2 48.4957  5.0433   1
   7   5   2 26.5516  2.3598   1
   8  -6  -2 1.68033 3.18629   1
   7  -6  -2 10.6579  3.8669   1
  -7   6   2 14.4844  2.8481   2
   6  -6  -2 2.15127 2.67544   1
  -6   6   2 7.33807 2.05763   2
   5  -6  -2 15.8895  4.3318   1
  -5   6   2 12.5554  2.3968   3
  -5   6   2 12.7315  2.5428   2
   4  -6  -2 1.90122 3.13494   1
  -4   6   2 -0.7814  1.7213   3
  -4   6   2 3.73119 1.46049   2
   3  -6  -2 19.1814  3.9465   1
  -3   6   2 19.9768  3.7321   3
  -3   6   2 24.1843  2.2388   2
   2  -6  -2 17.8283  3.4626   1
  -2   6   2 16.5036  3.5583   3
   1  -6  -2 42.6102  4.5251   1
  -1   6   2 41.4570  4.7711   3
   0  -6  -2 170.065   8.879   1
   0   6   2 180.575   9.698   3
  -1  -6  -2 30.5103  2.0418   2
  -1  -6  -2 37.1073  4.9635   1
   1   6   2 25.7256  4.1494   3
  -2  -6  -2 101.480   5.325   2
   2   6   2 109.736   6.633   1
   2   6   2 113.413   7.212   3
  -3  -6  -2 137.134   7.015   2
   3   6   2 141.558   7.846   1
   3   6   2 149.871   8.296   3
  -4  -6  -2 242.486  10.901   2
  -4  -6  -2 230.701  13.642   4
   4   6   2 244.100  12.299   1
  -5  -6  -2 59.5351  3.7515   2
  -5  -6  -2 53.4518  5.2073   4
   5   6   2 58.2277  5.3899   1
  -6  -6  -2 2.39412 2.01485   4
   6   6   2 5.31855 1.46132   1
   8  -7  -2 -0.2443  3.3429   1
   7  -7  -2 -1.2864  2.4971   1
   6  -7  -2 3.82224 3.02358   1
   5  -7  -2 11.4103  3.9966   1
  -5   7   2 13.7984  3.0039   3
   4  -7  -2 31.5937  5.0887   1
  -4   7   2 25.5553  3.9449   3
   3  -7  -2 25.6680  4.5559   1
  -3   7   2 23.0989  4.2012   3
   2  -7  -2 16.3287  3.6601   1
  -2   7   2 12.8897  3.4496   3
   1  -7  -2 8.34592 3.07316   1
  -1   7   2 5.59015 2.86567   3
   0  -7  -2 7.29336 2.94234   1
   0   7   2 6.52209 2.91558   3
  -1  -7  -2 33.0044  4.6717   1
   1   7   2 39.6679  4.9043   3
  -2  -7  -2 32.3674  2.1889   2
   2   7   2 27.5431  3.9717   3
  -3  -7  -2 3.56445 0.62451   2
   3   7   2 1.88832 1.65281   3
  -4  -7  -2 13.9999  1.4762   2
  -5  -7  -2 -0.9268  0.9097   2
   5   7   2 0.36100 1.08331   1
  -6  -7  -2 4.17144 1.84996   4
   6   7   2 5.01191 1.27510   1
   8  -8  -2 8.15427 3.87104   1
   7  -8  -2 2.03336 2.94410   1
   6  -8  -2 20.7511  4.6232   1
   5  -8  -2 7.81176 3.49055   1
  -5   8   2 6.08928 2.41937   3
   4  -8  -2 59.0069  6.1272   1
  -4   8   2 70.6851  5.9906   3
   3  -8  -2 170.324   9.739   1
  -3   8   2 177.263  10.511   3
   2  -8  -2 31.8851  4.4569   1
  -2   8   2 27.1820  4.8086   3
   1  -8  -2 43.0311  4.8131   1
  -1   8   2 41.1496  5.6026   3
   0  -8  -2 2.02656 2.43811   1
   0   8   2 2.13628 2.65134   3
  -1  -8  -2 4.83284 2.71678   1
   1   8   2 2.34791 1.96800   3
  -2  -8  -2 9.25500 3.22464   1
   2   8   2 8.99736 2.83270   3
   3   8   2 52.1576  5.0942   3
   3   8   2 53.0217  4.6580   1
   4   8   2 10.7500  1.3607   1
  -5  -8  -2 0.53347 1.01472   4
   5   8   2 -1.4894  1.2001   1
   7  -9  -2 1.29133 2.75077   1
   6  -9  -2 4.24353 2.75581   1
   5  -9  -2 17.4891  3.9718   1
  -5   9   2 18.3854  3.8291   3
   4  -9  -2 10.8176  3.6626   1
  -4   9   2 12.6722  3.2455   3
   3  -9  -2 8.20400 3.20993   1
  -3   9   2 8.34745 3.37478   3
   2  -9  -2 14.3347  3.7444   1
  -2   9   2 9.83771 3.36930   3
   1  -9  -2 0.83339 2.32018   1
  -1   9   2 -0.3913  2.2081   3
   0  -9  -2 25.5524  4.4827   1
   0   9   2 16.0136  3.9153   3
  -1  -9  -2 1.86187 2.26602   1
   1   9   2 1.05679 2.12738   3
  -2  -9  -2 26.7246  4.7004   1
   2   9   2 18.4134  3.9190   3
   3   9   2 3.41293 1.86542   3
   4   9   2 4.65724 1.37510   1
  -5  -9  -2 0.94497 1.06539   4
   5   9   2 1.28273 1.27242   1
   7 -10  -2 16.3410  4.7426   1
   6 -10  -2 19.1731  4.6500   1
   5 -10  -2 3.58636 2.63421   1
  -5  10   2 1.31343 2.10612   3
   4 -10  -2 6.69200 2.75695   1
  -4  10   2 7.27695 2.60771   3
   3 -10  -2 44.5757  4.8871   1
  -3  10   2 43.5613  5.5262   3
   2 -10  -2 7.78055 2.97074   1
  -2  10   2 4.20041 3.01273   3
   1 -10  -2 -0.4222  1.9576   1
  -1  10   2 0.89185 2.29677   3
   0 -10  -2 1.70313 2.01461   1
   0  10   2 5.31947 2.76797   3
  -1 -10  -2 71.1513  5.7642   1
   1  10   2 76.0748  7.2824   3
  -2 -10  -2 7.45189 2.57999   1
   2  10   2 5.15827 2.40630   3
  -3 -10  -2 2.99085 2.62950   1
   3  10   2 7.56062 1.65961   3
   6 -11  -2 0.38385 3.24545   1
   5 -11  -2 1.28408 2.60504   1
  -5  11   2 5.71241 2.81739   3
   4 -11  -2 34.1482  4.3897   1
  -4  11   2 29.5351  4.5527   3
   3 -11  -2 16.9957  3.6981   1
  -3  11   2 8.33175 3.33138   3
   2 -11  -2 2.58717 1.93993   1
  -2  11   2 2.87083 2.34154   3
   1 -11  -2 23.7569  3.4349   1
  -1  11   2 28.2014  5.3835   3
   0 -11  -2 68.9506  5.5930   1
   0  11   2 62.9002  7.0258   3
  -1 -11  -2 11.5242  3.3459   1
   1  11   2 7.65778 3.05907   3
  -2 -11  -2 12.1564  3.5085   1
   2  11   2 9.42615 3.44669   3
  -3 -11  -2 4.95164 3.10692   1
  -4 -11  -2 7.81471 2.84981   1
   6 -12  -2 0.53472 3.17052   1
   5 -12  -2 1.06782 3.03049   1
  -5  12   2 3.14946 2.90345   3
   4 -12  -2 7.19563 3.21515   1
  -4  12   2 9.73945 3.48513   3
   3 -12  -2 6.75638 2.61211   1
  -3  12   2 2.94936 2.64349   3
   2 -12  -2 26.3697  4.3975   1
  -2  12   2 24.4371  5.0870   3
   1 -12  -2 19.4847  3.8041   1
  -1  12   2 20.1758  5.1199   3
   0 -12  -2 37.0355  4.5373   1
   0  12   2 40.6990  5.8034   3
  -1 -12  -2 32.6984  5.7518   1
   1  12   2 25.6826  5.7605   3
  -2 -12  -2 14.2669  3.8023   1
   2  12   2 7.67092 2.96289   3
  -3 -12  -2 26.3549  4.7776   1
   5 -13  -2 13.2085  4.2934   1
  -5  13   2 12.0202  4.1290   3
   4 -13  -2 5.66919 3.27271   1
  -4  13   2 5.12908 4.03495   3
   3 -13  -2 3.53536 3.03029   1
  -3  13   2 1.45052 2.88314   3
   2 -13  -2 17.1845  4.1529   1
  -2  13   2 16.4558  4.4801   3
   1 -13  -2 17.2109  4.0495   1
  -1  13   2 16.8610  4.6939   3
   0 -13  -2 69.1672  6.3552   1
   0  13   2 68.7349  7.8882   3
  -1 -13  -2 5.53911 2.51515   1
   1  13   2 2.54275 2.37305   3
  -2 -13  -2 2.68098 1.91408   1
   2  13   2 3.25153 1.77816   3
   4 -14  -2 5.14213 2.54193   1
   3 -14  -2 12.6497  3.7932   1
  -3  14   2 11.2418  4.4010   3
   2 -14  -2 0.38108 2.30138   1
  -2  14   2 -1.6653  3.3263   3
   1 -14  -2 26.0164  4.6731   1
  -1  14   2 22.5038  5.3778   3
   0 -14  -2 13.5234  2.9510   1
   0  14  -3 33.6301  6.8154   3
  -1  14  -3 6.18348 4.01082   3
  -2  14  -3 23.1696  5.7997   3
  -3  14  -3 -0.0543  3.2479   3
  -4  14  -3 1.07669 2.64991   3
   1  13  -3 10.4309  3.8938   3
   0  13  -3 28.9380  6.0177   3
  -1  13  -3 4.11612 3.08898   3
  -2  13  -3 3.41443 3.01433   3
  -3  13  -3 0.27050 3.09885   3
  -4  13  -3 -0.0245  2.8605   3
  -3 -12   3 15.3778  2.8518   3
   1  12  -3 2.48615 2.29666   3
   0  12  -3 0.92929 2.34920   3
  -1  12  -3 1.32519 2.28669   3
  -2  12  -3 -0.9983  2.2032   3
  -3  12  -3 1.41843 2.40503   3
  -4  12  -3 23.6070  4.9362   3
  -3 -11   3 3.95325 1.31254   3
   2  11  -3 38.7090  5.4463   3
   1  11  -3 53.5681  6.2816   3
   0  11  -3 33.6320  5.1427   3
  -1  11  -3 37.6031  5.5082   3
  -2  11  -3 62.3435  6.5502   3
  -3  11  -3 1.23178 2.01591   3
   3 -11   3 -1.7797  1.5670   1
  -4  11  -3 17.6686  3.9033   3
   4 -11   3 10.3869  3.0414   1
   5 -11   3 7.54496 3.14188   1
   6 -11   3 11.2538  3.7311   1
   4  10  -3 70.8920  5.3109   2
   3  10  -3 24.9415  4.0331   2
  -3 -10   3 15.8664  1.8027   3
   2  10  -3 18.8469  2.7430   2
   2  10  -3 15.8920  4.0714   3
   1  10  -3 43.3700  5.4642   3
   1  10  -3 41.8037  3.7065   2
   0  10  -3 8.12214 1.84877   2
   0  10  -3 8.89862 3.37596   3
  -1  10  -3 3.86586 2.81986   3
   1 -10   3 2.67432 1.39815   1
  -2  10  -3 13.1996  4.1904   3
   2 -10   3 20.7311  2.9503   1
  -3  10  -3 107.773   8.189   3
   3 -10   3 109.458   7.140   1
  -4  10  -3 43.9922  5.0739   3
   4 -10   3 37.2483  4.4446   1
   5 -10   3 0.81077 2.57453   1
   6 -10   3 6.26454 3.20035   1
   7 -10   3 -1.7067  2.6079   1
   4   9  -3 12.0971  3.4743   2
   3   9  -3 109.476   7.078   2
  -3  -9   3 93.8486  6.4357   3
   2   9  -3 28.1122  4.9579   3
   2   9  -3 26.9838  3.4848   2
   1   9  -3 5.69976 2.91023   3
   1   9  -3 4.70877 2.15404   2
   0   9  -3 6.24110 2.80747   3
   0   9  -3 5.41815 1.83044   2
   0  -9   3 6.18263 1.88710   1
  -1   9  -3 0.49995 2.38587   3
  -1   9  -3 1.06714 1.24852   2
   1  -9   3 3.74975 1.69923   1
  -2   9  -3 31.0896  3.5004   2
  -2   9  -3 34.1455  4.9945   3
   2  -9   3 34.4987  3.7621   1
  -3   9  -3 2.49795 1.75275   2
  -3   9  -3 0.32358 1.61633   3
   3  -9   3 3.80987 2.12560   1
  -4   9  -3 338.469  15.461   2
  -4   9  -3 330.956  16.472   3
   4  -9   3 335.775  15.468   1
  -5   9  -3 68.6053  6.1737   2
   5  -9   3 79.5314  6.2798   1
  -6   9  -3 1.71484 2.05306   2
   6  -9   3 2.68201 2.76565   1
   7  -9   3 3.99065 3.66074   1
  -6  -8   3 6.81438 2.04495   2
   4   8  -3 3.25738 1.97387   2
  -4  -8   3 6.91745 2.57050   3
   3   8  -3 14.0596  3.2100   2
  -3  -8   3 15.6961  1.5695   3
   2   8  -3 0.80023 1.79408   3
   2   8  -3 2.69153 1.91881   2
  -2  -8   3 2.03420 1.06814   1
   1   8  -3 143.891   9.384   3
   1   8  -3 153.683   8.035   2
  -1  -8   3 143.952   7.402   1
   0   8  -3 3.06917 2.54446   3
   0   8  -3 4.55433 1.74310   2
   0  -8   3 3.22532 1.69287   1
  -1   8  -3 34.6442  3.6845   2
  -1   8  -3 37.0994  5.1706   3
   1  -8   3 34.3743  3.4891   1
  -2   8  -3 47.9039  4.4063   2
  -2   8  -3 50.7985  5.5295   3
   2  -8   3 55.0006  4.3818   1
  -3   8  -3 462.915  20.256   3
   3  -8   3 440.959  18.551   1
  -4   8  -3 79.6232  6.5695   2
  -4   8  -3 86.2476  6.4695   3
   4  -8   3 85.4907  6.0779   1
  -5   8  -3 13.7884  3.5431   2
   5  -8   3 15.7840  3.4546   1
  -6   8  -3 2.22677 2.65450   2
   6  -8   3 7.94109 2.98827   1
  -7   8  -3 2.48630 2.18469   2
   7  -8   3 6.68758 3.59142   1
  -6  -7   3 4.63654 2.69929   2
   4   7  -3 4.79885 2.38244   2
  -4  -7   3 8.77866 4.40189   3
   3   7  -3 8.62429 1.14085   1
   3   7  -3 15.0078  3.1522   2
   2   7  -3 177.091   9.296   2
   2   7  -3 179.704  10.430   3
  -2  -7   3 186.551   8.795   1
   1   7  -3 12.2387  3.2101   3
   1   7  -3 12.3794  2.7246   2
  -1  -7   3 12.6858  2.2581   1
   0   7  -3 -0.0688  2.0067   3
   0   7  -3 1.66490 1.41481   2
   0  -7   3 2.14689 1.40486   1
  -1   7  -3 1.95733 1.62292   2
  -1   7  -3 2.96994 2.42383   3
   1  -7   3 1.65632 1.59607   1
  -2   7  -3 29.3239  4.2728   3
  -2   7  -3 31.5057  3.9004   2
   2  -7   3 27.8817  3.4262   1
  -3   7  -3 167.191   9.001   2
  -3   7  -3 148.777   8.892   3
   3  -7   3 158.161   8.513   1
  -4   7  -3 163.639   9.234   2
  -4   7  -3 164.967   9.001   3
   4  -7   3 154.040   8.947   1
  -5   7  -3 7.51377 2.82254   2
   5  -7   3 4.28404 2.34285   1
  -6   7  -3 21.2338  4.3403   2
   6  -7   3 24.5450  4.3293   1
  -7   7  -3 8.40615 2.91602   2
   7  -7   3 3.12864 3.15865   1
  -8   7  -3 1.13962 1.76415   2
   8  -7   3 -2.6012  2.8356   1
  -7  -6   3 3.43497 1.52679   2
  -6  -6   3 5.81578 2.82806   2
   5   6  -3 5.53477 1.18656   1
   4   6  -3 41.7285  4.9010   2
   4   6  -3 34.0684  3.0496   1
  -4  -6   3 33.5591  3.6130   4
  -4  -6   3 32.6686  4.9858   3
   3   6  -3 1.65600 0.48201   1
   3   6  -3 -0.2841  2.0886   2
  -3  -6   3 4.12875 1.35382   3
   2   6  -3 276.700  11.493   1
   2   6  -3 295.126  12.609   2
   1   6  -3 34.8251  4.3907   3
   1   6  -3 26.9846  3.6444   2
  -1  -6   3 40.0950  3.0039   1
   0   6  -3 25.9319  3.9944   3
   0   6  -3 23.2914  3.3731   2
   0  -6   3 24.2380  2.7303   1
  -1   6  -3 36.5231  3.8459   2
  -1   6  -3 44.6442  4.6593   3
   1  -6   3 43.6064  3.5508   1
  -2   6  -3 27.5107  3.9280   2
  -2   6  -3 26.0296  4.0393   3
   2  -6   3 22.4956  3.3063   1
  -3   6  -3 16.1724  3.0785   3
  -3   6  -3 17.2520  3.7009   2
   3  -6   3 10.7563  2.9888   1
  -4   6  -3 7.25921 2.88840   2
  -4   6  -3 4.92154 1.79581   3
   4  -6   3 5.10937 2.98131   1
  -5   6  -3 0.75383 2.56704   2
   5  -6   3 -0.7348  2.4779   1
  -6   6  -3 17.9640  3.8649   2
   6  -6   3 13.7740  3.8364   1
  -7   6  -3 6.32170 3.27897   2
   7  -6   3 3.13918 2.51521   1
  -8   6  -3 16.3411  3.1308   2
   8  -6   3 31.5121  6.4241   1
  -7  -5   3 6.37694 2.17928   2
   6   5  -3 4.86701 1.74008   1
  -6  -5   3 9.36428 3.85456   2
  -5  -5   3 0.06975 1.75237   4
   4   5  -3 1.81760 2.45828   2
   4   5  -3 0.51133 1.10763   1
  -4  -5   3 3.05871 1.70910   3
  -4  -5   3 2.07359 1.60452   4
   3   5  -3 19.3836  3.6855   2
   3   5  -3 16.8955  2.0647   1
  -3  -5   3 16.7848  3.0820   3
  -3  -5   3 18.2128  1.9357   4
   2   5  -3 14.5102  3.0236   2
   2   5  -3 12.3037  1.1897   1
  -2  -5   3 13.8804  2.3759   3
   1   5  -3 466.262  19.998   3
   1   5  -3 481.470  18.423   2
  -1  -5   3 514.004  18.031   1
   0   5  -3 95.9942  5.5732   2
   0   5  -3 97.5958  6.3015   3
   0  -5   3 89.1995  4.6952   1
  -1   5  -3 4.44475 2.28992   3
  -1   5  -3 7.57497 2.36661   2
   1  -5   3 9.89520 2.24027   1
  -2   5  -3 315.597  13.075   2
  -2   5  -3 309.257  13.561   3
   2  -5   3 298.960  12.501   1
  -3   5  -3 41.5997  4.8547   2
  -3   5  -3 44.8396  3.8634   3
   3  -5   3 38.2105  4.3665   1
  -4   5  -3 21.4223  4.1664   2
   4  -5   3 19.7458  4.0207   1
  -5   5  -3 2.97850 2.52109   2
   5  -5   3 -0.6170  2.7347   1
  -6   5  -3 4.15334 2.44793   2
   6  -5   3 -1.5857  2.0540   1
  -7   5  -3 20.2155  4.4359   2
   7  -5   3 12.3769  3.8572   1
  -8   5  -3 7.18938 2.84583   2
   8  -5   3 3.41836 3.61896   1
   8   4  -3 15.5717  2.2144   1
   7   4  -3 18.2285  2.6300   1
  -7  -4   3 21.5909  4.0239   2
   6   4  -3 -1.6589  1.6580   1
  -6  -4   3 -0.1626  3.0407   2
   5   4  -3 -2.0682  1.4356   1
   4   4  -3 360.771  15.599   2
   4   4  -3 331.125  14.361   1
  -4  -4   3 339.187  16.788   4
  -4  -4   3 328.246  14.776   3
   3   4  -3 0.75619 1.19854   1
   3   4  -3 0.17056 2.00037   2
  -3  -4   3 0.94965 1.05605   4
  -3  -4   3 0.57387 2.04610   3
   2   4  -3 182.897   8.872   2
   2   4  -3 192.787   7.858   1
  -2  -4   3 176.722   8.791   3
   1   4  -3 323.431  12.854   2
   0   4  -3 4.03915 1.80608   2
   0   4  -3 4.11508 2.12525   3
  -1   4  -3 6.84781 2.20086   3
  -1   4  -3 8.75529 2.22125   2
   1  -4   3 5.41191 1.93176   1
  -2   4  -3 534.684  19.974   2
  -2   4  -3 529.028  20.621   3
   2  -4   3 512.360  19.480   1
  -3   4  -3 1.48771 2.42164   2
   3  -4   3 2.04507 2.51709   1
  -4   4  -3 33.9106  4.8225   2
   4  -4   3 38.9399  4.7741   1
  -5   4  -3 2.80479 2.80276   2
   5  -4   3 4.98504 3.22950   1
  -6   4  -3 5.46864 2.98821   2
   6  -4   3 3.25915 2.98547   1
  -7   4  -3 4.47348 3.29331   2
   7  -4   3 -2.1146  1.9720   1
  -8   4  -3 0.75373 2.66358   2
   8  -4   3 3.75121 4.30690   1
  -8  -3   3 27.5184  2.8910   2
   7   3  -3 2.12852 2.17603   1
  -7  -3   3 1.44844 1.55143   2
   6   3  -3 18.6195  3.8026   1
  -6  -3   3 25.1572  5.5219   2
   5   3  -3 94.0323  6.3999   1
   4   3  -3 67.4314  6.0562   2
   4   3  -3 62.1210  4.9596   1
  -4  -3   3 65.6729  4.6380   3
   3   3  -3 2.70393 2.21841   2
   3   3  -3 0.78606 1.28939   1
  -3  -3   3 2.66810 1.54373   3
  -3  -3   3 2.76620 1.51481   4
   2   3  -3 277.518  11.947   2
   2   3  -3 289.539  11.165   1
  -2  -3   3 295.832  12.741   3
  -2  -3   3 295.482  12.944   4
   1   3  -3 170.904   7.875   2
  -1  -3   3 183.440   8.440   3
   0   3  -3 185.553   8.083   2
   0  -3   3 189.555   8.494   3
  -1   3  -3 60.9520  4.5571   2
   1  -3   3 59.3961  3.8841   3
   1  -3   3 55.7909  3.6010   1
  -2   3  -3 226.701   9.967   2
   2  -3   3 214.881   9.416   3
   2  -3   3 219.117   9.398   1
  -3   3  -3 1.66907 2.32831   2
   3  -3   3 5.80126 2.28376   3
   3  -3   3 2.64249 2.51340   1
  -4   3  -3 7.00163 3.13762   2
   4  -3   3 7.50436 3.34868   1
  -5   3  -3 8.24953 3.16196   2
   5  -3   3 5.83442 3.06388   1
  -6   3  -3 41.8418  5.1175   2
   6  -3   3 46.9187  5.6009   1
  -7   3  -3 19.6724  4.5260   2
   7  -3   3 17.3923  4.7500   1
  -8   3  -3 27.6020  5.0625   2
   8  -3   3 17.1089  5.3029   1
  -8  -2   3 35.9577  2.3646   2
   7   2  -3 2.32384 1.96094   1
  -7  -2   3 1.88201 1.46393   2
   6   2  -3 6.60533 2.48933   1
  -6  -2   3 11.2742  3.8041   2
   5   2  -3 96.1980  7.0467   1
   4   2  -3 64.2508  5.4504   1
   4   2  -3 64.8683  5.8273   2
  -4  -2   3 69.7710  4.6340   3
   3   2  -3 65.5503  4.6053   1
   3   2  -3 58.6414  4.9395   2
  -3  -2   3 61.8836  4.2446   3
   2   2  -3 181.285   8.382   2
   2   2  -3 194.783   7.775   1
  -2  -2   3 180.804   8.727   3
   1   2  -3 1783.13   62.23   2
  -1  -2   3 1915.96   66.24   3
   0   2  -3 653.555  24.217   2
   0  -2   3 734.401  26.014   3
  -1   2  -3 1048.35   37.55   2
   1  -2   3 1152.99   39.66   3
   1  -2   3 1078.39   37.37   1
  -2   2  -3 13.0180  2.8510   2
   2  -2   3 5.08659 2.56049   3
   2  -2   3 9.17375 2.35535   1
  -3   2  -3 3.37588 2.44443   2
   3  -2   3 4.45469 2.70903   1
  -4   2  -3 150.298   8.774   2
   4  -2   3 160.831   9.023   1
  -5   2  -3 3.27234 2.70841   2
   5  -2   3 3.27948 2.86719   1
  -6   2  -3 16.3123  4.1886   2
   6  -2   3 12.6509  4.2605   1
  -7   2  -3 88.1735  7.6075   2
   7  -2   3 84.9830  8.2294   1
  -8   2  -3 10.5145  3.1915   2
   8  -2   3 16.7354  4.5789   1
  -8  -1   3 37.2748  2.4269   2
   7   1  -3 17.4127  4.8615   1
  -7  -1   3 25.0168  2.9438   2
   6   1  -3 64.2486  6.1124   1
  -6  -1   3 77.9274  6.4282   2
   5   1  -3 15.9833  3.5259   1
  -5  -1   3 18.7915  4.3422   2
   4   1  -3 234.094  11.125   2
   4   1  -3 243.123  10.867   1
  -4  -1   3 237.339  10.481   3
   3   1  -3 218.264   9.376   1
   3   1  -3 199.476   9.560   2
  -3  -1   3 216.787   9.701   3
   2   1  -3 175.973   7.924   2
   2   1  -3 181.157   7.443   1
  -2  -1   3 180.918   8.290   3
   1   1  -3 130.976   6.423   2
  -1  -1   3 163.577   7.427   3
   0   1  -3 456.245  17.063   2
   0  -1   3 502.273  18.363   3
  -1   1  -3 1703.05   61.19   2
  -1   1  -3 1785.93   71.56   4
   1  -1   3 1944.32   64.58   3
   1  -1   3 1845.09   61.62   1
  -2   1  -3 50.9688  4.8996   4
  -2   1  -3 40.3042  4.2007   2
   2  -1   3 40.0780  3.3316   3
   2  -1   3 42.5751  4.0657   1
  -3   1  -3 59.6540  5.0311   2
  -3   1  -3 55.6370  5.5598   4
   3  -1   3 60.5976  5.2354   1
  -4   1  -3 72.9952  5.9298   2
   4  -1   3 74.7143  6.4497   1
  -5   1  -3 3.70681 2.85069   2
   5  -1   3 -4.5571  3.5187   1
  -6   1  -3 31.4581  5.3435   2
   6  -1   3 33.3254  4.8685   1
  -7   1  -3 34.2759  5.6304   2
   7  -1   3 22.1240  5.1836   1
  -8   1  -3 8.33151 3.85272   2
   8  -1   3 11.0910  3.6770   1
   8   0  -3 5.91834 5.30273   1
   7   0  -3 27.6313  4.9076   1
  -7   0   3 31.8092  2.9844   2
   6   0  -3 111.746   7.877   1
  -6   0   3 121.481   7.738   2
   5   0  -3 -1.3246  2.2659   1
  -5   0   3 -2.7475  2.2885   2
   4   0  -3 45.9215  4.7415   1
  -4   0   3 46.4246  3.5580   3
   3   0  -3 120.502   6.351   1
   3   0  -3 106.325   6.278   2
  -3   0   3 120.021   6.194   3
   2   0  -3 196.522   8.015   1
   2   0  -3 172.495   7.854   2
  -2   0   3 197.641   8.516   3
   1   0  -3 132.513   5.411   1
   1   0  -3 130.197   5.795   2
   0   0  -3 2295.06   77.70   2
   0   0   3 2150.53   78.22   1
   0   0   3 2571.98   82.67   3
  -1   0  -3 222.802   9.437   2
   1   0   3 249.636   9.661   3
   1   0   3 237.301   9.619   1
  -2   0  -3 303.902  15.031   4
  -2   0  -3 319.234  13.024   2
   2   0   3 330.202  13.293   1
   2   0   3 349.596  12.504   3
  -3   0  -3 13.9205  3.1387   2
  -3   0  -3 12.0270  3.0243   4
   3   0   3 13.2986  3.1937   1
  -4   0  -3 88.4529  7.7123   4
  -4   0  -3 87.9168  6.4964   2
   4   0   3 89.3816  7.0747   1
  -5   0  -3 5.08607 3.13348   2
   5   0   3 2.49155 3.12422   1
  -6   0  -3 10.5179  3.7372   2
   6   0   3 5.36105 3.33226   1
  -7   0  -3 3.79975 2.69750   2
   7   0   3 -0.5782  2.7925   1
  -8   0  -3 12.8215  4.2857   2
   8   0   3 9.01977 3.49245   1
   8  -1  -3 -0.1040  2.2278   1
  -7   1   3 27.5137  1.9166   2
   6  -1  -3 360.278  17.021   1
  -6   1   3 382.486  16.470   2
   5  -1  -3 411.023  17.481   1
  -5   1   3 397.401  16.969   2
   4  -1  -3 -3.5455  1.8753   1
  -4   1   3 -0.0749  1.1593   3
  -4   1   3 -0.1207  2.0836   2
   3  -1  -3 42.4391  4.3228   1
   3  -1  -3 40.9568  3.7816   2
  -3   1   3 49.1878  3.8183   3
   2  -1  -3 25.6543  2.7934   2
   2  -1  -3 27.8676  3.3146   1
  -2   1   3 28.7903  3.2325   3
   1  -1  -3 2.20926 1.19291   2
   1  -1  -3 2.32854 1.39589   1
  -1   1   3 8.83208 2.31880   3
   0  -1  -3 257.339   9.800   2
   0   1   3 247.001  10.204   1
   0   1   3 298.112  11.189   3
  -1  -1  -3 337.668  12.981   2
   1   1   3 343.438  13.565   1
   1   1   3 367.816  13.749   3
  -2  -1  -3 571.242  21.053   2
   2   1   3 584.495  21.227   3
   2   1   3 563.857  21.607   1
  -3  -1  -3 77.1930  6.0431   4
  -3  -1  -3 75.7717  5.5812   2
   3   1   3 82.5728  6.1359   1
  -4  -1  -3 0.02356 2.78408   4
  -4  -1  -3 1.55572 2.82062   2
   4   1   3 2.47850 3.31819   1
  -5  -1  -3 89.9707  6.9119   2
  -5  -1  -3 82.8663  8.3491   4
   5   1   3 81.3302  7.1864   1
  -6  -1  -3 4.80415 2.47671   2
   6   1   3 -1.5420  2.5319   1
  -7  -1  -3 29.0534  5.3024   2
   7   1   3 17.1944  5.0791   1
   8  -2  -3 -1.3115  2.0173   1
   7  -2  -3 2.28279 2.70255   1
   6  -2  -3 119.815   8.529   1
  -6   2   3 136.826   7.218   2
   5  -2  -3 32.4111  5.1751   1
  -5   2   3 39.9362  3.8006   2
   4  -2  -3 13.9296  3.3320   1
  -4   2   3 10.4512  2.0535   3
  -4   2   3 15.5524  2.8937   2
   3  -2  -3 82.3285  5.4196   1
  -3   2   3 75.6848  4.7787   2
  -3   2   3 77.7492  5.0823   3
   2  -2  -3 641.416  23.114   1
   2  -2  -3 600.758  22.066   2
  -2   2   3 678.052  24.405   3
   1  -2  -3 31.1658  3.3070   1
  -1   2   3 35.3955  3.4185   3
   0   2   3 44.7618  3.8420   3
  -1  -2  -3 145.867   6.402   2
   1   2   3 137.440   7.157   1
   1   2   3 152.450   7.067   3
  -2  -2  -3 156.433   7.447   2
   2   2   3 160.602   8.447   1
   2   2   3 160.483   7.311   3
  -3  -2  -3 16.4603  3.3375   4
   3   2   3 14.5902  1.4652   3
   3   2   3 13.1615  3.5927   1
  -4  -2  -3 25.0351  4.7002   4
  -4  -2  -3 33.8065  3.4657   2
   4   2   3 31.6896  5.1679   1
  -5  -2  -3 0.93529 2.77232   4
  -5  -2  -3 8.62732 3.02179   2
   5   2   3 3.08175 3.32175   1
  -6  -2  -3 17.1221  4.2004   2
  -6  -2  -3 11.0267  4.1405   4
   6   2   3 4.64322 3.02899   1
  -7  -2  -3 19.5901  4.7128   2
   8  -3  -3 6.64083 2.65673   1
   7  -3  -3 38.5643  5.5029   1
  -7   3   3 42.7989  2.6363   2
   6  -3  -3 19.0310  4.3569   1
  -6   3   3 26.5407  1.6139   2
   5  -3  -3 6.26923 3.41253   1
  -5   3   3 13.7967  1.4579   2
   4  -3  -3 15.2028  3.5715   1
  -4   3   3 10.5213  2.3001   3
  -4   3   3 13.2664  1.9033   2
   3  -3  -3 40.3541  4.3427   1
  -3   3   3 37.5354  2.7609   2
  -3   3   3 41.2745  3.9649   3
   2  -3  -3 29.1275  3.3111   1
  -2   3   3 21.6834  3.4228   3
   1  -3  -3 69.8301  4.5554   1
  -1   3   3 70.5243  4.9025   3
   0  -3  -3 10.4276  2.3193   1
   0   3   3 8.89526 2.47919   3
  -1  -3  -3 335.613  12.713   2
   1   3   3 329.774  13.688   1
   1   3   3 366.353  14.391   3
  -2  -3  -3 58.0982  3.3531   2
   2   3   3 51.0047  5.0964   1
   2   3   3 57.5750  4.1067   3
   3   3   3 13.3074  1.8203   3
   3   3   3 10.1059  3.4409   1
  -4  -3  -3 7.41734 2.64581   4
   4   3   3 1.80586 2.90652   1
  -5  -3  -3 155.795   8.740   2
  -5  -3  -3 155.219  11.265   4
   5   3   3 160.679  10.227   1
  -6  -3  -3 0.97787 2.59736   4
  -6  -3  -3 4.53303 2.52097   2
   6   3   3 -4.0575  2.3839   1
  -7  -3  -3 44.7949  5.7144   2
   7   3   3 34.3435  6.1062   1
   8  -4  -3 -3.1922  2.2882   1
  -8   4   3 4.37500 2.17486   2
   7  -4  -3 5.36805 3.40665   1
  -7   4   3 7.84411 1.69827   2
   6  -4  -3 42.6666  5.4908   1
  -6   4   3 54.0552  3.3668   2
   5  -4  -3 21.0459  4.3845   1
  -5   4   3 22.3612  2.5114   3
  -5   4   3 25.2993  1.6978   2
   4  -4  -3 123.662   7.678   1
  -4   4   3 133.338   7.233   3
  -4   4   3 118.672   5.625   2
   3  -4  -3 139.369   7.571   1
  -3   4   3 124.125   5.593   2
  -3   4   3 151.236   7.816   3
   2  -4  -3 41.3530  4.1124   1
  -2   4   3 48.7024  4.5272   3
   1  -4  -3 32.3832  3.8037   1
  -1   4   3 39.3308  4.2862   3
   0  -4  -3 509.540  19.862   1
   0   4   3 535.247  21.025   3
  -1  -4  -3 6.52713 1.05334   2
   1   4   3 7.46532 2.34152   3
   1   4   3 10.5587  2.5424   1
  -2  -4  -3 123.331   5.830   2
   2   4   3 135.947   7.653   1
   2   4   3 136.610   7.153   3
  -3  -4  -3 30.8149  1.8876   2
   3   4   3 23.0627  4.3094   1
   3   4   3 24.0318  2.5683   3
  -4  -4  -3 308.565  16.862   4
  -4  -4  -3 306.522  13.280   2
   4   4   3 333.240  15.668   1
  -5  -4  -3 6.11221 2.75097   4
   5   4   3 5.91698 3.29177   1
  -6  -4  -3 11.3391  3.2561   2
  -6  -4  -3 2.14037 2.34233   4
   6   4   3 0.81276 2.30514   1
  -7  -4  -3 3.52783 2.98999   2
   7   4   3 0.60985 1.85462   1
   8  -5  -3 1.03529 2.64265   1
   7  -5  -3 6.75235 3.57634   1
  -7   5   3 8.12959 2.31566   2
   6  -5  -3 3.28734 3.25666   1
  -6   5   3 11.1916  2.5482   2
   5  -5  -3 3.56514 2.87809   1
  -5   5   3 -0.4853  1.4633   2
  -5   5   3 0.86974 1.23288   3
   4  -5  -3 36.8469  5.0118   1
  -4   5   3 29.3604  3.6859   3
  -4   5   3 28.8689  2.8770   2
   3  -5  -3 1.26598 2.59224   1
  -3   5   3 1.52817 2.23404   3
  -3   5   3 1.05170 0.98017   2
   2  -5  -3 4.33162 2.50958   1
  -2   5   3 2.47114 2.34511   3
   1  -5  -3 33.6399  4.0174   1
  -1   5   3 34.7800  4.2961   3
   0  -5  -3 98.0439  6.2746   1
   0   5   3 101.679   6.628   3
  -1  -5  -3 11.4079  0.8621   2
   1   5   3 10.9229  3.2874   1
   1   5   3 8.47861 2.69730   3
  -2  -5  -3 166.195   7.358   2
   2   5   3 172.880   8.936   1
   2   5   3 184.944   9.267   3
   3   5   3 3.77519 1.46401   3
   3   5   3 7.33728 2.42653   1
  -4  -5  -3 7.26204 1.96758   4
   4   5   3 0.36833 2.13249   1
  -5  -5  -3 6.69586 2.16970   4
   5   5   3 8.69149 2.96218   1
  -6  -5  -3 23.5243  4.6757   2
  -6  -5  -3 12.7629  3.8760   4
   6   5   3 22.7260  3.9081   1
  -7  -5  -3 28.6342  4.0371   2
   8  -6  -3 -0.1130  2.5015   1
   7  -6  -3 67.1109  6.6434   1
   6  -6  -3 2.45694 2.67840   1
  -6   6   3 2.77034 1.26483   2
   5  -6  -3 22.5352  4.5690   1
  -5   6   3 23.7342  2.3776   2
  -5   6   3 24.3791  3.3274   3
   4  -6  -3 7.27670 3.33610   1
  -4   6   3 6.95684 2.43798   3
  -4   6   3 5.97493 1.23194   2
   3  -6  -3 130.778   8.004   1
  -3   6   3 143.676   8.447   3
   2  -6  -3 50.1815  4.8519   1
  -2   6   3 47.8389  5.1132   3
   1  -6  -3 93.7049  6.2917   1
  -1   6   3 96.3210  6.9391   3
   0  -6  -3 71.5084  5.7057   1
   0   6   3 77.4744  6.2143   3
  -1  -6  -3 48.5592  5.1655   1
  -1  -6  -3 41.2770  2.3581   2
   1   6   3 50.3430  4.9519   3
  -2  -6  -3 11.4966  1.6963   2
   2   6   3 8.85119 2.73522   3
   2   6   3 16.1071  3.3230   1
  -3  -6  -3 207.497   9.506   2
   3   6   3 232.718  11.230   3
   3   6   3 232.374  11.175   1
  -4  -6  -3 7.61164 0.83662   2
   4   6   3 3.96910 1.40476   1
  -5  -6  -3 26.5029  2.0977   2
  -5  -6  -3 29.0438  3.2972   4
   5   6   3 27.5657  3.4223   1
  -6  -6  -3 0.20572 2.03120   4
  -6  -6  -3 -1.2270  2.1190   2
   6   6   3 3.90595 1.31227   1
   8  -7  -3 41.4538  5.4088   1
   7  -7  -3 -2.9042  2.5432   1
   6  -7  -3 13.1798  4.0819   1
   5  -7  -3 0.09094 2.54424   1
  -5   7   3 0.89569 1.85598   3
   4  -7  -3 4.10803 3.04513   1
  -4   7   3 8.73597 2.62369   3
   3  -7  -3 109.260   7.538   1
  -3   7   3 123.901   8.150   3
   2  -7  -3 13.7784  3.5280   1
  -2   7   3 11.7332  3.4607   3
   1  -7  -3 3.97206 2.86429   1
  -1   7   3 1.93041 2.58605   3
   0  -7  -3 67.8112  5.7581   1
   0   7   3 71.5833  6.3661   3
  -1  -7  -3 5.22471 2.81468   1
   1   7   3 3.89953 2.50547   3
   2   7   3 142.149   8.824   3
   3   7   3 19.4161  2.0224   1
   4   7   3 124.311   7.479   1
   5   7   3 0.50669 1.12680   1
  -6  -7  -3 8.44009 1.86953   4
   6   7   3 3.02313 1.36307   1
   8  -8  -3 2.17668 2.90158   1
   7  -8  -3 3.05801 2.88667   1
   6  -8  -3 2.25558 2.65650   1
   5  -8  -3 13.2775  3.9048   1
  -5   8   3 11.7921  3.0383   3
   4  -8  -3 115.888   7.940   1
  -4   8   3 114.101   7.911   3
   3  -8  -3 5.61512 2.96999   1
  -3   8   3 4.57047 2.80038   3
   2  -8  -3 56.7056  5.3626   1
  -2   8   3 61.4343  6.0803   3
   1  -8  -3 6.89441 3.02551   1
  -1   8   3 5.12790 2.81987   3
   0  -8  -3 3.74409 2.72072   1
   0   8   3 1.63718 2.38547   3
  -1  -8  -3 67.2190  6.0840   1
   1   8   3 74.4016  6.5019   3
  -2  -8  -3 9.13224 3.54621   1
   2   8   3 9.99752 2.89388   3
   3   8   3 27.2780  3.7325   1
   3   8   3 29.4576  3.6125   3
   4   8   3 4.71386 1.09633   1
  -5  -8  -3 14.5486  1.7975   4
   5   8   3 13.7327  1.6979   1
   7  -9  -3 7.18461 3.88209   1
   6  -9  -3 1.94202 2.56756   1
   5  -9  -3 5.20138 2.83109   1
  -5   9   3 0.78419 1.99819   3
   4  -9  -3 29.3797  4.9435   1
  -4   9   3 22.0482  4.0971   3
   3  -9  -3 9.21614 3.32162   1
  -3   9   3 7.37388 3.16838   3
   2  -9  -3 27.8421  4.6024   1
  -2   9   3 25.9244  4.9147   3
   1  -9  -3 4.11609 2.92006   1
  -1   9   3 1.35530 2.44750   3
   0  -9  -3 6.28634 3.06123   1
   0   9   3 3.90193 2.62098   3
  -1  -9  -3 113.046   7.911   1
   1   9   3 122.548   8.842   3
  -2  -9  -3 -0.5039  1.4821   1
   2   9   3 1.19600 1.62657   3
  -5  -9  -3 10.7843  1.8381   4
   7 -10  -3 -0.0316  3.1787   1
   6 -10  -3 41.1106  5.3902   1
   5 -10  -3 -0.2897  2.3147   1
  -5  10   3 -1.0335  1.9009   3
   4 -10  -3 21.1190  4.3092   1
  -4  10   3 16.3538  3.7523   3
   3 -10  -3 23.6051  4.2661   1
  -3  10   3 19.8326  4.5367   3
   2 -10  -3 14.5795  3.7502   1
  -2  10   3 9.66800 3.75090   3
   1 -10  -3 39.2969  4.6249   1
  -1  10   3 41.8383  5.6107   3
   0 -10  -3 255.236  13.059   1
   0  10   3 264.135  15.006   3
  -1 -10  -3 6.05650 2.46037   1
   1  10   3 4.36836 2.32384   3
  -2 -10  -3 4.52925 2.12422   1
   2  10   3 3.34323 2.09274   3
  -3 -10  -3 11.5956  3.6924   1
  -4 -10  -3 23.9749  5.3933   1
   6 -11  -3 2.41307 3.09999   1
   5 -11  -3 3.76680 2.57609   1
  -5  11   3 5.37477 2.77530   3
   4 -11  -3 6.17535 2.57694   1
  -4  11   3 3.45228 2.51068   3
   3 -11  -3 8.81941 2.68637   1
  -3  11   3 4.61146 2.46417   3
   2 -11  -3 4.54131 2.21414   1
  -2  11   3 1.27713 2.30760   3
   1 -11  -3 24.4040  4.3090   1
  -1  11   3 19.2383  4.4600   3
   0 -11  -3 4.32168 2.36832   1
   0  11   3 2.08460 2.59573   3
  -1 -11  -3 20.0293  3.9909   1
   1  11   3 9.99073 3.24872   3
  -2 -11  -3 24.6095  5.0732   1
   2  11   3 22.9122  4.7452   3
  -3 -11  -3 2.21078 2.91790   1
   6 -12  -3 9.34414 3.62651   1
   5 -12  -3 1.03770 2.79501   1
  -5  12   3 -0.1854  2.6668   3
   4 -12  -3 24.2382  4.6133   1
  -4  12   3 19.3447  4.9544   3
   3 -12  -3 6.00526 2.64843   1
  -3  12   3 6.16962 2.85736   3
   2 -12  -3 25.4290  4.3847   1
  -2  12   3 12.7749  4.0901   3
   1 -12  -3 3.54838 2.24973   1
  -1  12   3 1.38874 2.42909   3
   0 -12  -3 9.83721 3.24492   1
   0  12   3 6.77734 2.97030   3
  -1 -12  -3 11.8388  3.8877   1
   1  12   3 4.06452 2.92737   3
  -2 -12  -3 10.1676  3.6239   1
   2  12   3 10.0604  2.6827   3
  -3 -12  -3 26.4869  4.9962   1
   5 -13  -3 4.63626 3.09015   1
  -5  13   3 0.72676 2.64427   3
   4 -13  -3 27.6081  5.5954   1
  -4  13   3 25.9631  5.8936   3
   3 -13  -3 10.1503  3.4188   1
  -3  13   3 7.99439 3.99986   3
   2 -13  -3 1.72567 2.71163   1
  -2  13   3 4.57884 3.55406   3
   1 -13  -3 21.2158  4.3678   1
  -1  13   3 17.4220  4.6912   3
   0 -13  -3 18.0459  4.2963   1
   0  13   3 11.9529  4.1876   3
  -1 -13  -3 19.6146  4.4464   1
   1  13   3 10.2131  3.1501   3
   3 -14  -3 7.55253 3.00696   1
   2 -14  -3 2.66473 2.14847   1
   1 -14  -3 6.76914 2.64187   1
  -1  14  -4 1.25170 3.98738   3
  -2  14  -4 -2.0320  3.2004   3
  -3  14  -4 13.6396  4.8470   3
   0  13  -4 17.9007  4.7759   3
  -1  13  -4 -1.7511  2.4199   3
  -2  13  -4 1.94192 2.86395   3
  -3  13  -4 6.89417 4.10031   3
  -4  13  -4 13.1597  4.2287   3
  -3 -12   4 7.76447 3.14526   3
  -2 -12   4 10.1536  1.7657   3
   0  12  -4 1.70031 2.48616   3
  -1  12  -4 10.5405  3.4939   3
  -2  12  -4 13.3155  3.6812   3
  -3  12  -4 1.85053 2.48660   3
  -4  12  -4 7.32718 3.55415   3
  -3 -11   4 1.89383 1.64388   3
   1  11  -4 12.4993  4.3731   3
   0  11  -4 22.5343  4.9249   3
  -1  11  -4 39.8302  5.4430   3
  -2  11  -4 11.8196  3.6680   3
  -3  11  -4 72.4170  6.5583   3
  -4  11  -4 13.0787  3.5165   3
   4  10  -4 0.65387 1.54532   2
   3  10  -4 1.96346 2.04149   2
  -3 -10   4 2.47227 1.50781   3
   2  10  -4 1.56743 1.60514   2
   1  10  -4 2.77668 1.39398   2
   1  10  -4 2.07266 2.45939   3
   0  10  -4 0.69903 2.35451   3
   0  10  -4 0.50367 1.33508   2
  -1  10  -4 18.6132  4.3311   3
  -1  10  -4 12.3641  2.6791   2
  -2  10  -4 18.3871  3.3010   2
  -2  10  -4 16.7649  4.2486   3
  -3  10  -4 10.4132  2.6476   3
  -3  10  -4 5.82962 1.97579   2
   3 -10   4 7.71778 1.97140   1
  -4  10  -4 104.158   7.139   2
  -4  10  -4 118.849   8.461   3
   4 -10   4 114.044   7.355   1
   5 -10   4 12.5272  3.2381   1
   6 -10   4 2.11629 2.98751   1
   7 -10   4 4.90559 2.78468   1
  -6  -9   4 36.8939  2.7425   2
   4   9  -4 40.7271  4.7253   2
  -4  -9   4 39.2113  8.4516   3
   3   9  -4 19.3719  3.7054   2
  -3  -9   4 13.7995  2.6047   3
   2   9  -4 25.2415  4.2860   2
   1   9  -4 123.325   9.151   3
   1   9  -4 131.915   7.477   2
   0   9  -4 15.5659  3.9168   3
   0   9  -4 18.0443  3.1169   2
  -1   9  -4 0.73353 1.29937   2
  -1   9  -4 2.65248 2.64046   3
  -2   9  -4 5.94967 2.26657   2
  -2   9  -4 8.92163 3.37281   3
   2  -9   4 11.1692  2.4811   1
  -3   9  -4 58.0985  5.5323   3
  -3   9  -4 61.1716  5.2977   2
   3  -9   4 64.1019  4.9910   1
  -4   9  -4 9.45904 2.94231   2
  -4   9  -4 11.8333  3.1622   3
   4  -9   4 14.6391  3.0591   1
  -5   9  -4 61.5225  5.8997   2
   5  -9   4 62.5453  5.7180   1
  -6   9  -4 1.98536 2.16583   2
   6  -9   4 0.38110 2.60844   1
  -7   9  -4 -0.4783  1.9522   2
   7  -9   4 6.23440 3.43610   1
  -6  -8   4 40.2092  4.3438   2
   5   8  -4 14.7414  4.2600   2
   4   8  -4 10.8659  3.0718   2
  -4  -8   4 9.63054 4.82880   3
   3   8  -4 2.31819 2.10420   2
  -3  -8   4 3.91558 1.34271   3
   2   8  -4 12.1162  2.9168   2
  -2  -8   4 17.5871  2.2707   3
   1   8  -4 99.7391  6.4516   2
   1   8  -4 107.645   8.025   3
   0   8  -4 38.8463  5.2195   3
   0   8  -4 41.4643  4.1099   2
   0  -8   4 38.0484  2.9024   1
  -1   8  -4 29.1529  4.8815   3
  -1   8  -4 28.8184  3.8096   2
   1  -8   4 32.6627  3.0767   1
  -2   8  -4 3.44917 2.50915   3
  -2   8  -4 -1.2534  1.5263   2
   2  -8   4 1.29880 1.83910   1
  -3   8  -4 7.39093 2.64823   3
  -3   8  -4 7.59443 2.70614   2
   3  -8   4 9.50404 2.58339   1
  -4   8  -4 19.2865  4.2073   2
   4  -8   4 26.5601  3.3935   1
  -5   8  -4 5.38518 2.83203   2
   5  -8   4 7.64873 2.51244   1
  -6   8  -4 0.38539 2.50159   2
   6  -8   4 0.13072 2.47293   1
  -7   8  -4 0.22734 2.30934   2
   7  -8   4 -4.6413  2.7895   1
  -6  -7   4 4.09837 2.99316   2
   5   7  -4 6.85716 3.40554   2
   4   7  -4 33.1224  4.4275   2
  -4  -7   4 31.0026  3.7861   3
   3   7  -4 82.0582  6.2469   2
  -3  -7   4 78.7828  6.2862   3
   2   7  -4 101.092   6.633   2
  -2  -7   4 93.8356  6.5523   3
  -2  -7   4 108.456   5.505   1
   1   7  -4 1.42425 1.79539   2
  -1  -7   4 2.49352 1.03862   1
   0   7  -4 31.0123  3.7954   2
   0   7  -4 33.1094  4.7454   3
   0  -7   4 30.7389  2.6078   1
  -1   7  -4 1.87330 1.91274   2
  -1   7  -4 -0.1682  2.1933   3
   1  -7   4 2.56175 1.40013   1
  -2   7  -4 19.3443  3.4961   2
  -2   7  -4 19.2227  3.8856   3
  -3   7  -4 1.00729 2.45626   2
  -3   7  -4 -0.1419  1.6236   3
   3  -7   4 -2.3607  1.7482   1
  -4   7  -4 1.68228 2.61865   2
   4  -7   4 0.39272 1.81228   1
  -5   7  -4 25.9924  4.5884   2
   5  -7   4 28.8935  3.7501   1
  -6   7  -4 5.84962 2.90419   2
   6  -7   4 3.75018 2.94124   1
  -7   7  -4 5.55699 3.32969   2
   7  -7   4 2.41109 3.26883   1
  -7  -6   4 87.0017  6.7849   2
  -6  -6   4 16.8433  4.5897   2
   5   6  -4 68.1618  6.4960   2
   4   6  -4 16.8790  4.2321   2
   4   6  -4 18.6825  1.5354   1
  -4  -6   4 12.2757  2.9350   3
   3   6  -4 15.7218  3.6208   2
   3   6  -4 9.50725 1.42284   1
  -3  -6   4 6.21100 4.09894   3
   2   6  -4 35.5795  4.3224   2
  -2  -6   4 35.8805  4.0016   3
   1   6  -4 174.967   8.658   2
   0   6  -4 26.1338  4.2028   3
   0   6  -4 28.4379  3.7153   2
   0  -6   4 24.0327  2.1835   1
  -1   6  -4 6.89573 2.78243   3
  -1   6  -4 9.03446 2.48648   2
   1  -6   4 8.03396 1.72268   1
  -2   6  -4 42.2585  4.7542   2
  -2   6  -4 41.3953  4.5634   3
   2  -6   4 33.6831  3.4344   1
  -3   6  -4 30.3645  4.8466   2
   3  -6   4 22.1147  3.1543   1
  -4   6  -4 29.8201  4.9108   2
   4  -6   4 24.2777  2.4028   3
   4  -6   4 28.7110  3.7435   1
  -5   6  -4 5.24731 3.04243   2
   5  -6   4 4.88559 2.50683   1
  -6   6  -4 27.2343  4.9731   2
   6  -6   4 33.5652  4.3831   1
  -7   6  -4 3.27627 2.85565   2
   7  -6   4 1.41328 2.69910   1
  -8   6  -4 4.87493 2.14527   2
   8  -6   4 6.60079 3.54448   1
  -7  -5   4 -2.5488  1.4374   2
  -6  -5   4 8.17532 3.75535   2
   5   5  -4 50.5947  4.0925   1
   5   5  -4 57.1288  5.9789   2
   4   5  -4 45.8965  5.1792   2
   4   5  -4 39.9880  3.3387   1
  -4  -5   4 48.7920  4.5534   4
  -4  -5   4 37.3438  4.1240   3
   3   5  -4 34.8715  4.8203   2
   3   5  -4 42.3643  2.7282   1
  -3  -5   4 43.2597  3.5625   4
  -3  -5   4 40.7985  4.1754   3
   2   5  -4 60.3153  3.3408   1
   2   5  -4 70.3901  5.5326   2
  -2  -5   4 75.0260  4.1357   4
  -2  -5   4 69.0108  5.5785   3
   1   5  -4 3.04814 1.88456   2
  -1  -5   4 6.60043 2.25718   3
   0   5  -4 19.6407  3.1030   2
  -1   5  -4 66.2485  5.0463   2
   1  -5   4 59.6643  3.6385   1
  -2   5  -4 96.4090  6.4861   2
   2  -5   4 94.2513  5.3171   1
  -3   5  -4 18.4898  3.8692   2
   3  -5   4 18.4572  3.1447   1
   3  -5   4 14.9762  2.1763   3
  -4   5  -4 14.5725  4.0628   2
   4  -5   4 11.2455  3.2746   1
  -5   5  -4 0.67064 2.83893   2
   5  -5   4 1.29114 2.58615   1
  -6   5  -4 1.86571 2.63612   2
   6  -5   4 4.53652 2.45363   1
  -7   5  -4 6.33638 2.80550   2
   7  -5   4 3.56496 2.70642   1
  -8   5  -4 16.2101  3.4770   2
   8  -5   4 12.9964  4.7112   1
   7   4  -4 40.9827  2.5934   1
  -7  -4   4 35.1081  6.1402   2
   6   4  -4 3.76123 1.69854   1
  -6  -4   4 -2.3464  2.6245   2
   5   4  -4 71.6840  6.6135   2
   5   4  -4 63.6277  4.9527   1
   4   4  -4 6.80076 1.94131   1
   4   4  -4 13.2583  3.6604   2
  -4  -4   4 8.48938 2.66401   3
   3   4  -4 152.678   8.370   2
   3   4  -4 148.040   6.908   1
  -3  -4   4 154.830   8.221   4
  -3  -4   4 140.833   8.215   3
   2   4  -4 444.117  17.784   2
   2   4  -4 461.852  16.468   1
  -2  -4   4 461.480  19.165   4
  -2  -4   4 449.960  19.097   3
   1   4  -4 914.463  32.942   2
  -1  -4   4 950.222  35.430   3
   0   4  -4 177.555   8.474   2
   0  -4   4 200.433   9.318   3
  -1   4  -4 174.100   8.259   2
   1  -4   4 161.210   6.882   1
   1  -4   4 163.288   8.257   3
  -2   4  -4 11.5487  2.9598   2
   2  -4   4 15.7043  2.7331   3
   2  -4   4 10.4892  2.2500   1
  -3   4  -4 11.9818  3.4704   2
   3  -4   4 12.1395  3.3901   3
   3  -4   4 9.72009 2.72938   1
  -4   4  -4 36.3514  4.9865   2
   4  -4   4 30.7643  4.4966   1
  -5   4  -4 91.9254  7.3402   2
   5  -4   4 109.534   7.666   1
  -6   4  -4 2.74365 2.62350   2
   6  -4   4 1.71839 2.51531   1
  -7   4  -4 16.7848  4.1793   2
   7  -4   4 12.0067  3.8483   1
  -8   4  -4 11.2435  3.4906   2
   8  -4   4 15.0825  6.0587   1
  -8  -3   4 2.34369 1.39389   2
   7   3  -4 8.99975 2.42763   1
  -7  -3   4 4.14032 2.40860   2
   6   3  -4 28.5808  3.7401   1
  -6  -3   4 50.8228  7.4823   2
   5   3  -4 9.76269 3.33699   2
   5   3  -4 10.7840  2.5999   1
   4   3  -4 31.5587  3.3419   1
   4   3  -4 37.8319  5.1564   2
  -4  -3   4 25.2875  3.6796   3
   3   3  -4 79.6275  4.5936   1
   3   3  -4 75.4295  5.6833   2
  -3  -3   4 79.6014  5.3848   3
   2   3  -4 504.479  17.865   1
   2   3  -4 491.332  19.065   2
  -2  -3   4 510.834  20.496   3
   1   3  -4 44.8704  4.0428   2
  -1  -3   4 45.3790  4.7596   3
   0   3  -4 26.0982  3.0845   2
   0  -3   4 24.1593  3.5677   3
  -1   3  -4 8.36359 2.55368   2
   1  -3   4 8.32652 1.77329   1
   1  -3   4 -1.8852  2.8460   3
  -2   3  -4 130.431   7.514   2
   2  -3   4 135.185   7.194   3
   2  -3   4 135.884   6.744   1
  -3   3  -4 38.8159  4.7804   2
   3  -3   4 37.3362  3.2077   3
   3  -3   4 32.6683  4.1539   1
  -4   3  -4 159.182   9.377   2
   4  -3   4 166.134   9.105   1
  -5   3  -4 18.3677  4.3064   2
   5  -3   4 17.2571  3.9967   1
  -6   3  -4 6.84970 3.24367   2
   6  -3   4 5.03807 2.97278   1
  -7   3  -4 6.14573 2.74614   2
   7  -3   4 0.74936 4.21797   1
  -8   3  -4 6.44640 2.90544   2
   8  -3   4 8.25376 3.55425   1
  -8  -2   4 19.6689  2.2365   2
   7   2  -4 1.40322 1.83901   1
  -7  -2   4 5.81540 2.39562   2
   6   2  -4 10.2240  3.1754   1
  -6  -2   4 11.1695  4.3188   2
   5   2  -4 8.38681 3.05410   1
   5   2  -4 11.1185  3.5752   2
   4   2  -4 45.0881  4.0223   1
   4   2  -4 41.9661  4.9689   2
  -4  -2   4 41.8219  4.1371   3
   3   2  -4 64.9855  5.0920   2
   3   2  -4 67.2545  4.2282   1
  -3  -2   4 61.5111  4.7324   3
   2   2  -4 929.084  33.468   2
   2   2  -4 954.431  32.656   1
  -2  -2   4 969.061  35.672   3
   1   2  -4 41.1995  3.6210   2
  -1  -2   4 48.6821  4.2582   3
   0   2  -4 24.4707  2.9416   2
   0  -2   4 22.8365  3.4267   3
  -1   2  -4 232.944  10.084   2
   1  -2   4 235.606   9.381   1
   1  -2   4 251.633  10.528   3
  -2   2  -4 194.746   9.521   2
   2  -2   4 209.753   9.180   3
   2  -2   4 206.593   9.034   1
  -3   2  -4 204.649  10.181   2
   3  -2   4 207.766   9.905   1
  -4   2  -4 43.0910  5.3011   2
   4  -2   4 45.4992  5.2884   1
  -5   2  -4 11.1638  3.6087   2
   5  -2   4 0.79322 3.35480   1
  -6   2  -4 22.1621  4.5235   2
   6  -2   4 17.3535  4.4856   1
  -7   2  -4 16.9039  4.2527   2
   7  -2   4 9.22926 3.34786   1
  -8   2  -4 35.4228  5.9836   2
   8  -2   4 31.3719  5.9846   1
  -8  -1   4 23.7835  1.8642   2
   7   1  -4 5.84573 3.51074   1
  -7  -1   4 8.12080 2.46508   2
   6   1  -4 14.6954  3.2530   1
  -6  -1   4 16.6044  4.5033   2
   5   1  -4 508.900  20.543   1
   4   1  -4 177.611   9.290   2
   4   1  -4 179.081   8.736   1
  -4  -1   4 174.678   8.937   3
   3   1  -4 19.9386  3.2195   2
   3   1  -4 20.8737  2.8359   1
  -3  -1   4 20.5096  3.4374   3
   2   1  -4 50.3221  4.1965   2
   2   1  -4 56.6909  3.4790   1
  -2  -1   4 49.8417  4.9852   3
   1   1  -4 2.52814 1.56647   2
  -1  -1   4 2.11274 2.31931   3
   0   1  -4 368.713  14.401   2
   0  -1   4 409.657  15.700   3
  -1   1  -4 492.237  18.671   2
  -1   1  -4 487.401  21.123   4
   1  -1   4 512.085  18.417   1
   1  -1   4 545.173  19.678   3
  -2   1  -4 139.928   7.546   2
   2  -1   4 146.789   7.364   1
   2  -1   4 149.301   7.004   3
  -3   1  -4 192.302  10.946   4
  -3   1  -4 191.664   9.610   2
   3  -1   4 189.285   9.659   1
  -4   1  -4 30.4062  4.8348   2
   4  -1   4 24.8180  4.5330   1
  -5   1  -4 1.85695 2.83505   2
   5  -1   4 1.25780 2.92854   1
  -6   1  -4 3.64670 2.77550   2
   6  -1   4 2.52505 2.81370   1
  -7   1  -4 1.97105 2.72571   2
   7  -1   4 5.87527 3.13584   1
   8  -1   4 36.5951  4.8247   1
   8   0  -4 37.4449  6.5332   1
  -8   0   4 37.1075  2.4865   2
   7   0  -4 18.3104  3.8742   1
  -7   0   4 25.7209  3.1029   2
   6   0  -4 2.61117 2.22270   1
  -6   0   4 1.94676 2.18671   2
   5   0  -4 1.73288 2.38076   1
  -5   0   4 -3.0788  2.5503   2
   4   0  -4 199.715   9.579   1
   4   0  -4 192.315   9.684   2
  -4   0   4 206.280   9.631   3
   3   0  -4 62.1846  4.6597   2
   3   0  -4 72.9550  4.7405   1
  -3   0   4 67.8056  4.9932   3
   2   0  -4 172.504   7.309   1
   2   0  -4 165.756   7.505   2
  -2   0   4 178.761   8.421   3
   1   0  -4 16.3164  2.2259   1
   1   0  -4 19.9319  2.7102   2
  -1   0   4 20.2229  3.0605   3
   0   0  -4 436.864  16.112   2
   0   0   4 482.627  17.659   3
   0   0   4 426.709  15.908   1
  -1   0  -4 274.774  11.375   2
   1   0   4 303.596  12.006   3
   1   0   4 288.714  11.508   1
  -2   0  -4 592.832  22.274   2
  -2   0  -4 583.616  25.839   4
   2   0   4 627.822  22.525   3
   2   0   4 601.589  22.525   1
  -3   0  -4 56.9244  5.4846   4
  -3   0  -4 48.5620  5.0301   2
   3   0   4 51.8406  5.1503   1
  -4   0  -4 77.8146  7.4056   4
  -4   0  -4 81.3413  6.4268   2
   4   0   4 72.5620  6.8076   1
  -5   0  -4 3.55729 3.11237   2
   5   0   4 5.69492 3.35378   1
  -6   0  -4 2.69698 2.65124   2
   6   0   4 -0.5780  2.6626   1
  -7   0  -4 10.8003  3.5848   2
   7   0   4 7.51297 2.84094   1
   8  -1  -4 2.16770 2.41109   1
  -8   1   4 3.43974 1.06650   2
   6  -1  -4 160.137   9.729   1
  -6   1   4 166.941   9.356   2
   5  -1  -4 94.3376  6.7324   1
  -5   1   4 93.2489  6.8221   2
   4  -1  -4 27.5754  4.0098   1
  -4   1   4 29.5012  3.2173   3
   3  -1  -4 83.7822  5.2017   2
   3  -1  -4 93.7689  5.6441   1
  -3   1   4 98.7478  5.8461   3
   2  -1  -4 93.0395  4.9979   1
   2  -1  -4 89.6951  4.7237   2
  -2   1   4 92.7288  5.6580   3
   1  -1  -4 54.3234  3.3371   2
   1  -1  -4 50.9930  3.5342   1
  -1   1   4 58.9573  4.4735   3
   0  -1  -4 19.0379  2.5763   2
   0   1   4 22.8690  3.3204   3
   0   1   4 24.0960  2.7133   1
  -1  -1  -4 445.565  16.838   2
   1   1   4 483.263  18.025   3
   1   1   4 452.958  17.426   1
  -2  -1  -4 34.7660  4.1597   2
   2   1   4 48.7619  3.4340   3
   2   1   4 43.9033  4.7623   1
  -3  -1  -4 1.60576 2.25802   2
  -3  -1  -4 2.55987 1.70757   4
   3   1   4 -0.2172  2.3602   1
  -4  -1  -4 9.76080 3.44741   2
  -4  -1  -4 8.41340 3.27950   4
   4   1   4 8.41589 3.79205   1
  -5  -1  -4 18.1882  4.7383   4
  -5  -1  -4 24.8002  4.6508   2
   5   1   4 18.2688  4.7162   1
  -6  -1  -4 -0.8585  2.0551   2
   6   1   4 -2.2051  2.3251   1
  -7  -1  -4 0.97998 2.25766   2
   7   1   4 3.68059 2.86892   1
   8  -2  -4 -1.2020  2.4237   1
   6  -2  -4 13.7377  3.7090   1
  -6   2   4 23.2315  2.6152   2
   5  -2  -4 56.4684  5.5956   1
  -5   2   4 57.5805  4.1033   3
  -5   2   4 56.9508  4.8039   2
   4  -2  -4 1.26821 2.47205   1
  -4   2   4 -0.5983  2.0171   2
  -4   2   4 1.82802 1.77855   3
   3  -2  -4 1006.82   36.69   2
   3  -2  -4 1065.57   37.77   1
  -3   2   4 1122.87   39.78   3
   2  -2  -4 120.570   5.295   2
   2  -2  -4 114.020   6.086   1
  -2   2   4 125.968   6.953   3
   1  -2  -4 26.5746  3.1392   1
  -1   2   4 32.2649  3.7247   3
   0  -2  -4 5.95756 1.44042   2
   0   2   4 5.46805 2.31709   3
  -1  -2  -4 426.838  15.777   2
   1   2   4 449.792  17.229   3
   1   2   4 408.555  16.538   1
  -2  -2  -4 32.2503  3.5728   2
   2   2   4 37.0589  4.5904   1
   2   2   4 30.8274  3.0250   3
  -3  -2  -4 113.489   6.773   2
  -3  -2  -4 113.265   7.781   4
   3   2   4 104.937   5.234   3
   3   2   4 107.406   7.602   1
  -4  -2  -4 64.9907  5.5974   2
  -4  -2  -4 64.0402  6.3264   4
   4   2   4 62.9463  6.5587   1
  -5  -2  -4 22.9408  4.8955   4
  -5  -2  -4 28.5335  4.9632   2
   5   2   4 15.1345  4.4182   1
  -6  -2  -4 2.29068 3.14426   4
  -6  -2  -4 8.36812 2.66046   2
   6   2   4 -1.8029  2.4982   1
  -7  -2  -4 36.3206  6.0081   2
  -9   3   4 -0.9863  1.9032   2
  -8   3   4 25.8821  2.5393   2
   7  -3  -4 1.09596 2.39678   1
   6  -3  -4 35.3664  5.4606   1
  -6   3   4 40.1191  2.8469   2
   5  -3  -4 1.41238 2.78705   1
  -5   3   4 -0.3652  1.3118   3
  -5   3   4 0.88816 1.13135   2
   4  -3  -4 32.4121  4.5051   1
  -4   3   4 37.1101  3.8401   3
  -4   3   4 40.3071  3.3179   2
   3  -3  -4 59.8027  4.7426   1
  -3   3   4 64.8305  3.6991   2
  -3   3   4 57.6217  4.9094   3
   2  -3  -4 10.9790  2.3931   1
  -2   3   4 13.0365  3.0248   3
   1  -3  -4 2.72238 1.83426   1
  -1   3   4 2.53047 2.30144   3
   0  -3  -4 366.153  15.147   1
   0   3   4 411.655  16.403   3
  -1  -3  -4 87.8478  4.7985   2
   1   3   4 98.7751  5.8983   3
   1   3   4 87.8709  5.4785   1
  -2  -3  -4 4.32683 1.83432   2
   2   3   4 0.27412 2.22629   1
   2   3   4 2.61001 1.55049   3
  -3  -3  -4 84.0532  5.7336   2
   3   3   4 79.3513  7.0252   1
   3   3   4 87.2880  4.7511   3
  -4  -3  -4 84.2561  6.2630   2
  -4  -3  -4 95.0887  7.4178   4
   4   3   4 87.1850  7.3103   1
  -5  -3  -4 3.23542 1.60828   2
  -5  -3  -4 -2.7355  1.5780   4
   5   3   4 -3.0464  2.3067   1
  -6  -3  -4 6.40977 2.76786   2
  -6  -3  -4 1.96048 2.37224   4
   6   3   4 4.25509 3.11263   1
  -7  -3  -4 78.0541  7.2649   2
   7   3   4 64.6413  6.6589   1
  -9   4   4 21.4917  2.1264   2
   8  -4  -4 5.26440 3.06828   1
  -8   4   4 9.30474 2.32192   2
   7  -4  -4 50.0560  5.9224   1
  -7   4   4 49.1348  3.2511   2
   6  -4  -4 25.0585  5.0026   1
  -6   4   4 22.5879  1.4637   2
   5  -4  -4 20.1974  4.3491   1
  -5   4   4 22.9748  1.5711   2
  -5   4   4 20.8789  2.9495   3
   4  -4  -4 86.9116  6.3954   1
  -4   4   4 91.0044  5.8780   3
  -4   4   4 75.5180  4.0792   2
   3  -4  -4 1.65716 2.35366   1
  -3   4   4 0.55451 0.46221   2
  -3   4   4 2.01356 2.23244   3
   2  -4  -4 12.8630  2.7413   1
  -2   4   4 10.6259  3.0804   3
   1  -4  -4 168.915   8.410   1
  -1   4   4 190.973   9.532   3
   0  -4  -4 106.055   6.390   1
   0   4   4 111.584   6.851   3
  -1  -4  -4 269.785  10.278   2
   1   4   4 265.890  12.223   3
   1   4   4 258.645  11.701   1
  -2  -4  -4 18.1306  2.9080   2
   2   4   4 15.3408  2.8025   3
   2   4   4 18.8752  3.5395   1
  -3  -4  -4 0.69421 1.80593   2
   3   4   4 0.86517 2.44007   1
   3   4   4 2.91415 0.96323   3
  -4  -4  -4 11.7146  3.1379   2
  -4  -4  -4 13.8538  3.2383   4
   4   4   4 9.93592 3.65952   1
  -5  -4  -4 18.1920  3.7078   2
  -5  -4  -4 10.6392  3.1167   4
   5   4   4 7.11318 3.77522   1
  -6  -4  -4 2.08979 2.62806   4
  -6  -4  -4 5.91320 2.66434   2
   6   4   4 3.56253 2.70489   1
  -7  -4  -4 25.1887  4.7588   2
   7   4   4 26.1298  2.6965   1
   8  -5  -4 -2.0500  2.1818   1
   7  -5  -4 18.8665  4.4898   1
  -7   5   4 22.2650  3.0108   2
   6  -5  -4 28.2337  5.0317   1
  -6   5   4 26.9719  2.5135   2
   5  -5  -4 17.0307  4.1497   1
  -5   5   4 25.6560  3.2726   3
  -5   5   4 20.1286  1.5774   2
   4  -5  -4 3.70046 3.04395   1
  -4   5   4 4.90733 2.34044   3
  -4   5   4 6.43092 0.80954   2
   3  -5  -4 78.3788  5.8213   1
  -3   5   4 80.7479  6.2234   3
   2  -5  -4 114.661   6.780   1
  -2   5   4 120.875   7.634   3
   1  -5  -4 21.5399  3.4520   1
  -1   5   4 18.8468  3.6910   3
   0  -5  -4 28.5919  4.0348   1
   0   5   4 23.8172  3.9110   3
  -1  -5  -4 216.677   8.695   2
   1   5   4 220.570  11.020   3
  -2  -5  -4 31.9986  2.9830   2
   2   5   4 42.2006  4.1123   1
   2   5   4 35.5777  3.9131   3
  -3  -5  -4 105.198   6.036   2
   3   5   4 101.711   6.207   3
   3   5   4 112.078   7.124   1
  -4  -5  -4 30.7544  3.4725   2
  -4  -5  -4 31.1529  3.8703   4
   4   5   4 26.9361  4.8927   1
  -5  -5  -4 138.076  10.084   4
  -5  -5  -4 143.369   8.817   2
   5   5   4 141.300   9.676   1
  -6  -5  -4 25.1219  4.8496   2
  -6  -5  -4 6.64059 3.05523   4
   6   5   4 12.7613  3.3538   1
   8  -6  -4 -2.7169  2.1033   1
   7  -6  -4 0.73686 2.37320   1
   6  -6  -4 1.20841 2.61555   1
   5  -6  -4 -2.2370  2.5482   1
  -5   6   4 -1.4109  1.4494   3
   4  -6  -4 1.06776 2.59510   1
  -4   6   4 -0.9521  1.7684   3
   3  -6  -4 150.056   8.595   1
  -3   6   4 156.487   9.249   3
   2  -6  -4 5.49444 2.84512   1
  -2   6   4 6.16937 2.96872   3
   1  -6  -4 29.0435  4.1466   1
  -1   6   4 32.0680  4.3706   3
   0  -6  -4 4.55047 2.52044   1
   0   6   4 3.06276 2.50684   3
  -1  -6  -4 91.0387  6.9597   1
   1   6   4 102.502   7.199   3
  -2  -6  -4 56.2659  3.5866   2
   2   6   4 57.9634  5.2036   3
   2   6   4 65.8717  5.2031   1
  -3  -6  -4 72.3270  4.5718   2
   3   6   4 83.7212  5.5766   1
   3   6   4 76.3002  5.3800   3
  -4  -6  -4 12.8899  2.5782   2
   4   6   4 12.1379  1.7228   1
  -5  -6  -4 25.1246  2.7176   4
  -5  -6  -4 22.8233  3.0843   2
   5   6   4 17.9030  2.5112   1
  -6  -6  -4 -1.6487  1.4455   4
   6   6   4 3.12054 1.27640   1
   8  -7  -4 4.94374 2.97362   1
   7  -7  -4 2.84500 2.50699   1
   6  -7  -4 21.5572  4.7592   1
   5  -7  -4 16.6335  4.1442   1
  -5   7   4 15.7546  3.3397   3
   4  -7  -4 4.47988 3.06237   1
  -4   7   4 2.22958 2.19003   3
   3  -7  -4 47.5371  5.0763   1
  -3   7   4 45.9340  5.2128   3
   2  -7  -4 77.3755  6.1127   1
  -2   7   4 73.8418  6.5899   3
   1  -7  -4 113.350   7.246   1
  -1   7   4 104.738   7.958   3
   0  -7  -4 -2.6192  2.1449   1
   0   7   4 0.74552 2.38437   3
  -1  -7  -4 53.7038  5.4675   1
   1   7   4 50.7637  5.2726   3
   2   7   4 64.5452  5.8100   3
   3   7   4 43.2141  3.6253   1
   3   7   4 31.9636  3.4396   3
   4   7   4 51.1560  4.0558   1
  -5  -7  -4 12.6469  1.6636   4
   5   7   4 9.22306 1.30920   1
   7  -8  -4 12.1595  3.9041   1
   6  -8  -4 4.03408 3.00213   1
   5  -8  -4 46.7557  5.1523   1
  -5   8   4 39.9470  4.7083   3
   4  -8  -4 25.1100  4.5323   1
  -4   8   4 16.5181  3.5562   3
   3  -8  -4 41.5571  4.8672   1
  -3   8   4 41.0840  5.2127   3
   2  -8  -4 1.92842 2.47858   1
  -2   8   4 1.99603 2.52674   3
   1  -8  -4 95.1612  6.8223   1
  -1   8   4 98.1392  7.6628   3
   0  -8  -4 168.581   9.588   1
   0   8   4 179.743  10.837   3
  -1  -8  -4 172.482  10.042   1
   1   8   4 176.760  10.722   3
  -2  -8  -4 -0.2224  2.2112   1
   2   8   4 2.73078 1.68208   3
   4   8   4 4.49099 1.05293   1
   5   8   4 7.86426 1.32716   1
   7  -9  -4 0.65935 2.87170   1
   6  -9  -4 -0.0181  2.5835   1
   5  -9  -4 2.95022 2.40292   1
  -5   9   4 0.28350 1.96974   3
   4  -9  -4 4.91849 3.01015   1
  -4   9   4 7.10190 2.51212   3
   3  -9  -4 75.7553  6.2154   1
  -3   9   4 76.9792  7.0638   3
   2  -9  -4 67.7822  5.9338   1
  -2   9   4 65.9841  6.6219   3
   1  -9  -4 48.8651  5.1425   1
  -1   9   4 41.5776  5.5817   3
   0  -9  -4 11.7239  3.7276   1
   0   9   4 14.2279  4.1210   3
  -1  -9  -4 2.33982 2.65500   1
   1   9   4 3.40134 2.19854   3
  -2  -9  -4 -0.0224  2.0951   1
   2   9   4 2.17944 1.66368   3
  -3  -9  -4 8.85735 3.02054   1
   7 -10  -4 1.09387 3.18510   1
   6 -10  -4 14.8857  3.9626   1
   5 -10  -4 18.0504  4.0449   1
  -5  10   4 12.5574  3.4724   3
   4 -10  -4 0.56706 1.83453   1
  -4  10   4 -0.9838  1.7487   3
   3 -10  -4 10.6434  2.9235   1
  -3  10   4 6.87950 2.98482   3
   2 -10  -4 1.52599 2.31885   1
  -2  10   4 0.67867 2.27692   3
   1 -10  -4 37.6772  5.6216   1
  -1  10   4 35.9406  5.5273   3
   0 -10  -4 50.5001  5.0845   1
   0  10   4 40.5859  5.7965   3
  -1 -10  -4 33.1598  5.3652   1
   1  10   4 22.1379  4.6330   3
  -2 -10  -4 9.75956 2.94718   1
   2  10   4 2.97372 2.36529   3
  -3 -10  -4 52.7415  6.1749   1
  -4 -10  -4 5.48472 3.39460   1
   6 -11  -4 -0.9165  2.8259   1
   5 -11  -4 17.5686  4.4124   1
  -5  11   4 9.04007 3.47377   3
   4 -11  -4 7.90815 2.86029   1
  -4  11   4 5.09268 2.85251   3
   3 -11  -4 39.1090  4.4274   1
  -3  11   4 35.7914  5.0713   3
   2 -11  -4 8.65653 2.96968   1
  -2  11   4 0.92548 2.23370   3
   1 -11  -4 34.8534  4.1535   1
  -1  11   4 38.2061  5.6841   3
   0 -11  -4 2.22839 2.12783   1
   0  11   4 1.23234 2.49851   3
  -1 -11  -4 3.84436 2.27904   1
   1  11   4 2.22542 2.12833   3
  -2 -11  -4 22.9773  4.9099   1
   2  11   4 12.6857  3.2251   3
  -3 -11  -4 4.89516 3.41698   1
   5 -12  -4 3.98815 3.00788   1
  -5  12   4 1.02247 2.94501   3
   4 -12  -4 0.89424 2.60703   1
  -4  12   4 0.83001 2.96403   3
   3 -12  -4 6.52163 2.55270   1
  -3  12   4 4.83959 2.92152   3
   2 -12  -4 9.41046 2.90633   1
  -2  12   4 6.14039 3.24850   3
   1 -12  -4 30.4323  4.9782   1
  -1  12   4 28.0473  5.3988   3
   0 -12  -4 5.97023 2.63385   1
   0  12   4 3.46350 2.38763   3
  -1 -12  -4 4.05599 2.80741   1
   1  12   4 -2.1546  1.9209   3
  -2 -12  -4 9.95981 3.57293   1
   2  12   4 3.97726 2.17741   3
  -5  13   4 5.71517 3.06350   3
   4 -13  -4 8.58537 3.70691   1
  -4  13   4 4.60172 3.59258   3
   3 -13  -4 4.22994 2.92052   1
  -3  13   4 0.13828 3.32668   3
   2 -13  -4 4.81635 3.00219   1
  -2  13   4 0.46491 3.03389   3
   1 -13  -4 65.9001  6.2294   1
  -1  13   4 60.0683  7.2019   3
   0 -13  -4 0.75971 2.45662   1
   0  13   4 0.05064 2.43702   3
  -1 -13  -4 17.1353  3.9930   1
   1  13   4 12.4263  2.8219   3
  -2 -13   5 -4.0020  1.8508   3
  -1 -13   5 5.22468 1.60282   3
  -3 -12   5 -1.2583  5.2111   3
  -2 -12   5 11.4087  2.7148   3
  -1 -12   5 15.6971  1.7232   3
   3  11  -5 11.2878  2.3877   2
  -3 -11   5 5.29278 4.72918   3
   2  11  -5 -0.4563  1.1271   2
  -2 -11   5 5.68004 1.72832   3
   1  11  -5 42.5271  4.0378   2
  -1 -11   5 59.2237  4.8682   3
   0  11  -5 12.7650  2.4409   2
   5  10  -5 13.8953  3.4677   2
   4  10  -5 17.3710  3.5294   2
  -4 -10   5 7.11442 2.90744   3
   3  10  -5 59.0554  5.5852   2
  -3 -10   5 50.6938  6.9388   3
   2  10  -5 14.0211  3.1317   2
  -2 -10   5 19.7964  2.8573   3
   1  10  -5 59.1548  4.9225   2
  -1 -10   5 68.8674  5.4738   3
   0  10  -5 2.10060 1.32221   2
  -1  10  -5 32.6507  3.6007   2
  -2  10  -5 118.073   7.203   2
  -3  10  -5 0.47907 1.49668   2
  -4  10  -5 6.18050 2.58942   2
  -5  10  -5 0.49463 2.44426   2
  -6  10  -5 3.97061 1.96971   2
   5   9  -5 5.37423 2.83358   2
   4   9  -5 4.84688 2.51214   2
  -4  -9   5 4.79153 2.34793   3
   3   9  -5 18.9229  4.0112   2
  -3  -9   5 15.4553  5.1033   3
   2   9  -5 84.2651  6.1915   2
  -2  -9   5 83.2496  6.5928   3
   1   9  -5 90.5247  6.0890   2
  -1  -9   5 84.8781  6.5437   3
   0   9  -5 2.11592 1.59335   2
  -1   9  -5 29.0183  3.6714   2
  -2   9  -5 10.1088  2.6111   2
  -3   9  -5 3.49133 2.14697   2
  -4   9  -5 -1.3270  1.8889   2
   4  -9   5 6.45908 1.98106   1
   4  -9   5 1.39298 0.92273   3
  -5   9  -5 4.25789 3.05282   2
   5  -9   5 3.10755 2.13481   1
  -6   9  -5 34.1080  4.8120   2
   6  -9   5 46.1896  5.3782   1
  -7   9  -5 -0.9500  2.0225   2
   7  -9   5 2.07013 2.90573   1
   5   8  -5 36.9278  4.9860   2
   4   8  -5 58.7735  5.6765   2
  -4  -8   5 54.0982  5.4093   3
   3   8  -5 9.14019 2.83629   2
  -3  -8   5 -5.4615  4.3105   3
   2   8  -5 6.73142 2.39811   2
  -2  -8   5 7.82624 2.65086   3
   1   8  -5 0.95307 1.53875   2
  -1  -8   5 7.13720 1.99317   3
   0   8  -5 266.277  12.039   2
  -1   8  -5 10.4029  2.7427   2
  -2   8  -5 36.6342  4.2250   2
   2  -8   5 29.9711  2.8905   1
  -3   8  -5 2.31560 2.46190   2
   3  -8   5 5.08053 1.98821   1
  -4   8  -5 4.16715 2.57082   2
   4  -8   5 0.15117 1.04929   3
   4  -8   5 2.58408 1.98220   1
  -5   8  -5 34.3574  4.6784   2
   5  -8   5 32.0252  3.9574   1
  -6   8  -5 3.76368 3.16302   2
   6  -8   5 0.98169 2.49749   1
  -7   8  -5 13.4114  3.1549   2
   7  -8   5 14.3811  3.9710   1
   5   7  -5 4.87797 2.74050   2
   4   7  -5 39.7951  5.9186   2
  -4  -7   5 27.1113  3.8776   3
   3   7  -5 35.8944  5.2578   2
  -3  -7   5 27.7517  5.7215   3
   2   7  -5 0.72951 1.96258   2
  -2  -7   5 2.97524 2.88180   3
   1   7  -5 345.262  14.577   2
  -1  -7   5 338.221  16.102   3
   0   7  -5 24.4599  3.7869   2
   0  -7   5 23.0453  3.7464   3
  -1   7  -5 8.71270 2.60812   2
   1  -7   5 13.1571  1.7402   1
  -2   7  -5 7.78583 2.89467   2
   2  -7   5 10.3223  2.1465   3
   2  -7   5 7.74358 1.94648   1
  -3   7  -5 10.4238  3.4188   2
   3  -7   5 14.6228  2.0433   3
   3  -7   5 7.38284 2.34347   1
  -4   7  -5 2.83897 2.81915   2
   4  -7   5 5.62660 2.11493   1
   4  -7   5 14.5152  2.8937   3
  -5   7  -5 20.8120  4.3449   2
   5  -7   5 26.3348  4.3530   1
  -6   7  -5 7.62752 3.23569   2
   6  -7   5 6.70443 2.83155   1
  -7   7  -5 1.21303 2.74959   2
   7  -7   5 0.25354 3.21964   1
  -7  -6   5 108.893   8.060   2
   5   6  -5 9.82829 3.42271   2
   4   6  -5 59.0644  5.5676   2
  -4  -6   5 45.8833  4.8804   3
   3   6  -5 3.10792 2.55710   2
  -3  -6   5 1.61722 2.25999   3
   2   6  -5 334.854  14.377   2
  -2  -6   5 321.717  16.082   3
   1   6  -5 45.8514  4.4609   2
  -1  -6   5 45.0968  4.8437   3
   0   6  -5 29.9784  3.9083   2
   0  -6   5 31.4369  4.0921   3
  -1   6  -5 288.033  12.449   2
   1  -6   5 274.415  13.193   3
  -2   6  -5 78.1403  5.9546   2
   2  -6   5 66.4738  4.2847   1
   2  -6   5 67.6027  5.2412   3
  -3   6  -5 17.9559  4.1040   2
   3  -6   5 10.3514  2.8671   3
   3  -6   5 8.74349 2.28603   1
  -4   6  -5 4.46272 3.16431   2
   4  -6   5 4.23955 2.11837   1
  -5   6  -5 30.3742  5.0675   2
   5  -6   5 35.1694  4.1330   1
  -6   6  -5 22.5031  4.5862   2
   6  -6   5 27.8086  4.7789   1
  -7   6  -5 3.12736 3.14140   2
   7  -6   5 -1.8926  2.7600   1
  -7  -5   5 39.2048  4.8925   2
   5   5  -5 13.1189  3.5480   2
   4   5  -5 5.79285 3.02210   2
  -4  -5   5 0.24854 2.00890   3
   3   5  -5 263.080  10.245   1
   3   5  -5 258.274  12.321   2
  -3  -5   5 246.492  12.798   3
   2   5  -5 136.566   7.619   2
  -2  -5   5 134.092   8.347   3
   1   5  -5 198.168   9.417   2
  -1  -5   5 202.925  11.038   3
   0   5  -5 13.3062  2.8249   2
   0  -5   5 13.5096  3.3021   3
  -1   5  -5 0.42477 1.94392   2
   1  -5   5 2.03320 0.97147   1
   1  -5   5 -0.6418  2.1804   3
  -2   5  -5 21.2613  3.8833   2
   2  -5   5 13.6326  3.6804   3
   2  -5   5 17.9836  2.4654   1
  -3   5  -5 19.6788  4.0969   2
   3  -5   5 18.7876  3.0549   1
   3  -5   5 15.0145  3.4408   3
  -4   5  -5 4.91725 3.16712   2
   4  -5   5 5.80076 2.28037   1
  -5   5  -5 22.6550  5.0380   2
   5  -5   5 27.6424  3.8118   1
  -6   5  -5 0.61249 2.73176   2
   6  -5   5 2.63366 2.09078   1
  -7   5  -5 7.23367 3.33276   2
   7  -5   5 9.28030 3.95916   1
  -7  -4   5 8.01379 3.28423   2
   5   4  -5 53.0617  5.7695   2
   5   4  -5 47.9513  3.9474   1
   4   4  -5 119.411   7.717   2
   4   4  -5 106.459   5.774   1
  -4  -4   5 104.060   6.994   3
   3   4  -5 230.611  11.242   2
   3   4  -5 238.078   9.439   1
  -3  -4   5 225.202  11.478   3
   2   4  -5 55.2129  4.8114   2
  -2  -4   5 58.1026  5.3759   3
   1   4  -5 7.28665 2.31394   2
  -1  -4   5 8.33034 2.94278   3
   0   4  -5 7.39753 2.26111   2
   0  -4   5 6.83690 3.22169   3
  -1   4  -5 49.1982  4.5157   2
   1  -4   5 47.0399  4.4963   3
   1  -4   5 45.8612  2.9522   1
  -2   4  -5 -0.6730  2.2031   2
   2  -4   5 -1.5756  1.9987   3
   2  -4   5 -0.5920  1.5749   1
  -3   4  -5 5.03466 3.18380   2
   3  -4   5 2.49122 1.82497   3
   3  -4   5 4.23922 2.23921   1
  -4   4  -5 26.2995  4.8093   2
   4  -4   5 25.8622  4.1335   1
  -5   4  -5 100.799   7.823   2
   5  -4   5 99.6201  7.2455   1
  -6   4  -5 11.8425  3.8521   2
   6  -4   5 3.37443 2.84843   1
  -7   4  -5 6.22933 2.72101   2
   7  -4   5 8.85121 5.54196   1
  -8  -3   5 28.9864  2.7181   2
   6   3  -5 1.09192 1.48539   1
   5   3  -5 31.4403  5.1795   2
   5   3  -5 17.8170  3.0851   1
   4   3  -5 67.0928  4.4074   1
   4   3  -5 63.7132  5.8591   2
  -4  -3   5 57.4532  5.4215   3
   3   3  -5 1.30740 0.87525   1
   3   3  -5 1.30782 2.26252   2
  -3  -3   5 3.11942 2.72028   3
   2   3  -5 197.704   9.342   2
  -2  -3   5 203.188  10.150   3
   1   3  -5 480.279  18.291   2
  -1  -3   5 494.561  20.088   3
   0   3  -5 32.1909  3.6175   2
   0  -3   5 37.7042  4.4646   3
  -1   3  -5 13.4069  2.9412   2
   1  -3   5 9.87302 1.61077   1
   1  -3   5 10.1082  3.0749   3
  -2   3  -5 8.04778 2.87174   2
   2  -3   5 5.61168 2.46853   3
   2  -3   5 3.95572 1.93369   1
  -3   3  -5 6.12927 3.23662   2
   3  -3   5 5.93810 2.44398   1
   3  -3   5 6.28841 2.20577   3
  -4   3  -5 51.8238  5.7232   2
   4  -3   5 55.1252  5.3108   1
  -5   3  -5 -0.5060  2.5687   2
   5  -3   5 -3.9572  2.8195   1
  -6   3  -5 8.39972 3.28868   2
   6  -3   5 0.40408 3.58721   1
  -7   3  -5 19.6715  4.6441   2
   7  -3   5 14.1030  3.8198   1
  -8  -2   5 7.12504 1.58931   2
   7   2  -5 27.2889  3.7183   1
  -7  -2   5 39.1134  5.3138   2
   6   2  -5 22.1385  4.5617   1
   5   2  -5 4.58652 2.07304   1
   5   2  -5 3.43843 2.79089   2
   4   2  -5 3.59748 2.84375   2
   4   2  -5 2.65510 1.43981   1
  -4  -2   5 -2.1742  2.3136   3
   3   2  -5 3.04047 1.23630   1
   3   2  -5 1.77319 2.15151   2
  -3  -2   5 5.82408 2.86285   3
   2   2  -5 33.6366  3.9452   2
  -2  -2   5 37.8695  4.8873   3
   1   2  -5 184.451   8.335   2
  -1  -2   5 192.751   9.888   3
   0   2  -5 14.9161  2.5858   2
   0  -2   5 17.0633  3.4123   3
  -1   2  -5 201.706   9.168   4
  -1   2  -5 175.404   8.705   2
   1  -2   5 184.743   7.826   1
   1  -2   5 188.749   9.332   3
  -2   2  -5 94.8009  6.3503   2
  -2   2  -5 97.6357  6.4102   4
   2  -2   5 98.3450  5.9508   3
   2  -2   5 91.2298  5.9162   1
  -3   2  -5 82.6885  6.3572   2
   3  -2   5 78.0694  6.4049   1
   3  -2   5 82.7168  5.0451   3
  -4   2  -5 -2.7754  2.7288   2
   4  -2   5 -3.5136  2.9419   1
  -5   2  -5 172.468  10.510   2
   5  -2   5 196.087  10.967   1
  -6   2  -5 1.19612 2.73196   2
   6  -2   5 0.20346 2.20523   1
  -7   2  -5 20.2527  4.7758   2
   7  -2   5 30.1676  5.4593   1
   8   1  -5 3.42284 2.00440   1
  -8  -1   5 4.50634 1.34338   2
   7   1  -5 8.54876 2.89367   1
  -7  -1   5 11.0227  3.1276   2
   6   1  -5 0.51202 1.60333   1
  -6  -1   5 -2.9625  2.3169   2
   5   1  -5 72.3489  6.2698   2
   5   1  -5 72.1748  5.4221   1
  -5  -1   5 70.0705  5.0389   3
   4   1  -5 114.072   6.334   1
   4   1  -5 106.585   7.087   2
  -4  -1   5 109.915   6.890   3
   3   1  -5 68.0776  5.1525   2
   3   1  -5 75.3397  4.3951   1
  -3  -1   5 67.9166  5.6784   3
   2   1  -5 291.068  10.654   1
   2   1  -5 264.129  11.413   2
  -2  -1   5 296.636  13.043   3
   1   1  -5 20.9445  2.9509   2
  -1  -1   5 24.0643  3.7685   3
   0   1  -5 47.3065  3.8307   2
   0  -1   5 53.0803  4.6760   3
   0  -1   5 43.5501  2.4502   1
  -1   1  -5 57.6720  4.2788   4
  -1   1  -5 52.2796  4.5866   2
   1  -1   5 49.6102  3.9387   1
   1  -1   5 63.4598  5.2681   3
  -2   1  -5 756.803  28.102   2
   2  -1   5 766.479  28.794   3
   2  -1   5 778.395  28.031   1
  -3   1  -5 25.3868  4.4291   4
  -3   1  -5 35.3347  4.8904   2
   3  -1   5 31.4347  4.5093   1
  -4   1  -5 1.11195 2.84536   4
  -4   1  -5 5.20552 3.36910   2
   4  -1   5 1.61341 2.94482   1
  -5   1  -5 2.19933 2.75004   2
   5  -1   5 -1.9995  2.5067   1
  -6   1  -5 7.53021 3.08925   2
   6  -1   5 7.55991 3.42930   1
  -7   1  -5 35.1299  4.9538   2
   7  -1   5 33.8811  5.9997   1
   8   0  -5 -0.9049  1.9311   1
  -8   0   5 5.23969 1.34227   2
   7   0  -5 0.80620 2.04256   1
  -7   0   5 -0.5869  1.6061   2
   6   0  -5 96.0153  6.7847   1
  -6   0   5 103.357   7.858   2
   5   0  -5 -2.1608  1.7750   1
  -5   0   5 -2.4699  1.4821   3
   4   0  -5 30.1793  3.9152   1
   4   0  -5 29.9054  4.2090   2
  -4   0   5 33.2011  3.9659   3
   3   0  -5 59.9611  4.6643   2
   3   0  -5 73.5180  4.5645   1
  -3   0   5 68.3226  5.3452   3
   2   0  -5 345.765  12.586   1
   2   0  -5 316.267  12.790   2
  -2   0   5 337.309  14.489   3
   1   0  -5 120.840   5.319   1
   1   0  -5 120.181   5.809   2
  -1   0   5 137.001   7.263   3
   0   0  -5 40.4134  3.4516   2
   0   0   5 38.8380  2.8485   1
   0   0   5 42.8616  4.2361   3
  -1   0  -5 168.292   8.053   2
   1   0   5 186.071   8.731   3
   1   0   5 167.981   7.895   1
  -2   0  -5 123.709   7.121   2
  -2   0  -5 126.673   7.420   4
   2   0   5 128.996   6.591   3
   2   0   5 130.762   7.364   1
  -3   0  -5 37.9882  4.7668   4
  -3   0  -5 36.9670  4.8255   2
   3   0   5 37.3950  4.9263   1
   3   0   5 35.0326  2.4475   3
  -4   0  -5 183.446  11.787   4
  -4   0  -5 191.025  10.365   2
   4   0   5 180.825  10.475   1
  -5   0  -5 -1.8147  2.6396   4
  -5   0  -5 0.30716 2.71063   2
   5   0   5 1.94436 3.14791   1
  -6   0  -5 39.1293  4.8657   2
   6   0   5 37.3524  5.1014   1
  -7   0  -5 3.58413 2.98584   2
   7   0   5 4.26529 2.92633   1
   8  -1  -5 4.48444 2.19959   1
  -8   1   5 2.11015 1.11766   2
   7  -1  -5 66.4547  5.9766   1
  -7   1   5 71.3712  5.4961   2
   6  -1  -5 25.5885  4.5247   1
  -6   1   5 30.8847  5.0336   2
   5  -1  -5 201.542  10.313   1
   4  -1  -5 11.3052  2.8040   2
   4  -1  -5 13.8550  2.9319   1
  -4   1   5 9.53567 2.74790   3
   3  -1  -5 70.5708  4.7392   2
   3  -1  -5 77.8008  4.9204   1
  -3   1   5 69.4983  5.3288   3
   2  -1  -5 183.098   7.884   1
   2  -1  -5 174.516   7.738   2
  -2   1   5 192.243   9.373   3
   1  -1  -5 263.818  10.711   1
   1  -1  -5 273.150  10.546   2
  -1   1   5 301.100  12.622   3
   0  -1  -5 362.874  14.026   2
   0   1   5 400.052  15.964   3
  -1  -1  -5 789.095  28.565   2
   1   1   5 843.857  30.653   3
   1   1   5 796.440  29.222   1
  -2  -1  -5 16.7013  3.0889   2
   2   1   5 12.8754  2.2623   3
   2   1   5 13.4234  3.1955   1
  -3  -1  -5 3.31742 1.63532   4
  -3  -1  -5 -0.1225  2.2066   2
   3   1   5 1.07274 0.69723   3
   3   1   5 -1.4215  2.6846   1
  -4  -1  -5 21.8637  4.6071   4
  -4  -1  -5 27.3753  4.7293   2
   4   1   5 24.6244  5.0417   1
  -5  -1  -5 53.1967  6.8352   4
  -5  -1  -5 55.5193  5.6687   2
   5   1   5 48.2100  5.9742   1
  -6  -1  -5 6.50982 2.66057   2
  -7  -1  -5 1.75293 2.74340   2
   7   1   5 3.23449 2.48085   1
   8  -2  -5 6.15926 3.42465   1
  -8   2   5 -0.7330  1.0623   2
   7  -2  -5 9.77835 2.83568   1
  -7   2   5 14.4440  1.5138   2
   6  -2  -5 -2.4105  2.0283   1
  -6   2   5 1.55169 1.46258   2
   5  -2  -5 -0.3721  2.4596   1
  -5   2   5 -1.0625  1.3674   3
  -5   2   5 -2.2767  1.7213   2
   4  -2  -5 13.4337  3.1656   1
  -4   2   5 12.3776  2.8226   3
   3  -2  -5 1.26322 1.86956   1
   3  -2  -5 2.15430 1.48969   2
  -3   2   5 -0.5972  2.1727   3
   2  -2  -5 151.804   6.399   2
   2  -2  -5 145.802   7.024   1
  -2   2   5 155.330   8.275   3
   1  -2  -5 245.039  10.331   1
   1  -2  -5 258.899   9.504   2
  -1   2   5 261.195  11.780   3
   0  -2  -5 981.810  34.482   2
   0   2   5 1042.85   38.05   3
  -1  -2  -5 53.7558  4.0625   2
   1   2   5 56.0925  4.3860   1
   1   2   5 57.3814  4.6557   3
  -2  -2  -5 13.1995  2.7950   2
   2   2   5 9.30462 2.23062   3
   2   2   5 9.74158 3.12120   1
  -3  -2  -5 133.803   7.710   2
  -3  -2  -5 139.650   9.043   4
   3   2   5 139.754   8.832   1
   3   2   5 131.838   6.463   3
  -4  -2  -5 230.448  13.680   4
  -4  -2  -5 233.008  11.770   2
   4   2   5 246.511  12.921   1
  -5  -2  -5 6.04819 2.87705   4
  -5  -2  -5 7.72791 2.85500   2
   5   2   5 1.68224 2.80779   1
  -6  -2  -5 0.85940 2.07429   2
  -6  -2  -5 -0.8685  2.7343   4
   6   2   5 -1.9839  1.7224   1
  -7  -2  -5 3.37413 3.13635   2
   7   2   5 7.03864 2.52283   1
   8  -3  -5 0.29440 2.70134   1
   7  -3  -5 1.59643 2.29759   1
  -7   3   5 9.22756 1.17006   2
   6  -3  -5 7.73106 3.06026   1
  -6   3   5 10.4528  1.4016   2
   5  -3  -5 29.2370  4.3325   1
  -5   3   5 31.5349  3.5728   3
  -5   3   5 33.6852  3.2582   2
   4  -3  -5 16.2649  3.4495   1
  -4   3   5 16.4059  3.1067   3
  -4   3   5 18.1643  2.4461   2
   3  -3  -5 61.1835  4.8487   1
   3  -3  -5 58.1619  3.5840   2
  -3   3   5 67.4240  5.3428   3
   2  -3  -5 383.303  15.307   1
  -2   3   5 406.226  16.976   3
   1  -3  -5 80.9337  5.0941   1
  -1   3   5 84.4685  6.0243   3
   0  -3  -5 19.0148  3.0491   1
   0   3   5 17.4359  3.3948   3
  -1  -3  -5 3.73713 1.49604   2
   1   3   5 5.81827 2.00605   1
   1   3   5 4.43197 2.23701   3
  -2  -3  -5 119.327   6.350   2
   2   3   5 118.981   6.789   3
   2   3   5 111.675   7.539   1
  -3  -3  -5 168.891   8.683   2
   3   3   5 180.771  10.235   1
   3   3   5 161.029   7.979   3
  -4  -3  -5 1.34438 1.49180   4
  -4  -3  -5 0.53330 1.48434   2
   4   3   5 -2.1860  2.3931   1
  -5  -3  -5 28.2983  5.5482   4
  -5  -3  -5 37.3229  3.9922   2
   5   3   5 34.6086  5.9032   1
  -6  -3  -5 2.98854 2.78196   4
  -6  -3  -5 5.94258 2.63657   2
   6   3   5 -0.9864  1.9299   1
  -7  -3  -5 4.51765 3.39255   2
   7   3   5 3.50222 1.69660   1
   8  -4  -5 0.15435 2.68859   1
   7  -4  -5 14.7047  4.0037   1
  -7   4   5 7.45048 0.91147   2
   6  -4  -5 -2.5792  2.1814   1
   5  -4  -5 0.95541 2.69605   1
  -5   4   5 3.06462 0.83084   2
  -5   4   5 2.43809 1.92838   3
   4  -4  -5 5.53798 2.91799   1
  -4   4   5 4.52445 2.39142   3
   3  -4  -5 1.59040 2.23978   1
  -3   4   5 -2.2827  2.3122   3
   2  -4  -5 0.10615 1.78576   1
  -2   4   5 -0.0224  2.2941   3
   1  -4  -5 39.4995  3.9769   1
  -1   4   5 46.7104  4.7977   3
   0  -4  -5 149.900   7.914   1
   0   4   5 147.652   8.422   3
  -1  -4  -5 64.9512  3.7956   2
   1   4   5 64.0489  5.1625   1
   1   4   5 67.0127  5.3967   3
  -2  -4  -5 145.482   7.020   2
   2   4   5 135.171   7.793   3
   2   4   5 142.176   8.097   1
  -3  -4  -5 199.988   9.583   2
   3   4   5 202.501  10.990   1
   3   4   5 192.412   9.347   3
  -4  -4  -5 228.826  13.885   4
  -4  -4  -5 245.767  11.619   2
   4   4   5 229.605  12.818   1
  -5  -4  -5 7.02041 2.21463   2
  -5  -4  -5 2.01548 1.52074   4
   5   4   5 -0.4187  2.3365   1
  -6  -4  -5 -3.3873  1.7189   4
  -6  -4  -5 4.13897 2.76070   2
   6   4   5 0.04395 1.78362   1
  -7  -4  -5 4.04057 2.37385   2
   8  -5  -5 4.79375 3.01549   1
   7  -5  -5 1.14679 2.53300   1
  -6   5   5 27.5365  2.8035   2
   5  -5  -5 -1.3303  2.2918   1
  -5   5   5 2.91856 1.82284   3
   4  -5  -5 78.0665  6.1860   1
  -4   5   5 86.0812  6.2752   3
   3  -5  -5 34.3126  4.4146   1
  -3   5   5 25.8313  4.4095   3
   2  -5  -5 26.8608  3.6887   1
  -2   5   5 28.0807  4.2678   3
   1  -5  -5 6.11145 2.44428   1
  -1   5   5 6.49638 2.83793   3
   0  -5  -5 12.6451  3.1528   1
   0   5   5 12.2966  3.3300   3
  -1  -5  -5 30.1681  2.1100   2
   1   5   5 24.6584  3.9924   3
  -2  -5  -5 101.329   5.509   2
   2   5   5 95.2615  6.6020   3
   2   5   5 101.587   6.602   1
  -3  -5  -5 3.84447 1.68174   2
   3   5   5 0.89430 0.90004   3
  -4  -5  -5 33.2305  4.1469   4
  -4  -5  -5 34.3580  3.7280   2
   4   5   5 39.0566  4.1111   1
  -5  -5  -5 20.5440  2.6314   4
  -5  -5  -5 20.9082  3.9348   2
   5   5   5 11.1840  3.1885   1
  -6  -5  -5 3.50459 2.09956   2
  -6  -5  -5 0.51556 1.69473   4
   6   5   5 1.60838 1.40817   1
   8  -6  -5 15.4726  3.8563   1
   7  -6  -5 2.03021 2.47254   1
   6  -6  -5 1.81765 2.68685   1
   5  -6  -5 3.00660 2.88299   1
  -5   6   5 7.85506 2.34555   3
   4  -6  -5 25.8015  4.2788   1
  -4   6   5 22.7008  4.1128   3
   3  -6  -5 41.1275  4.6885   1
  -3   6   5 40.8418  5.0811   3
   2  -6  -5 51.0886  4.8485   1
  -2   6   5 52.4568  5.5665   3
   1  -6  -5 183.377   9.540   1
  -1   6   5 188.402  10.606   3
   0  -6  -5 1.57382 2.44723   1
   0   6   5 2.66004 2.36230   3
  -1  -6  -5 98.5783  7.2297   1
   1   6   5 101.876   7.245   3
   2   6   5 103.954   7.153   3
   2   6   5 104.683   7.158   1
   3   6   5 13.5618  1.5610   1
   4   6   5 134.620   8.163   1
  -5  -6  -5 1.43353 1.04069   4
   5   6   5 6.12071 1.18887   1
  -6  -6  -5 19.1530  2.7115   4
   6   6   5 25.9270  2.2448   1
   8  -7  -5 40.9769  5.0319   1
   7  -7  -5 4.45959 2.34009   1
   6  -7  -5 21.6044  4.4943   1
   5  -7  -5 30.2343  4.4370   1
  -5   7   5 29.2007  3.9194   3
   4  -7  -5 2.23997 2.55653   1
  -4   7   5 3.16450 2.40611   3
   3  -7  -5 37.2428  4.3885   1
  -3   7   5 39.3683  4.9273   3
   2  -7  -5 510.437  20.386   1
  -2   7   5 495.798  22.263   3
   1  -7  -5 65.8944  5.6924   1
  -1   7   5 74.1277  6.5593   3
   0  -7  -5 61.0423  5.5502   1
   0   7   5 59.4737  5.9530   3
  -1  -7  -5 -0.5602  2.3351   1
   1   7   5 0.16075 1.97631   3
   2   7   5 0.90769 1.69373   3
   3   7   5 29.2032  3.4674   1
   7  -8  -5 1.93880 2.29677   1
   6  -8  -5 7.40329 3.21696   1
   5  -8  -5 11.2020  3.3495   1
  -5   8   5 12.2774  3.1305   3
   4  -8  -5 10.1868  3.4238   1
  -4   8   5 7.63247 2.81815   3
   3  -8  -5 42.2854  4.6846   1
  -3   8   5 43.2689  5.2415   3
   2  -8  -5 34.9261  4.4011   1
  -2   8   5 28.5262  5.0629   3
   1  -8  -5 22.0028  4.1686   1
  -1   8   5 14.9100  3.9381   3
   0  -8  -5 23.4915  4.3981   1
   0   8   5 15.4520  3.8578   3
  -1  -8  -5 28.8172  5.2199   1
   1   8   5 26.4649  4.8589   3
  -2  -8  -5 4.71489 2.27360   1
   2   8   5 4.69784 2.13560   3
   4   8   5 15.2418  1.8500   1
  -5  -8  -5 20.6594  2.3540   4
   5   8   5 17.4574  2.1765   1
   7  -9  -5 9.72621 3.16982   1
   6  -9  -5 19.1924  4.1785   1
   5  -9  -5 0.15139 1.97086   1
  -5   9   5 -0.4335  1.9916   3
   4  -9  -5 17.1109  4.1090   1
  -4   9   5 10.3191  3.2914   3
   3  -9  -5 4.06144 2.43360   1
  -3   9   5 3.91536 2.82327   3
   2  -9  -5 1.41640 2.33564   1
  -2   9   5 -1.6613  2.0867   3
   1  -9  -5 17.4241  4.0018   1
  -1   9   5 9.43941 3.58097   3
   0  -9  -5 128.717   8.324   1
   0   9   5 125.818   9.344   3
  -1  -9  -5 1.32059 2.47281   1
   1   9   5 3.07592 2.37983   3
  -2  -9  -5 32.3504  5.6343   1
   2   9   5 28.7435  4.2183   3
  -3  -9  -5 34.0227  5.9722   1
   6 -10  -5 0.94267 2.75651   1
   5 -10  -5 7.81095 2.86958   1
  -5  10   5 1.43726 2.17760   3
   4 -10  -5 10.0646  3.1446   1
  -4  10   5 5.95910 2.49030   3
   3 -10  -5 5.33982 2.40248   1
  -3  10   5 6.57574 3.07294   3
   2 -10  -5 2.33636 2.31074   1
  -2  10   5 2.16360 2.54916   3
   1 -10  -5 9.15085 3.12845   1
  -1  10   5 6.82145 3.43641   3
   0 -10  -5 77.8636  6.4902   1
   0  10   5 81.1932  7.7049   3
  -1 -10  -5 4.38116 2.08872   1
   1  10   5 6.71009 2.54971   3
  -2 -10  -5 27.8019  5.4204   1
   2  10   5 19.9799  4.2406   3
  -3 -10  -5 12.3967  4.4819   1
   6 -11  -5 3.74088 3.28557   1
   5 -11  -5 23.4467  4.7839   1
  -5  11   5 15.9869  4.4473   3
   4 -11  -5 -0.2267  2.2792   1
  -4  11   5 2.29617 2.31583   3
   3 -11  -5 16.3242  3.6693   1
  -3  11   5 11.0657  3.7314   3
   2 -11  -5 28.8825  4.8155   1
  -2  11   5 19.7018  4.7281   3
   1 -11  -5 10.3668  3.1592   1
  -1  11   5 7.73184 3.27899   3
   0 -11  -5 24.1177  4.6024   1
   0  11   5 18.5537  4.4011   3
  -1 -11  -5 5.59382 2.50468   1
   1  11   5 3.17984 2.27936   3
  -2 -11  -5 8.58000 3.54335   1
   2  11   5 3.07052 2.02776   3
  -3 -11  -5 2.10909 2.48654   1
   5 -12  -5 24.0053  4.9509   1
  -5  12   5 11.5372  4.2397   3
   4 -12  -5 20.5150  4.7932   1
  -4  12   5 12.1447  4.5353   3
   3 -12  -5 2.60252 2.67467   1
  -3  12   5 1.54052 2.87056   3
   2 -12  -5 4.12020 2.53811   1
  -2  12   5 3.11924 3.04605   3
   1 -12  -5 55.1670  5.3485   1
  -1  12   5 51.4308  6.4643   3
   0 -12  -5 1.03917 2.29728   1
   0  12   5 3.03968 2.58851   3
  -1 -12  -5 11.4134  4.0072   1
   1  12   5 7.40328 2.92838   3
   2  12   5 3.13231 1.34435   3
  -4  13   5 11.5933  4.7210   3
   3 -13  -5 17.2577  4.3911   1
  -3  13   5 17.8544  5.4076   3
   2 -13  -5 3.39185 3.12888   1
  -2  13   5 3.11916 3.62203   3
   1 -13  -5 7.23092 3.19424   1
  -1  13   5 2.73796 2.83118   3
   0 -13  -5 17.4821  4.0428   1
   0  13   5 14.7425  3.7256   3
  -2 -13   6 1.62098 5.88746   3
  -1 -13   6 -3.9469  1.8103   3
   0 -13   6 22.7365  3.3517   3
   2 -13   6 17.2626  2.5015   3
   3 -13   6 -0.6283  1.4003   3
  -3 -12   6 7.57144 9.29389   3
  -2 -12   6 38.9600  7.3862   3
  -1 -12   6 35.1134  4.7143   3
   0 -12   6 77.0344  6.8247   3
   1 -12   6 25.0067  2.9586   3
   3 -12   6 11.4211  2.2210   3
   4  11  -6 2.87911 1.81472   2
   3  11  -6 4.02807 1.78558   2
  -3 -11   6 -0.1730  7.9206   3
   2  11  -6 -0.1189  1.5746   2
  -2 -11   6 1.46292 3.22652   3
   1  11  -6 13.9112  3.0443   2
  -1 -11   6 15.6944  2.9843   3
   0  11  -6 1.21686 1.29391   2
  -1  11  -6 7.11349 2.05574   2
  -2  11  -6 13.0595  2.8296   2
   2 -11   6 20.7765  2.4342   3
  -3  11  -6 22.8074  3.0997   2
   3 -11   6 25.1300  2.9731   3
   5  10  -6 -0.9871  1.8606   2
   4  10  -6 33.3814  5.6345   2
  -4 -10   6 25.5984  4.8264   3
   3  10  -6 37.5936  4.5252   2
  -3 -10   6 29.7213  7.5721   3
   2  10  -6 7.62661 2.40312   2
  -2 -10   6 7.37290 3.73930   3
   1  10  -6 15.3936  3.2285   2
  -1 -10   6 20.2467  3.0819   3
   0  10  -6 1.06026 1.49713   2
   0 -10   6 9.67195 2.21146   3
  -1  10  -6 33.0547  3.7607   2
   1 -10   6 33.6149  3.7683   3
  -2  10  -6 26.4184  3.5173   2
   2 -10   6 30.0649  3.2214   3
  -3  10  -6 4.44567 1.95429   2
  -4  10  -6 2.41933 2.35234   2
  -5  10  -6 -0.7567  2.1582   2
  -6  10  -6 -0.5427  2.3220   2
   5   9  -6 10.4435  3.4238   2
   4   9  -6 0.36914 1.97406   2
  -4  -9   6 2.87054 2.59843   3
   3   9  -6 4.90467 2.13858   2
  -3  -9   6 6.09580 2.98627   3
   2   9  -6 18.0579  3.5373   2
  -2  -9   6 7.05659 4.58309   3
   1   9  -6 44.2176  4.3688   2
  -1  -9   6 42.7489  5.0273   3
   0   9  -6 40.1695  4.0853   2
   0  -9   6 43.5717  4.7928   3
  -1   9  -6 18.9824  3.4215   2
   1  -9   6 25.5924  3.3904   3
  -2   9  -6 2.77003 2.00022   2
   2  -9   6 11.2526  2.2384   3
  -3   9  -6 -0.6660  1.7632   2
   3  -9   6 6.48696 1.71480   3
  -4   9  -6 -1.2979  1.9385   2
  -5   9  -6 28.3135  5.4824   2
  -6   9  -6 15.1910  3.6508   2
  -7   9  -6 2.86527 1.79512   2
   5   8  -6 3.35214 2.29820   2
   4   8  -6 3.57857 2.29420   2
  -4  -8   6 0.21340 1.96679   3
   3   8  -6 73.9176  6.1869   2
  -3  -8   6 69.3172  6.3052   3
   2   8  -6 164.056   8.966   2
  -2  -8   6 134.891  11.087   3
   1   8  -6 0.39668 1.55284   2
  -1  -8   6 0.15953 2.47399   3
   0   8  -6 42.6915  4.3549   2
   0  -8   6 46.4843  4.8392   3
  -1   8  -6 11.4788  2.9310   2
   1  -8   6 16.2053  3.3425   3
  -2   8  -6 27.5692  3.9978   2
   2  -8   6 33.0287  3.7969   3
  -3   8  -6 26.6655  4.5493   2
   3  -8   6 33.8578  4.3738   3
  -4   8  -6 -1.5546  2.1587   2
   4  -8   6 2.16190 1.73345   1
  -5   8  -6 11.6103  3.5786   2
   5  -8   6 10.4188  2.8327   1
  -6   8  -6 5.97327 3.48600   2
   6  -8   6 10.8478  3.2712   1
  -7   8  -6 -0.6498  2.0771   2
   7  -8   6 -0.1168  2.2966   1
   6   7  -6 38.9022  6.6119   2
   5   7  -6 8.69421 3.41669   2
   4   7  -6 9.97623 3.48054   2
  -4  -7   6 14.2770  3.3349   3
   3   7  -6 59.6771  5.4808   2
  -3  -7   6 48.2868  5.5534   3
   2   7  -6 519.908  20.617   2
  -2  -7   6 497.150  22.999   3
   1   7  -6 138.998   7.937   2
  -1  -7   6 134.054   9.609   3
   0   7  -6 29.4967  3.9461   2
   0  -7   6 32.5946  4.7444   3
  -1   7  -6 14.9921  3.1869   2
   1  -7   6 14.1280  3.6772   3
  -2   7  -6 1.54832 2.32385   2
   2  -7   6 3.74886 1.07201   1
   2  -7   6 4.46550 2.69131   3
  -3   7  -6 20.7716  4.3393   2
   3  -7   6 23.3232  5.6682   3
   3  -7   6 20.4579  2.6477   1
  -4   7  -6 6.95278 3.43442   2
   4  -7   6 6.89596 2.40884   1
  -5   7  -6 27.3353  4.9522   2
   5  -7   6 29.7828  3.7767   1
  -6   7  -6 6.29438 3.04614   2
   6  -7   6 8.56943 2.81479   1
  -7   7  -6 0.03942 2.79496   2
   7  -7   6 2.09966 2.73796   1
  -7  -6   6 29.9813  4.3731   2
   6   6  -6 2.44635 2.87184   2
   5   6  -6 1.07991 2.28001   2
   4   6  -6 74.7770  6.3322   2
  -4  -6   6 66.9331  5.9895   3
   3   6  -6 350.877  15.391   2
  -3  -6   6 328.032  16.342   3
   2   6  -6 16.4379  3.6146   2
  -2  -6   6 15.7657  3.9905   3
   1   6  -6 6.71548 2.45054   2
  -1  -6   6 -2.6924  3.8243   3
   0   6  -6 6.43860 2.44488   2
   0  -6   6 -5.4520  3.6974   3
  -1   6  -6 36.5689  4.3479   2
   1  -6   6 30.2677  5.5622   3
  -2   6  -6 0.84653 2.61811   2
   2  -6   6 1.18721 1.37268   1
   2  -6   6 -8.4707  3.8525   3
  -3   6  -6 14.9869  3.9710   2
   3  -6   6 16.6267  2.7566   1
   3  -6   6 10.7429  2.9732   3
  -4   6  -6 1.31792 2.97758   2
   4  -6   6 2.53629 2.01538   1
  -5   6  -6 15.5436  4.4073   2
   5  -6   6 17.1064  3.2274   1
  -6   6  -6 1.39304 2.70054   2
   6  -6   6 -0.8294  1.8143   1
  -7   6  -6 4.61293 3.13866   2
   7  -6   6 1.79897 3.51184   1
  -7  -5   6 19.3925  4.7441   2
   6   5  -6 -0.7784  2.6652   2
   5   5  -6 8.58125 3.38605   2
   4   5  -6 3.92667 2.81263   2
  -4  -5   6 4.37697 2.69903   3
   3   5  -6 2.15495 2.45566   2
  -3  -5   6 0.95230 2.81814   3
   2   5  -6 1.89798 2.19762   2
  -2  -5   6 2.89823 3.20563   3
   1   5  -6 24.7158  3.6295   2
  -1  -5   6 22.8265  4.2881   3
   0   5  -6 196.589   9.445   2
   0  -5   6 201.031  10.624   3
  -1   5  -6 17.2944  3.3794   2
   1  -5   6 14.1404  3.4870   3
   1  -5   6 16.5105  1.5363   1
  -2   5  -6 226.968  11.175   2
   2  -5   6 217.356  11.280   3
   2  -5   6 222.314   9.501   1
  -3   5  -6 0.76159 2.87588   2
   3  -5   6 0.32887 2.10451   3
   3  -5   6 1.12219 1.67837   1
  -4   5  -6 9.83617 3.73888   2
   4  -5   6 10.0457  2.6270   1
  -5   5  -6 0.11407 2.98188   2
   5  -5   6 0.75287 1.62041   1
  -6   5  -6 22.7454  4.7798   2
   6  -5   6 17.3347  4.0225   1
  -7   5  -6 3.77969 2.83032   2
   7  -5   6 6.77262 5.55268   1
  -7  -4   6 34.1613  5.9801   2
   6   4  -6 4.14985 2.93558   2
   5   4  -6 88.3588  7.1809   2
   4   4  -6 54.4359  5.3205   2
  -4  -4   6 45.4467  5.1247   3
   3   4  -6 17.0779  3.5749   2
  -3  -4   6 13.7292  3.6215   3
   2   4  -6 1.31980 1.97691   2
  -2  -4   6 0.21759 2.85594   3
   1   4  -6 8.06755 2.39946   2
  -1  -4   6 7.64894 3.18765   3
   0   4  -6 163.911   8.127   2
   0  -4   6 163.835   9.142   3
  -1   4  -6 7.44996 2.66364   2
   1  -4   6 4.68015 1.12284   1
   1  -4   6 7.01514 2.93890   3
  -2   4  -6 0.07527 2.67623   2
   2  -4   6 0.00346 2.44365   3
   2  -4   6 2.28783 1.52878   1
  -3   4  -6 30.0489  5.1371   2
   3  -4   6 31.4736  3.7950   3
   3  -4   6 27.6997  3.2608   1
  -4   4  -6 13.4236  3.8963   2
   4  -4   6 13.3330  2.7839   1
  -5   4  -6 11.5634  4.2515   2
   5  -4   6 10.0157  3.4561   1
  -6   4  -6 45.9042  6.0228   2
   6  -4   6 59.5342  6.7702   1
  -7   4  -6 33.4594  4.8825   2
   7  -4   6 42.3176  5.5533   1
  -8  -3   6 35.5543  2.8293   2
  -7  -3   6 3.67160 3.31678   2
   6   3  -6 5.46109 3.41531   2
   5   3  -6 34.8998  3.2086   1
   5   3  -6 42.8641  5.0836   2
  -5  -3   6 33.8642  4.1679   3
   4   3  -6 12.9269  2.0490   1
   4   3  -6 15.3674  3.7014   2
  -4  -3   6 13.3338  3.8405   3
   3   3  -6 6.77279 2.67401   2
   3   3  -6 4.35441 0.95708   1
  -3  -3   6 4.71524 3.13812   3
   2   3  -6 7.15199 2.44643   2
  -2  -3   6 6.74932 3.11828   3
   1   3  -6 132.643   7.101   2
  -1  -3   6 149.011   8.499   3
   0   3  -6 -0.5218  1.6648   2
   0  -3   6 -2.3372  2.6844   3
  -1   3  -6 17.4256  3.3605   2
   1  -3   6 19.5779  2.0937   1
   1  -3   6 18.2510  3.6034   3
  -2   3  -6 96.8349  6.7538   2
   2  -3   6 99.2257  5.7962   1
   2  -3   6 95.8611  6.3935   3
  -3   3  -6 35.8430  5.2186   2
   3  -3   6 30.2070  4.3128   1
   3  -3   6 37.8863  3.8866   3
  -4   3  -6 4.41058 3.27311   2
   4  -3   6 -0.3604  3.0369   1
  -5   3  -6 22.2106  4.7989   2
   5  -3   6 28.7865  5.0009   1
  -6   3  -6 3.04454 2.88456   2
   6  -3   6 -1.8747  1.8355   1
  -7   3  -6 26.1469  5.1386   2
   7  -3   6 34.4176  5.7291   1
  -8  -2   6 33.4273  3.3909   2
  -7  -2   6 71.9568  7.2505   2
   6   2  -6 33.4106  4.3581   1
   5   2  -6 26.5477  4.6410   2
   5   2  -6 20.5128  2.8819   1
  -5  -2   6 21.3183  3.9703   3
   4   2  -6 110.613   5.817   1
   4   2  -6 110.764   7.393   2
  -4  -2   6 112.031   7.825   3
   3   2  -6 12.7687  2.8950   2
   3   2  -6 10.9199  1.6825   1
  -3  -2   6 12.2694  3.8963   3
   2   2  -6 1.69170 1.85812   2
  -2  -2   6 0.98724 2.80982   3
   1   2  -6 54.2203  4.3075   2
  -1  -2   6 60.3284  5.9221   3
   0   2  -6 404.720  16.006   4
   0   2  -6 371.175  15.195   2
   0  -2   6 395.656  17.037   3
  -1   2  -6 8.87802 2.75653   2
  -1   2  -6 13.3450  2.0227   4
   1  -2   6 11.9314  1.9089   1
   1  -2   6 9.28724 3.47641   3
  -2   2  -6 69.4366  5.6711   2
  -2   2  -6 63.4843  5.0408   4
   2  -2   6 62.9158  4.5760   1
   2  -2   6 65.1565  5.2807   3
  -3   2  -6 14.5019  3.9477   2
   3  -2   6 14.7176  3.1974   1
   3  -2   6 11.5067  2.4681   3
  -4   2  -6 7.38076 3.47167   2
   4  -2   6 5.94811 3.01151   1
  -5   2  -6 4.96784 3.16428   2
   5  -2   6 7.09394 3.14108   1
  -6   2  -6 6.89961 3.17092   2
   6  -2   6 10.2877  3.4077   1
  -7   2  -6 15.2796  4.2513   2
   7  -2   6 14.3365  4.0867   1
  -8  -1   6 2.17467 1.41180   2
   7   1  -6 2.58762 1.93895   1
  -7  -1   6 -0.1853  2.0273   2
   6   1  -6 14.9763  2.8795   1
   5   1  -6 125.236   7.183   1
   5   1  -6 124.962   8.047   2
  -5  -1   6 126.339   7.909   3
   4   1  -6 147.426   8.404   2
   4   1  -6 145.936   7.269   1
  -4  -1   6 140.618   8.543   3
   3   1  -6 21.4110  2.5289   1
   3   1  -6 24.9025  3.6409   2
  -3  -1   6 22.8264  4.3823   3
   2   1  -6 9.42992 1.44978   1
   2   1  -6 9.21022 2.30503   2
  -2  -1   6 9.97660 3.60481   3
   1   1  -6 3.13216 1.67831   2
  -1  -1   6 1.06257 3.31569   3
   0   1  -6 190.098   8.762   2
   0  -1   6 189.765   7.512   1
   0  -1   6 211.887  10.488   3
  -1   1  -6 1193.70   42.66   2
   1  -1   6 1228.96   45.46   3
   1  -1   6 1242.75   42.52   1
  -2   1  -6 211.701  10.205   2
  -2   1  -6 208.637  10.806   4
   2  -1   6 208.944   9.827   1
   2  -1   6 214.265  10.065   3
  -3   1  -6 -0.0616  1.8708   4
  -3   1  -6 4.05607 2.90205   2
   3  -1   6 -2.7033  2.0718   1
   3  -1   6 0.41336 1.17328   3
  -4   1  -6 19.5220  4.4669   2
  -4   1  -6 19.0469  4.4262   4
   4  -1   6 13.5181  3.8529   1
  -5   1  -6 47.3653  5.5902   2
   5  -1   6 44.1315  5.5995   1
  -6   1  -6 66.8513  6.4084   2
   6  -1   6 69.7984  6.6106   1
  -7   1  -6 8.42377 3.71675   2
   7  -1   6 5.29338 2.75083   1
   8   0  -6 6.67906 1.93208   1
  -8   0   6 7.15591 1.34176   2
   7   0  -6 7.70369 2.18077   1
  -7   0   6 6.41551 2.60499   2
   6   0  -6 16.0646  3.3412   1
   5   0  -6 50.1278  4.6152   1
   5   0  -6 45.0842  5.0146   2
  -5   0   6 47.4486  4.6646   3
   4   0  -6 56.0692  5.0149   2
   4   0  -6 60.8570  4.5740   1
  -4   0   6 59.8637  5.3519   3
   3   0  -6 81.9047  5.4275   2
   3   0  -6 77.8344  4.7947   1
  -3   0   6 87.3284  6.3413   3
   2   0  -6 45.3031  3.1825   1
   2   0  -6 43.7263  3.7436   2
  -2   0   6 46.9875  5.2277   3
   1   0  -6 458.793  17.181   2
   1   0  -6 458.811  16.773   1
  -1   0   6 492.246  19.706   3
   0   0  -6 272.522  11.406   2
   0   0   6 297.562  13.154   3
  -1   0  -6 1.47997 1.93709   2
   1   0   6 -1.8231  1.5209   1
   1   0   6 -0.5850  2.5294   3
  -2   0  -6 65.2565  5.4352   2
   2   0   6 77.6048  5.1062   3
   2   0   6 63.1645  5.4198   1
  -3   0  -6 8.36262 3.16996   2
  -3   0  -6 7.00576 2.44190   4
   3   0   6 4.71760 3.16068   1
   3   0   6 3.87460 1.14505   3
  -4   0  -6 39.1030  5.2593   2
  -4   0  -6 36.8618  5.6025   4
   4   0   6 38.4547  5.8135   1
  -5   0  -6 38.7784  5.9739   2
  -5   0  -6 35.3422  5.7640   4
   5   0   6 35.7889  5.9694   1
  -6   0  -6 5.50181 2.34505   2
   6   0   6 -1.0913  2.1433   1
  -7   0  -6 4.99261 3.29033   2
   7   0   6 6.70686 2.76715   1
   8  -1  -6 2.67344 2.01325   1
  -8   1   6 3.14744 1.17578   2
   7  -1  -6 2.41191 2.16386   1
  -7   1   6 8.05542 2.12692   2
   6  -1  -6 31.1611  3.9440   1
  -6   1   6 37.3926  5.6358   2
   5  -1  -6 10.5954  3.0517   1
   5  -1  -6 5.52735 2.78023   2
  -5   1   6 8.03167 2.66167   3
   4  -1  -6 25.4927  3.5417   2
   4  -1  -6 25.8320  3.6765   1
  -4   1   6 22.6637  3.8416   3
   3  -1  -6 1.60832 1.55676   1
   3  -1  -6 -0.2243  1.5544   2
  -3   1   6 0.85815 2.70006   3
   2  -1  -6 101.588   5.194   2
   2  -1  -6 96.5786  5.0802   1
  -2   1   6 97.7418  6.8411   3
   1  -1  -6 117.421   5.547   2
   1  -1  -6 105.713   5.566   1
  -1   1   6 127.850   7.567   3
   0  -1  -6 151.495   7.060   2
   0   1   6 160.591   8.727   3
  -1  -1  -6 41.0203  3.8713   2
   1   1   6 42.3844  4.3507   3
   1   1   6 43.5032  3.8766   1
  -2  -1  -6 106.440   6.618   2
   2   1   6 102.049   6.938   1
   2   1   6 111.214   6.341   3
  -3  -1  -6 15.0384  3.5915   2
  -3  -1  -6 8.74562 2.54855   4
   3   1   6 7.39212 1.36901   3
   3   1   6 6.70256 3.21273   1
  -4  -1  -6 344.752  15.927   2
  -4  -1  -6 352.644  18.686   4
   4   1   6 354.354  16.719   1
  -5  -1  -6 90.9015  7.0852   2
  -5  -1  -6 91.0078  8.4613   4
   5   1   6 84.0681  7.5246   1
  -6  -1  -6 7.24026 2.58806   2
   6   1   6 1.96303 2.19693   1
  -7  -1  -6 0.81486 3.29335   2
   7   1   6 4.63208 2.15217   1
   8  -2  -6 -1.9870  2.0755   1
  -8   2   6 -2.5472  1.1381   2
   7  -2  -6 3.52860 2.61837   1
   6  -2  -6 -0.4159  2.0100   1
  -6   2   6 -1.4811  1.2382   2
   5  -2  -6 21.7339  3.8493   1
  -5   2   6 23.2432  3.4640   3
   4  -2  -6 1.67438 1.37046   2
   4  -2  -6 -1.7909  1.9452   1
  -4   2   6 -1.2092  1.9323   3
   3  -2  -6 41.2837  3.7796   1
   3  -2  -6 38.7128  3.1430   2
  -3   2   6 36.2130  4.6241   3
   2  -2  -6 11.5459  1.8950   2
   2  -2  -6 8.68567 2.07865   1
  -2   2   6 5.68785 3.08491   3
   1  -2  -6 132.109   6.610   1
   1  -2  -6 141.924   5.952   2
  -1   2   6 142.481   8.142   3
   0  -2  -6 61.8503  4.5527   1
   0  -2  -6 63.6991  3.8472   2
   0   2   6 67.7729  5.3922   3
  -1  -2  -6 20.4054  2.9038   2
   1   2   6 17.7055  3.3485   3
   1   2   6 28.1314  3.1417   1
  -2  -2  -6 17.1706  3.0562   2
   2   2   6 15.2464  3.4971   1
   2   2   6 15.1135  2.8058   3
  -3  -2  -6 598.746  23.052   2
   3   2   6 554.428  22.714   3
   3   2   6 611.898  24.286   1
  -4  -2  -6 33.5849  4.3645   4
  -4  -2  -6 27.9718  4.0428   2
   4   2   6 25.8134  5.2441   1
  -5  -2  -6 8.98178 3.43592   4
  -5  -2  -6 17.1539  3.5800   2
   5   2   6 9.62082 3.67389   1
  -6  -2  -6 38.2278  6.6780   2
  -6  -2  -6 20.6214  5.1513   4
   6   2   6 16.3612  4.1179   1
  -7  -2  -6 10.6797  3.8399   2
   8  -3  -6 13.2786  3.4637   1
   7  -3  -6 21.3412  3.9574   1
  -7   3   6 29.1882  2.1560   2
   6  -3  -6 17.5259  3.8401   1
  -6   3   6 21.2932  2.2989   2
   5  -3  -6 43.1668  4.8309   1
  -5   3   6 46.3775  3.9233   2
  -5   3   6 49.5314  4.6681   3
   4  -3  -6 45.3134  4.5688   1
  -4   3   6 41.9455  4.5336   3
   3  -3  -6 73.8060  4.0690   2
   3  -3  -6 76.2606  5.2754   1
  -3   3   6 77.3933  6.2292   3
   2  -3  -6 245.975  10.465   1
  -2   3   6 241.693  12.029   3
   1  -3  -6 2.55120 1.72241   1
  -1   3   6 -1.2272  2.2471   3
   0  -3  -6 1.91822 1.95220   1
   0  -3  -6 2.73284 1.12486   2
   0   3   6 2.99750 2.56758   3
  -1  -3  -6 64.2635  4.1630   2
   1   3   6 66.9606  5.0088   1
   1   3   6 63.1892  5.3117   3
  -2  -3  -6 37.2328  3.4730   2
   2   3   6 30.8919  3.6938   3
   2   3   6 38.1529  4.5221   1
  -3  -3  -6 29.3440  3.5713   2
   3   3   6 22.5808  4.6322   1
  -4  -3  -6 66.0467  5.0413   2
  -4  -3  -6 46.8585  5.1381   4
   4   3   6 51.1557  5.7785   1
  -5  -3  -6 3.01737 2.25130   4
  -5  -3  -6 6.49726 2.19218   2
   5   3   6 -1.9709  1.6788   1
  -6  -3  -6 8.93565 3.33325   2
  -6  -3  -6 4.43191 2.78942   4
   6   3   6 -0.2399  1.6262   1
  -7  -3  -6 5.90666 2.56946   2
   8  -4  -6 2.95983 2.75425   1
   7  -4  -6 14.9247  3.6308   1
   6  -4  -6 2.93533 2.57361   1
  -6   4   6 3.65803 0.72099   2
   5  -4  -6 30.5887  4.2982   1
  -5   4   6 33.0130  4.0316   3
  -5   4   6 37.6601  2.5398   2
   4  -4  -6 32.7994  4.2887   1
  -4   4   6 28.9341  4.2338   3
  -4   4   6 40.9682  2.5148   2
   3  -4  -6 10.3315  2.7884   1
  -3   4   6 9.12597 3.41913   3
   2  -4  -6 28.0883  3.5877   1
  -2   4   6 26.4500  4.4174   3
   1  -4  -6 67.2502  4.9525   1
  -1   4   6 69.4446  5.9530   3
   0  -4  -6 155.652   8.314   1
   0   4   6 158.963   9.229   3
  -1  -4  -6 14.5676  2.0529   2
   1   4   6 22.4437  4.0859   1
   1   4   6 14.0410  3.1814   3
  -2  -4  -6 107.417   5.963   2
   2   4   6 106.594   6.729   1
   2   4   6 97.5541  6.6230   3
  -3  -4  -6 1.64804 1.73095   2
   3   4   6 2.72305 1.80169   1
  -4  -4  -6 43.9363  4.1687   2
  -4  -4  -6 43.1884  4.4395   4
   4   4   6 31.7206  4.4271   1
  -5  -4  -6 8.11005 2.70805   2
  -5  -4  -6 7.41519 2.04341   4
  -6  -4  -6 6.42969 2.68210   4
  -6  -4  -6 10.1249  3.4140   2
   6   4   6 9.56539 2.17773   1
   8  -5  -6 1.54169 2.46504   1
   7  -5  -6 23.3011  4.2783   1
   6  -5  -6 62.2436  5.9184   1
   5  -5  -6 56.6499  5.4027   1
  -5   5   6 60.4719  5.2444   3
   4  -5  -6 20.9900  3.7435   1
  -4   5   6 16.9192  3.6403   3
   3  -5  -6 2.60178 2.45124   1
  -3   5   6 1.08696 2.73012   3
   2  -5  -6 57.9378  4.6615   1
  -2   5   6 56.1103  5.8372   3
   1  -5  -6 432.945  17.700   1
  -1   5   6 446.999  19.573   3
   0  -5  -6 4.00585 2.48666   1
   0   5   6 2.76885 2.58282   3
   1   5   6 9.07344 3.03233   3
   2   5   6 13.5315  2.9077   1
   2   5   6 3.46682 2.17129   3
  -3  -5  -6 1.57838 1.40280   2
  -4  -5  -6 24.8735  3.3959   4
  -4  -5  -6 27.6295  3.0812   2
   4   5   6 25.5401  2.7036   1
  -5  -5  -6 4.72728 1.25207   4
   5   5   6 4.19604 1.39577   1
   6   5   6 10.7157  1.7449   1
   8  -6  -6 1.61372 2.88743   1
   7  -6  -6 3.64826 2.06317   1
   6  -6  -6 4.33274 2.99473   1
   5  -6  -6 2.30629 2.45454   1
  -5   6   6 3.15243 2.08155   3
   4  -6  -6 8.47045 2.89815   1
  -4   6   6 8.37177 2.99342   3
   3  -6  -6 27.0643  4.1059   1
  -3   6   6 24.0343  4.5037   3
   2  -6  -6 3.69150 2.53055   1
  -2   6   6 2.87613 3.08545   3
   1  -6  -6 2.07600 2.38792   1
  -1   6   6 1.87687 2.82243   3
   0  -6  -6 17.6951  3.7092   1
   0   6   6 15.5852  3.9326   3
  -1  -6  -6 5.61113 2.76839   1
   1   6   6 4.01792 2.49286   3
   2   6   6 82.8728  6.6949   1
   2   6   6 85.5290  6.5217   3
   3   6   6 46.5409  3.9966   1
   4   6   6 35.7924  2.7816   1
   5   6   6 6.20093 1.19244   1
   8  -7  -6 73.6327  6.2888   1
   7  -7  -6 29.9529  4.9612   1
   6  -7  -6 29.6882  4.3754   1
   5  -7  -6 29.7968  4.4040   1
  -5   7   6 36.4687  4.2397   3
   4  -7  -6 1.08767 2.52608   1
  -4   7   6 1.12845 2.28448   3
   3  -7  -6 20.5768  3.6560   1
  -3   7   6 16.2615  3.8553   3
   2  -7  -6 1.84738 2.25849   1
  -2   7   6 2.07303 2.80360   3
   1  -7  -6 6.80678 2.80111   1
  -1   7   6 6.00768 3.00921   3
   0  -7  -6 11.7793  3.4014   1
   0   7   6 8.30729 3.24191   3
  -1  -7  -6 171.877  10.224   1
   1   7   6 191.849  11.066   3
   2   7   6 6.81084 2.42393   3
   3   7   6 17.8396  3.5527   1
   4   7   6 50.8468  4.0513   1
  -5  -7  -6 3.11553 1.08350   4
   5   7   6 1.57837 1.26513   1
   7  -8  -6 1.86808 2.58566   1
   6  -8  -6 9.53649 3.20113   1
   5  -8  -6 15.7860  3.8172   1
  -5   8   6 6.38040 2.49420   3
   4  -8  -6 73.1089  6.1400   1
  -4   8   6 74.0256  6.5942   3
   3  -8  -6 30.8712  4.6946   1
  -3   8   6 29.2283  5.1689   3
   2  -8  -6 67.5538  5.6299   1
  -2   8   6 65.7005  6.4857   3
   1  -8  -6 70.3662  5.8000   1
  -1   8   6 59.7506  6.3717   3
   0  -8  -6 5.86828 2.88071   1
   0   8   6 2.26472 2.58970   3
  -1  -8  -6 177.382  10.482   1
   1   8   6 190.484  11.366   3
  -2  -8  -6 30.3979  5.4116   1
   2   8   6 19.6738  3.8650   3
   4   8   6 4.37059 1.49061   1
   7  -9  -6 -0.2273  2.2728   1
   6  -9  -6 5.53977 2.90098   1
   5  -9  -6 17.5688  3.8267   1
  -5   9   6 13.7057  3.4201   3
   4  -9  -6 21.9949  4.1595   1
  -4   9   6 25.4275  4.6425   3
   3  -9  -6 7.04010 2.87923   1
  -3   9   6 5.28973 2.92946   3
   2  -9  -6 16.0742  3.6221   1
  -2   9   6 11.9797  3.9331   3
   1  -9  -6 85.6687  6.5445   1
  -1   9   6 84.8044  7.5710   3
   0  -9  -6 29.4746  5.0953   1
   0   9   6 24.1554  4.9349   3
  -1  -9  -6 -2.0131  1.7825   1
   1   9   6 1.63272 1.90976   3
  -2  -9  -6 3.12523 2.30408   1
   2   9   6 -0.1448  1.5914   3
  -3  -9  -6 1.53687 2.61208   1
   6 -10  -6 30.6005  5.1296   1
   5 -10  -6 7.77107 2.87315   1
  -5  10   6 4.54047 2.80516   3
   4 -10  -6 8.95196 2.89408   1
  -4  10   6 9.55447 3.00101   3
   3 -10  -6 13.0174  3.2667   1
  -3  10   6 11.3845  3.6846   3
   2 -10  -6 10.7108  3.2832   1
  -2  10   6 6.65808 3.16133   3
   1 -10  -6 19.4532  3.9992   1
  -1  10   6 8.12879 3.44752   3
   0 -10  -6 98.0606  7.2434   1
   0  10   6 90.8868  8.1947   3
  -1 -10  -6 0.39976 2.17777   1
   1  10   6 1.59697 2.11612   3
  -2 -10  -6 2.04597 2.63336   1
   2  10   6 3.74090 1.56370   3
  -3 -10  -6 14.6892  4.9695   1
   6 -11  -6 15.5895  4.2877   1
   5 -11  -6 8.96887 3.54529   1
  -5  11   6 8.27756 3.87687   3
   4 -11  -6 4.13610 2.53101   1
  -4  11   6 2.59994 2.57797   3
   3 -11  -6 27.9009  4.0517   1
  -3  11   6 21.1182  4.8837   3
   2 -11  -6 75.5463  6.3181   1
  -2  11   6 69.5084  7.2795   3
   1 -11  -6 1.36665 2.20286   1
  -1  11   6 0.30939 2.38115   3
   0 -11  -6 2.82766 2.15757   1
   0  11   6 1.55183 2.19598   3
  -1 -11  -6 1.23388 2.35260   1
   1  11   6 5.88281 2.60112   3
  -2 -11  -6 4.58266 3.10703   1
  -5  12   6 9.10573 3.72565   3
   4 -12  -6 7.00085 3.41615   1
  -4  12   6 2.92768 3.87084   3
   3 -12  -6 13.7189  4.0078   1
  -3  12   6 10.1299  3.9768   3
   2 -12  -6 29.2663  4.8784   1
  -2  12   6 17.9453  4.6335   3
   1 -12  -6 5.91584 2.86981   1
  -1  12   6 0.97733 2.66781   3
   0 -12  -6 2.17312 2.64661   1
   0  12   6 2.59892 2.67881   3
  -1 -12  -6 11.7325  3.7596   1
   1  12   6 4.87256 2.29824   3
   2 -13  -6 5.53248 3.03867   1
  -1 -13   7 6.95063 7.37333   3
   0 -13   7 9.19693 4.30088   3
   1 -13   7 1.67198 2.42841   3
   2 -13   7 3.25359 2.90469   3
   3 -13   7 3.48178 3.66946   3
  -3 -12   7 11.8623  4.2751   3
  -2 -12   7 -7.5232  9.0057   3
  -1 -12   7 0.37726 5.47547   3
   0 -12   7 7.44030 3.24638   3
   1 -12   7 18.2633  3.7327   3
   2 -12   7 14.9428  3.8012   3
   3 -12   7 6.74824 3.75998   3
   4  11  -7 -0.7787  1.6891   2
  -4 -11   7 6.98327 2.72671   3
   3  11  -7 7.34858 2.37693   2
  -3 -11   7 9.79831 4.35613   3
   2  11  -7 6.47690 2.67255   2
  -2 -11   7 -2.7637  7.6230   3
   1  11  -7 32.1502  4.0834   2
  -1 -11   7 23.3836  6.6261   3
   0  11  -7 9.77168 2.73269   2
   0 -11   7 15.4690  4.3096   3
  -1  11  -7 17.2920  3.2722   2
   1 -11   7 24.0853  4.5871   3
  -2  11  -7 18.5169  3.5971   2
   2 -11   7 24.4400  4.5425   3
  -3  11  -7 5.14592 2.21948   2
   3 -11   7 9.04744 4.54791   3
  -4  11  -7 -0.6921  1.6481   2
  -5  11  -7 2.23456 1.82785   2
   5  10  -7 5.37229 2.25217   2
   4  10  -7 16.6610  3.7557   2
  -4 -10   7 13.8194  3.8573   3
   3  10  -7 36.1970  4.7478   2
  -3 -10   7 26.7819  5.5238   3
   2  10  -7 7.16333 2.57572   2
  -2 -10   7 1.01379 5.08504   3
   1  10  -7 58.2130  4.9632   2
  -1 -10   7 51.7884  8.3677   3
   0  10  -7 3.00814 1.65024   2
   0 -10   7 6.95942 3.46812   3
  -1  10  -7 23.2309  3.3655   2
   1 -10   7 27.4038  4.9372   3
  -2  10  -7 1.66282 1.63863   2
   2 -10   7 2.22525 2.82510   3
  -3  10  -7 5.02355 2.29076   2
   3 -10   7 9.02477 4.96296   3
  -4  10  -7 3.03462 2.45009   2
  -5  10  -7 -1.9041  1.8488   2
  -6  10  -7 -3.5745  1.9044   2
   5   9  -7 -1.5450  2.2389   2
   4   9  -7 4.31884 2.57047   2
  -4  -9   7 8.08430 3.30533   3
   3   9  -7 29.6643  4.2871   2
  -3  -9   7 27.8901  5.1979   3
   2   9  -7 114.973   7.591   2
  -2  -9   7 110.560   8.942   3
   1   9  -7 174.687   9.320   2
  -1  -9   7 158.805  12.469   3
   0   9  -7 55.1370  4.9145   2
   0  -9   7 53.3552  7.0490   3
  -1   9  -7 21.4200  3.8174   2
   1  -9   7 24.9514  5.0624   3
  -2   9  -7 7.18002 2.57555   2
   2  -9   7 9.17326 4.54596   3
  -3   9  -7 0.91811 2.02669   2
   3  -9   7 3.29237 6.12432   3
  -4   9  -7 -0.4838  1.8395   2
  -5   9  -7 22.4566  4.9238   2
  -6   9  -7 4.68073 3.05795   2
   6   8  -7 21.2386  4.5733   2
   5   8  -7 7.56907 3.30562   2
   4   8  -7 19.2913  4.3618   2
  -4  -8   7 20.9989  4.2694   3
   3   8  -7 6.12135 2.69094   2
  -3  -8   7 5.71948 2.73335   3
   2   8  -7 28.0236  3.8580   2
  -2  -8   7 27.4112  5.0114   3
   1   8  -7 13.1895  3.2090   2
  -1  -8   7 2.68846 4.97168   3
   0   8  -7 7.32223 2.55107   2
   0  -8   7 -4.7318  4.7316   3
  -1   8  -7 41.5344  4.5037   2
   1  -8   7 36.0663  6.8716   3
  -2   8  -7 2.57329 2.30417   2
   2  -8   7 -4.4266  5.0414   3
  -3   8  -7 2.76620 2.64884   2
   3  -8   7 2.44060 2.46623   3
  -4   8  -7 3.67825 2.93297   2
  -5   8  -7 5.10496 2.80645   2
  -6   8  -7 21.7390  5.0971   2
   6   7  -7 9.93050 3.41458   2
   5   7  -7 8.63056 3.17166   2
   4   7  -7 6.47328 2.77508   2
  -4  -7   7 5.03998 2.37184   3
   3   7  -7 1.07521 2.04784   2
  -3  -7   7 2.58143 2.39244   3
   2   7  -7 2.08357 2.21582   2
  -2  -7   7 3.30737 3.14513   3
   1   7  -7 9.10194 2.80999   2
  -1  -7   7 17.1205  3.9753   3
   0   7  -7 27.3206  3.9709   2
   0  -7   7 34.0604  5.4581   3
  -1   7  -7 62.9582  5.3211   2
   1  -7   7 56.7245  6.4666   3
  -2   7  -7 0.23097 2.29294   2
   2  -7   7 3.57548 2.31057   3
  -3   7  -7 27.5699  4.9222   2
   3  -7   7 32.9849  4.4310   3
  -4   7  -7 -2.4920  2.5403   2
  -5   7  -7 -1.3623  2.8556   2
   5  -7   7 0.66343 1.55929   1
  -6   7  -7 4.95567 2.89422   2
   6  -7   7 0.35839 2.09092   1
   7  -7   7 28.0580  5.4729   1
   6   6  -7 2.72588 2.92358   2
   5   6  -7 6.65033 3.06017   2
   4   6  -7 11.2868  3.6238   2
  -4  -6   7 18.2310  3.7680   3
   3   6  -7 11.4765  3.4629   2
  -3  -6   7 5.27307 3.10418   3
   2   6  -7 22.9143  3.9760   2
  -2  -6   7 21.3844  4.5086   3
   1   6  -7 15.2013  3.2434   2
  -1  -6   7 18.4661  4.4644   3
   0   6  -7 148.582   8.317   2
   0  -6   7 152.927   9.749   3
  -1   6  -7 2.78937 2.32760   2
   1  -6   7 0.37051 3.02702   3
  -2   6  -7 49.5360  5.5239   2
   2  -6   7 46.3053  5.1697   3
  -3   6  -7 2.18396 2.92871   2
   3  -6   7 4.48773 1.56707   1
   3  -6   7 4.76440 2.74924   3
  -4   6  -7 50.9923  6.0432   2
   4  -6   7 52.2820  4.4804   1
  -5   6  -7 -2.1685  2.8646   2
   5  -6   7 3.48633 2.06105   1
  -6   6  -7 6.40912 3.14811   2
   6  -6   7 6.60540 3.41272   1
  -7   6  -7 19.8730  4.8094   2
   7  -6   7 37.7330  6.3197   1
   6   5  -7 3.52878 2.36670   2
   5   5  -7 17.8881  4.2077   2
  -5  -5   7 6.88926 2.70838   3
   4   5  -7 84.3428  6.5191   2
  -4  -5   7 69.2340  6.4022   3
   3   5  -7 34.7236  4.4086   2
  -3  -5   7 36.5631  5.1461   3
   2   5  -7 6.97985 2.59445   2
  -2  -5   7 4.44730 3.57320   3
   1   5  -7 8.48665 2.55511   2
  -1  -5   7 9.63136 3.62716   3
   0   5  -7 1.25183 1.96700   2
   0  -5   7 1.23021 2.86832   3
  -1   5  -7 7.48074 2.85762   2
   1  -5   7 7.76155 3.23707   3
  -2   5  -7 13.5570  3.8045   2
   2  -5   7 14.9187  2.0226   1
   2  -5   7 15.4956  3.7269   3
  -3   5  -7 78.2778  6.7623   2
   3  -5   7 75.2053  4.9739   1
   3  -5   7 67.8011  5.6336   3
  -4   5  -7 -0.3175  3.2304   2
   4  -5   7 -0.1554  1.6277   1
  -5   5  -7 15.9437  4.4260   2
   5  -5   7 16.9076  4.0000   1
  -6   5  -7 0.97731 2.73946   2
   6  -5   7 -2.1006  2.9494   1
  -7   5  -7 1.83702 3.03604   2
   7  -5   7 6.58477 2.90509   1
   6   4  -7 33.4459  5.8867   2
   5   4  -7 -1.3048  2.1129   2
  -5  -4   7 -1.4263  2.6361   3
   4   4  -7 57.1464  5.4582   2
  -4  -4   7 54.9214  5.8138   3
   3   4  -7 52.1234  5.1946   2
  -3  -4   7 41.3627  5.6089   3
   2   4  -7 109.865   6.687   2
  -2  -4   7 108.906   7.971   3
   1   4  -7 11.1746  2.7533   2
  -1  -4   7 10.3381  3.6152   3
   0   4  -7 4.73553 2.21251   2
   0  -4   7 4.64826 3.17905   3
  -1   4  -7 240.470  11.443   2
   1  -4   7 254.895   9.420   1
   1  -4   7 230.036  12.216   3
  -2   4  -7 96.3118  7.1240   2
   2  -4   7 100.261   5.497   1
   2  -4   7 85.0393  6.6825   3
  -3   4  -7 78.0985  6.6873   2
   3  -4   7 71.8785  5.7236   3
   3  -4   7 69.5492  5.5344   1
  -4   4  -7 4.11377 3.41390   2
   4  -4   7 2.75871 2.87439   1
  -5   4  -7 15.5100  4.2305   2
   5  -4   7 20.9289  3.8113   1
  -6   4  -7 2.51239 3.39037   2
   6  -4   7 -1.7215  1.9805   1
  -7   4  -7 4.48292 2.97652   2
   7  -4   7 4.22120 2.81771   1
   6   3  -7 8.59472 3.39806   2
   5   3  -7 10.9180  3.5906   2
  -5  -3   7 6.00075 3.51413   3
   4   3  -7 137.512   8.247   2
  -4  -3   7 126.018   8.724   3
   3   3  -7 -0.2927  2.1829   2
  -3  -3   7 2.00144 3.40677   3
   2   3  -7 11.8981  2.7064   2
  -2  -3   7 10.4090  3.8418   3
   1   3  -7 196.970   9.091   2
  -1  -3   7 191.142  10.589   3
   0   3  -7 33.4901  3.8927   2
   0  -3   7 36.5270  4.8418   3
  -1   3  -7 5.97860 2.61984   2
   1  -3   7 7.73361 3.26103   3
   1  -3   7 5.37624 1.13426   1
  -2   3  -7 231.099  11.443   2
   2  -3   7 220.814  11.558   3
   2  -3   7 236.401  10.036   1
  -3   3  -7 39.4405  5.7138   2
   3  -3   7 36.2087  4.3445   3
   3  -3   7 34.0085  3.7784   1
  -4   3  -7 -1.3219  2.5770   2
   4  -3   7 1.75313 1.90488   1
  -5   3  -7 45.6836  5.7051   2
   5  -3   7 44.3515  4.8027   1
  -6   3  -7 16.4518  4.6953   2
   6  -3   7 14.0172  3.5373   1
  -7   3  -7 9.82451 3.97725   2
   7  -3   7 12.4369  2.9601   1
  -8  -2   7 7.16934 1.79990   2
  -7  -2   7 -3.5750  2.1218   2
   6   2  -7 7.51380 2.59895   2
   5   2  -7 3.80515 2.74690   2
   5   2  -7 3.14906 1.16687   1
  -5  -2   7 3.99570 3.34616   3
   4   2  -7 67.4082  3.9497   1
   4   2  -7 67.3898  5.7972   2
  -4  -2   7 62.5796  6.3465   3
   3   2  -7 62.6157  3.3028   1
   3   2  -7 58.6703  5.2643   2
  -3  -2   7 56.5608  6.0901   3
   2   2  -7 14.8719  2.7356   2
  -2  -2   7 10.4516  3.8611   3
   1   2  -7 1.02413 1.70619   2
  -1  -2   7 0.76335 3.05516   3
   0   2  -7 116.054   5.501   4
   0   2  -7 115.128   6.526   2
   0  -2   7 124.587   7.882   3
  -1   2  -7 33.3692  4.2349   2
  -1   2  -7 35.1170  2.8987   4
   1  -2   7 29.6723  4.5869   3
   1  -2   7 35.3411  2.5631   1
  -2   2  -7 7.83100 3.12791   2
  -2   2  -7 5.22992 1.92967   4
   2  -2   7 7.87734 2.03544   1
   2  -2   7 9.08947 3.40300   3
  -3   2  -7 -1.1974  2.8511   2
  -3   2  -7 -0.4762  2.0296   4
   3  -2   7 -3.8658  1.5833   3
   3  -2   7 -1.5586  1.9345   1
  -4   2  -7 2.46016 2.79185   2
   4  -2   7 4.06287 2.47390   1
  -5   2  -7 54.9946  6.0148   2
   5  -2   7 59.6394  5.5572   1
  -6   2  -7 3.00636 2.74920   2
   6  -2   7 7.08338 2.77389   1
  -7   2  -7 29.0204  5.7774   2
   7  -2   7 36.2928  4.9678   1
  -8  -1   7 64.9032  5.1063   2
  -7  -1   7 5.17419 2.65696   2
   6   1  -7 35.2284  3.6758   1
   6   1  -7 37.9899  4.6927   2
   5   1  -7 54.9352  5.4045   2
   5   1  -7 54.3255  4.3313   1
  -5  -1   7 50.8479  5.5872   3
   4   1  -7 41.3949  4.7209   2
   4   1  -7 48.4039  3.6473   1
  -4  -1   7 40.3517  5.3417   3
   3   1  -7 8.66669 2.66798   2
   3   1  -7 8.03858 1.53969   1
  -3  -1   7 5.30856 3.88405   3
   2   1  -7 6.68593 1.16222   1
   2   1  -7 6.02770 2.11703   2
  -2  -1   7 1.37004 3.44790   3
   1   1  -7 33.2695  3.4428   2
  -1  -1   7 33.3950  4.8134   3
   0   1  -7 3.34325 2.06767   2
   0  -1   7 5.30225 3.32169   3
  -1   1  -7 123.179   7.114   2
   1  -1   7 123.316   7.800   3
   1  -1   7 130.259   6.167   1
  -2   1  -7 180.330   9.709   4
  -2   1  -7 174.531   9.466   2
   2  -1   7 176.645   9.532   3
   2  -1   7 182.504   8.831   1
  -3   1  -7 270.458  12.952   2
   3  -1   7 273.664  12.610   1
   3  -1   7 243.158  11.572   3
  -4   1  -7 95.2515  7.3029   2
  -4   1  -7 95.7173  8.1971   4
   4  -1   7 89.0583  7.0314   1
  -5   1  -7 50.1424  5.6556   2
   5  -1   7 47.0348  5.5605   1
  -6   1  -7 5.49127 2.91723   2
   6  -1   7 1.47237 2.06920   1
  -7   1  -7 12.2408  4.5067   2
   7  -1   7 9.08261 3.39804   1
  -7   0   7 26.1648  4.7099   2
   6   0  -7 51.9462  4.6142   1
   5   0  -7 177.055   9.050   1
   5   0  -7 177.486   9.569   2
  -5   0   7 180.973  10.270   3
   4   0  -7 292.542  12.264   1
   4   0  -7 287.234  12.825   2
  -4   0   7 290.443  14.373   3
   3   0  -7 24.8165  2.7422   1
   3   0  -7 25.4013  3.5820   2
  -3   0   7 19.1181  4.5451   3
   2   0  -7 240.870  10.340   2
   2   0  -7 259.088   9.801   1
  -2   0   7 244.302  12.402   3
   1   0  -7 48.9810  3.1084   1
   1   0  -7 44.8408  3.6725   2
  -1   0   7 52.0982  5.2786   3
   0   0  -7 81.8769  5.1559   2
   0   0   7 84.6808  6.5023   3
  -1   0  -7 14.7529  3.1253   2
   1   0   7 14.4194  2.2125   1
   1   0   7 14.2701  3.7212   3
  -2   0  -7 5.28054 2.88669   2
   2   0   7 5.35745 2.55601   3
   2   0   7 3.34747 2.19561   1
  -3   0  -7 242.723  12.007   2
  -3   0  -7 233.944  12.976   4
   3   0   7 220.390  10.533   3
   3   0   7 246.245  11.989   1
  -4   0  -7 115.065   8.927   4
  -4   0  -7 123.087   8.313   2
   4   0   7 110.469   8.172   1
  -5   0  -7 54.8631  6.8503   4
  -5   0  -7 61.3468  5.9051   2
   5   0   7 60.4806  6.1663   1
  -6   0  -7 8.61831 3.20672   2
   6   0   7 1.64052 2.33399   1
  -7   0  -7 6.11586 3.84949   2
   7  -1  -7 33.1303  4.1666   1
  -7   1   7 37.7730  4.1456   2
   6  -1  -7 3.71094 2.19924   1
   5  -1  -7 39.5905  4.1057   1
   5  -1  -7 41.6932  4.2501   2
  -5   1   7 36.4177  4.4295   3
   4  -1  -7 53.0630  4.2774   2
   4  -1  -7 45.7814  4.3723   1
  -4   1   7 53.9397  5.3696   3
   3  -1  -7 33.2052  3.2794   1
   3  -1  -7 34.5875  3.3798   2
  -3   1   7 36.8168  5.0655   3
   2  -1  -7 12.0722  2.0332   1
   2  -1  -7 9.75098 2.07354   2
  -2   1   7 10.3263  3.6059   3
   1  -1  -7 152.144   6.790   2
   1  -1  -7 145.149   6.738   1
  -1   1   7 151.781   8.847   3
   0  -1  -7 50.8142  3.8032   2
   0   1   7 51.4779  5.1640   3
  -1  -1  -7 163.069   8.097   2
   1   1   7 177.065   9.381   3
   1   1   7 168.474   7.911   1
  -2  -1  -7 29.6721  3.9206   2
   2   1   7 31.8894  4.4966   1
   2   1   7 34.0471  3.8613   3
  -3  -1  -7 51.9335  5.1796   2
  -3  -1  -7 57.8183  5.1244   4
   3   1   7 46.6054  5.4244   1
  -4  -1  -7 39.4478  5.6751   2
  -4  -1  -7 34.7713  4.8025   4
   4   1   7 29.3262  5.3299   1
  -5  -1  -7 0.15474 1.73351   2
  -5  -1  -7 3.20778 2.36752   4
   5   1   7 -1.8467  1.6518   1
  -6  -1  -7 0.45103 2.32500   4
  -6  -1  -7 4.40295 2.54502   2
   6   1   7 -1.7618  1.7895   1
  -7  -1  -7 31.8886  5.9676   2
   7   1   7 40.7072  3.6173   1
   8  -2  -7 -1.8383  1.5877   1
  -8   2   7 2.07560 1.22562   2
   7  -2  -7 0.48827 1.93046   1
  -7   2   7 1.66451 1.09963   2
   6  -2  -7 78.9695  5.9319   1
  -6   2   7 84.0491  6.0630   2
   5  -2  -7 79.4213  5.5600   2
   5  -2  -7 88.6810  5.9522   1
  -5   2   7 92.1206  6.7052   3
   4  -2  -7 83.1965  5.6967   1
   4  -2  -7 89.7956  5.1769   2
  -4   2   7 80.9875  6.4700   3
   3  -2  -7 13.4096  2.6194   1
   3  -2  -7 15.1766  2.4562   2
  -3   2   7 11.7471  3.7217   3
   2  -2  -7 77.3811  4.1037   2
   2  -2  -7 72.6454  4.5752   1
  -2   2   7 66.0996  6.0793   3
   1  -2  -7 17.8531  2.6555   1
   1  -2  -7 14.9877  2.0378   2
  -1   2   7 17.7223  3.7946   3
   0  -2  -7 32.2995  2.8761   2
   0  -2  -7 29.1965  3.5138   1
   0   2   7 36.9846  4.6656   3
  -1  -2  -7 106.567   5.892   2
   1   2   7 112.219   6.230   1
   1   2   7 100.670   7.010   3
  -2  -2  -7 88.6997  5.7864   2
   2   2   7 88.0206  6.2580   1
   2   2   7 87.2501  6.0824   3
  -3  -2  -7 69.6571  5.3731   2
   3   2   7 58.7527  6.0343   1
  -4  -2  -7 13.5760  3.0382   4
  -4  -2  -7 15.8266  3.5670   2
   4   2   7 8.73973 3.57902   1
  -5  -2  -7 1.32878 1.85753   4
  -5  -2  -7 3.15135 1.91851   2
   5   2   7 -3.1499  1.5519   1
  -6  -2  -7 6.71618 2.98509   4
  -6  -2  -7 15.7483  4.2817   2
   6   2   7 7.40105 2.64982   1
   8  -3  -7 7.73623 2.23293   1
   7  -3  -7 3.39196 2.22056   1
  -7   3   7 6.65149 1.06952   2
   6  -3  -7 25.8396  4.1274   1
  -6   3   7 24.0877  2.6803   2
   5  -3  -7 76.6991  5.7368   1
  -5   3   7 80.4730  6.3186   3
   4  -3  -7 91.8987  5.2036   2
   4  -3  -7 89.0321  5.9208   1
  -4   3   7 91.2126  6.8402   3
   3  -3  -7 15.0707  2.0915   2
   3  -3  -7 14.1595  2.7697   1
  -3   3   7 10.1701  3.6656   3
   2  -3  -7 28.7153  3.4047   1
   2  -3  -7 31.1250  2.2778   2
  -2   3   7 29.4332  4.5407   3
   1  -3  -7 -1.2232  1.5531   1
  -1   3   7 -2.1936  2.4684   3
   0  -3  -7 76.7637  4.1591   2
   0  -3  -7 74.4815  5.3105   1
   0   3   7 80.2634  6.4326   3
  -1  -3  -7 -0.2538  1.3138   2
   1   3   7 -0.2957  2.1937   3
   1   3   7 1.65331 1.77875   1
  -2  -3  -7 52.6225  4.3497   2
   2   3   7 49.6146  4.7552   3
   2   3   7 59.9499  4.5849   1
  -3  -3  -7 80.5544  5.6386   2
   3   3   7 74.5421  6.1373   1
  -4  -3  -7 19.3775  3.5504   2
  -4  -3  -7 13.2638  2.1788   4
   4   3   7 7.86320 3.30937   1
  -5  -3  -7 4.32051 2.30891   2
  -6  -3  -7 8.82962 3.58860   2
  -6  -3  -7 2.03397 2.43484   4
   6   3   7 3.63126 2.28037   1
   8  -4  -7 3.82608 2.22401   1
   7  -4  -7 52.6064  5.1773   1
   6  -4  -7 7.98196 2.88806   1
   5  -4  -7 6.85078 2.74074   1
  -5   4   7 2.25094 2.03415   3
   4  -4  -7 7.19210 2.43646   1
  -4   4   7 5.82430 3.08417   3
   3  -4  -7 -0.3703  1.9233   1
  -3   4   7 0.86079 2.94672   3
   2  -4  -7 7.68626 2.35464   1
  -2   4   7 7.54402 3.50610   3
   1  -4  -7 4.39493 2.20778   1
  -1   4   7 1.70594 2.93857   3
   0  -4  -7 67.5107  5.2500   1
   0   4   7 58.6791  5.7945   3
  -1  -4  -7 288.672  11.377   2
   1   4   7 275.157  13.745   3
  -2  -4  -7 41.0867  3.4687   2
   2   4   7 33.3942  4.1765   3
   2   4   7 47.6825  4.0419   1
  -3  -4  -7 52.1171  4.4139   2
   3   4   7 54.5765  4.4217   1
  -4  -4  -7 7.72486 2.39968   2
  -4  -4  -7 10.7799  2.2941   4
   4   4   7 3.31618 1.82394   1
  -5  -4  -7 3.38114 1.83469   4
  -5  -4  -7 8.05043 2.60243   2
   5   4   7 2.03433 1.67878   1
  -6  -4  -7 19.5181  3.8252   2
   8  -5  -7 2.43109 2.16058   1
   7  -5  -7 26.9793  4.5614   1
   6  -5  -7 101.844   7.263   1
   5  -5  -7 97.6360  6.9079   1
  -5   5   7 108.814   7.570   3
   4  -5  -7 61.8492  5.1120   1
  -4   5   7 60.7719  5.9480   3
   3  -5  -7 1.21909 2.25925   1
  -3   5   7 -0.4634  2.7365   3
   2  -5  -7 -0.8663  1.8675   1
  -2   5   7 -0.9205  2.7991   3
   1  -5  -7 5.62024 2.57696   1
  -1   5   7 3.57976 3.29744   3
   0  -5  -7 5.20221 2.52694   1
   0   5   7 5.48301 2.96892   3
  -1  -5  -7 -0.7007  1.9349   1
   1   5   7 -1.8819  1.7907   3
   2   5   7 240.795  12.561   3
   2   5   7 254.677  12.515   1
   3   5   7 13.2574  1.4127   1
  -4  -5  -7 3.92459 1.13608   4
  -5  -5  -7 23.8942  3.4142   4
   5   5   7 31.0332  2.7500   1
   8  -6  -7 3.94127 2.22862   1
   7  -6  -7 6.97772 2.63089   1
   6  -6  -7 12.7324  3.3702   1
   5  -6  -7 14.9043  3.5521   1
  -5   6   7 12.0923  3.0164   3
   4  -6  -7 9.66516 2.94182   1
  -4   6   7 7.85626 3.32340   3
   3  -6  -7 150.599   8.203   1
  -3   6   7 144.433   9.538   3
   2  -6  -7 137.570   7.695   1
  -2   6   7 136.578   9.279   3
   1  -6  -7 407.390  16.760   1
  -1   6   7 372.555  18.272   3
   0  -6  -7 23.2318  4.2077   1
   0   6   7 18.1705  4.0398   3
  -1  -6  -7 66.3279  5.9707   1
   1   6   7 63.1232  5.9333   3
   2   6   7 55.6743  5.1461   3
   3   6   7 35.4213  2.9954   1
   4   6   7 24.6199  2.0280   1
  -5  -6  -7 8.66562 1.46066   4
   7  -7  -7 56.1417  5.7180   1
   6  -7  -7 3.19539 2.41675   1
  -6   7   7 5.42183 2.01920   3
   5  -7  -7 0.81304 2.10807   1
  -5   7   7 0.39663 1.81323   3
   4  -7  -7 28.9980  4.6284   1
  -4   7   7 23.1541  4.5385   3
   3  -7  -7 -0.5624  1.9047   1
  -3   7   7 2.88187 2.75117   3
   2  -7  -7 7.38067 2.79895   1
  -2   7   7 6.57612 3.31291   3
   1  -7  -7 5.45176 2.80670   1
  -1   7   7 4.34421 2.98424   3
   0  -7  -7 102.992   7.207   1
   0   7   7 105.689   8.043   3
  -1  -7  -7 19.1430  4.1814   1
   1   7   7 16.9930  3.8708   3
  -2  -7  -7 7.89815 3.44412   1
   2   7   7 7.10838 2.26090   3
   3   7   7 0.64331 1.50315   1
   4   7   7 86.5438  6.2748   1
   7  -8  -7 3.98482 2.70363   1
   6  -8  -7 3.92564 2.47672   1
  -6   8   7 1.94501 1.77401   3
   5  -8  -7 4.24425 2.48154   1
  -5   8   7 4.67117 2.35572   3
   4  -8  -7 0.98203 2.24733   1
  -4   8   7 5.45481 2.51718   3
   3  -8  -7 1.63074 2.34278   1
  -3   8   7 -1.2974  2.0566   3
   2  -8  -7 108.468   7.020   1
  -2   8   7 100.164   8.243   3
   1  -8  -7 67.2814  5.7450   1
  -1   8   7 61.3804  6.4582   3
   0  -8  -7 1.72193 2.29506   1
   0   8   7 1.40737 2.35419   3
  -1  -8  -7 14.3755  3.7994   1
   1   8   7 11.8648  3.3081   3
  -2  -8  -7 -0.5586  2.1450   1
   2   8   7 2.08056 1.71983   3
   7  -9  -7 6.14727 2.28955   1
   6  -9  -7 2.68310 2.28624   1
  -6   9   7 4.96781 2.30686   3
   5  -9  -7 47.6723  4.8434   1
  -5   9   7 37.9286  5.1277   3
   4  -9  -7 3.45977 2.33708   1
  -4   9   7 1.20512 2.02753   3
   3  -9  -7 53.1721  5.0741   1
  -3   9   7 49.9408  5.8207   3
   2  -9  -7 15.2455  3.5829   1
  -2   9   7 10.6262  3.5060   3
   1  -9  -7 45.5371  4.7782   1
  -1   9   7 35.1924  5.4284   3
   0  -9  -7 -0.7226  1.7957   1
   0   9   7 0.30044 2.43908   3
  -1  -9  -7 2.06901 2.39998   1
   1   9   7 2.72257 2.17507   3
  -2  -9  -7 3.21095 2.78870   1
   2   9   7 6.08997 1.93528   3
  -3  -9  -7 7.32985 3.34796   1
   6 -10  -7 15.0645  3.5171   1
  -6  10   7 5.77055 2.85580   3
   5 -10  -7 3.08861 2.31392   1
  -5  10   7 2.07415 3.05896   3
   4 -10  -7 6.98468 2.53015   1
  -4  10   7 1.72077 2.40990   3
   3 -10  -7 2.66950 2.23104   1
  -3  10   7 0.48863 2.14344   3
   2 -10  -7 1.57316 1.91857   1
  -2  10   7 1.27900 2.36510   3
   1 -10  -7 4.47891 2.38344   1
  -1  10   7 -0.7487  2.1369   3
   0 -10  -7 7.46428 2.91487   1
   0  10   7 4.85161 2.46347   3
  -1 -10  -7 21.8753  4.7224   1
   1  10   7 11.3183  3.5460   3
  -2 -10  -7 0.79225 2.37157   1
  -6  11   7 7.61205 2.93328   3
   5 -11  -7 62.1433  6.0052   1
   4 -11  -7 4.54656 2.87212   1
  -4  11   7 3.45604 2.98042   3
   3 -11  -7 1.99151 2.13948   1
  -3  11   7 3.65730 3.07689   3
   2 -11  -7 70.4299  6.0938   1
  -2  11   7 55.5336  6.7147   3
   1 -11  -7 0.75227 2.32602   1
  -1  11   7 4.50607 2.54211   3
   0 -11  -7 9.56456 3.41011   1
   0  11   7 4.75412 3.01318   3
  -1 -11  -7 0.12633 2.23752   1
   1  11   7 -0.3321  1.6245   3
  -5  12   7 9.35936 3.37678   3
   4 -12  -7 13.4721  4.0739   1
  -4  12   7 10.7126  4.3094   3
   3 -12  -7 2.04170 2.73917   1
  -3  12   7 -1.7101  2.6240   3
   2 -12  -7 9.84698 3.23763   1
  -2  12   7 9.67124 3.32287   3
   1 -12  -7 11.8290  3.4673   1
  -1  12   7 6.66363 3.40315   3
   0 -12  -7 5.27699 2.84475   1
   0  12   7 1.96283 2.07313   3
   1  12   7 11.4473  2.1077   3
  -1 -13   8 8.94186 6.10461   3
   0 -13   8 45.6070 12.0055   3
   1 -13   8 14.4410  9.3326   3
   2 -13   8 51.6193 11.1465   3
   3 -13   8 61.6662 12.6075   3
  -3 -12   8 10.5130  3.8000   3
   2  12  -8 13.1353  2.7288   2
  -2 -12   8 15.2605  5.1798   3
   1  12  -8 2.02389 1.57220   2
  -1 -12   8 4.52445 5.25323   3
   0  12  -8 26.2462  3.2760   2
   0 -12   8 21.4726  9.4786   3
  -1  12  -8 1.35780 1.20008   2
   1 -12   8 2.12195 7.75800   3
   2 -12   8 10.5786  8.9879   3
   3 -12   8 20.8264  8.4576   3
   4  11  -8 4.90453 1.89993   2
  -4 -11   8 7.71200 3.08672   3
   3  11  -8 4.66976 2.10485   2
  -3 -11   8 10.6675  4.7473   3
   2  11  -8 0.97674 1.93667   2
  -2 -11   8 3.91383 2.98002   3
   1  11  -8 24.3205  4.3245   2
  -1 -11   8 22.2181  5.3889   3
   0  11  -8 13.6699  3.2158   2
   0 -11   8 6.40167 8.18038   3
  -1  11  -8 1.08498 1.63652   2
   1 -11   8 -3.7865  7.5470   3
  -2  11  -8 1.11114 2.13550   2
   2 -11   8 0.02252 7.87592   3
  -3  11  -8 15.6056  3.6195   2
   3 -11   8 18.3488  5.0556   3
  -4  11  -8 1.09909 1.69196   2
  -5  11  -8 0.62167 1.73471   2
   4  10  -8 14.9307  3.8061   2
  -4 -10   8 15.8430  4.4035   3
   3  10  -8 3.50804 2.27827   2
  -3 -10   8 5.40044 3.48847   3
   2  10  -8 1.21847 1.84005   2
  -2 -10   8 0.62190 2.61923   3
   1  10  -8 6.54517 2.26429   2
  -1 -10   8 10.6956  3.3986   3
   0  10  -8 8.69369 2.47719   2
   0 -10   8 -3.8479  4.7398   3
  -1  10  -8 0.07486 1.32656   2
   1 -10   8 -6.3803  5.8664   3
  -2  10  -8 1.67800 1.66309   2
   2 -10   8 -3.7147  4.1229   3
  -3  10  -8 1.52696 2.07236   2
   3 -10   8 1.16773 2.59771   3
  -4  10  -8 1.32431 2.51010   2
  -5  10  -8 0.38239 2.07810   2
  -6  10  -8 0.14378 1.63616   2
   5   9  -8 26.1270  5.0307   2
   4   9  -8 48.0050  5.1563   2
  -4  -9   8 39.9366  5.5384   3
   3   9  -8 1.66802 2.05336   2
  -3  -9   8 6.81886 3.14436   3
   2   9  -8 6.32008 2.32380   2
  -2  -9   8 1.38893 2.92785   3
   1   9  -8 26.7873  3.6312   2
  -1  -9   8 27.4396  5.0479   3
   0   9  -8 4.93842 2.23118   2
   0  -9   8 6.61262 3.34726   3
  -1   9  -8 2.20503 1.99725   2
   1  -9   8 6.39193 3.16732   3
  -2   9  -8 2.97634 1.99887   2
   2  -9   8 1.59613 2.49442   3
  -3   9  -8 2.58022 2.42115   2
   3  -9   8 4.02148 2.42590   3
  -4   9  -8 -3.2506  2.1447   2
  -5   9  -8 -0.3280  2.8696   2
  -6   9  -8 1.35088 2.36773   2
   5   8  -8 2.50641 2.39675   2
   4   8  -8 13.4741  3.5880   2
  -4  -8   8 5.48990 3.10256   3
   3   8  -8 36.1169  5.4801   2
  -3  -8   8 29.2774  5.2326   3
   2   8  -8 23.2052  4.0925   2
  -2  -8   8 16.7354  4.5021   3
   1   8  -8 1.49584 1.88782   2
  -1  -8   8 1.57560 3.21565   3
   0   8  -8 153.306   8.468   2
   0  -8   8 139.693  10.049   3
  -1   8  -8 15.2413  3.6387   2
   1  -8   8 20.1126  4.2837   3
  -2   8  -8 0.47821 2.21555   2
   2  -8   8 2.15549 2.65774   3
  -3   8  -8 32.8481  5.2925   2
   3  -8   8 39.8824  4.7189   3
  -4   8  -8 22.3154  4.9879   2
  -5   8  -8 4.86208 2.74357   2
  -6   8  -8 8.70380 3.87105   2
   6   7  -8 55.5755  6.1818   2
   5   7  -8 0.77797 2.19584   2
   4   7  -8 36.8274  4.7179   2
  -4  -7   8 29.8081  5.0954   3
   3   7  -8 46.9128  4.9025   2
  -3  -7   8 43.6850  5.5042   3
   2   7  -8 0.63110 2.05213   2
  -2  -7   8 3.31299 3.51462   3
   1   7  -8 14.5559  3.1591   2
  -1  -7   8 9.93159 3.96173   3
   0   7  -8 1.32500 1.91543   2
   0  -7   8 -0.6696  3.0807   3
  -1   7  -8 24.3562  4.0679   2
   1  -7   8 28.8902  5.1592   3
  -2   7  -8 14.2542  3.7722   2
   2  -7   8 13.6970  3.9063   3
  -3   7  -8 22.4473  4.4738   2
   3  -7   8 30.0742  4.1672   3
  -4   7  -8 44.8867  5.9536   2
  -5   7  -8 1.00028 2.90566   2
  -6   7  -8 9.27196 4.05335   2
   6   6  -8 1.48353 2.05843   2
   5   6  -8 3.97401 2.67501   2
  -5  -6   8 6.95130 3.11182   3
   4   6  -8 1.24798 2.42934   2
  -4  -6   8 3.90409 2.79999   3
   3   6  -8 9.80612 3.35947   2
  -3  -6   8 10.5747  3.9391   3
   2   6  -8 10.9662  3.0314   2
  -2  -6   8 11.3717  4.0838   3
   1   6  -8 6.80114 2.57337   2
  -1  -6   8 11.0004  3.8231   3
   0   6  -8 1.45381 2.05107   2
   0  -6   8 2.31929 3.33045   3
  -1   6  -8 0.79417 2.04297   2
   1  -6   8 3.79463 3.02196   3
  -2   6  -8 52.5106  5.4916   2
   2  -6   8 36.7280  4.9639   3
  -3   6  -8 149.734   9.517   2
   3  -6   8 140.539   9.110   3
  -4   6  -8 11.7429  4.3633   2
  -5   6  -8 1.21822 2.95616   2
   5  -6   8 9.54068 3.68470   1
  -6   6  -8 21.8215  5.0428   2
   6  -6   8 24.9754  4.2628   1
   7  -6   8 44.5595  3.7518   1
   6   5  -8 2.35866 2.45851   2
   5   5  -8 10.7811  3.5244   2
  -5  -5   8 8.38440 3.68509   3
   4   5  -8 31.4380  5.2439   2
  -4  -5   8 21.7812  4.6484   3
   3   5  -8 15.9524  3.4652   2
  -3  -5   8 12.6441  4.2260   3
   2   5  -8 5.56852 2.43004   2
  -2  -5   8 2.08740 3.55773   3
   1   5  -8 4.24292 2.31020   2
  -1  -5   8 5.37994 3.81163   3
   0   5  -8 71.5041  5.5446   2
   0  -5   8 65.8702  6.5639   3
  -1   5  -8 8.54606 3.02327   2
   1  -5   8 9.08440 3.82467   3
  -2   5  -8 -0.9464  2.5606   2
   2  -5   8 0.64355 2.73714   3
  -3   5  -8 16.1364  4.3200   2
   3  -5   8 14.5441  3.4353   3
   3  -5   8 14.1264  2.6472   1
  -4   5  -8 0.61420 2.96547   2
   4  -5   8 3.04979 2.13774   1
  -5   5  -8 7.32898 4.10674   2
   5  -5   8 6.57683 2.78189   1
  -6   5  -8 34.4042  6.3505   2
   6  -5   8 43.9477  4.9684   1
   7  -5   8 32.6183  3.8483   1
   6   4  -8 2.66334 2.31945   2
   5   4  -8 6.23344 3.06933   2
  -5  -4   8 4.54859 3.45934   3
   4   4  -8 7.97775 3.29523   2
  -4  -4   8 7.24915 3.77996   3
   3   4  -8 14.5633  3.4545   2
  -3  -4   8 13.8455  4.3213   3
   2   4  -8 89.6133  6.1934   2
  -2  -4   8 93.7650  7.8916   3
   1   4  -8 108.671   6.531   2
  -1  -4   8 96.8367  7.8327   3
   0   4  -8 6.29329 2.58686   2
   0  -4   8 5.63258 3.62175   3
  -1   4  -8 46.8154  5.1025   2
   1  -4   8 37.3738  5.3366   3
  -2   4  -8 28.1691  4.7642   2
   2  -4   8 33.5630  5.2743   3
   2  -4   8 33.9276  2.8148   1
  -3   4  -8 3.09094 3.25603   2
   3  -4   8 4.71144 2.54911   3
  -4   4  -8 7.79461 3.62837   2
   4  -4   8 7.49698 2.48227   1
  -5   4  -8 7.81202 3.54918   2
   5  -4   8 3.62090 2.11322   1
  -6   4  -8 55.6755  6.7912   2
   6  -4   8 71.8382  6.4290   1
   6   3  -8 11.2531  3.2682   2
   5   3  -8 41.4526  4.9149   2
  -5  -3   8 39.7372  5.7215   3
   4   3  -8 16.3912  3.6854   2
  -4  -3   8 9.25194 4.16566   3
   3   3  -8 116.382   7.157   2
  -3  -3   8 103.239   8.509   3
   2   3  -8 2.34379 2.12527   2
  -2  -3   8 1.50280 3.60789   3
   1   3  -8 140.368   7.392   2
  -1  -3   8 132.323   9.248   3
   0   3  -8 0.66378 2.03122   2
   0  -3   8 -3.2688  3.5027   3
  -1   3  -8 1.37646 2.34307   2
   1  -3   8 1.03000 3.16727   3
  -2   3  -8 37.5194  5.3657   2
   2  -3   8 36.1172  5.4184   3
   2  -3   8 37.0391  3.1771   1
  -3   3  -8 144.843   9.155   2
   3  -3   8 143.405   7.863   1
   3  -3   8 139.735   8.490   3
  -4   3  -8 6.89810 3.52196   2
   4  -3   8 8.42910 2.48323   1
  -5   3  -8 7.47085 3.43370   2
   5  -3   8 10.0198  2.5075   1
  -6   3  -8 7.40989 3.45801   2
   6  -3   8 0.90555 2.08981   1
  -7   3  -8 5.96303 3.99332   2
   7  -3   8 9.08757 2.60546   1
  -8  -2   8 25.9308  2.7256   2
   6   2  -8 20.6278  4.1627   2
   5   2  -8 72.2611  6.0658   2
  -5  -2   8 59.9742  6.4678   3
   4   2  -8 65.2314  5.5478   2
  -4  -2   8 59.1879  6.4365   3
   3   2  -8 182.334   9.271   2
  -3  -2   8 176.057  11.208   3
   2   2  -8 128.413   7.091   2
  -2  -2   8 131.420   9.300   3
   1   2  -8 269.029  11.798   2
  -1  -2   8 291.438  14.364   3
   0   2  -8 1.32723 2.02935   2
   0  -2   8 -2.2690  3.3655   3
  -1   2  -8 15.4415  3.4922   2
  -1   2  -8 16.9687  1.9875   4
   1  -2   8 17.1029  1.5168   1
   1  -2   8 19.5820  4.6629   3
  -2   2  -8 220.513  11.273   4
  -2   2  -8 219.761  11.210   2
   2  -2   8 216.371   9.779   1
   2  -2   8 197.854  11.392   3
  -3   2  -8 109.909   7.915   4
  -3   2  -8 112.555   7.968   2
   3  -2   8 97.9719  6.5531   3
   3  -2   8 105.641   6.813   1
  -4   2  -8 19.7415  4.8324   2
   4  -2   8 11.9624  3.1809   1
  -5   2  -8 53.0118  6.1925   2
   5  -2   8 62.9004  5.8010   1
  -6   2  -8 3.69422 2.91503   2
   6  -2   8 3.80387 2.18510   1
  -7   2  -8 1.48362 3.21333   2
  -8  -1   8 28.1367  2.7467   2
   6   1  -8 14.6941  3.5207   2
   5   1  -8 3.24498 2.61368   2
  -5  -1   8 2.12253 3.11821   3
   4   1  -8 3.76661 1.15137   1
   4   1  -8 4.58569 2.53149   2
  -4  -1   8 0.49024 3.18204   3
   3   1  -8 119.826   5.334   1
   3   1  -8 114.462   6.829   2
  -3  -1   8 104.548   8.337   3
   2   1  -8 2.39382 2.01333   2
  -2  -1   8 3.37943 4.01661   3
   1   1  -8 18.3406  2.9570   2
  -1  -1   8 21.0322  4.5476   3
   0   1  -8 18.7965  3.1562   2
   0  -1   8 16.4135  4.3206   3
  -1   1  -8 133.072   7.642   2
   1  -1   8 132.240   6.207   1
   1  -1   8 130.867   8.577   3
  -2   1  -8 648.091  25.327   2
  -2   1  -8 646.041  28.382   4
   2  -1   8 676.215  25.004   1
   2  -1   8 642.933  26.736   3
  -3   1  -8 86.9710  6.7819   4
  -3   1  -8 97.2441  7.3292   2
   3  -1   8 101.841   6.597   1
  -4   1  -8 0.96481 2.17410   4
  -4   1  -8 2.32231 3.16970   2
   4  -1   8 -0.7936  1.7077   1
  -5   1  -8 3.76493 2.52465   2
   5  -1   8 2.64841 2.24750   1
  -6   1  -8 4.86532 3.22667   2
   6  -1   8 3.85126 2.26419   1
  -7   0   8 5.10644 2.46962   2
   6   0  -8 0.92325 1.69834   2
   6   0  -8 -1.7856  1.1823   1
   5   0  -8 114.780   6.577   1
   5   0  -8 117.601   7.333   2
  -5   0   8 112.027   8.197   3
   4   0  -8 432.575  17.684   2
   4   0  -8 446.971  17.053   1
  -4   0   8 430.135  20.098   3
   3   0  -8 67.4010  3.9269   1
   3   0  -8 61.0749  4.6437   2
  -3   0   8 59.5390  6.5213   3
   2   0  -8 3.38262 1.86327   2
   2   0  -8 4.05443 1.16553   1
  -2   0   8 0.80821 3.42005   3
   1   0  -8 -0.0071  0.9449   1
   1   0  -8 1.56262 1.58419   2
  -1   0   8 1.67178 3.24538   3
   0   0  -8 45.1131  4.0304   2
   0   0   8 44.7164  5.5946   3
  -1   0  -8 31.4571  4.1754   2
   1   0   8 26.0646  4.6293   3
   1   0   8 27.7356  1.9936   1
  -2   0  -8 165.408   9.169   2
  -2   0  -8 173.270   9.650   4
   2   0   8 170.096   9.587   3
   2   0   8 166.490   8.705   1
  -3   0  -8 45.6695  5.1540   2
  -3   0  -8 44.7593  4.3650   4
   3   0   8 36.0388  4.2612   1
  -4   0  -8 36.6802  5.0128   4
  -4   0  -8 37.8849  5.0884   2
   4   0   8 41.5473  5.9674   1
  -5   0  -8 5.86857 3.14013   4
  -5   0  -8 9.82742 2.96599   2
   5   0   8 4.73697 2.26147   1
  -6   0  -8 2.75016 2.85603   2
   6   0   8 3.77739 2.25557   1
  -8   1   8 24.5049  2.0839   2
   7  -1  -8 -1.5572  1.3285   1
  -7   1   8 1.06804 1.69673   2
   6  -1  -8 24.3443  3.8100   1
   5  -1  -8 83.1245  5.6891   2
   5  -1  -8 83.9946  5.6621   1
  -5   1   8 83.1152  6.9059   3
   4  -1  -8 2.40687 1.56631   2
   4  -1  -8 -1.8655  1.3703   1
  -4   1   8 -2.5191  2.4783   3
   3  -1  -8 71.5830  4.5208   2
   3  -1  -8 68.2773  4.2839   1
  -3   1   8 63.5189  6.4542   3
   2  -1  -8 77.4611  4.3558   1
   2  -1  -8 76.1655  4.4908   2
  -2   1   8 76.1060  6.8981   3
   1  -1  -8 89.5605  4.9104   2
   1  -1  -8 85.0402  4.8255   1
  -1   1   8 100.632   7.469   3
   0  -1  -8 46.7447  3.7378   2
   0  -1  -8 43.5236  3.6680   1
   0   1   8 43.4528  5.4506   3
  -1  -1  -8 137.785   7.266   2
   1   1   8 142.051   6.792   1
   1   1   8 129.275   8.443   3
  -2  -1  -8 12.6071  3.3438   2
   2   1   8 10.2864  3.0386   3
   2   1   8 17.4691  3.2469   1
  -3  -1  -8 34.1767  4.4109   2
  -3  -1  -8 40.7486  4.0416   4
   3   1   8 29.2559  4.3126   1
  -4  -1  -8 52.6385  5.0962   2
  -4  -1  -8 49.9721  5.3937   4
   4   1   8 41.8705  5.0698   1
  -5  -1  -8 21.0766  4.6953   4
  -5  -1  -8 25.2218  4.5333   2
   5   1   8 15.6957  3.5503   1
  -6  -1  -8 21.1956  4.8294   4
  -6  -1  -8 29.0110  6.0723   2
   6   1   8 19.9185  3.9901   1
   7  -2  -8 15.3633  3.4803   1
  -7   2   8 24.2250  2.8329   2
   6  -2  -8 104.904   6.854   1
   5  -2  -8 147.905   8.422   1
   5  -2  -8 170.241   8.475   2
  -5   2   8 161.093   9.936   3
   4  -2  -8 29.0906  2.9742   2
   4  -2  -8 26.2144  3.4063   1
  -4   2   8 25.4468  4.8699   3
   3  -2  -8 13.8190  2.6273   1
   3  -2  -8 12.0851  2.1974   2
  -3   2   8 9.99166 4.01287   3
   2  -2  -8 5.15357 1.86658   1
   2  -2  -8 9.02561 1.67958   2
  -2   2   8 5.87273 3.45294   3
   1  -2  -8 2.09219 1.62917   1
   1  -2  -8 2.65390 1.25093   2
  -1   2   8 1.49375 3.07122   3
   0  -2  -8 72.3682  4.3315   2
   0  -2  -8 67.2874  4.7791   1
   0   2   8 64.8222  6.2762   3
  -1  -2  -8 22.9475  3.0691   2
   1   2   8 21.3977  4.2302   3
   1   2   8 32.2251  2.8836   1
  -2  -2  -8 121.048   7.101   2
   2   2   8 112.271   7.501   3
   2   2   8 125.126   7.018   1
  -3  -2  -8 19.0065  2.9904   4
  -3  -2  -8 16.9043  3.4432   2
   3   2   8 13.8678  3.6566   1
  -4  -2  -8 63.8700  5.4025   2
  -4  -2  -8 64.7684  5.8020   4
   4   2   8 45.0572  5.2346   1
  -5  -2  -8 0.41957 1.88761   2
  -5  -2  -8 1.44580 2.17861   4
   5   2   8 -2.6324  1.3099   1
  -6  -2  -8 2.21102 2.91166   2
  -6  -2  -8 0.58131 1.68617   4
   6   2   8 -0.8234  1.4945   1
   8  -3  -8 -0.9990  1.7460   1
  -7   3   8 32.0492  1.8324   2
   6  -3  -8 5.53175 2.36179   1
   5  -3  -8 78.3768  5.6647   1
  -5   3   8 83.0829  6.6275   3
   4  -3  -8 37.8125  2.9385   2
   4  -3  -8 35.6051  3.7217   1
  -4   3   8 34.3245  5.0056   3
   3  -3  -8 156.871   6.724   2
   3  -3  -8 146.278   7.547   1
  -3   3   8 139.513   9.597   3
   2  -3  -8 25.0194  1.9465   2
   2  -3  -8 21.9298  2.9900   1
  -2   3   8 22.5281  4.6752   3
   1  -3  -8 122.648   5.307   2
   1  -3  -8 120.812   6.516   1
  -1   3   8 109.015   8.244   3
   0  -3  -8 15.3530  3.0869   1
   0  -3  -8 15.6387  2.2606   2
   0   3   8 12.8663  3.7306   3
  -1  -3  -8 5.47151 1.95740   2
   1   3   8 3.11256 2.12559   1
   1   3   8 -0.7354  2.4631   3
  -2  -3  -8 2.29928 1.72637   2
   2   3   8 3.17165 2.26618   3
  -3  -3  -8 99.4364  6.5213   2
   3   3   8 95.2186  6.6445   1
  -4  -3  -8 2.24618 0.81213   4
  -4  -3  -8 5.06937 2.01196   2
   4   3   8 -0.7712  1.0699   1
  -5  -3  -8 3.71530 2.49331   2
  -5  -3  -8 1.31310 1.46989   4
   5   3   8 -0.9721  1.5774   1
  -6  -3  -8 3.47858 2.57056   2
   6   3   8 0.96789 1.43731   1
   8  -4  -8 -1.7215  1.4949   1
   7  -4  -8 7.66280 2.69593   1
   6  -4  -8 48.6547  4.7303   1
   5  -4  -8 5.20662 2.37413   1
  -5   4   8 8.29136 2.79259   3
   4  -4  -8 0.87397 1.70001   1
  -4   4   8 1.76853 2.91173   3
   3  -4  -8 22.9778  3.1921   1
  -3   4   8 23.3565  4.8027   3
   2  -4  -8 170.050   8.217   1
  -2   4   8 161.354  10.286   3
   1  -4  -8 23.4311  3.6059   1
  -1   4   8 23.0069  4.7369   3
   0  -4  -8 95.8074  6.3820   1
   0   4   8 93.6944  7.4325   3
   1   4   8 122.282   8.242   3
   2   4   8 49.7515  4.1323   1
   2   4   8 44.1318  4.9229   3
   3   4   8 29.0726  2.3024   1
  -4  -4  -8 4.72616 1.26053   4
   4   4   8 3.88652 0.96038   1
  -5  -4  -8 0.82751 1.18681   4
   5   4   8 0.57638 1.20216   1
   8  -5  -8 1.78022 1.78532   1
   7  -5  -8 3.87725 2.35563   1
   6  -5  -8 -0.1702  1.9404   1
  -6   5   8 2.78616 1.99065   3
   5  -5  -8 6.95915 2.28776   1
  -5   5   8 4.58898 2.46295   3
   4  -5  -8 11.0258  2.7641   1
  -4   5   8 7.81018 3.32110   3
   3  -5  -8 107.394   6.443   1
  -3   5   8 107.520   8.374   3
   2  -5  -8 0.84186 1.87490   1
  -2   5   8 1.92943 3.07108   3
   1  -5  -8 5.78870 2.52487   1
  -1   5   8 1.57843 2.91952   3
   0  -5  -8 5.62114 2.75031   1
   0   5   8 6.65474 2.97917   3
  -1  -5  -8 44.0267  4.8142   1
   1   5   8 49.1656  5.3127   3
   2   5   8 18.4929  3.5067   3
   2   5   8 25.6916  4.7307   1
  -4  -5  -8 14.4571  2.0437   4
  -5  -5  -8 75.2284  6.9765   4
   5   5   8 93.6677  6.1400   1
   8  -6  -8 1.86244 1.59413   1
   7  -6  -8 0.81182 2.36749   1
   6  -6  -8 2.96913 2.23265   1
  -6   6   8 -0.4738  2.0416   3
   5  -6  -8 10.9840  2.9684   1
  -5   6   8 10.1716  2.7995   3
   4  -6  -8 11.2137  3.0674   1
  -4   6   8 6.15497 3.04241   3
   3  -6  -8 2.26637 2.21134   1
  -3   6   8 2.73459 2.93170   3
   2  -6  -8 44.8417  4.3074   1
  -2   6   8 43.5038  5.6080   3
   1  -6  -8 155.928   8.612   1
  -1   6   8 150.493   9.980   3
   0  -6  -8 36.8325  4.2784   1
   0   6   8 30.9580  4.7827   3
  -1  -6  -8 1.22542 2.13410   1
   1   6   8 1.41222 2.03295   3
   2   6   8 3.07465 1.78445   3
   3   6   8 3.67313 1.08193   1
   4   6   8 1.85898 1.11331   1
   7  -7  -8 1.28805 2.41677   1
   6  -7  -8 3.67385 1.98518   1
  -6   7   8 7.20853 2.73168   3
   5  -7  -8 30.5349  4.7139   1
  -5   7   8 33.1961  4.5071   3
   4  -7  -8 29.7450  4.5045   1
  -4   7   8 26.8700  4.9313   3
   3  -7  -8 17.9788  3.3855   1
  -3   7   8 13.2265  3.8746   3
   2  -7  -8 245.867  11.377   1
  -2   7   8 209.982  13.113   3
   1  -7  -8 6.66979 2.69383   1
  -1   7   8 5.36034 3.10651   3
   0  -7  -8 2.41002 2.31709   1
   0   7   8 0.64464 2.29506   3
  -1  -7  -8 2.90847 2.79453   1
   1   7   8 2.19305 1.93707   3
  -2  -7  -8 3.86783 2.69523   1
   2   7   8 0.69163 1.53880   3
   4   7   8 19.5426  3.1730   1
   7  -8  -8 23.3495  4.2028   1
   6  -8  -8 1.89414 2.01254   1
  -6   8   8 0.82013 2.24692   3
   5  -8  -8 19.6269  3.6490   1
  -5   8   8 9.00769 3.29223   3
   4  -8  -8 4.16050 2.21432   1
  -4   8   8 0.42410 2.19842   3
   3  -8  -8 0.85056 2.01528   1
  -3   8   8 1.21398 2.20310   3
   2  -8  -8 7.07453 2.76032   1
  -2   8   8 2.43386 2.61532   3
   1  -8  -8 16.7230  3.8124   1
  -1   8   8 10.4364  3.8115   3
   0  -8  -8 15.2744  3.6043   1
   0   8   8 11.3160  3.6152   3
  -1  -8  -8 6.71815 3.30056   1
   1   8   8 3.73789 2.56559   3
  -2  -8  -8 35.9999  4.8040   1
   2   8   8 31.9409  3.7561   3
  -3  -8  -8 4.94405 2.95825   1
   6  -9  -8 11.5306  3.2297   1
  -6   9   8 9.90871 3.04438   3
   5  -9  -8 10.2592  2.7644   1
  -5   9   8 5.28667 2.95771   3
   4  -9  -8 111.894   7.488   1
  -4   9   8 97.6408  8.4002   3
   3  -9  -8 30.9406  3.9480   1
  -3   9   8 23.9667  4.7265   3
   2  -9  -8 3.47810 2.24069   1
  -2   9   8 3.32440 2.52470   3
   1  -9  -8 2.93646 2.30999   1
  -1   9   8 -2.7653  2.0781   3
   0  -9  -8 3.06377 2.20260   1
   0   9   8 1.15085 2.40409   3
  -1  -9  -8 3.11807 2.21610   1
   1   9   8 -0.5550  2.1351   3
  -2  -9  -8 22.8822  5.0901   1
  -3  -9  -8 7.44552 3.70576   1
   6 -10  -8 1.71342 1.91251   1
  -6  10   8 4.32347 2.91009   3
   5 -10  -8 8.11034 2.71144   1
  -5  10   8 3.65707 3.51322   3
   4 -10  -8 2.66521 1.91507   1
  -4  10   8 1.56866 2.71499   3
   3 -10  -8 23.8916  4.1150   1
  -3  10   8 17.7942  4.3760   3
   2 -10  -8 3.62793 2.10232   1
  -2  10   8 2.48783 2.59276   3
   1 -10  -8 24.4584  4.4492   1
  -1  10   8 17.6999  4.3423   3
   0 -10  -8 24.3315  4.7442   1
   0  10   8 14.9743  4.0858   3
  -1 -10  -8 2.24797 2.26931   1
   1  10   8 1.98336 1.97427   3
  -2 -10  -8 38.9276  5.6098   1
   5 -11  -8 37.9628  4.1569   1
  -5  11   8 26.7636  5.9238   3
   4 -11  -8 24.1395  4.1861   1
  -4  11   8 20.4021  5.3747   3
   3 -11  -8 17.7456  3.8405   1
  -3  11   8 14.3208  4.7088   3
   2 -11  -8 7.35964 2.90778   1
  -2  11   8 2.91324 2.74753   3
   1 -11  -8 5.34374 2.81915   1
  -1  11   8 4.49724 3.01293   3
   0 -11  -8 8.95555 3.56562   1
   0  11   8 3.32072 2.82987   3
   1  11   8 13.4638  3.1204   3
  -3  12   8 3.15692 3.49120   3
   2 -12  -8 1.30766 2.69551   1
  -2  12   8 3.91155 2.54448   3
  -1  12   8 4.06470 2.18232   3
   1 -13   9 0.61608 2.80697   3
   2 -13   9 -4.1603  2.2978   3
   2  12  -9 -1.2793  1.6635   2
  -2 -12   9 6.59940 4.23128   3
   1  12  -9 1.35572 1.35228   2
  -1 -12   9 1.12846 4.12529   3
   0  12  -9 3.10263 1.73350   2
   0 -12   9 5.27399 3.19162   3
  -1  12  -9 3.48672 1.85064   2
   1 -12   9 3.89755 3.21822   3
  -2  12  -9 -0.2946  1.4777   2
   2 -12   9 -0.7777  2.7142   3
  -3  12  -9 6.70383 2.05822   2
   3 -12   9 9.29118 2.59881   3
  -4  12  -9 -2.4283  1.4310   2
  -4 -11   9 19.0315  4.0188   3
   3  11  -9 61.8967  5.5668   2
  -3 -11   9 59.9199  7.5944   3
  -2 -11   9 4.15169 3.86721   3
   1  11  -9 6.05368 2.31298   2
  -1 -11   9 4.15483 3.98777   3
   0  11  -9 7.29817 2.45844   2
   0 -11   9 7.79182 3.74487   3
  -1  11  -9 2.34354 1.85599   2
   1 -11   9 3.32077 2.60252   3
  -2  11  -9 -0.7846  1.7550   2
   2 -11   9 3.45210 3.16618   3
  -3  11  -9 -0.6526  1.8035   2
   3 -11   9 8.64185 2.42417   3
  -4  11  -9 -1.0887  1.6813   2
   4  10  -9 1.49271 2.12985   2
  -4 -10   9 7.63049 3.74846   3
   3  10  -9 9.98499 3.52492   2
  -3 -10   9 6.68668 3.86586   3
   2  10  -9 1.11373 1.76254   2
  -2 -10   9 3.68826 3.22713   3
   1  10  -9 35.5562  4.1698   2
  -1 -10   9 33.4528  6.0507   3
   0  10  -9 1.21966 1.58074   2
   0 -10   9 1.81577 2.95664   3
  -1  10  -9 29.6548  3.7958   2
   1 -10   9 28.9515  5.8594   3
  -2  10  -9 6.33619 2.53860   2
   2 -10   9 15.6682  4.1510   3
   3 -10   9 12.3941  3.5606   3
  -4  10  -9 4.86648 3.10432   2
  -5  10  -9 -0.7331  2.2669   2
   5   9  -9 30.6632  5.3431   2
   4   9  -9 1.24757 2.02353   2
  -4  -9   9 5.24609 3.46874   3
   3   9  -9 25.8576  4.5874   2
  -3  -9   9 29.0099  5.3944   3
   2   9  -9 6.57402 2.76041   2
  -2  -9   9 7.95848 3.60004   3
   1   9  -9 2.74603 1.97766   2
  -1  -9   9 0.61654 2.91263   3
   0   9  -9 13.5005  3.3672   2
   0  -9   9 16.2056  4.6528   3
  -1   9  -9 6.51137 2.56750   2
   1  -9   9 10.2324  3.8567   3
  -2   9  -9 11.6575  2.9982   2
   2  -9   9 13.2486  3.9789   3
  -3   9  -9 2.76289 2.24534   2
   3  -9   9 4.06661 2.43987   3
  -4   9  -9 9.37169 3.34814   2
  -5   9  -9 8.54478 3.89711   2
   5   8  -9 5.10750 2.74986   2
   4   8  -9 12.9769  3.6394   2
  -4  -8   9 16.3444  4.3230   3
   3   8  -9 31.3904  5.0227   2
  -3  -8   9 28.3928  5.1151   3
   2   8  -9 14.6770  3.3581   2
  -2  -8   9 12.3356  3.6659   3
   1   8  -9 30.4991  4.6508   2
  -1  -8   9 24.6913  5.3089   3
   0   8  -9 57.6666  5.0635   2
   0  -8   9 49.0452  6.2895   3
  -1   8  -9 9.02500 3.05077   2
   1  -8   9 11.7953  3.7644   3
  -2   8  -9 0.10281 2.06494   2
   2  -8   9 5.13719 2.62502   3
  -3   8  -9 1.84887 2.82067   2
   3  -8   9 8.14439 2.63483   3
  -4   8  -9 22.0642  4.4948   2
  -5   8  -9 -2.3330  3.0546   2
  -6   8  -9 10.1970  2.9930   2
   6   7  -9 15.7673  4.1663   2
   5   7  -9 2.82872 2.34843   2
  -5  -7   9 5.63052 2.81219   3
   4   7  -9 4.71843 2.71326   2
  -4  -7   9 7.57786 3.23242   3
   3   7  -9 8.63236 3.10987   2
  -3  -7   9 5.55412 3.09138   3
   2   7  -9 1.52778 1.92918   2
  -2  -7   9 0.13823 2.99238   3
   1   7  -9 73.4233  5.6116   2
  -1  -7   9 66.7435  6.8249   3
   0   7  -9 35.6466  4.3550   2
   0  -7   9 36.1381  5.4337   3
  -1   7  -9 6.53016 2.76212   2
   1  -7   9 3.86674 2.90478   3
  -2   7  -9 -0.5596  1.9354   2
   2  -7   9 1.26170 2.46533   3
  -3   7  -9 3.89890 2.96932   2
   3  -7   9 10.8884  2.9150   3
  -4   7  -9 2.00682 3.06123   2
  -5   7  -9 -3.0170  2.5291   2
  -6   7  -9 4.48377 3.94024   2
   6   6  -9 0.71116 2.47536   2
   5   6  -9 24.5259  4.7147   2
  -5  -6   9 18.0655  4.8474   3
   4   6  -9 23.2625  4.4176   2
  -4  -6   9 19.5156  4.6007   3
   3   6  -9 7.01738 2.66202   2
  -3  -6   9 13.4617  4.4535   3
   2   6  -9 8.95870 2.78118   2
  -2  -6   9 10.1769  4.2307   3
   1   6  -9 0.76317 1.78188   2
  -1  -6   9 1.99088 3.38111   3
   0   6  -9 3.28800 2.12932   2
   0  -6   9 5.12707 3.70533   3
  -1   6  -9 7.18432 2.78678   2
   1  -6   9 5.88351 3.55764   3
  -2   6  -9 1.94787 2.69991   2
   2  -6   9 2.41648 3.06507   3
  -3   6  -9 29.1166  5.1689   2
   3  -6   9 30.1791  4.4971   3
  -4   6  -9 0.70786 3.23767   2
  -5   6  -9 3.86522 3.27368   2
  -6   6  -9 1.44092 3.11845   2
   7   5  -9 7.93173 4.04434   2
   6   5  -9 1.92450 1.99308   2
   5   5  -9 4.40978 2.21570   2
  -5  -5   9 5.58722 3.53828   3
   4   5  -9 21.1516  4.1846   2
  -4  -5   9 21.5598  4.8622   3
   3   5  -9 63.5250  5.4705   2
  -3  -5   9 62.6533  6.9994   3
   2   5  -9 78.7739  5.8213   2
  -2  -5   9 77.4369  7.4060   3
   1   5  -9 59.7680  5.0265   2
  -1  -5   9 51.6782  6.2477   3
   0   5  -9 44.6297  4.6106   2
   0  -5   9 40.3100  5.7672   3
  -1   5  -9 12.6299  3.4603   2
   1  -5   9 7.01838 3.51807   3
  -2   5  -9 0.10000 2.67512   2
   2  -5   9 -1.8895  2.7902   3
  -3   5  -9 6.76895 3.55413   2
   3  -5   9 8.97477 3.36990   3
  -4   5  -9 1.68417 3.27587   2
  -5   5  -9 21.9883  5.3159   2
  -6   5  -9 2.51242 3.12601   2
   7   4  -9 3.77706 3.37841   2
   6   4  -9 6.33057 2.64797   2
   5   4  -9 24.2916  4.6043   2
  -5  -4   9 16.6426  4.8739   3
   4   4  -9 -0.7052  1.9639   2
  -4  -4   9 -2.2892  3.0940   3
   3   4  -9 -0.1076  2.0688   2
  -3  -4   9 3.42952 4.01951   3
   2   4  -9 8.45136 2.72245   2
  -2  -4   9 12.7147  4.4711   3
   1   4  -9 57.0240  4.9837   2
  -1  -4   9 60.4913  6.8414   3
   0   4  -9 1.56274 2.21904   2
   0  -4   9 -2.4860  3.5880   3
  -1   4  -9 61.5797  5.6884   2
   1  -4   9 57.0819  6.5791   3
  -2   4  -9 18.1128  4.2094   2
   2  -4   9 22.4827  4.8985   3
  -3   4  -9 37.8883  6.0789   2
   3  -4   9 35.6328  4.6806   3
   3  -4   9 44.8290  3.3427   1
  -4   4  -9 9.63480 3.83698   2
   4  -4   9 7.68789 2.15065   1
  -5   4  -9 9.50535 3.67140   2
   5  -4   9 12.1073  2.9615   1
  -6   4  -9 -2.5698  3.1798   2
   6  -4   9 7.26607 2.27563   1
   7   3  -9 -0.3423  2.8106   2
   6   3  -9 5.39287 2.75184   2
   5   3  -9 0.33024 2.22558   2
  -5  -3   9 -2.8919  3.1499   3
   4   3  -9 72.1722  5.8499   2
  -4  -3   9 65.2729  7.2664   3
   3   3  -9 48.3568  4.6694   2
  -3  -3   9 48.9520  6.5150   3
   2   3  -9 4.46186 2.37340   2
  -2  -3   9 0.34816 4.08179   3
   1   3  -9 12.5971  3.0022   2
  -1  -3   9 9.54519 4.53986   3
   0   3  -9 110.988   6.859   2
   0  -3   9 101.647   8.434   3
  -1   3  -9 6.13329 3.06858   2
   1  -3   9 6.13486 4.17842   3
  -2   3  -9 185.240  10.407   2
   2  -3   9 168.401  11.040   3
   2  -3   9 200.791   8.688   1
  -3   3  -9 55.7522  6.2101   2
   3  -3   9 50.7765  4.4574   1
  -4   3  -9 40.6532  6.3703   2
   4  -3   9 39.1855  4.1161   1
  -5   3  -9 1.29283 2.95005   2
   5  -3   9 -1.0112  1.6551   1
  -6   3  -9 32.2865  6.2200   2
   6  -3   9 38.3076  4.4906   1
   6   2  -9 2.72519 1.69021   2
   5   2  -9 -1.6818  1.5617   2
  -5  -2   9 -2.7499  2.7914   3
   4   2  -9 72.3473  5.7516   2
  -4  -2   9 57.9885  6.7043   3
   3   2  -9 364.440  15.028   2
  -3  -2   9 342.870  17.769   3
   2   2  -9 4.70283 2.36042   2
  -2  -2   9 -0.4138  4.4599   3
   1   2  -9 92.6810  5.9096   2
  -1  -2   9 100.563   8.541   3
   0   2  -9 21.7052  3.5507   2
   0  -2   9 21.8695  5.2618   3
  -1   2  -9 54.2842  3.7091   4
  -1   2  -9 53.6284  5.3534   2
   1  -2   9 51.5995  2.8358   1
   1  -2   9 50.1544  6.6350   3
  -2   2  -9 81.3087  6.7450   2
  -2   2  -9 93.6729  6.1417   4
   2  -2   9 75.5663  7.0081   3
   2  -2   9 90.3260  5.2770   1
  -3   2  -9 19.2575  3.9382   4
  -3   2  -9 22.6455  4.8646   2
   3  -2   9 19.2349  3.3450   1
  -4   2  -9 3.76288 3.26250   2
   4  -2   9 3.40793 1.93117   1
  -5   2  -9 57.9466  6.3954   2
   5  -2   9 62.1742  5.5485   1
  -6   2  -9 -0.1697  3.6416   2
   6  -2   9 5.11256 2.08225   1
  -8  -1   9 21.8946  2.5583   2
   6   1  -9 6.41156 2.11556   2
   5   1  -9 116.224   7.385   2
  -5  -1   9 102.335   8.548   3
   4   1  -9 32.4123  4.0484   2
  -4  -1   9 33.0825  5.8210   3
   3   1  -9 -0.1510  2.0746   2
  -3  -1   9 1.57877 3.98342   3
   2   1  -9 44.2193  4.1416   2
   2   1  -9 49.8724  2.4999   1
  -2  -1   9 44.6309  6.5467   3
   1   1  -9 90.6649  5.6109   2
   1   1  -9 94.0576  4.0995   1
  -1  -1   9 86.6013  7.8198   3
   0   1  -9 54.1146  4.5312   2
   0   1  -9 57.5970  3.2700   1
   0  -1   9 44.5574  6.3368   3
  -1   1  -9 0.32123 2.37159   2
   1  -1   9 1.00948 3.52844   3
  -2   1  -9 296.994  13.880   2
  -2   1  -9 297.321  14.561   4
   2  -1   9 303.056  12.980   1
   2  -1   9 281.596  14.750   3
  -3   1  -9 10.5453  2.9402   4
  -3   1  -9 10.1115  3.7681   2
   3  -1   9 8.08517 2.37626   1
  -4   1  -9 -0.9536  1.2062   4
  -4   1  -9 -0.3476  2.7075   2
   4  -1   9 2.09770 1.80711   1
  -5   1  -9 52.0474  5.7923   2
   5  -1   9 49.5323  5.0186   1
  -6   1  -9 37.2450  6.6464   2
   6  -1   9 36.7662  4.2492   1
   6   0  -9 13.7270  3.1336   2
   5   0  -9 9.46133 2.54857   2
  -5   0   9 5.26052 2.93302   3
   4   0  -9 241.700  10.330   1
   4   0  -9 253.999  11.401   2
  -4   0   9 237.946  13.807   3
   3   0  -9 29.5697  2.3190   1
   3   0  -9 23.8439  3.1909   2
  -3   0   9 25.8414  5.6101   3
   2   0  -9 96.1748  4.4276   1
   2   0  -9 85.8487  5.2603   2
  -2   0   9 82.1708  7.7869   3
   1   0  -9 73.8816  4.6943   2
   1   0  -9 73.9157  3.8657   1
  -1   0   9 65.0657  6.9948   3
   0   0  -9 6.75676 2.22814   2
   0   0  -9 5.35544 1.60814   1
   0   0   9 3.64991 3.69095   3
  -1   0  -9 -0.3259  2.0460   2
   1   0   9 3.89353 3.28773   3
  -2   0  -9 296.150  14.770   4
  -2   0  -9 301.230  13.635   2
   2   0   9 292.216  13.015   1
   2   0   9 276.454  14.229   3
  -3   0  -9 52.8160  5.4972   2
   3   0   9 51.7726  4.6056   1
  -4   0  -9 67.6509  6.4112   4
  -4   0  -9 69.9216  6.2616   2
   4   0   9 65.6942  5.6488   1
  -5   0  -9 1.65825 1.86576   4
  -5   0  -9 1.13599 2.41865   2
   5   0   9 0.44242 1.35058   1
  -6   0  -9 8.28886 4.51685   2
   6   0   9 7.15293 1.61310   1
  -8   1   9 39.2613  2.4590   2
  -7   1   9 2.87237 1.70329   2
   6  -1  -9 2.90668 1.12368   1
   6  -1  -9 1.28632 1.79574   2
   5  -1  -9 0.27461 1.47132   1
   5  -1  -9 1.75481 1.49319   2
  -5   1   9 1.29659 2.62042   3
   4  -1  -9 60.2134  4.2611   1
   4  -1  -9 59.9583  4.4602   2
  -4   1   9 54.8953  6.3263   3
   3  -1  -9 4.14215 1.55478   1
   3  -1  -9 3.63522 1.63592   2
  -3   1   9 8.17425 3.89390   3
   2  -1  -9 53.7349  3.5214   1
   2  -1  -9 55.9558  3.7959   2
  -2   1   9 45.0317  6.3685   3
   1  -1  -9 110.847   5.598   1
   1  -1  -9 108.144   5.658   2
  -1   1   9 112.131   8.511   3
   0  -1  -9 80.6067  4.8848   2
   0  -1  -9 81.3035  4.9403   1
   0   1   9 68.4839  6.9357   3
  -1  -1  -9 92.4314  5.9481   2
   1   1   9 93.5384  7.4788   3
   1   1   9 98.0524  5.3214   1
  -2  -1  -9 70.6940  5.6351   2
   2   1   9 64.6250  5.9982   3
   2   1   9 81.6616  4.8658   1
  -3  -1  -9 6.06242 2.73141   2
   3   1   9 4.68521 2.00000   1
  -4  -1  -9 16.8814  3.7715   2
   4   1   9 13.4117  3.2653   1
  -5  -1  -9 10.4208  3.1062   4
  -5  -1  -9 30.4177  5.2545   2
   5   1   9 14.9848  3.1348   1
  -6  -1  -9 7.85840 4.67950   4
  -6  -1  -9 3.00576 3.51769   2
   6   1   9 1.94807 1.59192   1
  -8   2   9 -3.0547  1.4190   2
   6  -2  -9 5.74238 2.06206   1
   5  -2  -9 10.1452  2.4002   2
   5  -2  -9 10.5533  2.3083   1
  -5   2   9 7.56497 2.77578   3
   4  -2  -9 3.42026 1.54256   2
   4  -2  -9 5.24709 2.03439   1
  -4   2   9 2.72674 3.24051   3
   3  -2  -9 51.4876  3.7035   2
   3  -2  -9 51.8084  3.8821   1
  -3   2   9 47.3413  6.0741   3
   2  -2  -9 50.5608  3.4396   2
   2  -2  -9 49.8469  3.7251   1
  -2   2   9 42.9591  6.1977   3
   1  -2  -9 8.27629 2.23629   1
   1  -2  -9 12.1066  2.1841   2
  -1   2   9 8.08905 4.05351   3
   0  -2  -9 75.7653  5.2132   1
   0  -2  -9 78.3400  4.6995   2
   0   2   9 74.1953  6.9359   3
  -1  -2  -9 66.6475  4.7638   2
   1   2   9 65.5285  4.7258   1
   1   2   9 58.2171  5.9152   3
  -2  -2  -9 122.373   7.259   2
   2   2   9 126.413   6.753   1
   2   2   9 112.587   7.908   3
  -3  -2  -9 53.4822  4.9780   4
  -3  -2  -9 57.3227  4.9775   2
   3   2   9 39.9952  4.0177   1
  -4  -2  -9 -0.0769  1.0282   4
  -4  -2  -9 6.63011 2.61115   2
   4   2   9 -0.3179  1.2006   1
  -5  -2  -9 5.43058 3.07670   2
  -5  -2  -9 4.37624 1.89907   4
  -6  -2  -9 33.4975  5.7312   2
   6   2   9 31.2377  2.9906   1
   7  -3  -9 39.0745  4.1081   1
   6  -3  -9 6.06420 2.07387   1
  -6   3   9 1.69788 2.10042   3
   5  -3  -9 14.4526  2.8194   1
  -5   3   9 17.9444  3.9052   3
   4  -3  -9 20.6615  3.1852   1
  -4   3   9 14.1972  4.3476   3
   3  -3  -9 93.2750  5.5860   1
  -3   3   9 89.4653  7.7591   3
   2  -3  -9 215.094   9.449   1
  -2   3   9 199.204  12.247   3
   1  -3  -9 3.34123 1.90749   1
   1  -3  -9 3.09611 0.86088   2
  -1   3   9 3.59335 3.43294   3
   0  -3  -9 25.3217  3.3336   1
   0  -3  -9 25.4903  2.2318   2
   0   3   9 27.5913  4.9076   3
  -1  -3  -9 29.9637  2.9001   2
   1   3   9 25.7011  4.6452   3
  -2  -3  -9 24.2097  3.1853   2
   2   3   9 29.7507  2.5674   1
   2   3   9 20.7840  3.8701   3
  -3  -3  -9 32.8629  3.9408   2
   3   3   9 33.3654  2.5539   1
  -4  -3  -9 8.08351 2.82224   2
  -4  -3  -9 3.51763 1.06407   4
   4   3   9 4.04912 1.02793   1
  -5  -3  -9 9.89558 2.80702   2
  -5  -3  -9 9.28325 1.93163   4
   5   3   9 8.33691 1.65920   1
   8  -4  -9 -0.7614  1.4843   1
   7  -4  -9 1.01878 1.84211   1
   6  -4  -9 1.60478 1.91192   1
  -6   4   9 -0.0822  2.0602   3
   5  -4  -9 2.88571 1.88819   1
  -5   4   9 3.14916 2.34629   3
   4  -4  -9 16.4631  3.0831   1
  -4   4   9 19.7993  4.7721   3
   3  -4  -9 151.805   7.612   1
  -3   4   9 135.457   9.912   3
   2  -4  -9 127.950   6.703   1
  -2   4   9 108.496   8.610   3
   1  -4  -9 37.4293  3.7973   1
  -1   4   9 35.4163  5.2859   3
   0  -4  -9 100.270   6.538   1
   0   4   9 100.223   7.864   3
  -1  -4  -9 65.8241  5.4362   1
   1   4   9 53.5590  5.7729   3
   2   4   9 27.2052  3.9029   3
   2   4   9 33.2087  3.4660   1
  -4  -4  -9 13.8574  1.8354   4
   4   4   9 20.9471  1.6081   1
  -5  -4  -9 2.29568 1.13829   4
   5   4   9 3.24453 1.24952   1
   8  -5  -9 -2.2466  1.4358   1
   7  -5  -9 1.03956 2.05830   1
   6  -5  -9 5.75668 2.00855   1
  -6   5   9 5.53435 2.82724   3
   5  -5  -9 4.57725 1.85075   1
  -5   5   9 1.14414 2.06874   3
   4  -5  -9 109.863   6.669   1
  -4   5   9 98.0310  8.1694   3
   3  -5  -9 4.46741 2.09348   1
  -3   5   9 7.82303 3.53925   3
   2  -5  -9 5.12488 2.22631   1
  -2   5   9 2.52555 3.09418   3
   1  -5  -9 160.417   8.489   1
  -1   5   9 143.409  10.058   3
   0  -5  -9 0.12327 2.07469   1
   0   5   9 1.16608 2.52731   3
  -1  -5  -9 -0.3489  2.1876   1
   1   5   9 1.14308 2.07219   3
   2   5   9 2.08968 1.77205   3
   3   5   9 19.0185  1.8031   1
  -4  -5  -9 3.40413 1.10364   4
   5   5   9 4.40419 1.91509   1
   7  -6  -9 26.7198  3.9228   1
   6  -6  -9 22.8231  3.2964   1
  -6   6   9 15.6302  3.7823   3
   5  -6  -9 9.94149 2.66650   1
  -5   6   9 11.2162  3.2836   3
   4  -6  -9 35.9863  3.8535   1
  -4   6   9 29.2894  5.3912   3
   3  -6  -9 67.5804  5.0988   1
  -3   6   9 58.3671  6.4343   3
   2  -6  -9 19.8738  3.6571   1
  -2   6   9 10.2855  4.0167   3
   1  -6  -9 19.9600  3.8199   1
  -1   6   9 13.1474  3.9845   3
   0  -6  -9 40.4626  4.3495   1
   0   6   9 34.8763  4.9774   3
  -1  -6  -9 57.3439  5.5915   1
   1   6   9 70.4754  6.3638   3
  -2  -6  -9 12.9002  3.7669   1
   2   6   9 11.3341  2.7514   3
   3   6   9 -0.5588  1.3497   1
  -4  -6  -9 46.4472  4.5372   4
   4   6   9 49.2672  3.7309   1
   7  -7  -9 2.46013 1.79191   1
   6  -7  -9 24.6667  4.4557   1
  -6   7   9 23.1597  4.7511   3
   5  -7  -9 16.3871  3.1045   1
  -5   7   9 12.7662  3.7116   3
   4  -7  -9 -0.1051  1.8607   1
  -4   7   9 3.37552 2.37726   3
   3  -7  -9 29.4702  3.6830   1
  -3   7   9 24.2243  4.9264   3
   2  -7  -9 51.4196  4.5780   1
  -2   7   9 45.0878  5.8414   3
   1  -7  -9 6.66233 2.74706   1
  -1   7   9 4.80140 2.89075   3
   0  -7  -9 62.0036  5.3978   1
   0   7   9 59.8123  6.3167   3
  -1  -7  -9 1.65553 2.34578   1
   1   7   9 3.06376 2.19751   3
  -2  -7  -9 14.1051  3.7157   1
   2   7   9 5.87553 1.81409   3
   7  -8  -9 10.3776  2.1831   1
   6  -8  -9 7.14466 2.69915   1
  -6   8   9 8.91068 3.60063   3
   5  -8  -9 2.81366 1.74811   1
  -5   8   9 4.76513 2.80989   3
   4  -8  -9 56.7556  5.0712   1
  -4   8   9 50.9098  5.9942   3
   3  -8  -9 0.11718 1.89190   1
  -3   8   9 -0.8031  2.1415   3
   2  -8  -9 23.6349  3.4322   1
  -2   8   9 19.8027  4.6112   3
   1  -8  -9 44.7435  4.7885   1
  -1   8   9 41.3469  5.6285   3
   0  -8  -9 13.1676  3.3939   1
   0   8   9 12.3670  3.4880   3
  -1  -8  -9 1.25685 1.87782   1
   1   8   9 4.66228 2.33613   3
  -2  -8  -9 3.79654 2.51100   1
  -3  -8  -9 54.2527  6.1304   1
   6  -9  -9 6.84426 2.75281   1
  -6   9   9 7.17075 3.38038   3
   5  -9  -9 18.4536  3.5114   1
  -5   9   9 16.3247  4.6464   3
   4  -9  -9 48.5543  4.6585   1
  -4   9   9 50.6450  6.0455   3
   3  -9  -9 18.4977  3.6864   1
  -3   9   9 14.5785  3.8342   3
   2  -9  -9 6.89906 2.45094   1
  -2   9   9 5.01166 2.96568   3
   1  -9  -9 1.85664 2.02587   1
  -1   9   9 -1.7591  2.0335   3
   0  -9  -9 2.36292 1.85255   1
   0   9   9 4.62998 2.42387   3
  -1  -9  -9 29.5004  4.0458   1
   1   9   9 24.1956  4.8219   3
  -2  -9  -9 5.71837 2.50865   1
  -6  10   9 2.86941 2.68895   3
   5 -10  -9 -0.3248  1.7785   1
  -5  10   9 -2.7737  2.9671   3
   4 -10  -9 2.29785 1.93046   1
  -4  10   9 -0.4114  2.7359   3
   3 -10  -9 12.2457  3.1291   1
  -3  10   9 11.0165  3.8264   3
   2 -10  -9 7.70415 2.54828   1
  -2  10   9 8.40053 3.22211   3
   1 -10  -9 8.95823 2.76298   1
  -1  10   9 8.15185 3.28800   3
   0 -10  -9 12.9006  3.5154   1
   0  10   9 5.66803 3.20024   3
  -1 -10  -9 6.63274 3.23196   1
   1  10   9 3.54454 2.13466   3
   4 -11  -9 4.53885 2.05298   1
  -4  11   9 3.79511 3.55230   3
   3 -11  -9 2.81013 1.91462   1
  -3  11   9 0.90041 3.55718   3
   2 -11  -9 -1.3777  1.6178   1
  -2  11   9 -0.8810  2.4447   3
   1 -11  -9 13.6596  3.3557   1
  -1  11   9 9.30932 3.83938   3
   0  11   9 0.77300 1.77694   3
   1  11   9 5.97110 1.60891   3
   2  12 -10 -0.9289  1.4780   2
  -1 -12  10 6.67476 4.14373   3
   0 -12  10 7.53689 3.66524   3
   1 -12  10 9.09414 3.68195   3
  -2  12 -10 0.95515 1.66088   2
   2 -12  10 5.18181 2.26893   3
  -3  12 -10 9.78784 1.99664   2
   3  11 -10 9.82708 2.74966   2
  -3 -11  10 15.8035  5.1161   3
   2  11 -10 3.87541 2.15923   2
  -2 -11  10 5.10160 4.05142   3
   1  11 -10 17.2796  3.8597   2
  -1 -11  10 20.5822  4.9179   3
   0  11 -10 0.57835 1.84372   2
   0 -11  10 5.34623 3.16907   3
  -1  11 -10 3.90391 2.23386   2
   1 -11  10 6.58039 3.26869   3
  -2  11 -10 -1.9970  1.8501   2
   2 -11  10 6.34314 3.08806   3
  -3  11 -10 10.8093  2.6107   2
   3 -11  10 14.9872  2.9454   3
  -4  11 -10 2.43290 1.67695   2
   4  10 -10 32.9668  4.1730   2
  -4 -10  10 30.1308  5.7969   3
   3  10 -10 -0.9454  2.2971   2
  -3 -10  10 3.93288 3.79727   3
   2  10 -10 5.78800 2.49678   2
  -2 -10  10 4.34844 3.68640   3
   1  10 -10 7.91614 2.33092   2
  -1 -10  10 9.80748 4.23745   3
   0  10 -10 -1.6475  1.3987   2
   0 -10  10 0.24467 3.00690   3
  -1  10 -10 33.4607  3.9338   2
   1 -10  10 27.6599  5.4488   3
  -2  10 -10 4.61827 2.18863   2
   2 -10  10 -0.0243  2.9012   3
  -3  10 -10 2.20468 2.50598   2
   3 -10  10 7.71760 2.02588   3
  -4  10 -10 3.65346 2.50966   2
   4   9 -10 8.76229 3.41324   2
  -4  -9  10 4.25916 3.92014   3
   3   9 -10 1.98881 1.79689   2
  -3  -9  10 4.91185 3.28108   3
   2   9 -10 -0.4945  1.6922   2
  -2  -9  10 2.40206 3.20030   3
   1   9 -10 0.31369 1.58552   2
  -1  -9  10 -0.6516  2.5806   3
   0   9 -10 77.5765  6.0862   2
   0  -9  10 69.7038  7.5524   3
  -1   9 -10 49.5083  5.0127   2
   1  -9  10 37.8920  5.8282   3
  -2   9 -10 6.02784 2.76893   2
   2  -9  10 6.69532 3.10035   3
  -3   9 -10 8.13052 2.99685   2
   3  -9  10 12.0601  2.5252   3
  -4   9 -10 -2.9508  2.4987   2
  -5   9 -10 -1.5913  2.3007   2
   5   8 -10 1.87964 2.42084   2
  -5  -8  10 7.01177 3.40765   3
   4   8 -10 1.88198 2.18882   2
  -4  -8  10 3.27629 3.62363   3
   3   8 -10 -2.9914  1.5328   2
  -3  -8  10 2.12977 3.06757   3
   2   8 -10 12.5930  3.0963   2
  -2  -8  10 8.06448 3.70477   3
   1   8 -10 0.19804 1.53027   2
  -1  -8  10 0.69681 3.22462   3
   0   8 -10 18.0040  3.5763   2
   0  -8  10 19.1484  4.7633   3
  -1   8 -10 19.4103  3.9946   2
   1  -8  10 18.6899  4.4742   3
  -2   8 -10 1.69892 2.36447   2
   2  -8  10 5.02169 2.84398   3
  -3   8 -10 1.67560 2.73214   2
   3  -8  10 3.50779 2.07257   3
  -4   8 -10 7.23413 3.34959   2
  -5   8 -10 4.57400 3.59757   2
   5   7 -10 15.1721  3.7315   2
  -5  -7  10 14.4910  4.5614   3
   4   7 -10 -2.4233  1.9901   2
  -4  -7  10 0.07149 3.27972   3
   3   7 -10 -0.8918  1.9175   2
  -3  -7  10 2.29663 2.87847   3
   2   7 -10 36.6058  4.3088   2
  -2  -7  10 42.0898  5.7963   3
   1   7 -10 42.4349  4.3183   2
  -1  -7  10 39.2007  6.3852   3
   0   7 -10 97.9696  6.6675   2
   0  -7  10 95.8980  8.2943   3
  -1   7 -10 14.5032  3.5875   2
   1  -7  10 17.3176  4.5660   3
  -2   7 -10 3.52181 2.57754   2
   2  -7  10 -0.1287  2.5192   3
  -3   7 -10 11.6312  4.1397   2
   3  -7  10 10.7560  2.9321   3
  -4   7 -10 4.33714 3.12974   2
  -5   7 -10 -1.8672  3.0309   2
   6   6 -10 7.58521 2.93887   2
   5   6 -10 4.80332 2.67042   2
  -5  -6  10 2.66787 3.98650   3
   4   6 -10 2.66440 2.34096   2
  -4  -6  10 2.84556 3.11026   3
   3   6 -10 -1.6809  1.8007   2
  -3  -6  10 0.02143 3.15689   3
   2   6 -10 0.79091 2.08865   2
  -2  -6  10 -0.0319  3.4155   3
   1   6 -10 6.22679 2.44841   2
  -1  -6  10 4.92613 3.95691   3
   0   6 -10 8.68140 2.87646   2
   0  -6  10 8.61575 3.95604   3
  -1   6 -10 15.3736  3.7243   2
   1  -6  10 10.0003  4.0565   3
  -2   6 -10 0.15352 2.15347   2
   2  -6  10 2.18503 3.05900   3
  -3   6 -10 6.51200 3.24290   2
   3  -6  10 9.62071 2.81080   3
  -4   6 -10 29.1315  5.6306   2
  -5   6 -10 13.8211  4.2551   2
   6   5 -10 17.6222  4.3467   2
   5   5 -10 19.7158  4.2050   2
  -5  -5  10 16.5295  5.0578   3
   4   5 -10 1.59826 2.50259   2
  -4  -5  10 2.88247 3.14517   3
   3   5 -10 139.382   8.014   2
  -3  -5  10 127.274  10.105   3
   2   5 -10 139.359   7.948   2
  -2  -5  10 130.271  10.054   3
   1   5 -10 16.8458  3.3577   2
  -1  -5  10 13.2198  4.5599   3
   0   5 -10 19.8014  3.7104   2
   0  -5  10 22.0649  5.1949   3
  -1   5 -10 30.0113  4.2698   2
   1  -5  10 26.3471  5.5120   3
  -2   5 -10 64.0040  6.0603   2
   2  -5  10 56.7612  6.6338   3
  -3   5 -10 3.94291 3.22438   2
  -4   5 -10 6.22171 3.58274   2
  -5   5 -10 49.3212  6.4244   2
  -6   5 -10 12.1300  4.9205   2
   7   4 -10 4.60407 3.32908   2
   6   4 -10 24.8354  4.9963   2
   5   4 -10 18.2915  3.8271   2
  -5  -4  10 7.20955 4.21649   3
   4   4 -10 2.25642 2.31182   2
  -4  -4  10 -3.4644  3.0670   3
   3   4 -10 5.32991 2.45236   2
  -3  -4  10 8.65220 4.46714   3
   2   4 -10 158.678   8.522   2
  -2  -4  10 151.278  10.904   3
   1   4 -10 13.8420  3.2009   2
  -1  -4  10 16.3388  4.8053   3
   0   4 -10 5.61780 2.52776   2
   0  -4  10 8.19478 4.46724   3
  -1   4 -10 29.9964  4.7943   2
   1  -4  10 33.3641  5.9693   3
  -2   4 -10 4.29214 2.95643   2
   2  -4  10 4.78802 3.75416   3
  -3   4 -10 27.5289  5.3380   2
  -4   4 -10 35.8154  6.1291   2
  -5   4 -10 5.04543 3.71165   2
  -6   4 -10 -1.7099  3.4439   2
   7   3 -10 3.83227 3.52252   2
   6   3 -10 31.4533  4.3409   2
   5   3 -10 3.16052 1.88707   2
  -5  -3  10 4.76281 3.70968   3
   4   3 -10 81.1747  6.1711   2
  -4  -3  10 70.3105  7.6132   3
   3   3 -10 59.3916  4.9549   2
  -3  -3  10 48.4201  7.0428   3
   2   3 -10 9.84092 2.82170   2
  -2  -3  10 9.45133 4.73811   3
   1   3 -10 75.4014  5.4027   2
  -1  -3  10 75.3302  7.9048   3
   0   3 -10 55.1215  4.8158   2
   0  -3  10 49.9736  6.9466   3
  -1   3 -10 1.11332 2.38229   2
   1  -3  10 0.79495 3.47616   3
  -2   3 -10 5.87444 3.24151   2
   2  -3  10 5.73079 4.09060   3
  -3   3 -10 307.012  15.410   2
  -4   3 -10 58.3119  6.6101   2
   4  -3  10 70.0857  4.9269   1
  -5   3 -10 21.3656  5.0008   2
   5  -3  10 35.7798  3.5894   1
  -6   3 -10 -1.4469  3.4224   2
   7   2 -10 6.21603 3.64809   2
   6   2 -10 2.00741 1.96012   2
   5   2 -10 0.78468 1.59895   2
  -5  -2  10 -2.4591  2.5585   3
   4   2 -10 2.34194 2.27093   2
  -4  -2  10 -0.9820  3.5349   3
   3   2 -10 105.578   6.444   2
  -3  -2  10 87.3467  8.6262   3
   2   2 -10 13.2371  3.0211   2
  -2  -2  10 10.3917  4.9535   3
   1   2 -10 15.4875  3.0563   2
  -1  -2  10 12.0781  5.0434   3
   0   2 -10 33.7904  3.9219   2
   0  -2  10 32.3232  6.2150   3
  -1   2 -10 65.6218  5.6160   2
   1  -2  10 54.1907  6.6283   3
  -2   2 -10 113.953   8.001   2
   2  -2  10 126.372   6.143   1
   2  -2  10 99.4003  8.6290   3
  -3   2 -10 81.4205  7.2209   2
  -3   2 -10 78.9134  6.5713   4
   3  -2  10 84.7946  5.6111   1
  -4   2 -10 26.8301  5.3269   2
   4  -2  10 10.8682  2.6726   1
  -5   2 -10 0.74089 2.72464   2
   5  -2  10 1.40370 1.76284   1
  -6   2 -10 -2.2910  3.2850   2
   7   1 -10 8.18597 3.96898   2
   6   1 -10 2.94620 1.75948   2
   5   1 -10 29.1171  3.5461   2
  -5  -1  10 23.1449  5.1919   3
   4   1 -10 28.1687  3.5712   2
  -4  -1  10 28.2929  5.8220   3
   3   1 -10 39.6939  3.9508   2
  -3  -1  10 40.0895  6.6221   3
   2   1 -10 23.4896  3.2179   2
  -2  -1  10 25.7896  5.7431   3
   1   1 -10 56.3841  4.3619   2
  -1  -1  10 46.6128  6.6025   3
   0   1 -10 35.9209  3.8977   2
   0   1 -10 37.9803  2.5075   1
   0  -1  10 36.6023  6.2555   3
  -1   1 -10 1.14285 0.53978   4
  -1   1 -10 0.73848 2.33136   2
   1  -1  10 -1.4654  3.2696   3
  -2   1 -10 179.395   9.781   4
  -2   1 -10 166.359   9.782   2
   2  -1  10 176.948   8.476   1
   2  -1  10 165.900  10.945   3
  -3   1 -10 212.020  12.139   4
  -3   1 -10 207.049  11.633   2
   3  -1  10 208.001  10.641   1
  -4   1 -10 0.38408 0.76727   4
  -4   1 -10 0.23150 2.68975   2
   4  -1  10 3.78503 1.68392   1
  -5   1 -10 5.23806 2.91988   2
   5  -1  10 5.92349 2.04245   1
  -6   1 -10 9.90751 4.55652   2
  -8   0  10 56.0603  3.0248   2
   6   0 -10 13.0015  3.0793   2
   5   0 -10 2.21919 1.61343   2
  -5   0  10 3.90936 3.03752   3
   4   0 -10 8.76732 2.46078   2
  -4   0  10 3.69495 3.97528   3
   3   0 -10 213.203   9.673   2
  -3   0  10 198.988  12.838   3
   2   0 -10 9.38102 2.19193   2
   2   0 -10 11.1530  1.1795   1
  -2   0  10 6.47981 4.56677   3
   1   0 -10 55.8196  3.1783   1
   1   0 -10 54.5612  4.0543   2
  -1   0  10 53.0888  7.0010   3
   0   0 -10 -0.4607  1.4466   2
   0   0 -10 0.10336 1.19301   1
   0   0  10 2.16543 4.02075   3
  -1   0 -10 7.49127 2.56496   2
   1   0  10 6.49119 0.93832   1
   1   0  10 2.29997 3.30881   3
  -2   0 -10 46.1950  4.8023   2
  -2   0 -10 41.8488  3.7176   4
   2   0  10 39.5196  5.4639   3
   2   0  10 51.6230  3.1784   1
  -3   0 -10 16.5445  3.8549   2
  -3   0 -10 10.1922  1.7416   4
   3   0  10 15.6899  2.5344   1
  -4   0 -10 0.60053 2.49446   2
  -4   0 -10 2.21396 1.64029   4
   4   0  10 0.55169 1.25931   1
  -5   0 -10 0.54290 2.63232   2
  -5   0 -10 1.03439 1.51468   4
   5   0  10 0.55367 1.32280   1
  -6   0 -10 3.32237 3.34834   2
  -8   1  10 47.0625  2.7089   2
   6  -1 -10 27.3579  3.7668   2
  -6   1  10 24.8865  4.5246   3
   5  -1 -10 1.37136 1.48659   2
  -5   1  10 1.33265 2.52055   3
   4  -1 -10 25.8174  3.0089   2
   4  -1 -10 23.5668  2.2997   1
  -4   1  10 19.9242  5.2218   3
   3  -1 -10 6.67194 1.44618   1
   3  -1 -10 10.5381  2.3600   2
  -3   1  10 4.09817 4.05773   3
   2  -1 -10 235.604   9.745   1
   2  -1 -10 250.062  10.245   2
  -2   1  10 217.068  13.433   3
   1  -1 -10 72.7443  4.3303   1
   1  -1 -10 71.7486  4.4911   2
  -1   1  10 72.3476  7.4177   3
   0  -1 -10 119.271   6.314   2
   0  -1 -10 115.675   6.250   1
   0   1  10 109.008   8.761   3
  -1  -1 -10 41.5648  3.9391   2
   1   1  10 38.6032  3.2363   1
   1   1  10 36.0888  5.2649   3
  -2  -1 -10 8.30462 2.56412   2
   2   1  10 4.36149 2.62432   3
  -3  -1 -10 27.1413  4.5257   2
  -3  -1 -10 16.9090  2.0255   4
   3   1  10 19.4542  2.0868   1
  -4  -1 -10 5.39099 1.48242   4
  -4  -1 -10 3.07773 2.45456   2
   4   1  10 0.89521 1.26154   1
  -5  -1 -10 22.2094  5.0701   2
  -5  -1 -10 12.0701  2.7185   4
   5   1  10 13.1816  2.4262   1
  -6  -1 -10 -0.5019  2.4463   2
  -6   2  10 -2.2462  2.3235   3
   5  -2 -10 10.4047  2.2527   1
   5  -2 -10 12.1153  2.5375   2
  -5   2  10 7.57207 3.23468   3
   4  -2 -10 81.5938  5.0934   1
   4  -2 -10 83.3506  4.9781   2
  -4   2  10 65.9223  7.2991   3
   3  -2 -10 112.352   6.064   1
   3  -2 -10 127.001   6.096   2
  -3   2  10 95.9515  8.7939   3
   2  -2 -10 21.1986  2.6055   1
   2  -2 -10 21.9359  2.3479   2
  -2   2  10 18.4239  4.8453   3
   1  -2 -10 37.8844  2.9934   2
   1  -2 -10 37.8967  3.3751   1
  -1   2  10 39.2049  6.1861   3
   0  -2 -10 92.0628  5.7898   1
   0  -2 -10 101.274   5.394   2
   0   2  10 82.1204  7.5387   3
  -1  -2 -10 8.38096 2.36488   2
   1   2  10 7.48375 3.22643   3
  -2  -2 -10 5.64106 2.45641   2
   2   2  10 5.86994 2.77011   3
  -3  -2 -10 27.7196  3.9203   2
  -3  -2 -10 26.8468  3.1260   4
   3   2  10 30.8545  2.3539   1
  -4  -2 -10 5.33842 2.58895   2
   4   2  10 3.13199 1.06509   1
  -5  -2 -10 3.25936 2.81671   2
  -5  -2 -10 4.64730 1.29344   4
   5   2  10 2.13068 1.27582   1
   6  -3 -10 1.79370 1.53233   1
  -6   3  10 0.32301 2.56292   3
   5  -3 -10 37.2710  3.5568   1
  -5   3  10 38.1815  4.9768   3
   4  -3 -10 3.51550 1.68330   1
  -4   3  10 -1.7290  2.9899   3
   3  -3 -10 57.2814  4.0765   1
  -3   3  10 49.5071  6.4643   3
   2  -3 -10 57.9458  4.0794   1
  -2   3  10 47.7876  6.2288   3
   1  -3 -10 0.07005 1.36026   1
  -1   3  10 0.96103 3.14948   3
   0  -3 -10 11.9551  2.7559   1
   0   3  10 11.6065  3.7004   3
   1   3  10 92.1576  7.5064   3
   2   3  10 5.90291 2.44155   3
   2   3  10 10.7971  1.2982   1
   3   3  10 20.1667  1.5072   1
  -5  -3 -10 37.9696  4.3838   4
   5   3  10 25.7920  2.6334   1
   7  -4 -10 3.55976 1.56496   1
   6  -4 -10 3.72398 2.13332   1
  -6   4  10 8.82998 3.35114   3
   5  -4 -10 29.0157  3.2690   1
  -5   4  10 36.9627  4.8788   3
   4  -4 -10 37.1174  3.5283   1
  -4   4  10 30.9528  5.7894   3
   3  -4 -10 11.3297  2.3660   1
  -3   4  10 3.86830 3.50332   3
   2  -4 -10 44.9336  3.7431   1
  -2   4  10 36.0997  5.4567   3
   1  -4 -10 21.2634  3.0146   1
  -1   4  10 17.0961  4.6220   3
   0  -4 -10 53.9230  4.6851   1
   0   4  10 48.6919  5.7865   3
  -1  -4 -10 2.78299 2.08671   1
   1   4  10 1.16035 2.27992   3
   2   4  10 27.8055  4.7660   1
   2   4  10 22.8373  3.4946   3
   3   4  10 20.6167  1.6339   1
  -4  -4 -10 26.0528  3.0603   4
   4   4  10 35.2746  2.5529   1
   5   4  10 1.64257 1.38232   1
   7  -5 -10 7.10299 1.70825   1
   6  -5 -10 -0.6531  1.9061   1
  -6   5  10 -2.9234  2.3907   3
   5  -5 -10 3.12491 1.64464   1
  -5   5  10 4.87154 2.53991   3
   4  -5 -10 8.96682 2.27278   1
  -4   5  10 9.96442 3.62709   3
   3  -5 -10 15.0209  2.8183   1
  -3   5  10 15.3937  4.4046   3
   2  -5 -10 3.47490 1.80413   1
  -2   5  10 -1.8097  2.8548   3
   1  -5 -10 14.9593  3.1302   1
  -1   5  10 7.29795 3.42932   3
   0  -5 -10 1.26979 1.80213   1
   0   5  10 0.53422 2.47217   3
  -1  -5 -10 18.8585  4.0932   1
   1   5  10 17.0613  3.8517   3
   2   5  10 1.88688 1.48296   3
   3   5  10 19.8220  2.3288   1
  -4  -5 -10 31.0046  3.2113   4
   4   5  10 42.4017  2.9689   1
   7  -6 -10 1.43957 1.61116   1
   6  -6 -10 3.97562 1.83052   1
  -6   6  10 2.31266 2.85322   3
   5  -6 -10 7.52799 1.95374   1
  -5   6  10 4.89987 2.77681   3
   4  -6 -10 2.84225 1.54348   1
  -4   6  10 2.23579 2.41423   3
   3  -6 -10 83.8084  5.6127   1
  -3   6  10 71.8925  7.4309   3
   2  -6 -10 23.7584  3.1031   1
  -2   6  10 16.7824  4.5062   3
   1  -6 -10 46.3403  4.4707   1
  -1   6  10 43.0403  5.7398   3
   0  -6 -10 37.2469  4.2756   1
   0   6  10 29.7090  5.4528   3
  -1  -6 -10 2.50437 2.32478   1
   1   6  10 2.96123 2.22178   3
  -2  -6 -10 6.19216 3.01016   1
   4   6  10 10.8652  1.9913   1
   7  -7 -10 1.10623 1.37193   1
   6  -7 -10 9.28465 2.76452   1
  -6   7  10 14.1894  4.2941   3
   5  -7 -10 7.84823 2.45118   1
  -5   7  10 5.61572 2.83381   3
   4  -7 -10 36.6802  3.7783   1
  -4   7  10 29.5537  5.4249   3
   3  -7 -10 9.83707 2.55126   1
  -3   7  10 5.47004 3.11602   3
   2  -7 -10 20.8615  3.5311   1
  -2   7  10 12.7166  3.9288   3
   1  -7 -10 13.3304  3.1113   1
  -1   7  10 6.12091 3.15412   3
   0  -7 -10 0.38015 2.01603   1
   0   7  10 -0.0732  2.1228   3
  -1  -7 -10 10.2041  3.0674   1
   1   7  10 2.03489 2.20205   3
  -2  -7 -10 5.08350 2.59245   1
  -3  -7 -10 5.23327 2.51316   1
  -6   8  10 9.07031 3.71025   3
   5  -8 -10 5.11174 2.16295   1
  -5   8  10 5.42485 3.72205   3
   4  -8 -10 5.25495 2.11310   1
  -4   8  10 3.13569 2.78786   3
   3  -8 -10 2.71534 1.93460   1
  -3   8  10 3.32182 2.84892   3
   2  -8 -10 -0.2993  1.7227   1
  -2   8  10 0.29326 2.47788   3
   1  -8 -10 8.58188 3.12335   1
  -1   8  10 12.7592  4.0069   3
   0  -8 -10 2.38575 1.83689   1
   0   8  10 3.05170 2.30964   3
  -1  -8 -10 7.57165 2.78690   1
   1   8  10 4.30349 2.46403   3
  -2  -8 -10 10.5240  3.2942   1
   6  -9 -10 2.08154 1.47763   1
  -6   9  10 2.48060 2.79320   3
   5  -9 -10 -0.4577  1.7784   1
  -5   9  10 2.54765 2.90889   3
   4  -9 -10 5.85374 1.99290   1
  -4   9  10 0.49309 2.80971   3
   3  -9 -10 12.6723  2.7626   1
  -3   9  10 10.1346  3.5925   3
   2  -9 -10 9.53449 2.37482   1
  -2   9  10 4.42377 2.74369   3
   1  -9 -10 3.86866 1.92677   1
  -1   9  10 2.93139 2.57365   3
   0  -9 -10 15.3237  3.6414   1
   0   9  10 11.2365  3.7287   3
  -1  -9 -10 1.85436 1.97783   1
   1   9  10 3.61264 1.89642   3
  -5  10  10 -1.5250  2.7218   3
   4 -10 -10 9.08570 2.64383   1
  -4  10  10 6.31877 3.67601   3
   3 -10 -10 7.58472 2.64868   1
  -3  10  10 2.74074 3.15685   3
   2 -10 -10 2.68363 1.85655   1
  -2  10  10 1.67460 2.62269   3
   1 -10 -10 16.0083  3.5172   1
  -1  10  10 5.55723 3.57088   3
   0 -10 -10 1.50980 2.03078   1
   0  10  10 5.61280 2.52926   3
   1  10  10 28.1642  3.5889   3
  -2  11  10 5.69321 2.54462   3
   1  12 -11 -0.7144  1.2290   2
   0  12 -11 -1.2773  1.3771   2
   1 -12  11 27.9385  3.8873   3
   2 -12  11 19.3129  2.5706   3
   2  11 -11 8.15738 2.47287   2
  -2 -11  11 9.05543 4.74873   3
   1  11 -11 2.78981 2.00660   2
  -1 -11  11 5.29511 4.10935   3
   0  11 -11 0.76719 2.01331   2
   0 -11  11 3.72699 3.27992   3
  -1  11 -11 6.59707 2.72331   2
   1 -11  11 4.74732 3.38127   3
  -2  11 -11 2.75193 2.24611   2
   2 -11  11 15.5032  3.2485   3
  -3  11 -11 2.97501 1.94549   2
  -4 -10  11 8.90633 3.64531   3
   3  10 -11 6.01633 2.80790   2
  -3 -10  11 5.75769 4.73999   3
   2  10 -11 -0.5423  2.2599   2
  -2 -10  11 1.20613 3.51048   3
   1  10 -11 11.0951  2.7849   2
  -1 -10  11 7.03779 3.76012   3
   0  10 -11 3.55834 2.05845   2
   0 -10  11 2.68692 2.79636   3
  -1  10 -11 5.34384 2.60178   2
   1 -10  11 5.46229 3.50064   3
  -2  10 -11 7.44172 2.91424   2
   2 -10  11 13.1859  3.5304   3
  -3  10 -11 0.17155 2.05355   2
  -4  10 -11 1.28369 2.01494   2
   4   9 -11 18.1228  4.4702   2
  -4  -9  11 15.8358  5.3448   3
   3   9 -11 2.20649 1.98863   2
  -3  -9  11 7.07061 4.04229   3
   2   9 -11 1.08310 1.76506   2
  -2  -9  11 4.46851 3.56773   3
   1   9 -11 3.92390 2.34002   2
  -1  -9  11 2.50642 3.48280   3
   0   9 -11 15.7162  3.6015   2
   0  -9  11 10.0913  4.4135   3
  -1   9 -11 41.1679  4.6894   2
   1  -9  11 39.3032  5.7294   3
  -2   9 -11 21.1425  3.9748   2
   2  -9  11 16.9992  4.5211   3
  -3   9 -11 11.0951  3.5269   2
  -4   9 -11 3.16085 3.19001   2
   5   8 -11 8.01939 2.60328   2
  -5  -8  11 2.27279 3.69594   3
   4   8 -11 7.81058 2.90457   2
  -4  -8  11 10.1799  4.9149   3
   3   8 -11 7.40049 2.95671   2
  -3  -8  11 12.5112  4.3758   3
   2   8 -11 21.0678  3.8983   2
  -2  -8  11 15.8803  4.3816   3
   1   8 -11 2.52924 2.19697   2
  -1  -8  11 -1.4691  3.0802   3
   0   8 -11 27.6314  4.5423   2
   0  -8  11 29.0381  5.7321   3
  -1   8 -11 3.51216 2.44027   2
   1  -8  11 2.69672 3.10157   3
  -2   8 -11 36.0248  4.5751   2
   2  -8  11 35.0536  5.3543   3
  -3   8 -11 -0.5078  2.4411   2
  -4   8 -11 -2.8298  2.4310   2
   5   7 -11 50.5399  5.3280   2
  -5  -7  11 40.5129  7.3804   3
   4   7 -11 5.45438 2.55102   2
  -4  -7  11 2.73844 4.02947   3
   3   7 -11 2.61375 2.19629   2
  -3  -7  11 4.04390 3.77508   3
   2   7 -11 55.6488  4.9130   2
  -2  -7  11 51.5131  6.6389   3
   1   7 -11 57.9612  4.9971   2
  -1  -7  11 52.9905  6.5882   3
   0   7 -11 11.7698  3.1636   2
   0  -7  11 10.0882  3.9996   3
  -1   7 -11 8.09367 3.00534   2
   1  -7  11 6.06044 3.92305   3
  -2   7 -11 12.0585  3.7521   2
   2  -7  11 15.5485  4.1983   3
  -3   7 -11 1.38653 2.72429   2
  -4   7 -11 6.51677 3.58044   2
  -5   7 -11 -2.2174  2.6404   2
   6   6 -11 1.28754 2.74668   2
   5   6 -11 9.09916 2.97362   2
  -5  -6  11 6.16074 4.92313   3
   4   6 -11 5.31387 2.64930   2
  -4  -6  11 4.43440 4.40831   3
   3   6 -11 15.5087  3.3789   2
  -3  -6  11 12.0557  4.4788   3
   2   6 -11 12.9194  3.1064   2
  -2  -6  11 11.8750  4.5681   3
   1   6 -11 24.8511  4.1121   2
  -1  -6  11 28.2255  5.7449   3
   0   6 -11 3.37738 2.26478   2
   0  -6  11 3.75581 3.85061   3
  -1   6 -11 39.5903  4.3491   2
   1  -6  11 31.5518  6.0518   3
  -2   6 -11 -0.8289  2.6208   2
   2  -6  11 0.49588 3.19019   3
  -3   6 -11 2.43786 3.02381   2
  -4   6 -11 43.9673  5.9058   2
  -5   6 -11 5.13523 3.34513   2
   6   5 -11 4.53979 3.14872   2
   5   5 -11 16.4484  3.7138   2
  -5  -5  11 7.92565 5.00410   3
   4   5 -11 -0.1413  1.8256   2
  -4  -5  11 -1.4760  3.4787   3
   3   5 -11 2.86189 2.19526   2
  -3  -5  11 1.24828 3.93122   3
   2   5 -11 110.564   6.788   2
  -2  -5  11 85.6448  8.7214   3
   1   5 -11 2.29472 1.98541   2
  -1  -5  11 4.04874 4.14440   3
   0   5 -11 29.5955  4.1341   2
   0  -5  11 28.3533  5.9742   3
  -1   5 -11 9.99140 3.19988   2
   1  -5  11 7.14089 4.39182   3
  -2   5 -11 27.3029  4.7713   2
   2  -5  11 20.9586  5.1287   3
  -3   5 -11 0.60842 3.02657   2
  -4   5 -11 7.49890 3.49016   2
  -5   5 -11 -0.0619  3.3042   2
   6   4 -11 11.1123  3.5993   2
   5   4 -11 0.70017 2.01059   2
  -5  -4  11 -1.8253  3.9518   3
   4   4 -11 2.55628 1.81790   2
  -4  -4  11 2.77072 4.01027   3
   3   4 -11 -1.8032  1.6784   2
  -3  -4  11 -1.4366  4.0864   3
   2   4 -11 2.72557 2.11194   2
  -2  -4  11 0.23069 4.11519   3
   1   4 -11 9.59598 2.94551   2
  -1  -4  11 10.3365  4.8181   3
   0   4 -11 30.3240  4.0924   2
   0  -4  11 39.9027  6.7671   3
  -1   4 -11 126.401   8.066   2
   1  -4  11 118.867   9.802   3
  -2   4 -11 -4.0389  2.3478   2
   2  -4  11 -4.4941  3.1611   3
  -3   4 -11 44.5579  5.4703   2
  -4   4 -11 12.1878  4.1347   2
  -5   4 -11 -2.6519  2.9802   2
   7   3 -11 8.37787 3.92332   2
   6   3 -11 20.2381  4.3842   2
   5   3 -11 1.95918 1.66119   2
  -5  -3  11 2.55360 3.48946   3
   4   3 -11 3.31249 1.84997   2
  -4  -3  11 3.34903 4.13337   3
   3   3 -11 6.70287 2.65785   2
  -3  -3  11 7.20204 5.14691   3
   2   3 -11 0.15756 1.92991   2
  -2  -3  11 -0.5891  4.1890   3
   1   3 -11 4.06496 2.24106   2
  -1  -3  11 1.04180 4.39771   3
   0   3 -11 183.657   9.507   2
   0  -3  11 178.572  12.212   3
  -1   3 -11 10.9604  3.5779   2
   1  -3  11 16.5818  5.2407   3
  -2   3 -11 20.8653  4.4117   2
   2  -3  11 23.4516  5.3152   3
  -3   3 -11 26.4334  5.1531   2
  -4   3 -11 10.6769  3.7487   2
  -5   3 -11 -2.8464  3.2776   2
   7   2 -11 47.8958  7.4403   2
   6   2 -11 -0.9570  2.2655   2
   5   2 -11 5.11504 1.86848   2
  -5  -2  11 4.43762 3.33165   3
   4   2 -11 20.5808  3.8570   2
  -4  -2  11 20.5979  5.4908   3
   3   2 -11 66.4451  5.0645   2
  -3  -2  11 56.5197  7.4670   3
   2   2 -11 49.1203  4.3132   2
  -2  -2  11 47.6325  6.8901   3
   1   2 -11 46.2653  4.1837   2
  -1  -2  11 42.1427  7.1421   3
   0   2 -11 34.0973  3.9185   2
   0  -2  11 30.6445  6.1579   3
  -1   2 -11 9.24997 3.37469   2
   1  -2  11 2.85315 4.51568   3
  -2   2 -11 15.0953  3.9406   2
   2  -2  11 6.85133 3.90285   3
  -3   2 -11 95.2334  7.6324   2
  -4   2 -11 5.27528 3.00229   2
  -5   2 -11 3.40754 3.56613   2
   7   1 -11 6.44262 3.70280   2
   6   1 -11 9.43944 2.90104   2
  -6  -1  11 6.38619 3.27557   3
   5   1 -11 5.82377 2.09447   2
  -5  -1  11 7.31402 3.96528   3
   4   1 -11 1.30516 1.22646   2
  -4  -1  11 -3.7328  3.6431   3
   3   1 -11 11.0890  2.4158   2
  -3  -1  11 5.43504 4.54431   3
   2   1 -11 -0.5328  1.3366   2
  -2  -1  11 0.30062 3.73943   3
   1   1 -11 138.078   7.102   2
  -1  -1  11 114.254   9.804   3
   0   1 -11 6.02747 2.23690   2
   0  -1  11 6.36961 4.27070   3
  -1   1 -11 100.885   6.770   2
   1  -1  11 93.8928  8.7679   3
  -2   1 -11 19.5411  4.1103   2
   2  -1  11 14.9773  4.1458   3
   2  -1  11 9.43749 0.89502   1
  -3   1 -11 23.7670  2.9131   4
  -3   1 -11 27.6132  4.9525   2
   3  -1  11 20.4239  2.1386   1
  -4   1 -11 53.4297  6.0220   2
   4  -1  11 44.4728  3.8212   1
  -5   1 -11 0.24156 3.13457   2
   5  -1  11 2.95536 1.33429   1
   7   0 -11 6.33904 3.16598   2
   6   0 -11 4.11798 2.03184   2
  -6   0  11 -0.9361  2.8446   3
   5   0 -11 3.28670 1.68941   2
  -5   0  11 -0.0914  2.8417   3
   4   0 -11 266.657  11.628   2
  -4   0  11 222.034  14.552   3
   3   0 -11 94.8750  5.4979   2
  -3   0  11 76.9792  8.4994   3
   2   0 -11 33.9184  3.2542   2
  -2   0  11 30.9787  6.2600   3
   1   0 -11 20.3173  3.0992   2
  -1   0  11 14.0329  5.0828   3
   0   0 -11 15.0275  1.6587   1
   0   0 -11 15.6050  2.6991   2
   0   0  11 15.9035  4.6906   3
  -1   0 -11 71.7103  5.3774   2
   1   0  11 60.3621  6.8120   3
  -2   0 -11 0.35782 0.63923   4
  -2   0 -11 0.45158 1.95373   2
   2   0  11 -1.6978  2.6913   3
   2   0  11 0.98589 0.66735   1
  -3   0 -11 1.97936 0.90801   4
  -3   0 -11 2.78920 2.13422   2
   3   0  11 2.53262 0.88758   1
  -4   0 -11 2.65936 0.91813   4
  -4   0 -11 3.68470 2.70264   2
   4   0  11 6.38134 1.22171   1
  -5   0 -11 -2.9582  3.2485   2
   5   0  11 7.44138 1.54760   1
   6  -1 -11 6.07860 2.01271   2
  -6   1  11 8.90071 3.48332   3
   5  -1 -11 -1.0786  1.4771   2
  -5   1  11 0.07939 2.61860   3
   4  -1 -11 1.44040 1.29774   2
  -4   1  11 1.56408 3.49024   3
   3  -1 -11 20.2756  2.6609   2
  -3   1  11 17.3903  5.3499   3
   2  -1 -11 0.12450 0.59803   1
   2  -1 -11 0.91575 1.13651   2
  -2   1  11 -2.7924  3.4050   3
   1  -1 -11 78.5870  4.7071   2
   1  -1 -11 79.6510  4.3715   1
  -1   1  11 67.8928  7.4693   3
   0  -1 -11 2.57982 1.49448   2
   0  -1 -11 1.20747 1.47756   1
   0   1  11 3.17276 3.58191   3
  -1  -1 -11 35.0983  3.6899   2
   1   1  11 26.3518  5.1717   3
  -2  -1 -11 43.7338  4.5682   2
   2   1  11 45.7464  2.9343   1
   2   1  11 43.8483  5.2499   3
  -3  -1 -11 10.0994  2.9609   2
   3   1  11 16.1889  1.4738   1
  -4  -1 -11 3.83139 1.08202   4
  -4  -1 -11 1.96460 2.78398   2
   4   1  11 1.80944 1.12399   1
  -5  -1 -11 3.91368 3.18444   2
   5   1  11 4.25950 1.35046   1
  -6   2  11 40.5426  5.9175   3
  -5   2  11 14.4987  4.0304   3
  -4   2  11 1.77959 3.25702   3
   3  -2 -11 105.276   5.419   1
  -3   2  11 83.8338  8.3932   3
   2  -2 -11 12.3648  2.2154   1
  -2   2  11 9.98955 4.32540   3
   1  -2 -11 60.0941  3.6542   2
   1  -2 -11 69.3661  4.4959   1
  -1   2  11 58.7921  6.8413   3
   0  -2 -11 108.253   6.151   1
   0  -2 -11 103.974   5.538   2
   0   2  11 93.8531  8.3464   3
  -1  -2 -11 67.1670  4.7943   2
   1   2  11 64.5276  6.5801   3
  -2  -2 -11 5.91222 2.43641   2
   2   2  11 9.68002 1.23283   1
   2   2  11 1.60489 2.12228   3
  -3  -2 -11 -1.9458  1.6297   2
  -3  -2 -11 1.05617 0.87052   4
   3   2  11 2.79981 0.89867   1
  -4  -2 -11 1.24790 2.08098   2
  -4  -2 -11 3.23793 1.12963   4
   4   2  11 5.87211 1.10028   1
   5   2  11 15.8862  2.1712   1
  -6   3  11 -0.2118  2.9616   3
   5  -3 -11 2.63296 1.13486   1
  -5   3  11 1.71958 2.33754   3
   4  -3 -11 12.1581  2.3223   1
  -4   3  11 12.6569  4.3511   3
   3  -3 -11 6.31509 1.65591   1
  -3   3  11 1.37592 3.54083   3
   2  -3 -11 70.7456  4.4702   1
  -2   3  11 57.6884  7.0956   3
   1  -3 -11 12.7519  2.5847   1
  -1   3  11 5.88264 3.69528   3
   0  -3 -11 0.44120 1.34572   1
   0   3  11 2.26488 2.89877   3
  -1  -3 -11 17.7614  3.3735   1
   1   3  11 12.6880  3.6143   3
   2   3  11 33.7431  3.5367   1
   2   3  11 31.9147  3.8823   3
   3   3  11 22.7898  1.8597   1
  -4  -3 -11 12.9439  2.1060   4
   4   3  11 13.5010  1.3322   1
   6  -4 -11 1.06908 1.21191   1
  -6   4  11 3.09934 3.18697   3
   5  -4 -11 0.77437 1.42004   1
  -5   4  11 4.98609 3.32542   3
   4  -4 -11 13.8029  2.4370   1
  -4   4  11 10.9947  3.8497   3
  -3   4  11 4.35600 3.52448   3
   2  -4 -11 72.7778  4.7549   1
  -2   4  11 67.5707  7.2850   3
   1  -4 -11 23.5995  2.9325   1
  -1   4  11 22.5033  5.1208   3
   0  -4 -11 7.41011 2.30248   1
   0   4  11 4.39443 3.02290   3
  -1  -4 -11 7.71874 2.38930   1
   1   4  11 10.4311  2.9884   3
   3   4  11 3.87938 1.18816   1
   4   4  11 0.96070 1.28259   1
   7  -5 -11 5.19642 1.46269   1
   6  -5 -11 1.73098 1.49554   1
  -6   5  11 4.22651 3.34818   3
   5  -5 -11 5.06103 1.94732   1
  -5   5  11 5.24964 3.00319   3
   4  -5 -11 3.13391 1.51880   1
  -4   5  11 1.90726 2.57062   3
   3  -5 -11 38.7029  3.4879   1
  -3   5  11 32.0489  6.1105   3
   2  -5 -11 0.63697 1.23823   1
  -2   5  11 1.52256 3.04991   3
   1  -5 -11 87.9309  5.7475   1
  -1   5  11 78.1394  7.8027   3
   0  -5 -11 14.8416  3.2464   1
   0   5  11 7.87833 3.55583   3
  -1  -5 -11 3.24405 2.07908   1
   1   5  11 3.50646 2.17332   3
  -2  -5 -11 27.7215  3.9483   1
   4   5  11 0.49705 1.44060   1
   7  -6 -11 3.90333 1.41439   1
   6  -6 -11 9.07317 2.07701   1
  -6   6  11 11.4393  4.4356   3
   5  -6 -11 3.24163 1.81163   1
  -5   6  11 2.02640 3.44779   3
   4  -6 -11 20.3363  3.3119   1
  -4   6  11 19.5356  4.5288   3
   3  -6 -11 1.17206 1.42436   1
  -3   6  11 0.30338 2.54038   3
   2  -6 -11 8.81967 2.33794   1
  -2   6  11 2.53942 3.03262   3
   1  -6 -11 37.3182  3.7977   1
  -1   6  11 25.8932  5.3733   3
   0  -6 -11 4.07057 1.92622   1
   0   6  11 1.93151 2.33099   3
  -1  -6 -11 3.25068 2.13643   1
   1   6  11 -1.8427  2.1761   3
  -2  -6 -11 4.84005 2.70406   1
   6  -7 -11 5.36825 2.02451   1
  -6   7  11 5.32574 3.53024   3
   5  -7 -11 12.6878  2.7686   1
  -5   7  11 11.1505  4.1212   3
   4  -7 -11 4.49557 1.86878   1
  -4   7  11 4.17370 2.97078   3
   3  -7 -11 6.84195 2.03484   1
  -3   7  11 3.86340 2.80403   3
   2  -7 -11 26.9599  3.2408   1
  -2   7  11 28.7938  5.7140   3
   1  -7 -11 14.4890  2.9685   1
  -1   7  11 8.97257 3.54244   3
   0  -7 -11 4.35283 1.92822   1
   0   7  11 3.80430 2.68853   3
  -1  -7 -11 11.1829  3.0785   1
   1   7  11 11.1012  3.4217   3
  -2  -7 -11 9.57944 3.10050   1
   6  -8 -11 2.84745 1.49051   1
  -6   8  11 2.38542 2.93025   3
   5  -8 -11 7.63029 2.34737   1
  -5   8  11 5.06327 3.60072   3
   4  -8 -11 7.71606 2.47476   1
  -4   8  11 1.17447 3.16639   3
   3  -8 -11 0.56664 1.40616   1
  -3   8  11 1.35817 2.58741   3
   2  -8 -11 2.61517 1.78848   1
  -2   8  11 6.15122 3.03875   3
   1  -8 -11 53.4248  4.8039   1
  -1   8  11 41.9683  5.7225   3
   0  -8 -11 2.55851 1.86992   1
   0   8  11 2.38829 2.76888   3
  -1  -8 -11 3.97305 2.41133   1
   1   8  11 4.64224 2.06149   3
   5  -9 -11 2.50272 1.45254   1
  -5   9  11 1.35580 3.33462   3
   4  -9 -11 32.4448  3.7767   1
  -4   9  11 22.8426  5.4706   3
   3  -9 -11 7.16683 2.57502   1
  -3   9  11 3.15202 3.25728   3
   2  -9 -11 5.48912 2.27447   1
  -2   9  11 3.96829 2.62125   3
   1  -9 -11 2.27952 2.12775   1
  -1   9  11 1.11787 2.62198   3
   0  -9 -11 -2.1697  1.9102   1
   0   9  11 2.32372 2.55043   3
   1   9  11 29.4587  3.7576   3
   3 -10 -11 3.74584 1.70899   1
  -3  10  11 4.82589 3.75745   3
   2 -10 -11 5.18530 2.04906   1
  -2  10  11 3.47481 2.62569   3
   1 -10 -11 24.8279  2.9856   1
  -1  10  11 15.2963  4.0297   3
   0  10  11 5.88034 2.10694   3
   1  11 -12 -0.8725  1.5143   2
  -1 -11  12 9.20503 3.52654   3
   0  11 -12 -0.7030  1.8050   2
   0 -11  12 3.96403 3.31576   3
  -1  11 -12 6.26676 2.16322   2
   1 -11  12 17.3668  3.8288   3
  -2  11 -12 -0.8125  1.5999   2
   2 -11  12 6.04742 2.13591   3
   3  10 -12 19.8882  2.8681   2
  -3 -10  12 21.2346  5.5182   3
  -2 -10  12 10.7689  4.5074   3
   1  10 -12 26.6818  3.7863   2
  -1 -10  12 18.1073  5.0687   3
   0  10 -12 11.0860  3.0243   2
   0 -10  12 12.8340  4.2066   3
  -1  10 -12 27.9198  4.7485   2
   1 -10  12 16.7497  4.6660   3
  -2  10 -12 4.42357 2.84314   2
   2 -10  12 7.46807 2.64148   3
  -3  10 -12 6.69399 2.43654   2
  -4  -9  12 5.19741 4.31170   3
   3   9 -12 2.75782 2.41335   2
  -3  -9  12 4.53684 4.56508   3
   2   9 -12 18.5646  3.6608   2
  -2  -9  12 20.0538  5.3619   3
   1   9 -12 7.24414 2.21662   2
  -1  -9  12 6.51192 3.95923   3
   0   9 -12 4.67587 2.08695   2
   0  -9  12 6.72206 3.33051   3
  -1   9 -12 16.4216  3.3090   2
   1  -9  12 11.9656  4.4135   3
  -2   9 -12 3.45363 2.53751   2
   2  -9  12 4.03884 2.85299   3
  -3   9 -12 1.84178 2.42344   2
  -5  -8  12 28.6806  6.2056   3
   4   8 -12 6.04504 2.58609   2
  -4  -8  12 4.25965 4.94283   3
   3   8 -12 1.69058 1.98485   2
  -3  -8  12 2.55298 3.78265   3
   2   8 -12 12.2940  2.9506   2
  -2  -8  12 8.61788 4.03935   3
   1   8 -12 12.0662  3.0522   2
  -1  -8  12 9.46354 4.36547   3
   0   8 -12 35.7492  4.2878   2
   0  -8  12 36.2176  6.7963   3
  -1   8 -12 7.04204 2.58061   2
   1  -8  12 5.00797 3.45919   3
  -2   8 -12 2.71490 2.35758   2
   2  -8  12 3.79518 3.87463   3
  -3   8 -12 0.26308 2.35553   2
  -4   8 -12 0.94319 2.43722   2
   5   7 -12 20.7447  4.5480   2
  -5  -7  12 8.55378 5.63730   3
  -4  -7  12 6.29057 5.19494   3
   3   7 -12 -0.3770  1.7481   2
  -3  -7  12 -1.4752  3.5795   3
   2   7 -12 4.57087 2.36020   2
  -2  -7  12 1.58040 3.51128   3
   1   7 -12 6.91782 2.31321   2
  -1  -7  12 4.34955 4.18244   3
   0   7 -12 1.60575 1.75881   2
   0  -7  12 3.14068 3.97974   3
  -1   7 -12 3.33169 2.31137   2
   1  -7  12 0.62200 3.36914   3
  -2   7 -12 21.0673  4.2490   2
   2  -7  12 20.5507  5.7281   3
  -3   7 -12 0.44725 2.63746   2
  -4   7 -12 3.51536 2.71432   2
   5   6 -12 3.86080 2.94346   2
  -5  -6  12 -1.8179  4.9013   3
   4   6 -12 0.76504 1.71304   2
  -4  -6  12 0.06251 4.41795   3
   3   6 -12 4.35040 1.81858   2
  -3  -6  12 1.54123 3.64195   3
   2   6 -12 8.83932 2.63482   2
  -2  -6  12 8.68468 4.51697   3
   1   6 -12 1.68214 1.93187   2
  -1  -6  12 3.45831 4.07689   3
   0   6 -12 30.5404  3.9122   2
   0  -6  12 37.0816  6.5797   3
  -1   6 -12 94.8577  6.8612   2
   1  -6  12 78.8983  8.3333   3
  -2   6 -12 4.95617 2.98862   2
   2  -6  12 9.73312 4.48332   3
  -3   6 -12 2.32464 3.02409   2
  -4   6 -12 17.8436  4.7490   2
   6   5 -12 37.5368  6.1904   2
   5   5 -12 0.26135 2.05501   2
  -5  -5  12 -4.5662  4.5228   3
   4   5 -12 8.32260 2.91883   2
  -4  -5  12 5.31815 4.91234   3
   3   5 -12 10.8994  3.0395   2
  -3  -5  12 7.65387 4.55324   3
   2   5 -12 4.97266 1.94726   2
  -2  -5  12 2.15966 4.15090   3
   1   5 -12 19.2283  3.6182   2
  -1  -5  12 12.9444  5.0248   3
   0   5 -12 3.36378 2.21564   2
   0  -5  12 1.80550 4.04223   3
  -1   5 -12 152.877   8.958   2
   1  -5  12 135.623  10.841   3
  -2   5 -12 0.00149 2.37198   2
   2  -5  12 1.25533 3.88842   3
  -3   5 -12 7.52601 3.09028   2
  -4   5 -12 20.9874  5.3228   2
  -5   5 -12 -2.3619  3.6654   2
   6   4 -12 34.4820  6.0482   2
   5   4 -12 0.85466 1.68561   2
  -5  -4  12 5.03391 4.52923   3
   4   4 -12 -0.2719  1.4275   2
  -4  -4  12 -0.2329  4.0355   3
   3   4 -12 -0.0883  1.7927   2
  -3  -4  12 -4.7799  3.4216   3
   2   4 -12 1.63861 1.90515   2
  -2  -4  12 0.50619 4.29761   3
   1   4 -12 3.17305 2.13525   2
  -1  -4  12 5.82065 4.80114   3
   0   4 -12 161.861   8.977   2
   0  -4  12 153.080  11.675   3
  -1   4 -12 64.0540  5.6509   2
   1  -4  12 51.1601  7.0712   3
  -2   4 -12 10.3219  3.4340   2
   2  -4  12 1.09233 3.66977   3
  -3   4 -12 -1.1473  2.5909   2
  -4   4 -12 -1.6741  2.9292   2
  -5   4 -12 -0.8654  3.6598   2
   6   3 -12 0.71140 2.32153   2
   5   3 -12 6.76541 2.45009   2
  -5  -3  12 9.36097 4.55473   3
   4   3 -12 18.1087  3.3097   2
  -4  -3  12 12.4642  5.1336   3
   3   3 -12 3.19089 1.77132   2
  -3  -3  12 4.56308 4.57888   3
   2   3 -12 5.82411 2.31646   2
  -2  -3  12 -0.3623  4.2369   3
   1   3 -12 1.22549 1.80666   2
  -1  -3  12 -0.4162  4.3849   3
   0   3 -12 60.1288  5.2099   2
   0  -3  12 53.5392  7.5596   3
  -1   3 -12 4.89442 2.55882   2
   1  -3  12 5.02655 4.23154   3
  -2   3 -12 46.2183  5.2295   2
   2  -3  12 46.6915  6.1246   3
  -3   3 -12 27.1148  5.1575   2
  -4   3 -12 8.09370 3.71197   2
  -5   3 -12 11.6518  4.9780   2
   7   2 -12 10.2167  3.7112   2
   6   2 -12 35.2989  5.6949   2
  -6  -2  12 23.0317  5.4435   3
   5   2 -12 0.80414 1.40148   2
  -5  -2  12 -1.0881  3.7862   3
   4   2 -12 3.13544 1.45720   2
  -4  -2  12 3.62694 3.61510   3
   3   2 -12 84.5124  5.4164   2
  -3  -2  12 58.3163  7.7550   3
   2   2 -12 88.1493  5.6018   2
  -2  -2  12 73.7812  8.5091   3
   1   2 -12 35.5956  3.6462   2
  -1  -2  12 37.8519  7.0180   3
   0   2 -12 37.4321  3.9328   2
   0  -2  12 33.1145  6.6962   3
  -1   2 -12 7.59083 2.91251   2
   1  -2  12 7.44409 4.30949   3
  -2   2 -12 3.71722 2.52319   2
   2  -2  12 -1.4867  3.3614   3
  -3   2 -12 3.23916 2.76246   2
  -4   2 -12 2.75390 3.03177   2
  -5   2 -12 -0.8535  3.6756   2
   7   1 -12 -1.5448  2.3776   2
   6   1 -12 -1.0081  2.1278   2
  -6  -1  12 -4.7514  2.9057   3
   5   1 -12 2.36111 1.63935   2
  -5  -1  12 -3.4299  3.3175   3
   4   1 -12 26.3018  3.0145   2
  -4  -1  12 15.0692  5.4614   3
   3   1 -12 32.5571  3.4129   2
  -3  -1  12 40.0442  7.1044   3
   2   1 -12 55.7866  4.2123   2
  -2  -1  12 60.4234  7.6292   3
   1   1 -12 -0.2719  1.2036   2
  -1  -1  12 0.69623 4.26311   3
   0   1 -12 104.631   6.369   2
   0  -1  12 106.853   9.460   3
  -1   1 -12 -1.8258  1.4647   2
   1  -1  12 3.76126 3.21252   3
  -2   1 -12 39.6575  4.4287   2
   2  -1  12 39.3042  5.5659   3
  -3   1 -12 -1.3490  2.6023   2
  -4   1 -12 5.20858 3.61174   2
  -5   1 -12 -0.0056  3.4278   2
   7   0 -12 54.6935  5.3359   2
   6   0 -12 0.21790 1.84360   2
  -6   0  12 -2.6038  3.2247   3
   5   0 -12 3.05315 1.58346   2
  -5   0  12 1.06062 3.34560   3
   4   0 -12 9.28292 2.19576   2
  -4   0  12 2.87942 3.85164   3
   3   0 -12 13.5110  2.5557   2
  -3   0  12 7.26703 4.76598   3
   2   0 -12 1.47297 1.17773   2
  -2   0  12 0.37907 4.04442   3
   1   0 -12 95.0915  5.5775   2
  -1   0  12 93.0954  8.9946   3
   0   0 -12 0.39285 1.42390   2
   0   0  12 -1.2706  3.2784   3
  -1   0 -12 14.9462  3.0103   2
   1   0  12 8.33037 3.78139   3
  -2   0 -12 19.7337  3.6529   2
   2   0  12 14.9879  3.4953   3
  -3   0 -12 21.2719  4.3838   2
   3   0  12 7.95308 1.13340   1
  -4   0 -12 1.00261 3.18962   2
   4   0  12 0.40669 1.13979   1
  -5   0 -12 -2.4019  2.5683   2
   5   0  12 0.48380 1.44559   1
  -6   1  12 0.44327 3.24852   3
  -5   1  12 2.34303 3.41108   3
   4  -1 -12 2.35701 1.34741   2
  -4   1  12 6.22614 3.91087   3
   3  -1 -12 80.7608  4.9145   2
  -3   1  12 65.1911  7.7008   3
   2  -1 -12 -0.4870  0.9201   2
  -2   1  12 1.52722 3.86412   3
   1  -1 -12 91.6670  5.2381   2
  -1   1  12 78.9580  8.2046   3
   0  -1 -12 8.68391 1.60799   1
   0  -1 -12 12.7387  2.4344   2
   0   1  12 11.9588  4.3643   3
  -1  -1 -12 0.04472 1.80733   2
  -1  -1 -12 0.74212 1.32391   1
   1   1  12 0.08494 2.50669   3
  -2  -1 -12 7.66492 2.84773   2
  -2  -1 -12 5.76308 1.04772   4
   2   1  12 0.39110 1.73571   3
   2   1  12 10.2555  1.2705   1
  -3  -1 -12 13.6530  3.5828   2
  -3  -1 -12 11.1387  1.7283   4
   3   1  12 17.2876  1.4658   1
  -4  -1 -12 43.2916  5.5282   2
   4   1  12 31.9522  2.8192   1
  -5  -1 -12 -1.1955  2.4056   2
  -6   2  12 5.42454 4.01615   3
  -5   2  12 3.45391 3.19158   3
  -4   2  12 -1.5307  2.7713   3
  -3   2  12 7.74299 4.10825   3
  -2   2  12 0.78607 3.20993   3
   1  -2 -12 4.65789 1.45934   1
  -1   2  12 2.00963 3.56123   3
   0  -2 -12 42.1233  3.5580   1
   0   2  12 41.7591  5.9059   3
  -1  -2 -12 4.88095 1.80579   1
   1   2  12 5.35462 2.76428   3
   3   2  12 17.0406  1.7973   1
   4   2  12 3.27276 1.58447   1
  -6   3  12 5.85205 3.52494   3
  -5   3  12 1.87130 3.19862   3
  -4   3  12 30.3974  5.8815   3
   3  -3 -12 4.61855 1.18891   1
  -3   3  12 2.85752 3.35476   3
   2  -3 -12 25.8961  2.5851   1
  -2   3  12 19.8402  5.3047   3
   1  -3 -12 15.1756  2.1531   1
  -1   3  12 3.62878 3.73914   3
   0  -3 -12 6.36567 1.79991   1
   0   3  12 0.38677 2.65100   3
  -1  -3 -12 2.54338 1.56268   1
   1   3  12 0.19062 2.04806   3
  -3  -3 -12 31.4290  3.6071   4
   3   3  12 44.8223  3.0554   1
  -4  -3 -12 11.4572  1.5397   4
  -6   4  12 -0.1895  3.7116   3
  -5   4  12 1.53072 3.09120   3
   4  -4 -12 14.3835  2.2938   1
  -4   4  12 12.3043  4.2583   3
   3  -4 -12 14.2694  2.0842   1
  -3   4  12 9.64918 3.95516   3
  -2   4  12 4.01560 3.55561   3
   1  -4 -12 9.53983 2.04985   1
  -1   4  12 14.0555  4.4685   3
   0  -4 -12 17.6673  2.4518   1
   0   4  12 10.2858  3.5185   3
  -1  -4 -12 14.7404  3.1482   1
   1   4  12 11.6696  3.5856   3
  -2  -4 -12 0.33999 2.14514   1
   4   4  12 0.39991 1.74523   1
  -6   5  12 32.8613  6.7091   3
   5  -5 -12 4.70660 1.19279   1
  -5   5  12 2.50289 3.14529   3
   4  -5 -12 3.46255 1.55376   1
  -4   5  12 7.89108 3.49233   3
   3  -5 -12 3.07378 1.43384   1
  -3   5  12 0.10882 2.48988   3
   2  -5 -12 8.55210 1.85346   1
  -2   5  12 8.63578 3.94572   3
   1  -5 -12 14.7659  2.8592   1
  -1   5  12 9.54648 3.95023   3
   0  -5 -12 40.7028  3.8448   1
   0   5  12 30.6584  5.7374   3
  -1  -5 -12 18.5497  3.7158   1
   1   5  12 8.69195 3.46618   3
  -2  -5 -12 30.7078  4.5093   1
   6  -6 -12 3.75655 1.34119   1
  -6   6  12 -2.7816  3.2699   3
   5  -6 -12 9.55513 1.84585   1
  -5   6  12 6.37449 4.11731   3
   4  -6 -12 8.89098 2.49509   1
  -4   6  12 3.84816 2.92583   3
   3  -6 -12 10.1862  2.2971   1
  -3   6  12 4.32031 3.08240   3
   2  -6 -12 11.2061  2.3509   1
  -2   6  12 10.0451  4.1049   3
   1  -6 -12 6.54640 2.05449   1
  -1   6  12 7.57593 3.18316   3
   0  -6 -12 43.5586  4.3009   1
   0   6  12 35.7260  5.3317   3
  -1  -6 -12 23.4006  4.3155   1
   1   6  12 15.0118  4.2196   3
  -2  -6 -12 7.95951 3.21288   1
  -6   7  12 13.3551  4.0126   3
   5  -7 -12 2.07930 1.23730   1
  -5   7  12 2.95804 3.86815   3
   4  -7 -12 1.21091 1.47528   1
  -4   7  12 -0.2263  3.0416   3
   3  -7 -12 28.8327  3.4132   1
  -3   7  12 19.0908  4.4666   3
   2  -7 -12 2.92598 1.60798   1
  -2   7  12 2.03051 2.37720   3
   1  -7 -12 1.16730 1.84184   1
  -1   7  12 -0.0586  2.5071   3
   0  -7 -12 36.9761  4.3234   1
   0   7  12 27.4491  5.6808   3
  -1  -7 -12 3.64333 1.94739   1
   1   7  12 3.41542 2.11016   3
  -2  -7 -12 58.2108  5.3007   1
   5  -8 -12 2.63433 1.38599   1
  -5   8  12 3.45617 4.35160   3
   4  -8 -12 5.64984 1.90110   1
  -4   8  12 3.91819 3.87423   3
   3  -8 -12 6.19772 2.02626   1
  -3   8  12 -0.6825  2.7934   3
   2  -8 -12 3.63551 1.90168   1
  -2   8  12 3.35589 3.07789   3
   1  -8 -12 4.63592 2.18679   1
  -1   8  12 1.01337 3.01692   3
   0  -8 -12 3.70637 2.22093   1
   0   8  12 6.42745 2.95879   3
  -1  -8 -12 7.33991 1.89865   1
   1   8  12 1.68336 1.75817   3
   4  -9 -12 5.41316 1.51570   1
  -4   9  12 4.63075 3.42289   3
   3  -9 -12 4.52689 1.61599   1
  -3   9  12 0.56246 3.36947   3
   2  -9 -12 13.2938  2.5758   1
  -2   9  12 2.23803 2.74146   3
   1  -9 -12 5.05167 1.75902   1
  -1   9  12 2.19117 2.54643   3
   0   9  12 2.22719 1.94152   3
   1  10 -13 0.56137 1.89313   2
  -1 -10  13 4.51858 3.24836   3
   0  10 -13 10.2069  2.8373   2
   0 -10  13 7.07279 4.08073   3
  -1  10 -13 1.29418 2.26723   2
   1 -10  13 11.9982  3.1897   3
   2 -10  13 10.5269  2.7535   3
   3   9 -13 -2.6343  1.3073   2
  -3  -9  13 0.53244 4.56515   3
   2   9 -13 -0.8863  1.9493   2
  -2  -9  13 -3.6711  3.9008   3
   1   9 -13 0.31655 1.70681   2
  -1  -9  13 3.74733 3.56949   3
   0  -9  13 8.82779 4.31681   3
  -1   9 -13 15.6012  3.5553   2
   1  -9  13 15.1511  4.9240   3
  -2   9 -13 24.9596  4.6230   2
   2  -9  13 21.5552  4.6757   3
  -4  -8  13 1.31323 4.79114   3
   3   8 -13 8.40358 2.81837   2
  -3  -8  13 7.56655 5.26299   3
   2   8 -13 0.29960 1.62830   2
  -2  -8  13 1.88895 4.24750   3
   1   8 -13 4.04153 2.17768   2
  -1  -8  13 0.18847 3.89182   3
   0   8 -13 13.1195  3.1834   2
   0  -8  13 8.96012 4.43151   3
  -1   8 -13 30.6482  4.1975   2
   1  -8  13 36.5388  7.0507   3
  -2   8 -13 14.9205  3.7168   2
   2  -8  13 12.3850  3.9277   3
  -3   8 -13 6.59382 2.92883   2
  -5  -7  13 30.5621  7.0140   3
   4   7 -13 1.95744 2.25014   2
  -4  -7  13 1.47935 5.42280   3
   3   7 -13 10.8348  3.0822   2
  -3  -7  13 7.05743 5.19476   3
   2   7 -13 8.34742 2.63129   2
  -2  -7  13 7.26222 5.08703   3
   1   7 -13 7.05429 2.49754   2
  -1  -7  13 4.25037 4.39097   3
   0   7 -13 17.5761  3.5827   2
   0  -7  13 9.93534 4.63054   3
  -1   7 -13 75.1332  6.2842   2
   1  -7  13 64.1381  8.0051   3
  -2   7 -13 4.69541 2.63490   2
   2  -7  13 -0.3404  3.4533   3
  -3   7 -13 10.0361  3.7404   2
   5   6 -13 -1.6957  2.1720   2
   4   6 -13 0.62647 1.62605   2
  -4  -6  13 -3.6578  4.7743   3
   3   6 -13 3.32386 2.17712   2
  -3  -6  13 -3.6266  3.8963   3
   2   6 -13 1.00224 1.48751   2
  -2  -6  13 3.09107 4.40921   3
   1   6 -13 -0.0611  1.6066   2
  -1  -6  13 3.68219 4.58007   3
   0   6 -13 9.95044 2.84415   2
   0  -6  13 11.4740  4.8608   3
  -1   6 -13 18.3139  3.9064   2
   1  -6  13 20.2528  5.7631   3
  -2   6 -13 19.2074  3.9601   2
   2  -6  13 12.3892  5.2901   3
  -3   6 -13 1.23303 2.67014   2
  -4   6 -13 7.48642 3.95475   2
   5   5 -13 5.65204 2.79769   2
  -5  -5  13 -0.0828  5.3869   3
   4   5 -13 4.96304 2.26339   2
  -4  -5  13 -4.0133  4.2982   3
   3   5 -13 15.6634  3.2305   2
  -3  -5  13 7.27890 5.09871   3
   2   5 -13 -0.5684  1.4660   2
  -2  -5  13 -1.1211  4.1850   3
   1   5 -13 6.15567 2.29974   2
  -1  -5  13 4.51246 4.96722   3
   0   5 -13 2.62838 1.93293   2
   0  -5  13 0.47544 4.15515   3
  -1   5 -13 4.22562 2.11291   2
   1  -5  13 -0.4296  3.8411   3
  -2   5 -13 0.85869 2.85738   2
   2  -5  13 -2.1782  3.9110   3
  -3   5 -13 -1.2642  2.4371   2
  -4   5 -13 7.85096 3.68869   2
   6   4 -13 0.95424 2.81921   2
   5   4 -13 28.7806  4.8792   2
  -5  -4  13 19.6659  6.6457   3
   4   4 -13 7.36120 2.26051   2
  -4  -4  13 -1.0917  4.1931   3
   3   4 -13 -0.1482  1.2233   2
  -3  -4  13 3.61019 4.43504   3
   2   4 -13 2.08241 1.76537   2
  -2  -4  13 -5.5692  3.5839   3
   1   4 -13 -1.3599  1.5004   2
  -1  -4  13 1.56600 4.57681   3
   0   4 -13 2.26899 1.96832   2
   0  -4  13 -3.9254  3.8201   3
  -1   4 -13 26.6569  4.3832   2
   1  -4  13 23.8514  5.7237   3
  -2   4 -13 3.59483 2.59267   2
   2  -4  13 -3.0696  3.6044   3
  -3   4 -13 0.89494 2.30341   2
  -4   4 -13 7.42590 3.95143   2
   6   3 -13 5.41863 3.09248   2
   5   3 -13 2.60184 2.11765   2
  -5  -3  13 -1.3842  4.1110   3
   4   3 -13 9.10903 2.50175   2
  -4  -3  13 -0.6179  4.2039   3
   3   3 -13 19.2402  3.2739   2
  -3  -3  13 10.6141  5.1340   3
   2   3 -13 0.92083 1.37588   2
  -2  -3  13 0.34917 4.32058   3
   1   3 -13 -0.1997  1.5343   2
  -1  -3  13 -2.1187  3.9788   3
   0   3 -13 2.20283 1.89132   2
   0  -3  13 -4.7818  3.7795   3
  -1   3 -13 23.3274  3.2881   2
   1  -3  13 20.0424  5.2074   3
  -2   3 -13 2.76910 2.64529   2
   2  -3  13 -1.4810  3.0125   3
  -3   3 -13 5.93131 3.50667   2
  -4   3 -13 5.50633 3.97509   2
   6   2 -13 48.9286  5.5315   2
  -6  -2  13 43.6248  7.6631   3
   5   2 -13 0.91072 1.64922   2
  -5  -2  13 -1.3005  4.2890   3
   4   2 -13 4.45414 1.87905   2
  -4  -2  13 -2.3999  3.6907   3
   3   2 -13 21.4245  2.7527   2
  -3  -2  13 18.7370  5.7105   3
   2   2 -13 5.33725 1.60986   2
  -2  -2  13 -0.7124  4.0293   3
   1   2 -13 -1.0422  1.1025   2
  -1  -2  13 0.22928 3.74750   3
   0   2 -13 40.8759  3.8939   2
   0  -2  13 40.4991  7.3084   3
  -1   2 -13 3.30469 2.10319   2
   1  -2  13 -3.9063  3.3684   3
  -2   2 -13 4.35339 2.67910   2
   2  -2  13 -1.3033  2.3976   3
  -3   2 -13 -0.4107  2.4609   2
  -4   2 -13 19.7443  5.0034   2
   7   1 -13 11.1993  2.8377   2
   6   1 -13 1.67676 2.21786   2
   5   1 -13 5.69918 2.19408   2
  -5  -1  13 -4.2129  3.8160   3
   4   1 -13 14.4879  2.9482   2
  -4  -1  13 15.6505  5.5795   3
   3   1 -13 49.3224  3.9805   2
  -3  -1  13 32.6440  7.1728   3
   2   1 -13 63.1417  4.4957   2
  -2  -1  13 53.0179  8.6101   3
   1   1 -13 9.44443 2.29336   2
  -1  -1  13 8.36012 5.04187   3
   0   1 -13 4.30106 1.68400   2
   0  -1  13 0.05900 3.56802   3
  -1   1 -13 21.4728  3.6350   2
   1  -1  13 9.45842 3.99701   3
  -2   1 -13 0.14464 2.17058   2
   2  -1  13 2.10166 2.17376   3
  -3   1 -13 9.67686 3.67441   2
  -4   1 -13 11.3968  4.2770   2
  -6   0  13 8.60697 4.69879   3
   5   0 -13 16.7566  3.0360   2
  -5   0  13 13.4906  5.4009   3
   4   0 -13 60.9757  4.5532   2
  -4   0  13 36.8405  7.2315   3
   3   0 -13 34.4315  3.3739   2
  -3   0  13 31.3808  6.6350   3
   2   0 -13 5.19983 1.75502   2
  -2   0  13 7.86713 4.67559   3
   1   0 -13 0.46523 1.17730   2
  -1   0  13 -1.9132  3.6807   3
   0   0 -13 13.7318  2.8502   2
   0   0  13 6.38347 4.52880   3
  -1   0 -13 3.25073 1.89573   2
   1   0  13 2.21317 2.81065   3
  -2   0 -13 7.15045 2.64924   2
  -3   0 -13 -3.5076  2.3329   2
  -4   0 -13 31.8351  5.6428   2
  -6   1  13 1.74002 3.73329   3
  -5   1  13 -0.4556  3.4535   3
  -4   1  13 -1.3073  3.1918   3
  -3   1  13 -0.0526  3.6055   3
  -2   1  13 2.86941 3.88457   3
  -1   1  13 -1.2157  3.4893   3
   0   1  13 15.0592  4.6644   3
   1   1  13 45.5295  5.9231   3
  -6   2  13 4.13498 4.33694   3
  -5   2  13 9.90888 5.40919   3
  -4   2  13 4.99837 3.66247   3
  -3   2  13 -0.4670  2.9990   3
  -2   2  13 7.78468 4.10649   3
  -1   2  13 3.67154 3.60076   3
   0   2  13 0.88163 2.64300   3
  -1  -2 -13 4.02457 1.29498   1
   1   2  13 4.56811 3.11172   3
   3   2  13 6.23507 1.25833   1
   4   2  13 3.57434 1.44770   1
  -6   3  13 4.26896 4.19945   3
  -5   3  13 -1.0538  3.1006   3
  -4   3  13 1.55324 3.35443   3
  -3   3  13 0.88988 2.93117   3
  -2   3  13 -1.8581  3.0681   3
  -1   3  13 1.77909 3.22015   3
   0  -3 -13 3.72761 1.35086   1
   0   3  13 3.26041 2.95710   3
  -1  -3 -13 3.10242 1.69319   1
   1   3  13 -1.6019  2.4701   3
  -2  -3 -13 5.88079 2.21162   1
  -6   4  13 2.14292 4.16247   3
  -5   4  13 5.46231 4.24161   3
  -4   4  13 14.3531  4.6290   3
  -3   4  13 9.16454 4.09189   3
   2  -4 -13 6.16593 1.51302   1
  -2   4  13 5.28626 3.51705   3
   1  -4 -13 -0.3164  1.3173   1
  -1   4  13 -0.6727  2.9926   3
   0  -4 -13 4.75948 1.78668   1
   0   4  13 6.63167 3.14307   3
  -1  -4 -13 2.51144 2.15750   1
   1   4  13 -0.8500  2.6293   3
  -2  -4 -13 2.11590 1.86316   1
  -6   5  13 7.31569 4.09520   3
  -5   5  13 9.43241 4.65705   3
  -4   5  13 -0.3224  2.8768   3
   3  -5 -13 7.81519 1.70742   1
  -3   5  13 4.96029 3.46654   3
   2  -5 -13 0.59353 1.31633   1
  -2   5  13 2.76955 2.80842   3
   1  -5 -13 16.7425  3.0706   1
  -1   5  13 12.7963  4.1218   3
   0  -5 -13 14.7868  3.1084   1
   0   5  13 6.01594 3.19358   3
  -1  -5 -13 12.9111  3.0239   1
   1   5  13 6.51138 2.45364   3
  -2  -5 -13 9.60635 2.23432   1
  -6   6  13 2.23379 3.10400   3
  -5   6  13 10.2718  4.7997   3
   4  -6 -13 3.77829 1.17416   1
  -4   6  13 0.06036 3.06374   3
   3  -6 -13 4.30770 1.33912   1
  -3   6  13 1.07016 3.31717   3
   2  -6 -13 16.5742  2.9034   1
  -2   6  13 10.3782  3.8910   3
   1  -6 -13 0.59529 1.51048   1
  -1   6  13 2.93340 2.84854   3
   0  -6 -13 15.4091  3.0969   1
   0   6  13 10.1966  3.6373   3
  -1  -6 -13 12.8292  2.9311   1
   1   6  13 11.1562  2.9847   3
  -2  -6 -13 3.07023 1.75875   1
   5  -7 -13 3.05552 1.13393   1
  -5   7  13 -0.4023  3.9023   3
   4  -7 -13 2.06771 1.27933   1
  -4   7  13 -1.2778  3.0777   3
   3  -7 -13 2.29175 1.24527   1
  -3   7  13 -0.6512  2.9165   3
   2  -7 -13 1.18705 1.35462   1
  -2   7  13 2.60771 2.73045   3
   1  -7 -13 43.6940  4.2841   1
  -1   7  13 39.9110  7.1460   3
   0  -7 -13 4.27411 1.67754   1
   0   7  13 3.01916 2.35698   3
  -1  -7 -13 19.8711  2.5604   1
   1   7  13 15.6200  2.3012   3
   4  -8 -13 15.2636  2.0686   1
  -4   8  13 8.03348 4.08158   3
   3  -8 -13 1.33037 1.29821   1
  -3   8  13 3.06374 3.79851   3
   2  -8 -13 6.26398 1.50844   1
  -2   8  13 6.30927 3.50843   3
   1  -8 -13 5.96470 1.72686   1
  -1   8  13 6.90192 2.95684   3
   0  -8 -13 7.27190 2.03959   1
   0   8  13 8.81766 2.86726   3
   1   9 -14 -0.3356  1.9542   2
  -1  -9  14 -0.5903  3.5338   3
   0   9 -14 9.12748 3.07404   2
   0  -9  14 12.6500  5.0024   3
  -1   9 -14 6.41946 2.30571   2
   1  -9  14 6.36866 3.40023   3
   2  -9  14 19.9802  4.1548   3
   3   8 -14 2.02952 2.45331   2
  -3  -8  14 1.26108 5.42435   3
   2   8 -14 2.35755 2.36902   2
  -2  -8  14 1.10920 4.88542   3
   1   8 -14 7.99352 2.77340   2
  -1  -8  14 2.74598 4.16361   3
   0   8 -14 1.20604 1.93886   2
   0  -8  14 -0.1979  4.1574   3
  -1   8 -14 1.96744 2.11141   2
   1  -8  14 0.13353 4.08520   3
  -2   8 -14 6.92335 2.79648   2
   2  -8  14 -2.5556  2.6859   3
  -4  -7  14 6.35614 6.63348   3
   3   7 -14 -0.7328  2.0495   2
  -3  -7  14 -0.7109  4.8726   3
   2   7 -14 4.42258 2.39133   2
  -2  -7  14 -0.4034  4.8633   3
   1   7 -14 3.64709 2.29617   2
  -1  -7  14 1.62499 4.14742   3
   0   7 -14 1.82330 2.10814   2
   0  -7  14 3.72804 4.58018   3
  -1   7 -14 3.52399 3.07975   2
   1  -7  14 -0.6147  4.2779   3
  -2   7 -14 7.82452 3.62098   2
   2  -7  14 2.26553 3.61128   3
  -3   7 -14 1.75873 2.95119   2
  -5  -6  14 -5.4384  4.0185   3
   4   6 -14 6.64333 2.91108   2
  -4  -6  14 -0.4016  5.6997   3
   3   6 -14 0.21355 1.67237   2
  -3  -6  14 -6.2481  4.2721   3
   2   6 -14 -1.0238  1.5301   2
  -2  -6  14 -0.3412  4.6419   3
   1   6 -14 5.25354 2.07505   2
  -1  -6  14 5.80240 4.97742   3
   0   6 -14 15.0162  3.1784   2
   0  -6  14 10.1989  5.3900   3
  -1   6 -14 1.26063 2.26416   2
   1  -6  14 -3.7717  4.3451   3
  -2   6 -14 24.9165  4.6970   2
   2  -6  14 12.6186  4.6639   3
  -3   6 -14 1.14358 2.83702   2
   5   5 -14 20.8138  4.4330   2
  -5  -5  14 9.59736 5.80368   3
   4   5 -14 0.79766 1.81814   2
  -4  -5  14 -0.7124  5.0441   3
   3   5 -14 2.20118 1.64331   2
  -3  -5  14 -1.9561  4.3060   3
   2   5 -14 13.0588  2.7288   2
  -2  -5  14 6.03034 5.02794   3
   1   5 -14 2.91572 1.89415   2
  -1  -5  14 -2.9279  4.5727   3
   0   5 -14 4.35775 2.13729   2
   0  -5  14 2.46201 4.69022   3
  -1   5 -14 4.31477 2.43552   2
   1  -5  14 -3.2156  4.5422   3
  -2   5 -14 3.06161 2.40059   2
   2  -5  14 0.81814 2.88175   3
  -3   5 -14 -0.9002  2.6949   2
   5   4 -14 33.4726  5.6569   2
  -5  -4  14 21.5343  7.0513   3
   4   4 -14 4.77955 2.13201   2
  -4  -4  14 0.98741 4.66951   3
   3   4 -14 0.17829 1.25407   2
  -3  -4  14 -5.3922  3.9012   3
   2   4 -14 1.09292 1.38987   2
  -2  -4  14 5.38331 5.07683   3
   1   4 -14 1.40291 1.81691   2
  -1  -4  14 -1.9344  4.2897   3
   0   4 -14 -2.8042  1.4680   2
   0  -4  14 -2.8461  3.7636   3
  -1   4 -14 21.2416  3.9438   2
   1  -4  14 9.75111 5.69650   3
  -2   4 -14 4.38868 2.84863   2
  -3   4 -14 2.51116 3.25008   2
   6   3 -14 1.97113 2.26785   2
  -6  -3  14 -2.5756  3.9932   3
   5   3 -14 10.6177  3.4293   2
  -5  -3  14 2.12025 5.28979   3
   4   3 -14 15.5132  3.2565   2
  -4  -3  14 10.8715  5.6231   3
   3   3 -14 4.36643 1.81556   2
  -3  -3  14 5.81218 4.95071   3
   2   3 -14 11.1082  2.6684   2
  -2  -3  14 4.40814 4.48780   3
   1   3 -14 15.1168  2.9497   2
  -1  -3  14 6.99942 5.16014   3
   0   3 -14 0.03879 1.84089   2
   0  -3  14 -1.8385  3.6958   3
  -1   3 -14 2.39248 2.05114   2
   1  -3  14 0.60472 4.04621   3
  -2   3 -14 10.3479  3.7803   2
  -3   3 -14 4.78135 3.17992   2
  -4   3 -14 13.6537  4.2889   2
   6   2 -14 4.97770 2.65286   2
  -6  -2  14 1.98835 4.33517   3
   5   2 -14 50.8470  5.2154   2
  -5  -2  14 46.3273  9.1532   3
   4   2 -14 3.41127 1.67438   2
  -4  -2  14 -1.4028  4.0748   3
   3   2 -14 26.4382  3.0082   2
  -3  -2  14 19.7489  5.9492   3
   2   2 -14 13.3364  2.5488   2
  -2  -2  14 9.47213 5.15555   3
   1   2 -14 9.44422 2.23918   2
  -1  -2  14 8.15294 5.11481   3
   0   2 -14 1.42290 1.80514   2
   0  -2  14 -4.0834  3.5631   3
  -1   2 -14 2.89957 1.96903   2
   1  -2  14 -2.3246  3.7153   3
  -2   2 -14 8.19062 3.17502   2
  -3   2 -14 1.46440 3.31349   2
  -4   2 -14 2.09289 3.22306   2
   6   1 -14 25.1741  3.3550   2
  -6  -1  14 14.7553  5.8150   3
   5   1 -14 2.37571 1.91212   2
  -5  -1  14 -0.6949  5.0920   3
   4   1 -14 2.05956 1.56991   2
  -4  -1  14 4.73254 4.48304   3
   3   1 -14 31.6992  3.3350   2
  -3  -1  14 27.5576  6.9785   3
   2   1 -14 6.30559 1.67391   2
  -2  -1  14 3.01402 4.53570   3
   1   1 -14 10.4260  2.2288   2
  -1  -1  14 5.27477 4.77122   3
   0   1 -14 1.69174 1.81482   2
   0  -1  14 3.85565 3.95766   3
  -1   1 -14 0.03153 2.02508   2
   1  -1  14 -3.9856  3.3261   3
  -2   1 -14 21.0972  4.2003   2
  -3   1 -14 22.5309  5.1337   2
  -4   1 -14 -1.8629  2.3512   2
  -6   0  14 6.87000 4.94463   3
  -5   0  14 4.07365 5.15072   3
  -4   0  14 0.76072 3.96114   3
   3   0 -14 11.1621  2.1407   2
  -3   0  14 5.18224 4.28071   3
   2   0 -14 0.46651 1.18904   2
  -2   0  14 1.64584 3.95310   3
   1   0 -14 8.10699 2.20753   2
  -1   0  14 2.21130 4.44329   3
   0   0 -14 3.17990 1.65747   2
   0   0  14 2.53830 3.39303   3
  -1   0 -14 -0.3826  1.8837   2
   1   0  14 3.46925 3.67846   3
  -2   0 -14 4.01604 2.25662   2
  -3   0 -14 9.36378 2.89143   2
  -6   1  14 -3.0511  4.3465   3
  -5   1  14 11.2770  5.5170   3
  -4   1  14 1.31928 3.36919   3
  -3   1  14 4.75375 4.07871   3
  -2   1  14 -5.6983  3.1209   3
  -1   1  14 -3.8126  3.6104   3
   0   1  14 -0.7099  3.0394   3
   1   1  14 9.56362 3.97037   3
  -6   2  14 3.42896 4.38889   3
  -5   2  14 0.11420 4.14336   3
  -4   2  14 3.63139 3.72760   3
  -3   2  14 4.35249 3.48160   3
  -2   2  14 7.93801 4.28772   3
  -1   2  14 -0.6731  3.2137   3
   0   2  14 19.6180  5.0634   3
   1   2  14 0.31944 2.78184   3
  -6   3  14 7.25251 4.26837   3
  -5   3  14 7.09483 4.77340   3
  -4   3  14 -3.3856  2.8324   3
  -3   3  14 0.42757 3.24737   3
  -2   3  14 5.63075 3.70841   3
  -1   3  14 4.25574 3.33820   3
   0   3  14 3.16378 3.27106   3
   1   3  14 0.50042 2.27934   3
  -6   4  14 -0.6114  3.2446   3
  -5   4  14 -0.2707  4.1863   3
  -4   4  14 0.74449 3.87042   3
  -3   4  14 5.01227 4.10067   3
  -2   4  14 13.1532  5.0324   3
  -1   4  14 7.95783 3.49541   3
   0  -4 -14 14.7937  1.8853   1
   0   4  14 12.9176  4.3697   3
  -1  -4 -14 4.94848 1.42254   1
   1   4  14 0.07112 2.10162   3
  -2  -4 -14 4.56278 1.85317   1
  -5   5  14 2.84256 4.60075   3
  -4   5  14 3.12172 3.78994   3
  -3   5  14 3.57249 3.75424   3
  -2   5  14 -0.2467  2.6815   3
   1  -5 -14 3.31806 1.23582   1
  -1   5  14 -2.2363  2.8694   3
   0  -5 -14 39.5001  3.5441   1
   0   5  14 30.7409  5.9574   3
  -1  -5 -14 0.86213 1.40732   1
   1   5  14 3.22227 1.86192   3
  -2  -5 -14 21.1934  2.3866   1
  -5   6  14 4.87981 3.95833   3
  -4   6  14 1.13874 4.05242   3
  -3   6  14 4.51132 4.02274   3
   2  -6 -14 12.9569  1.8001   1
  -2   6  14 1.25140 2.94819   3
   1  -6 -14 5.92297 1.51373   1
  -1   6  14 8.44685 4.14842   3
   0  -6 -14 6.87770 2.02454   1
   0   6  14 5.58084 2.37637   3
  -1  -6 -14 40.7951  3.7362   1
   3  -7 -14 14.5929  1.7449   1
  -3   7  14 10.5349  3.8990   3
   2  -7 -14 1.32234 1.20394   1
  -2   7  14 2.06687 2.74088   3
   1  -7 -14 7.22743 1.59108   1
  -1   7  14 2.80499 2.57807   3
   0  -7 -14 59.7338  4.4758   1
   0   7  14 47.8670  5.7917   3
   2  -8 -14 1.95033 1.05363   1
   1   8 -15 1.49226 2.47902   2
  -1  -8  15 -1.9309  3.4925   3
   0   8 -15 13.9230  3.7736   2
   0  -8  15 4.37438 4.14944   3
   1  -8  15 1.81122 3.60688   3
   3   7 -15 2.26466 2.07441   2
  -3  -7  15 0.97300 5.29456   3
   2   7 -15 0.16423 1.77553   2
  -2  -7  15 -3.6176  4.3413   3
   1   7 -15 25.2450  4.2409   2
  -1  -7  15 15.2145  5.9390   3
   0   7 -15 16.3001  3.7860   2
   0  -7  15 11.5325  5.7385   3
  -1   7 -15 2.82397 2.92138   2
   1  -7  15 -2.8649  3.6462   3
  -4  -6  15 -6.1885  4.8215   3
   3   6 -15 4.47711 2.36151   2
  -3  -6  15 0.73082 5.53730   3
   2   6 -15 8.14145 2.79612   2
  -2  -6  15 1.05162 4.70660   3
   1   6 -15 6.52586 2.39587   2
  -1  -6  15 4.63320 4.80609   3
   0   6 -15 2.91644 2.34113   2
   0  -6  15 -6.5784  4.4021   3
  -1   6 -15 2.17140 2.70811   2
   1  -6  15 -1.7223  3.4251   3
  -2   6 -15 1.25749 3.08009   2
   4   5 -15 23.3816  4.7388   2
  -4  -5  15 9.79420 6.62407   3
   3   5 -15 4.14896 2.19599   2
  -3  -5  15 -1.0471  5.1744   3
   2   5 -15 2.79769 1.58278   2
  -2  -5  15 0.89632 4.73737   3
   1   5 -15 2.05535 1.96588   2
  -1  -5  15 -2.8117  4.1633   3
   0   5 -15 4.84494 2.43407   2
   0  -5  15 -4.2514  3.8140   3
  -1   5 -15 4.81800 2.90925   2
   1  -5  15 -8.3954  3.5131   3
  -2   5 -15 -3.1297  2.0891   2
   5   4 -15 31.4930  4.1341   2
  -5  -4  15 32.3751  7.4897   3
   4   4 -15 13.5631  3.0297   2
  -4  -4  15 11.0665  6.5115   3
   3   4 -15 5.89512 2.32063   2
  -3  -4  15 2.32503 5.16430   3
   2   4 -15 4.73384 2.16225   2
  -2  -4  15 2.97680 4.95031   3
   1   4 -15 0.27268 1.60574   2
  -1  -4  15 2.52288 4.48800   3
   0   4 -15 0.11258 1.72857   2
   0  -4  15 -0.3647  4.4791   3
  -1   4 -15 2.83248 2.48086   2
   1  -4  15 -0.8600  3.7677   3
  -2   4 -15 -0.4529  2.4214   2
  -3   4 -15 2.37048 3.56665   2
   5   3 -15 2.51028 2.20807   2
  -5  -3  15 2.18341 5.64547   3
   4   3 -15 1.86126 2.20336   2
  -4  -3  15 -4.3510  4.8901   3
   3   3 -15 0.99797 1.82575   2
  -3  -3  15 -0.7712  4.1303   3
   2   3 -15 19.4661  3.5679   2
  -2  -3  15 13.1571  5.8745   3
   1   3 -15 2.18090 1.66726   2
  -1  -3  15 4.82568 4.41716   3
   0   3 -15 2.34478 1.84497   2
   0  -3  15 1.25437 4.12671   3
  -1   3 -15 2.69711 2.38793   2
   1  -3  15 -1.4152  4.1755   3
  -2   3 -15 1.98477 2.84838   2
  -3   3 -15 -2.6023  2.6289   2
   5   2 -15 5.94765 2.53290   2
  -5  -2  15 -10.522   4.812   3
   4   2 -15 6.56605 2.53252   2
  -4  -2  15 11.0212  6.6010   3
   3   2 -15 12.3917  2.8234   2
  -3  -2  15 3.51903 5.11719   3
   2   2 -15 44.5449  4.0079   2
  -2  -2  15 36.8152  7.7380   3
   1   2 -15 5.26122 1.94972   2
  -1  -2  15 -0.0246  4.5699   3
   0   2 -15 1.19911 1.50694   2
   0  -2  15 0.05527 4.31015   3
  -1   2 -15 2.20606 2.36427   2
   1  -2  15 -7.1570  3.1780   3
  -2   2 -15 5.20572 3.37377   2
  -3   2 -15 2.56003 2.95493   2
  -5  -1  15 -5.9123  4.8867   3
   4   1 -15 5.51261 1.70495   2
  -4  -1  15 5.21880 5.30628   3
   3   1 -15 5.16375 1.92436   2
  -3  -1  15 2.73217 4.59812   3
   2   1 -15 11.6204  2.5584   2
  -2  -1  15 6.47497 4.43780   3
   1   1 -15 4.43382 1.79259   2
  -1  -1  15 -0.2303  4.2419   3
   0   1 -15 2.14770 1.74531   2
   0  -1  15 3.05713 4.14610   3
  -1   1 -15 7.23934 2.60830   2
   1  -1  15 0.79705 3.57324   3
  -2   1 -15 1.37087 2.54923   2
  -3   1 -15 30.6719  4.4274   2
  -6   0  15 10.3161  4.7152   3
  -5   0  15 -3.7416  4.7442   3
  -4   0  15 1.64962 4.64614   3
  -3   0  15 0.03276 3.66745   3
  -2   0  15 10.0604  5.0843   3
  -1   0  15 2.85715 3.56674   3
   0   0  15 6.47080 4.52231   3
   1   0  15 16.0591  4.7742   3
  -6   1  15 7.39539 4.41434   3
  -5   1  15 9.82990 5.66172   3
  -4   1  15 1.41281 3.94116   3
  -3   1  15 0.52201 3.46396   3
  -2   1  15 0.80948 3.68997   3
  -1   1  15 0.96163 3.17709   3
   0   1  15 0.72276 3.61002   3
   1   1  15 -0.3816  2.3079   3
  -6   2  15 0.66324 3.34320   3
  -5   2  15 -3.4356  4.1580   3
  -4   2  15 3.39117 4.03914   3
  -3   2  15 10.9493  4.9034   3
  -2   2  15 3.36507 3.61432   3
  -1   2  15 -0.0715  3.0507   3
   0   2  15 17.9307  5.4439   3
   1   2  15 1.81146 2.13486   3
  -5   3  15 0.35209 4.60790   3
  -4   3  15 3.83538 4.00742   3
  -3   3  15 -0.8251  3.5084   3
  -2   3  15 5.48335 3.68664   3
  -1   3  15 4.51961 3.55031   3
   0   3  15 3.63174 3.50313   3
   1   3  15 10.8905  3.1585   3
  -5   4  15 2.74611 4.54820   3
  -4   4  15 3.97554 4.38599   3
  -3   4  15 38.5096  7.7050   3
  -2   4  15 6.71458 3.98128   3
  -1   4  15 -1.0117  3.2997   3
   0   4  15 5.65465 2.90301   3
  -4   5  15 -4.9699  3.4411   3
  -3   5  15 4.90492 3.96765   3
  -2   5  15 16.5011  4.9385   3
  -1   5  15 0.33396 2.83582   3
   0   5  15 6.70887 2.77635   3
  -2   6  15 1.28029 2.41472   3
  -1   6  15 5.38573 2.35914   3
   0   6  15 10.7067  2.2242   3
   1  -7  16 -5.3152  2.5401   3
   2   6 -16 11.4374  3.7670   2
  -2  -6  16 6.91254 4.96588   3
   1   6 -16 -2.6693  2.1808   2
  -1  -6  16 0.50438 4.67794   3
   0   6 -16 -0.7514  2.6717   2
   0  -6  16 -5.2940  3.3631   3
   1  -6  16 -5.6927  3.1770   3
   3   5 -16 1.56250 2.19365   2
  -3  -5  16 -4.0980  5.2779   3
   2   5 -16 0.31246 1.91741   2
  -2  -5  16 -5.8295  3.8135   3
   1   5 -16 6.76209 2.57171   2
  -1  -5  16 0.98472 4.96338   3
   0   5 -16 2.05928 2.32886   2
   0  -5  16 -4.1819  3.8646   3
  -1   5 -16 -3.4138  2.6755   2
   4   4 -16 5.62902 2.44845   2
  -4  -4  16 7.65051 5.36751   3
   3   4 -16 2.01889 1.87926   2
  -3  -4  16 -0.1900  5.0378   3
   2   4 -16 9.78637 2.98892   2
  -2  -4  16 10.6544  5.0478   3
   1   4 -16 6.62005 2.87631   2
  -1  -4  16 9.07536 4.97955   3
   0   4 -16 0.53835 2.05186   2
   0  -4  16 -7.5584  3.5780   3
  -1   4 -16 21.5630  4.7499   2
  -2   4 -16 1.97427 2.77050   2
   4   3 -16 -1.1057  1.6947   2
  -4  -3  16 -3.4238  5.1715   3
   3   3 -16 1.29012 1.88493   2
  -3  -3  16 1.91561 6.20241   3
   2   3 -16 0.28571 1.66684   2
  -2  -3  16 0.46315 4.17115   3
   1   3 -16 1.54669 2.07998   2
  -1  -3  16 -3.1065  4.3433   3
   0   3 -16 2.95945 2.38581   2
   0  -3  16 7.22354 5.49460   3
  -1   3 -16 -1.1096  2.6635   2
   1  -3  16 -5.1681  3.1738   3
  -2   3 -16 8.86909 2.69504   2
   5   2 -16 4.83129 1.86979   2
   4   2 -16 2.85218 1.77869   2
  -4  -2  16 3.52208 6.24550   3
   3   2 -16 5.83418 2.07362   2
  -3  -2  16 -2.9823  5.4478   3
   2   2 -16 -1.1394  1.3191   2
  -2  -2  16 -5.8302  3.5579   3
   1   2 -16 4.28277 1.92270   2
  -1  -2  16 2.84738 4.76096   3
   0   2 -16 -2.2015  1.5647   2
   0  -2  16 -6.6261  3.7754   3
  -1   2 -16 20.1321  4.1078   2
   1  -2  16 12.2626  4.6700   3
  -2   2 -16 4.84472 2.39659   2
  -4  -1  16 -1.4194  5.4175   3
  -3  -1  16 -5.3026  3.9247   3
  -2  -1  16 26.2636  6.5278   3
  -1  -1  16 2.10834 4.07182   3
   0  -1  16 -1.8905  4.1788   3
  -4   0  16 -2.4734  4.5865   3
  -3   0  16 -3.7721  3.7563   3
  -2   0  16 2.76636 4.04766   3
  -1   0  16 5.02277 4.34833   3
   0   0  16 -0.9103  3.6795   3
   1   0  16 -1.8800  2.8475   3
  -4   1  16 6.73027 5.10352   3
  -3   1  16 6.85170 5.26357   3
  -2   1  16 12.4781  4.8248   3
  -1   1  16 2.21098 4.50004   3
   0   1  16 1.20478 3.21081   3
   1   1  16 8.99828 2.32110   3
  -4   2  16 0.89359 4.51096   3
  -3   2  16 -2.7027  3.9315   3
  -2   2  16 41.2285  7.8116   3
  -1   2  16 1.42679 3.90567   3
   0   2  16 18.0026  4.1146   3
  -3   3  16 -1.5502  3.4097   3
  -2   3  16 0.64434 3.35896   3
  -1   3  16 20.3617  5.5250   3
   0   3  16 2.40743 2.99972   3
  -2   4  16 6.21950 3.68433   3
  -1   4  16 6.10905 3.28236   3
   0   4  16 27.6440  4.2363   3
   3   4 -17 0.80517 1.67287   2
   2   4 -17 -1.0459  1.5746   2
   1   4 -17 1.66670 1.81160   2
  -1  -4  17 -1.5732  3.2756   3
   0   4 -17 0.45879 2.01537   2
   0  -4  17 -1.0761  3.7261   3
   1  -4  17 -5.5377  2.5237   3
   3   3 -17 3.56172 1.77488   2
   2   3 -17 2.37239 1.73820   2
  -2  -3  17 -3.0416  3.6385   3
   1   3 -17 37.8011  4.1620   2
  -1  -3  17 20.8580  6.7492   3
   0   3 -17 2.88684 1.87164   2
   0  -3  17 -3.8602  3.2558   3
  -1   3 -17 -0.6110  1.7531   2
  -2  -2  17 -0.2187  4.4160   3
   1   2 -17 5.31727 1.72836   2
  -1  -2  17 2.16051 4.59893   3
   0   2 -17 2.55131 1.71038   2
   0  -2  17 -3.4752  3.7000   3
  -1   2 -17 2.01599 1.78124   2
   1  -2  17 -2.9924  2.4373   3
  -2  -1  17 12.3511  5.7616   3
  -1  -1  17 17.0224  5.8638   3
  -2   0  17 -3.3302  3.5859   3
  -1   0  17 12.4145  4.8186   3
   0   0  17 4.65255 3.71638   3
  -2   1  17 6.68706 3.81499   3
  -1   1  17 -1.5564  2.8621   3
   0   1  17 21.6620  4.5414   3
  -1   2  17 20.9776  4.2137   3
   0   0   0    0.00    0.00   0
;
_shelx_hkl_checksum              44313
_shelx_res_file
;
TITL 10mz585_0m in P-1
CELL 0.71073   6.3512  10.4050  12.4641  95.548  99.348 100.200
ZERR    1.00   0.0012   0.0020   0.0024   0.003   0.003   0.003
LATT 1
SFAC C  H  N  O
UNIT 43 28 4 3
LIST 4 ! automatically inserted. Change 6 to 4 for CHECKCIF!!
L.S. 33
ACTA
BOND $H
FMAP 2
PLAN 20
CONF
SHEL 99 0.8
FLAT C1 C2 C3 C4
FLAT C1 O2A1 C3A1 C4 O3A1
FLAT C1 O2A2 C2A2 C4 O3A2
FLAT C6 C7B C8B C9 N2B O1B
FLAT C1 C2A C3A C4 N1A O1A
FLAT C6 C7B1 O2B1 C9 O3B1 N2B1
FLAT C6 C8B2 O2B2 C9 O3B2 N2B2
FLAT C6 C7 C8 C9 N2
SADI N1 C4 N1 C1 N1A1 C4 N1A1 C1 N1A2 C4 N1A2 C1 N1A C4 N1A C1 C6
SADI N2 C9 N2 C6 N2B1 C9 N2B1 C6 N2B2 C9 N2B2 C6 N2B C9 N2B
SADI C4 C3 C4 C3A C1 C2 C1 C2A C6 C7 C6 C7B C9 C8 C9 C8B
SADI C2 C3 C2A C3A C7 C8 C7B C8B
SADI C6 C8 C6 C8B C9 C7 C9 C7B C1 C3 C4 C2 C1 C3A C4 C2A
SADI N1A O1A N2B O1B
EXYZ N1 N1A1 N1A2
EXYZ N2 N2B1 N2B2
EADP C2 O2A1 C2A2 C2A C1 O3A2
EADP C3 O2A2 C3A1 C3A C4
EADP C7 C7B1 C7B O2B2 O3B1
EADP C8 O2B1 C8B C8B2 O3B2
EADP O1A O1B
EADP N1 N1A1 N1A2 N1A
EADP N2 N2B1 N2B2 N2B
SIZE 0.11 0.17 0.32
DFIX 1.455 C4 C3A1 C1 C2A2 C6 C7B1 C9 C8B2
DFIX 1.393 O2A1 C3A1 O2A2 C2A2 O2B1 C7B1 C8B2 O2B2
DFIX 1.367 C1 O2A1 C4 O2A2 C9 O2B1 C6 O2B2
SADI C1 C3A1 C4 C2A2 C9 C7B1 C6 C8B2
SADI C4 O2A1 C1 O2A2 C6 O2B1 C9 O2B2
TEMP -173.5
SUMP 1.0 0 1.0 2 1.0 3
SUMP 0.5 0 1.0 4 1.0 5 1.0 6 1.0 7
SUMP 0 0 2.0 4 2.0 5 -1.0 2
SUMP 0 0 2.0 6 2.0 7 -1.0 3
WGHT    0.052000    0.464200
FVAR       0.81707   0.68410   0.31589   0.29055   0.05150   0.12041   0.03754
C1    1   -0.313076    0.428482    0.660822    11.00000    0.01872    0.02202 =
         0.03839   -0.00023    0.00346    0.00103
PART  1
N1    3   -0.132237    0.513176    0.643923    31.00000    0.02164    0.02942 =
         0.03429    0.00581   -0.00225   -0.00242
AFIX  43
H1A1  2   -0.091652    0.521751    0.580338    31.00000   -1.20000
AFIX   0
C2    1   -0.313939    0.442784    0.779196    31.00000    0.01872    0.02202 =
         0.03839   -0.00023    0.00346    0.00103
AFIX  43
H2    2   -0.419233    0.395907    0.814647    31.00000   -1.20000
AFIX   0
C3    1   -0.137214    0.535023    0.828717    31.00000    0.02049    0.02270 =
         0.03328    0.00002    0.00099    0.00421
AFIX  43
H3    2   -0.094400    0.563494    0.905172    31.00000   -1.20000
PART  2
AFIX   0
N1A1  3   -0.132237    0.513176    0.643923    41.00000    0.02164    0.02942 =
         0.03429    0.00581   -0.00225   -0.00242
O2A1  4   -0.335654    0.440079    0.762796    41.00000    0.01872    0.02202 =
         0.03839   -0.00023    0.00346    0.00103
O3A1  4   -0.130542    0.554421    0.918026    41.00000    0.03483    0.05165 =
         0.03015   -0.00736    0.00495   -0.01225
C3A1  1   -0.160137    0.534852    0.821759    41.00000    0.02049    0.02270 =
         0.03328    0.00002    0.00099    0.00421
PART  3
N1A2  3   -0.132237    0.513176    0.643923    51.00000    0.02164    0.02942 =
         0.03429    0.00581   -0.00225   -0.00242
O2A2  4   -0.156320    0.573912    0.816745    51.00000    0.02049    0.02270 =
         0.03328    0.00002    0.00099    0.00421
C2A2  1   -0.336309    0.475369    0.770650    51.00000    0.01872    0.02202 =
         0.03839   -0.00023    0.00346    0.00103
O3A2  4   -0.468328    0.440780    0.820795    51.00000    0.01872    0.02202 =
         0.03839   -0.00023    0.00346    0.00103
PART  4
N1A   3   -0.148632    0.523548    0.644587    20.50000    0.02164    0.02942 =
         0.03429    0.00581   -0.00225   -0.00242
O1A   4   -0.132225    0.574349    0.552139    20.50000    0.02245    0.02086 =
         0.02566    0.00290    0.00036    0.00108
C2A   1   -0.299043    0.430912    0.779579    20.50000    0.01872    0.02202 =
         0.03839   -0.00023    0.00346    0.00103
AFIX  43
H2A   2   -0.392961    0.375037    0.815095    20.50000   -1.20000
AFIX   0
C3A   1   -0.128889    0.526681    0.829737    20.50000    0.02049    0.02270 =
         0.03328    0.00002    0.00099    0.00421
AFIX  43
H3A   2   -0.084713    0.552965    0.906433    20.50000   -1.20000
PART  0
AFIX   0
C4    1   -0.026116    0.581918    0.743143    11.00000    0.02049    0.02270 =
         0.03328    0.00002    0.00099    0.00421
C5    1    0.176036    0.671656    0.763655    11.00000    0.02267    0.01986 =
         0.03183    0.00327    0.00003    0.00353
C6    1    0.312686    0.697974    0.686820    11.00000    0.01980    0.01986 =
         0.03523    0.00192   -0.00098    0.00127
PART  5
N2    3    0.274953    0.642315    0.579503    21.00000    0.01910    0.02109 =
         0.03107    0.00319    0.00137   -0.00126
AFIX  43
H2A1  2    0.160128    0.582547    0.547538    21.00000   -1.20000
AFIX   0
C7    1    0.522106    0.785957    0.706807    21.00000    0.02056    0.02272 =
         0.03612   -0.00239   -0.00110    0.00062
AFIX  43
H7    2    0.591000    0.838940    0.773970    21.00000   -1.20000
AFIX   0
C8    1    0.603203    0.779404    0.612164    21.00000    0.01907    0.02581 =
         0.04533   -0.00097    0.00740   -0.00259
AFIX  43
H8    2    0.741687    0.823841    0.602571    21.00000   -1.20000
PART  6
AFIX   0
N2B1  3    0.274953    0.642315    0.579503    61.00000    0.01910    0.02109 =
         0.03107    0.00319    0.00137   -0.00126
C7B1  1    0.516780    0.789916    0.698256    61.00000    0.02056    0.02272 =
         0.03612   -0.00239   -0.00110    0.00062
O2B1  4    0.589350    0.785590    0.599323    61.00000    0.01907    0.02581 =
         0.04533   -0.00097    0.00740   -0.00259
O3B1  4    0.630208    0.860872    0.770529    61.00000    0.02056    0.02272 =
         0.03612   -0.00239   -0.00110    0.00062
PART  7
N2B2  3    0.274953    0.642315    0.579503    71.00000    0.01910    0.02109 =
         0.03107    0.00319    0.00137   -0.00126
O2B2  4    0.516738    0.770966    0.714318    71.00000    0.02056    0.02272 =
         0.03612   -0.00239   -0.00110    0.00062
C8B2  1    0.604581    0.765714    0.619885    71.00000    0.01907    0.02581 =
         0.04533   -0.00097    0.00740   -0.00259
O3B2  4    0.785677    0.814590    0.618636    71.00000    0.01907    0.02581 =
         0.04533   -0.00097    0.00740   -0.00259
PART  8
N2B   3    0.254356    0.672581    0.573914    30.50000    0.01910    0.02109 =
         0.03107    0.00319    0.00137   -0.00126
O1B   4    0.047489    0.639948    0.518651    30.50000    0.02245    0.02086 =
         0.02566    0.00290    0.00036    0.00108
C7B   1    0.540992    0.759311    0.711421    30.50000    0.02056    0.02272 =
         0.03612   -0.00239   -0.00110    0.00062
AFIX  43
H7B   2    0.625751    0.788082    0.782578    30.50000   -1.20000
AFIX   0
C8B   1    0.612763    0.768571    0.615557    30.50000    0.01907    0.02581 =
         0.04533   -0.00097    0.00740   -0.00259
AFIX  43
H8B   2    0.749748    0.815712    0.606400    30.50000   -1.20000
PART  0
AFIX   0
C9    1    0.441771    0.693143    0.529165    11.00000    0.02073    0.02282 =
         0.03470    0.00079    0.00316    0.00146
C10   1    0.458685    0.666364    0.417975    11.00000    0.01819    0.02384 =
         0.03316    0.00125    0.00271    0.00186
C11   1    0.255823    0.739585    0.878880    11.00000    0.02520    0.02397 =
         0.03040    0.00397   -0.00010   -0.00597
C12   1    0.137848    0.824883    0.925067    11.00000    0.04043    0.03294 =
         0.03987   -0.00217   -0.00093    0.00539
AFIX  43
H12   2    0.005937    0.838697    0.883961    11.00000   -1.20000
AFIX   0
C13   1    0.213138    0.889401    1.030861    11.00000    0.06712    0.03755 =
         0.03861   -0.00741    0.00041    0.00693
AFIX  43
H13   2    0.131304    0.946392    1.061989    11.00000   -1.20000
AFIX   0
C14   1    0.404817    0.871620    1.090954    11.00000    0.06467    0.04844 =
         0.03027   -0.00398   -0.00957   -0.01270
AFIX  43
H14   2    0.456290    0.917059    1.162895    11.00000   -1.20000
AFIX   0
C15   1    0.522151    0.787502    1.046355    11.00000    0.04195    0.06779 =
         0.04344    0.00931   -0.01050    0.00294
AFIX  43
H15   2    0.654870    0.775254    1.087756    11.00000   -1.20000
AFIX   0
C16   1    0.447642    0.720650    0.941427    11.00000    0.03511    0.04800 =
         0.03760    0.00563   -0.00496    0.00522
AFIX  43
H16   2    0.528135    0.661522    0.912058    11.00000   -1.20000
AFIX   0
C17   1    0.639552    0.752523    0.379540    11.00000    0.01579    0.02472 =
         0.02641    0.00026   -0.00039   -0.00029
C18   1    0.660010    0.889624    0.394989    11.00000    0.02427    0.02500 =
         0.03559   -0.00001    0.00356    0.00329
AFIX  43
H18   2    0.559097    0.927382    0.430004    11.00000   -1.20000
AFIX   0
C19   1    0.826214    0.971094    0.359695    11.00000    0.02969    0.02120 =
         0.04462    0.00266    0.00160   -0.00252
AFIX  43
H19   2    0.839026    1.063974    0.370962    11.00000   -1.20000
AFIX   0
C20   1    0.973557    0.916372    0.307900    11.00000    0.02203    0.03254 =
         0.03867    0.00657    0.00295   -0.00459
AFIX  43
H20   2    1.087481    0.971916    0.283915    11.00000   -1.20000
AFIX   0
C21   1    0.954530    0.780802    0.291177    11.00000    0.02204    0.03479 =
         0.04301    0.00366    0.00933    0.00313
AFIX  43
H21   2    1.054571    0.743470    0.255158    11.00000   -1.20000
AFIX   0
C22   1    0.788794    0.699407    0.327183    11.00000    0.02519    0.02179 =
         0.04009    0.00007    0.00481    0.00280
AFIX  43
H22   2    0.777178    0.606614    0.315973    11.00000   -1.20000
AFIX   0
HKLF 4
REM  10mz585_0m in P-1
REM R1 =  0.0584 for    2371 Fo > 4sig(Fo)  and  0.0817 for all    3185 data
REM    283 parameters refined using    152 restraints
END
WGHT      0.0523      0.4589
REM Highest difference peak  0.284,  deepest hole -0.271,  1-sigma level  0.049
Q1    1   0.4574  0.7052  1.0579  11.00000  0.05    0.28
Q2    1   0.2492  0.8293  0.8810  11.00000  0.05    0.28
Q3    1   0.3895  0.7578  1.0809  11.00000  0.05    0.25
Q4    1   0.2201  0.7221  0.7222  11.00000  0.05    0.20
Q5    1   0.5667  0.7006  0.3950  11.00000  0.05    0.19
Q6    1  -0.1153  0.5910  0.7811  11.00000  0.05    0.19
Q7    1   0.3591  0.6606  0.9798  11.00000  0.05    0.18
Q8    1   0.4168  0.7333  0.7242  11.00000  0.05    0.18
Q9    1  -0.0642  0.5047  0.5969  11.00000  0.05    0.17
Q10   1  -0.3935  0.4272  0.7049  11.00000  0.05    0.17
Q11   1   0.0101  0.3910  0.8594  11.00000  0.05    0.17
Q12   1   0.2154  0.7015  0.8242  11.00000  0.05    0.16
Q13   1   0.5572  0.9037  0.7722  11.00000  0.05    0.16
Q14   1  -0.2309  0.4613  0.8259  11.00000  0.05    0.15
Q15   1  -0.0323  0.7198  0.4743  11.00000  0.05    0.15
Q16   1   0.0671  0.4994  0.7436  11.00000  0.05    0.15
Q17   1  -0.0685  0.5588  0.6950  11.00000  0.05    0.15
Q18   1   0.1643  0.7394  0.9196  11.00000  0.05    0.15
Q19   1   0.6760  0.8125  0.7856  11.00000  0.05    0.15
Q20   1   0.2134  0.9787  1.0321  11.00000  0.05    0.15
;
_shelx_res_checksum              66088
_shelxl_version_number           201.4
#END Tags that were not found in dictionaries
loop_
_space_group_symop_operation_xyz
'x, y, z'
'-x, -y, -z'
loop_
_atom_site_type_symbol
_atom_site_label
_atom_site_fract_x
_atom_site_fract_y
_atom_site_fract_z
_atom_site_U_iso_or_equiv
_atom_site_adp_type
_atom_site_calc_flag
_atom_site_occupancy
_atom_site_disorder_assembly
_atom_site_disorder_group
C C1 -0.3131(3) 0.4285(2) 0.66082(19) 0.0272(5) Uani d 1 . .
N N1_a -0.132(2) 0.5132(16) 0.6439(7) 0.0301(18) Uani d 0.3159(16) A 1
H H1A1_a -0.0917 0.5218 0.5803 0.036 Uiso calc 0.3159(16) A 1
C C2_a -0.314(2) 0.4428(17) 0.7792(9) 0.0272(5) Uani d 0.3159(16) A 1
H H2_a -0.4192 0.3959 0.8146 0.033 Uiso calc 0.3159(16) A 1
C C3_a -0.137(3) 0.535(2) 0.8287(9) 0.0262(4) Uani d 0.3159(16) A 1
H H3_a -0.0944 0.5635 0.9052 0.031 Uiso calc 0.3159(16) A 1
N N1A1_b -0.132(2) 0.5132(16) 0.6439(7) 0.0301(18) Uani d 0.2905(12) A 2
O O2A1_b -0.3357(16) 0.4401(12) 0.7628(7) 0.0272(5) Uani d 0.2905(12) A 2
O O3A1_b -0.1305(10) 0.5544(7) 0.9180(5) 0.0424(16) Uani d 0.2905(12) A 2
C C3A1_b -0.160(2) 0.5349(17) 0.8218(11) 0.0262(4) Uani d 0.2905(12) A 2
N N1A2_c -0.132(2) 0.5132(16) 0.6439(7) 0.0301(18) Uani d 0.0515(12) A 3
O O2A2_c -0.156(4) 0.574(2) 0.8167(17) 0.0262(4) Uani d 0.0515(12) A 3
C C2A2_c -0.336(3) 0.475(2) 0.7706(17) 0.0272(5) Uani d 0.0515(12) A 3
O O3A2_c -0.468(5) 0.441(3) 0.821(2) 0.0272(5) Uani d 0.0515(12) A 3
N N1A_d -0.149(5) 0.524(3) 0.6446(12) 0.0301(18) Uani d 0.3421(8) A 4
O O1A_d -0.1322(7) 0.5743(4) 0.5521(3) 0.0239(9) Uani d 0.3421(8) A 4
C C2A_d -0.2990(17) 0.4309(11) 0.7796(9) 0.0272(5) Uani d 0.3421(8) A 4
H H2A_d -0.3930 0.3750 0.8151 0.033 Uiso calc 0.3421(8) A 4
C C3A_d -0.129(2) 0.5267(14) 0.8297(8) 0.0262(4) Uani d 0.3421(8) A 4
H H3A_d -0.0847 0.5530 0.9064 0.031 Uiso calc 0.3421(8) A 4
C C4 -0.0261(3) 0.5819(2) 0.74314(18) 0.0262(4) Uani d 1 . .
C C5 0.1760(3) 0.6717(2) 0.76366(19) 0.0254(5) Uani d 1 . .
C C6 0.3127(3) 0.6980(2) 0.68682(19) 0.0261(5) Uani d 1 . .
N N2_e 0.2750(5) 0.6423(3) 0.5795(3) 0.0248(8) Uani d 0.6841(16) A 5
H H2A1_e 0.1601 0.5825 0.5475 0.030 Uiso calc 0.6841(16) A 5
C C7_e 0.5221(9) 0.7860(6) 0.7068(4) 0.0281(9) Uani d 0.6841(16) A 5
H H7_e 0.5910 0.8389 0.7740 0.034 Uiso calc 0.6841(16) A 5
C C8_e 0.6032(11) 0.7794(10) 0.6122(5) 0.0311(11) Uani d 0.6841(16) A 5
H H8_e 0.7417 0.8238 0.6026 0.037 Uiso calc 0.6841(16) A 5
N N2B1_f 0.2750(5) 0.6423(3) 0.5795(3) 0.0248(8) Uani d 0.1204(12) A 6
C C7B1_f 0.517(4) 0.790(2) 0.6983(17) 0.0281(9) Uani d 0.1204(12) A 6
O O2B1_f 0.589(4) 0.786(3) 0.5993(18) 0.0311(11) Uani d 0.1204(12) A 6
O O3B1_f 0.630(2) 0.8609(12) 0.7705(11) 0.0281(9) Uani d 0.1204(12) A 6
N N2B2_g 0.2750(5) 0.6423(3) 0.5795(3) 0.0248(8) Uani d 0.0375(12) A 7
O O2B2_g 0.517(4) 0.771(3) 0.7143(17) 0.0281(9) Uani d 0.0375(12) A 7
C C8B2_g 0.605(4) 0.766(4) 0.6199(18) 0.0311(11) Uani d 0.0375(12) A 7
O O3B2_g 0.786(6) 0.815(4) 0.619(4) 0.0311(11) Uani d 0.0375(12) A 7
N N2B_h 0.254(3) 0.673(2) 0.574(2) 0.0248(8) Uani d 0.1579(8) A 8
O O1B_h 0.0475(14) 0.6399(9) 0.5187(8) 0.0239(9) Uani d 0.1579(8) A 8
C C7B_h 0.541(2) 0.759(2) 0.7114(11) 0.0281(9) Uani d 0.1579(8) A 8
H H7B_h 0.6258 0.7881 0.7826 0.034 Uiso calc 0.1579(8) A 8
C C8B_h 0.613(3) 0.769(4) 0.6156(14) 0.0311(11) Uani d 0.1579(8) A 8
H H8B_h 0.7497 0.8157 0.6064 0.037 Uiso calc 0.1579(8) A 8
C C9 0.4418(3) 0.6931(2) 0.52916(18) 0.0269(5) Uani d 1 . .
C C10 0.4587(3) 0.6664(2) 0.41797(19) 0.0257(5) Uani d 1 . .
C C11 0.2558(4) 0.7396(2) 0.87888(19) 0.0284(5) Uani d 1 . .
C C12 0.1378(4) 0.8249(3) 0.9251(2) 0.0394(6) Uani d 1 . .
H H12 0.0059 0.8387 0.8840 0.047 Uiso calc 1 . .
C C13 0.2131(5) 0.8894(3) 1.0309(2) 0.0501(8) Uani d 1 . .
H H13 0.1313 0.9464 1.0620 0.060 Uiso calc 1 . .
C C14 0.4048(5) 0.8716(3) 1.0910(2) 0.0535(8) Uani d 1 . .
H H14 0.4563 0.9171 1.1629 0.064 Uiso calc 1 . .
C C15 0.5222(5) 0.7875(3) 1.0464(2) 0.0540(8) Uani d 1 . .
H H15 0.6549 0.7753 1.0878 0.065 Uiso calc 1 . .
C C16 0.4476(4) 0.7206(3) 0.9414(2) 0.0419(7) Uani d 1 . .
H H16 0.5281 0.6615 0.9121 0.050 Uiso calc 1 . .
C C17 0.6396(3) 0.7525(2) 0.37954(18) 0.0235(5) Uani d 1 . .
C C18 0.6600(4) 0.8896(2) 0.39499(19) 0.0290(5) Uani d 1 . .
H H18 0.5591 0.9274 0.4300 0.035 Uiso calc 1 . .
C C19 0.8262(4) 0.9711(2) 0.3597(2) 0.0335(6) Uani d 1 . .
H H19 0.8390 1.0640 0.3710 0.040 Uiso calc 1 . .
C C20 0.9736(4) 0.9164(2) 0.3079(2) 0.0325(6) Uani d 1 . .
H H20 1.0875 0.9719 0.2839 0.039 Uiso calc 1 . .
C C21 0.9545(4) 0.7808(2) 0.2912(2) 0.0333(6) Uani d 1 . .
H H21 1.0546 0.7435 0.2552 0.040 Uiso calc 1 . .
C C22 0.7888(4) 0.6994(2) 0.3272(2) 0.0296(5) Uani d 1 . .
H H22 0.7772 0.6066 0.3160 0.036 Uiso calc 1 . .
loop_
_atom_site_aniso_label
_atom_site_aniso_U_11
_atom_site_aniso_U_22
_atom_site_aniso_U_33
_atom_site_aniso_U_12
_atom_site_aniso_U_13
_atom_site_aniso_U_23
C1 0.0187(10) 0.0220(9) 0.0384(11) 0.0010(7) 0.0035(8) -0.0002(8)
N1_a 0.022(2) 0.029(3) 0.0343(11) -0.002(2) -0.0022(10) 0.0058(10)
C2_a 0.0187(10) 0.0220(9) 0.0384(11) 0.0010(7) 0.0035(8) -0.0002(8)
C3_a 0.0205(10) 0.0227(9) 0.0333(10) 0.0042(7) 0.0010(7) 0.0000(7)
N1A1_b 0.022(2) 0.029(3) 0.0343(11) -0.002(2) -0.0022(10) 0.0058(10)
O2A1_b 0.0187(10) 0.0220(9) 0.0384(11) 0.0010(7) 0.0035(8) -0.0002(8)
O3A1_b 0.035(3) 0.052(4) 0.030(3) -0.012(3) 0.005(3) -0.007(3)
C3A1_b 0.0205(10) 0.0227(9) 0.0333(10) 0.0042(7) 0.0010(7) 0.0000(7)
N1A2_c 0.022(2) 0.029(3) 0.0343(11) -0.002(2) -0.0022(10) 0.0058(10)
O2A2_c 0.0205(10) 0.0227(9) 0.0333(10) 0.0042(7) 0.0010(7) 0.0000(7)
C2A2_c 0.0187(10) 0.0220(9) 0.0384(11) 0.0010(7) 0.0035(8) -0.0002(8)
O3A2_c 0.0187(10) 0.0220(9) 0.0384(11) 0.0010(7) 0.0035(8) -0.0002(8)
N1A_d 0.022(2) 0.029(3) 0.0343(11) -0.002(2) -0.0022(10) 0.0058(10)
O1A_d 0.022(2) 0.021(2) 0.026(2) 0.0011(15) 0.0004(16) 0.0029(16)
C2A_d 0.0187(10) 0.0220(9) 0.0384(11) 0.0010(7) 0.0035(8) -0.0002(8)
C3A_d 0.0205(10) 0.0227(9) 0.0333(10) 0.0042(7) 0.0010(7) 0.0000(7)
C4 0.0205(10) 0.0227(9) 0.0333(10) 0.0042(7) 0.0010(7) 0.0000(7)
C5 0.0227(11) 0.0199(11) 0.0318(12) 0.0035(8) 0.0000(9) 0.0033(9)
C6 0.0198(11) 0.0199(11) 0.0352(13) 0.0013(8) -0.0010(9) 0.0019(9)
N2_e 0.0191(11) 0.021(2) 0.0311(12) -0.0013(10) 0.0014(10) 0.0032(13)
C7_e 0.0206(13) 0.023(2) 0.0361(15) 0.0006(11) -0.0011(10) -0.0024(12)
C8_e 0.0191(14) 0.0258(19) 0.0453(19) -0.0026(13) 0.0074(13) -0.0010(15)
N2B1_f 0.0191(11) 0.021(2) 0.0311(12) -0.0013(10) 0.0014(10) 0.0032(13)
C7B1_f 0.0206(13) 0.023(2) 0.0361(15) 0.0006(11) -0.0011(10) -0.0024(12)
O2B1_f 0.0191(14) 0.0258(19) 0.0453(19) -0.0026(13) 0.0074(13) -0.0010(15)
O3B1_f 0.0206(13) 0.023(2) 0.0361(15) 0.0006(11) -0.0011(10) -0.0024(12)
N2B2_g 0.0191(11) 0.021(2) 0.0311(12) -0.0013(10) 0.0014(10) 0.0032(13)
O2B2_g 0.0206(13) 0.023(2) 0.0361(15) 0.0006(11) -0.0011(10) -0.0024(12)
C8B2_g 0.0191(14) 0.0258(19) 0.0453(19) -0.0026(13) 0.0074(13) -0.0010(15)
O3B2_g 0.0191(14) 0.0258(19) 0.0453(19) -0.0026(13) 0.0074(13) -0.0010(15)
N2B_h 0.0191(11) 0.021(2) 0.0311(12) -0.0013(10) 0.0014(10) 0.0032(13)
O1B_h 0.022(2) 0.021(2) 0.026(2) 0.0011(15) 0.0004(16) 0.0029(16)
C7B_h 0.0206(13) 0.023(2) 0.0361(15) 0.0006(11) -0.0011(10) -0.0024(12)
C8B_h 0.0191(14) 0.0258(19) 0.0453(19) -0.0026(13) 0.0074(13) -0.0010(15)
C9 0.0207(11) 0.0228(11) 0.0347(13) 0.0015(9) 0.0032(9) 0.0008(9)
C10 0.0182(11) 0.0238(11) 0.0332(13) 0.0019(8) 0.0027(9) 0.0013(9)
C11 0.0252(12) 0.0240(12) 0.0304(12) -0.0060(9) -0.0001(9) 0.0040(9)
C12 0.0404(15) 0.0329(14) 0.0399(15) 0.0054(11) -0.0009(12) -0.0022(11)
C13 0.067(2) 0.0376(16) 0.0386(16) 0.0069(14) 0.0004(14) -0.0074(12)
C14 0.065(2) 0.0484(18) 0.0303(15) -0.0127(15) -0.0096(13) -0.0040(13)
C15 0.0420(17) 0.068(2) 0.0434(17) 0.0029(15) -0.0105(13) 0.0093(15)
C16 0.0351(14) 0.0480(16) 0.0376(15) 0.0052(12) -0.0050(11) 0.0056(12)
C17 0.0158(10) 0.0247(11) 0.0264(11) -0.0003(8) -0.0004(8) 0.0003(9)
C18 0.0243(12) 0.0250(12) 0.0356(13) 0.0033(9) 0.0036(10) 0.0000(10)
C19 0.0297(13) 0.0212(12) 0.0446(15) -0.0025(9) 0.0016(11) 0.0027(10)
C20 0.0220(12) 0.0325(13) 0.0387(14) -0.0046(9) 0.0030(10) 0.0066(11)
C21 0.0220(12) 0.0348(14) 0.0430(15) 0.0031(10) 0.0093(10) 0.0037(11)
C22 0.0252(12) 0.0218(11) 0.0401(14) 0.0028(9) 0.0048(10) 0.0001(10)
loop_
_atom_type_symbol
_atom_type_description
_atom_type_scat_dispersion_real
_atom_type_scat_dispersion_imag
_atom_type_scat_source
C C 0.0033 0.0016 'International Tables Vol C Tables 4.2.6.8 and 6.1.1.4'
H H 0.0000 0.0000 'International Tables Vol C Tables 4.2.6.8 and 6.1.1.4'
N N 0.0061 0.0033 'International Tables Vol C Tables 4.2.6.8 and 6.1.1.4'
O O 0.0106 0.0060 'International Tables Vol C Tables 4.2.6.8 and 6.1.1.4'
loop_
_geom_angle_atom_site_label_1
_geom_angle_atom_site_label_2
_geom_angle_atom_site_label_3
_geom_angle_site_symmetry_1
_geom_angle_site_symmetry_3
_geom_angle
O2A1_b C1 C10 . 2_566 120.9(4)
N1A_d C1 C10 . 2_566 128.3(7)
N1_a C1 C10 . 2_566 126.9(4)
C10 C1 C2A2_c 2_566 . 128.7(8)
N1A_d C1 C2A_d . . 107.2(7)
C10 C1 C2A_d 2_566 . 124.2(4)
N1_a C1 C2_a . . 107.6(6)
C10 C1 C2_a 2_566 . 125.1(5)
C4 N1_a C1 . . 108.4(8)
C4 N1_a H1A1_a . . 125.8
C1 N1_a H1A1_a . . 125.8
C3_a C2_a C1 . . 107.6(8)
C3_a C2_a H2_a . . 126.2
C1 C2_a H2_a . . 126.2
C2_a C3_a C4 . . 107.1(8)
C2_a C3_a H3_a . . 126.4
C4 C3_a H3_a . . 126.4
C1 O2A1_b C3A1_b . . 107.7(9)
O3A1_b C3A1_b O2A1_b . . 121.1(11)
O3A1_b C3A1_b C4 . . 131.4(10)
O2A1_b C3A1_b C4 . . 107.1(10)
C4 O2A2_c C2A2_c . . 106.2(14)
O3A2_c C2A2_c O2A2_c . . 121(2)
O3A2_c C2A2_c C1 . . 131(2)
O2A2_c C2A2_c C1 . . 108.6(15)
O1A_d N1A_d C1 . . 126.3(12)
O1A_d N1A_d C4 . . 122.4(15)
C1 N1A_d C4 . . 109.8(13)
C3A_d C2A_d C1 . . 108.0(8)
C3A_d C2A_d H2A_d . . 126.0
C1 C2A_d H2A_d . . 126.0
C2A_d C3A_d C4 . . 106.8(8)
C2A_d C3A_d H3A_d . . 126.6
C4 C3A_d H3A_d . . 126.6
O2A2_c C4 C5 . . 121.6(8)
N1A_d C4 C5 . . 128.3(10)
N1_a C4 C5 . . 126.6(6)
N1_a C4 C3_a . . 109.1(7)
C5 C4 C3_a . . 123.7(5)
N1A_d C4 C3A_d . . 108.0(11)
C5 C4 C3A_d . . 123.4(5)
C5 C4 C3A1_b . . 128.6(5)
C6 C5 C4 . . 125.6(2)
C6 C5 C11 . . 117.33(19)
C4 C5 C11 . . 117.0(2)
O2B2_g C6 C5 . . 123.1(9)
N2_e C6 C5 . . 126.5(2)
N2B_h C6 C5 . . 126.8(6)
N2_e C6 C7_e . . 106.9(3)
C5 C6 C7_e . . 126.6(3)
C5 C6 C7B1_f . . 129.9(8)
N2B_h C6 C7B_h . . 106.9(8)
C5 C6 C7B_h . . 126.2(6)
C9 N2_e C6 . . 110.2(3)
C9 N2_e H2A1_e . . 124.9
C6 N2_e H2A1_e . . 124.9
C8_e C7_e C6 . . 107.8(4)
C8_e C7_e H7_e . . 126.1
C6 C7_e H7_e . . 126.1
C7_e C8_e C9 . . 107.9(4)
C7_e C8_e H8_e . . 126.0
C9 C8_e H8_e . . 126.0
O3B1_f C7B1_f O2B1_f . . 115.7(18)
O3B1_f C7B1_f C6 . . 134.5(18)
O2B1_f C7B1_f C6 . . 109.7(15)
C9 O2B1_f C7B1_f . . 106.2(14)
C6 O2B2_g C8B2_g . . 106.2(15)
O3B2_g C8B2_g O2B2_g . . 122(3)
O3B2_g C8B2_g C9 . . 128(3)
O2B2_g C8B2_g C9 . . 109.6(15)
O1B_h N2B_h C6 . . 124.5(12)
O1B_h N2B_h C9 . . 126.8(19)
C6 N2B_h C9 . . 108.6(14)
C8B_h C7B_h C6 . . 108.1(10)
C8B_h C7B_h H7B_h . . 125.9
C6 C7B_h H7B_h . . 125.9
C7B_h C8B_h C9 . . 107.4(10)
C7B_h C8B_h H8B_h . . 126.3
C9 C8B_h H8B_h . . 126.3
O2B1_f C9 C10 . . 121.8(8)
N2_e C9 C10 . . 127.6(3)
N2B_h C9 C10 . . 127.3(11)
N2_e C9 C8_e . . 106.9(3)
C10 C9 C8_e . . 125.4(3)
C10 C9 C8B2_g . . 128.9(9)
N2B_h C9 C8B_h . . 106.3(13)
C10 C9 C8B_h . . 125.7(6)
C1 C10 C9 2_566 . 125.6(2)
C1 C10 C17 2_566 . 117.6(2)
C9 C10 C17 . . 116.69(19)
C16 C11 C12 . . 118.6(2)
C16 C11 C5 . . 121.4(2)
C12 C11 C5 . . 120.1(2)
C13 C12 C11 . . 120.1(3)
C13 C12 H12 . . 119.9
C11 C12 H12 . . 119.9
C14 C13 C12 . . 120.6(3)
C14 C13 H13 . . 119.7
C12 C13 H13 . . 119.7
C13 C14 C15 . . 119.7(3)
C13 C14 H14 . . 120.2
C15 C14 H14 . . 120.2
C14 C15 C16 . . 120.4(3)
C14 C15 H15 . . 119.8
C16 C15 H15 . . 119.8
C15 C16 C11 . . 120.5(3)
C15 C16 H16 . . 119.8
C11 C16 H16 . . 119.8
C22 C17 C18 . . 118.5(2)
C22 C17 C10 . . 121.5(2)
C18 C17 C10 . . 119.9(2)
C19 C18 C17 . . 120.8(2)
C19 C18 H18 . . 119.6
C17 C18 H18 . . 119.6
C20 C19 C18 . . 119.8(2)
C20 C19 H19 . . 120.1
C18 C19 H19 . . 120.1
C21 C20 C19 . . 120.1(2)
C21 C20 H20 . . 120.0
C19 C20 H20 . . 120.0
C20 C21 C22 . . 120.0(2)
C20 C21 H21 . . 120.0
C22 C21 H21 . . 120.0
C21 C22 C17 . . 120.8(2)
C21 C22 H22 . . 119.6
C17 C22 H22 . . 119.6
loop_
_geom_bond_atom_site_label_1
_geom_bond_atom_site_label_2
_geom_bond_site_symmetry_2
_geom_bond_distance
C1 O2A1_b . 1.299(10)
C1 N1A_d . 1.36(2)
C1 N1_a . 1.377(11)
C1 C10 2_566 1.410(3)
C1 C2A2_c . 1.448(19)
C1 C2A_d . 1.466(11)
C1 C2_a . 1.470(12)
N1_a C4 . 1.372(7)
N1_a H1A1_a . 0.8800
C2_a C3_a . 1.357(12)
C2_a H2_a . 0.9500
C3_a C4 . 1.448(12)
C3_a H3_a . 0.9500
O2A1_b C3A1_b . 1.400(12)
O3A1_b C3A1_b . 1.176(14)
C3A1_b C4 . 1.463(14)
O2A2_c C4 . 1.330(18)
O2A2_c C2A2_c . 1.395(17)
C2A2_c O3A2_c . 1.15(4)
N1A_d O1A_d . 1.32(2)
N1A_d C4 . 1.364(11)
C2A_d C3A_d . 1.353(11)
C2A_d H2A_d . 0.9500
C3A_d C4 . 1.462(11)
C3A_d H3A_d . 0.9500
C4 C5 . 1.417(3)
C5 C6 . 1.408(3)
C5 C11 . 1.503(3)
C6 O2B2_g . 1.35(2)
C6 N2_e . 1.371(5)
C6 N2B_h . 1.38(3)
C6 C7_e . 1.444(6)
C6 C7B1_f . 1.45(2)
C6 C7B_h . 1.447(14)
N2_e C9 . 1.370(4)
N2_e H2A1_e . 0.8800
C7_e C8_e . 1.362(6)
C7_e H7_e . 0.9500
C8_e C9 . 1.441(6)
C8_e H8_e . 0.9500
C7B1_f O3B1_f . 1.16(2)
C7B1_f O2B1_f . 1.384(17)
O2B1_f C9 . 1.349(18)
O2B2_g C8B2_g . 1.383(18)
C8B2_g O3B2_g . 1.18(4)
C8B2_g C9 . 1.45(2)
N2B_h O1B_h . 1.35(2)
N2B_h C9 . 1.386(14)
C7B_h C8B_h . 1.352(14)
C7B_h H7B_h . 0.9500
C8B_h C9 . 1.452(15)
C8B_h H8B_h . 0.9500
C9 C10 . 1.412(3)
C10 C1 2_566 1.410(3)
C10 C17 . 1.500(3)
C11 C16 . 1.392(3)
C11 C12 . 1.399(4)
C12 C13 . 1.389(4)
C12 H12 . 0.9500
C13 C14 . 1.374(4)
C13 H13 . 0.9500
C14 C15 . 1.379(5)
C14 H14 . 0.9500
C15 C16 . 1.387(4)
C15 H15 . 0.9500
C16 H16 . 0.9500
C17 C22 . 1.395(3)
C17 C18 . 1.401(3)
C18 C19 . 1.390(3)
C18 H18 . 0.9500
C19 C20 . 1.389(4)
C19 H19 . 0.9500
C20 C21 . 1.387(3)
C20 H20 . 0.9500
C21 C22 . 1.392(3)
C21 H21 . 0.9500
C22 H22 . 0.9500
loop_
_geom_torsion_atom_site_label_1
_geom_torsion_atom_site_label_2
_geom_torsion_atom_site_label_3
_geom_torsion_atom_site_label_4
_geom_torsion_site_symmetry_1
_geom_torsion_site_symmetry_4
_geom_torsion
O2A1_b C1 N1_a C4 . . 2.0(18)
N1A_d C1 N1_a C4 . . 80(7)
C10 C1 N1_a C4 2_566 . -175.3(6)
C2A2_c C1 N1_a C4 . . 14.0(18)
C2A_d C1 N1_a C4 . . -9.0(17)
C2_a C1 N1_a C4 . . -2.1(18)
O2A1_b C1 C2_a C3_a . . -140(12)
N1A_d C1 C2_a C3_a . . -7(2)
N1_a C1 C2_a C3_a . . 0.5(15)
C10 C1 C2_a C3_a 2_566 . 173.8(10)
C2A2_c C1 C2_a C3_a . . -77(3)
C2A_d C1 C2_a C3_a . . 90(6)
C1 C2_a C3_a C4 . . 1.2(16)
N1A_d C1 O2A1_b C3A1_b . . -9(2)
N1_a C1 O2A1_b C3A1_b . . -1.5(14)
C10 C1 O2A1_b C3A1_b 2_566 . 175.9(8)
C2A2_c C1 O2A1_b C3A1_b . . -57(4)
C2A_d C1 O2A1_b C3A1_b . . 66(3)
C2_a C1 O2A1_b C3A1_b . . 39(11)
C1 O2A1_b C3A1_b O3A1_b . . -172.4(15)
C1 O2A1_b C3A1_b C4 . . 0.6(12)
C4 O2A2_c C2A2_c O3A2_c . . 174(3)
C4 O2A2_c C2A2_c C1 . . -3.2(18)
O2A1_b C1 C2A2_c O3A2_c . . -55(4)
N1A_d C1 C2A2_c O3A2_c . . 170(3)
N1_a C1 C2A2_c O3A2_c . . 176(3)
C10 C1 C2A2_c O3A2_c 2_566 . 6(3)
C2A_d C1 C2A2_c O3A2_c . . -81(3)
C2_a C1 C2A2_c O3A2_c . . -77(4)
O2A1_b C1 C2A2_c O2A2_c . . 122(5)
N1A_d C1 C2A2_c O2A2_c . . -13(2)
N1_a C1 C2A2_c O2A2_c . . -6.8(16)
C10 C1 C2A2_c O2A2_c 2_566 . -177.2(11)
C2A_d C1 C2A2_c O2A2_c . . 96(3)
C2_a C1 C2A2_c O2A2_c . . 100(3)
O2A1_b C1 N1A_d O1A_d . . -152(3)
N1_a C1 N1A_d O1A_d . . 104(8)
C10 C1 N1A_d O1A_d 2_566 . 23(5)
C2A2_c C1 N1A_d O1A_d . . -141(4)
C2A_d C1 N1A_d O1A_d . . -163(3)
C2_a C1 N1A_d O1A_d . . -157(3)
O2A1_b C1 N1A_d C4 . . 14(4)
N1_a C1 N1A_d C4 . . -90(8)
C10 C1 N1A_d C4 2_566 . -170.9(13)
C2A2_c C1 N1A_d C4 . . 25(3)
C2A_d C1 N1A_d C4 . . 3(3)
C2_a C1 N1A_d C4 . . 9(3)
O2A1_b C1 C2A_d C3A_d . . -109(4)
N1A_d C1 C2A_d C3A_d . . 0(2)
N1_a C1 C2A_d C3A_d . . 7.3(14)
C10 C1 C2A_d C3A_d 2_566 . 174.1(7)
C2A2_c C1 C2A_d C3A_d . . -76(2)
C2_a C1 C2A_d C3A_d . . -86(6)
C1 C2A_d C3A_d C4 . . -2.7(10)
C2A2_c O2A2_c C4 N1A_d . . 19(2)
C2A2_c O2A2_c C4 N1_a . . 12(2)
C2A2_c O2A2_c C4 C5 . . -179.0(9)
C2A2_c O2A2_c C4 C3_a . . -77(3)
C2A2_c O2A2_c C4 C3A_d . . -77(2)
C2A2_c O2A2_c C4 C3A1_b . . -58(4)
O1A_d N1A_d C4 O2A2_c . . 138(3)
C1 N1A_d C4 O2A2_c . . -29(4)
O1A_d N1A_d C4 N1_a . . -101(12)
C1 N1A_d C4 N1_a . . 92(12)
O1A_d N1A_d C4 C5 . . -23(5)
C1 N1A_d C4 C5 . . 170.3(13)
O1A_d N1A_d C4 C3_a . . 158(3)
C1 N1A_d C4 C3_a . . -9(3)
O1A_d N1A_d C4 C3A_d . . 162(3)
C1 N1A_d C4 C3A_d . . -4(4)
O1A_d N1A_d C4 C3A1_b . . 154(3)
C1 N1A_d C4 C3A1_b . . -13(3)
C1 N1_a C4 O2A2_c . . -17(2)
C1 N1_a C4 N1A_d . . -78(12)
C1 N1_a C4 C5 . . 174.8(6)
C1 N1_a C4 C3_a . . 3(2)
C1 N1_a C4 C3A_d . . 7.4(17)
C1 N1_a C4 C3A1_b . . -1.5(17)
C2_a C3_a C4 O2A2_c . . 95(3)
C2_a C3_a C4 N1A_d . . 4(2)
C2_a C3_a C4 N1_a . . -2.6(19)
C2_a C3_a C4 C5 . . -174.8(8)
C2_a C3_a C4 C3A_d . . -87(10)
C2_a C3_a C4 C3A1_b . . 41(12)
C2A_d C3A_d C4 O2A2_c . . 96(3)
C2A_d C3A_d C4 N1A_d . . 4(2)
C2A_d C3A_d C4 N1_a . . -2.8(13)
C2A_d C3A_d C4 C5 . . -170.6(6)
C2A_d C3A_d C4 C3_a . . 94(10)
C2A_d C3A_d C4 C3A1_b . . 64(5)
O3A1_b C3A1_b C4 O2A2_c . . -73(4)
O2A1_b C3A1_b C4 O2A2_c . . 115(5)
O3A1_b C3A1_b C4 N1A_d . . 179(3)
O2A1_b C3A1_b C4 N1A_d . . 7(2)
O3A1_b C3A1_b C4 N1_a . . 173(2)
O2A1_b C3A1_b C4 N1_a . . 0.6(15)
O3A1_b C3A1_b C4 C5 . . -4(2)
O2A1_b C3A1_b C4 C5 . . -175.6(6)
O3A1_b C3A1_b C4 C3_a . . 35(12)
O2A1_b C3A1_b C4 C3_a . . -137(14)
O3A1_b C3A1_b C4 C3A_d . . 56(4)
O2A1_b C3A1_b C4 C3A_d . . -116(5)
O2A2_c C4 C5 C6 . . -172.3(16)
N1A_d C4 C5 C6 . . -14(2)
N1_a C4 C5 C6 . . -5.5(12)
C3_a C4 C5 C6 . . 165.2(13)
C3A_d C4 C5 C6 . . 160.1(8)
C3A1_b C4 C5 C6 . . 169.8(10)
O2A2_c C4 C5 C11 . . 10.8(16)
N1A_d C4 C5 C11 . . 169(2)
N1_a C4 C5 C11 . . 177.5(11)
C3_a C4 C5 C11 . . -11.7(13)
C3A_d C4 C5 C11 . . -16.8(9)
C3A1_b C4 C5 C11 . . -7.1(10)
C4 C5 C6 O2B2_g . . -171(2)
C11 C5 C6 O2B2_g . . 6(2)
C4 C5 C6 N2_e . . 0.1(4)
C11 C5 C6 N2_e . . 177.0(2)
C4 C5 C6 N2B_h . . 19.4(12)
C11 C5 C6 N2B_h . . -163.7(12)
C4 C5 C6 C7_e . . -178.0(4)
C11 C5 C6 C7_e . . -1.1(4)
C4 C5 C6 C7B1_f . . 177.7(15)
C11 C5 C6 C7B1_f . . -5.4(15)
C4 C5 C6 C7B_h . . -161.8(12)
C11 C5 C6 C7B_h . . 15.1(12)
O2B2_g C6 N2_e C9 . . -9.0(17)
N2B_h C6 N2_e C9 . . 82(3)
C5 C6 N2_e C9 . . 179.1(2)
C7_e C6 N2_e C9 . . -2.5(4)
C7B1_f C6 N2_e C9 . . 0.9(12)
C7B_h C6 N2_e C9 . . -15.9(10)
O2B2_g C6 C7_e C8_e . . 116(10)
N2_e C6 C7_e C8_e . . -0.5(5)
N2B_h C6 C7_e C8_e . . -16.5(10)
C5 C6 C7_e C8_e . . 177.9(5)
C7B1_f C6 C7_e C8_e . . -45(14)
C7B_h C6 C7_e C8_e . . 84(3)
C6 C7_e C8_e C9 . . 3.2(7)
O2B2_g C6 C7B1_f O3B1_f . . -52(8)
N2_e C6 C7B1_f O3B1_f . . -177(3)
N2B_h C6 C7B1_f O3B1_f . . 167(3)
C5 C6 C7B1_f O3B1_f . . 5(4)
C7_e C6 C7B1_f O3B1_f . . -41(12)
C7B_h C6 C7B1_f O3B1_f . . -79(4)
O2B2_g C6 C7B1_f O2B1_f . . 126(8)
N2_e C6 C7B1_f O2B1_f . . 0.3(12)
N2B_h C6 C7B1_f O2B1_f . . -15.2(15)
C5 C6 C7B1_f O2B1_f . . -177.7(13)
C7_e C6 C7B1_f O2B1_f . . 136(14)
C7B_h C6 C7B1_f O2B1_f . . 99(4)
O3B1_f C7B1_f O2B1_f C9 . . 177(3)
C6 C7B1_f O2B1_f C9 . . -1.5(18)
N2_e C6 O2B2_g C8B2_g . . 2.9(18)
N2B_h C6 O2B2_g C8B2_g . . -13(2)
C5 C6 O2B2_g C8B2_g . . 175.2(12)
C7_e C6 O2B2_g C8B2_g . . -62(9)
C7B1_f C6 O2B2_g C8B2_g . . -55(8)
C7B_h C6 O2B2_g C8B2_g . . 59(9)
C6 O2B2_g C8B2_g O3B2_g . . -176(3)
C6 O2B2_g C8B2_g C9 . . 3.8(19)
O2B2_g C6 N2B_h O1B_h . . -158(2)
N2_e C6 N2B_h O1B_h . . 107(4)
C5 C6 N2B_h O1B_h . . 13(3)
C7_e C6 N2B_h O1B_h . . -153.0(17)
C7B1_f C6 N2B_h O1B_h . . -151(2)
C7B_h C6 N2B_h O1B_h . . -166.4(19)
O2B2_g C6 N2B_h C9 . . 19(2)
N2_e C6 N2B_h C9 . . -76(2)
C5 C6 N2B_h C9 . . -170.5(7)
C7_e C6 N2B_h C9 . . 23.9(16)
C7B1_f C6 N2B_h C9 . . 26.2(18)
C7B_h C6 N2B_h C9 . . 10.6(18)
O2B2_g C6 C7B_h C8B_h . . -110(9)
N2_e C6 C7B_h C8B_h . . 15.7(11)
N2B_h C6 C7B_h C8B_h . . -0.3(13)
C5 C6 C7B_h C8B_h . . -179.2(14)
C7_e C6 C7B_h C8B_h . . -83(3)
C7B1_f C6 C7B_h C8B_h . . -70(4)
C6 C7B_h C8B_h C9 . . -9.6(18)
C7B1_f O2B1_f C9 N2_e . . 2(2)
C7B1_f O2B1_f C9 N2B_h . . 18(2)
C7B1_f O2B1_f C9 C10 . . 177.0(8)
C7B1_f O2B1_f C9 C8_e . . -59(10)
C7B1_f O2B1_f C9 C8B2_g . . -58(6)
C7B1_f O2B1_f C9 C8B_h . . -71(5)
C6 N2_e C9 O2B1_f . . -1.9(19)
C6 N2_e C9 N2B_h . . -82(5)
C6 N2_e C9 C10 . . -176.6(2)
C6 N2_e C9 C8_e . . 4.4(5)
C6 N2_e C9 C8B2_g . . 10.6(17)
C6 N2_e C9 C8B_h . . 10.3(17)
O1B_h N2B_h C9 O2B1_f . . 148(2)
C6 N2B_h C9 O2B1_f . . -29(2)
O1B_h N2B_h C9 N2_e . . -107(6)
C6 N2B_h C9 N2_e . . 76(4)
O1B_h N2B_h C9 C10 . . -10(3)
C6 N2B_h C9 C10 . . 173.3(6)
O1B_h N2B_h C9 C8_e . . 154.8(18)
C6 N2B_h C9 C8_e . . -22.1(16)
O1B_h N2B_h C9 C8B2_g . . 162(2)
C6 N2B_h C9 C8B2_g . . -15(2)
O1B_h N2B_h C9 C8B_h . . 161(2)
C6 N2B_h C9 C8B_h . . -16(2)
C7_e C8_e C9 O2B1_f . . 116(12)
C7_e C8_e C9 N2_e . . -4.7(7)
C7_e C8_e C9 N2B_h . . 11.3(11)
C7_e C8_e C9 C10 . . 176.3(3)
C7_e C8_e C9 C8B2_g . . -62(9)
C7_e C8_e C9 C8B_h . . -89(7)
O3B2_g C8B2_g C9 O2B1_f . . -66(6)
O2B2_g C8B2_g C9 O2B1_f . . 115(7)
O3B2_g C8B2_g C9 N2_e . . 171(3)
O2B2_g C8B2_g C9 N2_e . . -8.8(19)
O3B2_g C8B2_g C9 N2B_h . . -173(3)
O2B2_g C8B2_g C9 N2B_h . . 7(2)
O3B2_g C8B2_g C9 C10 . . -2(4)
O2B2_g C8B2_g C9 C10 . . 178.4(11)
O3B2_g C8B2_g C9 C8_e . . -65(8)
O2B2_g C8B2_g C9 C8_e . . 116(10)
O3B2_g C8B2_g C9 C8B_h . . -1E1(4)
O2B2_g C8B2_g C9 C8B_h . . 17E1(4)
C7B_h C8B_h C9 O2B1_f . . 111(7)
C7B_h C8B_h C9 N2_e . . 0(2)
C7B_h C8B_h C9 N2B_h . . 16(2)
C7B_h C8B_h C9 C10 . . -173.3(7)
C7B_h C8B_h C9 C8_e . . 97(7)
C7B_h C8B_h C9 C8B2_g . . -0E1(4)
O2B1_f C9 C10 C1 . 2_566 180(2)
N2_e C9 C10 C1 . 2_566 -6.2(4)
N2B_h C9 C10 C1 . 2_566 -25.7(12)
C8_e C9 C10 C1 . 2_566 172.6(6)
C8B2_g C9 C10 C1 . 2_566 165(2)
C8B_h C9 C10 C1 . 2_566 166(2)
O2B1_f C9 C10 C17 . . -4(2)
N2_e C9 C10 C17 . . 169.7(2)
N2B_h C9 C10 C17 . . 150.2(12)
C8_e C9 C10 C17 . . -11.5(6)
C8B2_g C9 C10 C17 . . -19(2)
C8B_h C9 C10 C17 . . -18(2)
C6 C5 C11 C16 . . -60.3(3)
C4 C5 C11 C16 . . 116.9(3)
C6 C5 C11 C12 . . 119.1(2)
C4 C5 C11 C12 . . -63.7(3)
C16 C11 C12 C13 . . 0.5(4)
C5 C11 C12 C13 . . -178.9(2)
C11 C12 C13 C14 . . 0.7(4)
C12 C13 C14 C15 . . -0.9(5)
C13 C14 C15 C16 . . -0.1(5)
C14 C15 C16 C11 . . 1.3(5)
C12 C11 C16 C15 . . -1.5(4)
C5 C11 C16 C15 . . 177.9(2)
C1 C10 C17 C22 2_566 . -57.5(3)
C9 C10 C17 C22 . . 126.3(2)
C1 C10 C17 C18 2_566 . 121.9(2)
C9 C10 C17 C18 . . -54.4(3)
C22 C17 C18 C19 . . -0.5(3)
C10 C17 C18 C19 . . -179.8(2)
C17 C18 C19 C20 . . 0.3(4)
C18 C19 C20 C21 . . 0.2(4)
C19 C20 C21 C22 . . -0.6(4)
C20 C21 C22 C17 . . 0.5(4)
C18 C17 C22 C21 . . 0.1(3)
C10 C17 C22 C21 . . 179.4(2)
