#------------------------------------------------------------------------------
#$Date: 2016-02-20 00:18:51 +0200 (Sat, 20 Feb 2016) $
#$Revision: 176760 $
#$URL: svn://www.crystallography.net/cod/cif/2/01/99/2019918.cif $
#------------------------------------------------------------------------------
#
# This file is available in the Crystallography Open Database (COD),
# http://www.crystallography.net/. The original data for this entry
# were provided by IUCr Journals, http://journals.iucr.org/.
#
# The file may be used within the scientific community so long as
# proper attribution is given to the journal article from which the
# data were obtained.
#
data_2019918
loop_
_publ_author_name
'Kova\<c, Sabina'
'Karanovi\'c, Ljiljana'
'Dordevi\'c, Tamara'
_publ_section_title
;
 An investigation of polyhedral deformation in two mixed-metal
 diarsenates: SrZnAs~2~O~7~ and BaCuAs~2~O~7~
;
_journal_issue                   4
_journal_name_full               'Acta Crystallographica Section C'
_journal_page_first              330
_journal_page_last               337
_journal_paper_doi               10.1107/S2053229615005616
_journal_volume                  71
_journal_year                    2015
_chemical_formula_iupac          'Ba Cu As2 O7'
_chemical_formula_moiety         'Ba Cu As2 O7'
_chemical_formula_sum            'As2 Ba Cu O7'
_chemical_formula_weight         462.72
_chemical_name_systematic
;
Barium copper diarsenic heptaoxide
;
_space_group_crystal_system      monoclinic
_space_group_IT_number           14
_space_group_name_Hall           '-P 2yn'
_space_group_name_H-M_alt        'P 1 21/n 1'
_symmetry_space_group_name_Hall  '-P 2yn'
_symmetry_space_group_name_H-M   'P 1 21/n 1'
_audit_creation_method           SHELXL-2013
_cell_angle_alpha                90
_cell_angle_beta                 91.12(3)
_cell_angle_gamma                90
_cell_formula_units_Z            4
_cell_length_a                   5.7343(11)
_cell_length_b                   8.4722(17)
_cell_length_c                   13.071(3)
_cell_measurement_temperature    298(2)
_cell_volume                     634.9(2)
_computing_cell_refinement
;
SCALEPACK (Otwinowski & Minor, 1997)
;
_computing_data_collection
;
COLLECT (Nonius, 2002)
;
_computing_data_reduction
;
DENZO-SMN (Otwinowski <i>et al</i>., 2003)
;
_computing_molecular_graphics
;
ATOMS (Dowty, 2000)
;
_computing_publication_material
;
publCIF (Westrip, 2010)
;
_computing_structure_refinement
;
SHELXL2013 (Sheldrick, 2015) and WinGX (Farrugia, 2012)
;
_computing_structure_solution
;
SIR97 (Altomare <i>et al</i>., 1999)
;
_diffrn_ambient_temperature      298(2)
_diffrn_measured_fraction_theta_full 0.999
_diffrn_measured_fraction_theta_max 1.000
_diffrn_measurement_device_type  'Nonius KappaCCD'
_diffrn_measurement_method       '\f and \w scans'
_diffrn_radiation_type           MoK\a
_diffrn_radiation_wavelength     0.71073
_diffrn_reflns_av_R_equivalents  0.0252
_diffrn_reflns_av_sigmaI/netI    0.0182
_diffrn_reflns_limit_h_max       7
_diffrn_reflns_limit_h_min       -7
_diffrn_reflns_limit_k_max       10
_diffrn_reflns_limit_k_min       -10
_diffrn_reflns_limit_l_max       16
_diffrn_reflns_limit_l_min       -16
_diffrn_reflns_number            4991
_diffrn_reflns_theta_full        26.36
_diffrn_reflns_theta_max         26.36
_diffrn_reflns_theta_min         2.87
_exptl_absorpt_coefficient_mu    19.844
_exptl_absorpt_correction_T_max  1.000
_exptl_absorpt_correction_T_min  0.807
_exptl_absorpt_correction_type   multi-scan
_exptl_absorpt_process_details
;
(Otwinowski & Minor, 1997)
;
_exptl_crystal_colour            blue-green
_exptl_crystal_density_diffrn    4.841
_exptl_crystal_density_method    'not measured'
_exptl_crystal_description       prismatic
_exptl_crystal_F_000             828
_exptl_crystal_size_max          0.06
_exptl_crystal_size_mid          0.03
_exptl_crystal_size_min          0.02
_refine_diff_density_max         2.279
_refine_diff_density_min         -0.719
_refine_ls_extinction_coef       0.0029(2)
_refine_ls_extinction_expression Fc^*^=kFc[1+0.001xFc^2^\l^3^/sin(2\q)]^-1/4^
_refine_ls_extinction_method     SHELXL
_refine_ls_goodness_of_fit_ref   1.204
_refine_ls_hydrogen_treatment    undef
_refine_ls_matrix_type           full
_refine_ls_number_parameters     101
_refine_ls_number_reflns         1297
_refine_ls_number_restraints     0
_refine_ls_restrained_S_all      1.204
_refine_ls_R_factor_all          0.0265
_refine_ls_R_factor_gt           0.0247
_refine_ls_shift/su_max          0.001
_refine_ls_shift/su_mean         0.000
_refine_ls_structure_factor_coef Fsqd
_refine_ls_weighting_details
'calc w=1/[\s^2^(Fo^2^)+(0.0211P)^2^+6.3560P] where P=(Fo^2^+2Fc^2^)/3'
_refine_ls_weighting_scheme      calc
_refine_ls_wR_factor_gt          0.0588
_refine_ls_wR_factor_ref         0.0594
_reflns_number_gt                1232
_reflns_number_total             1298
_reflns_threshold_expression     I>2\s(I)
_cod_data_source_file            sk3577sup1.cif
_cod_data_source_block           BaCuAs2O7
_cod_database_code               2019918
_cod_database_fobs_code          2019918
#BEGIN Tags that were not found in dictionaries:
_shelx_space_group_comment
;
The symmetry employed for this shelxl refinement is uniquely defined
by the following loop, which should always be used as a source of
symmetry information in preference to the above space-group names.
They are only intended as comments.
;
_shelx_estimated_absorpt_t_min   0.494
_shelx_estimated_absorpt_t_max   0.672
_shelx_hkl_file
;
   0   0   2  135.20    2.70   1
   0   0  -2  140.80    3.30   1
   0   0   3    0.70    0.30   1
   0   0  -3    0.40    0.30   1
   0   0   4   39.10    1.00   1
   0   0  -4   36.60    1.10   1
   0   0   5    0.10    0.40   1
   0   0  -5   -0.40    0.40   1
   0   0   6  339.90    5.30   1
   0   0  -6  344.20    5.90   1
   0   0   7   -0.60    0.40   1
   0   0  -7   -0.60    0.60   1
   0   0   8  397.30    6.20   1
   0   0  -8  415.00    7.30   1
   0   0   9   -0.40    0.60   1
   0   0  -9    0.70    0.80   1
   0   0  10  201.00    3.90   1
   0   0 -10  207.60    4.10   1
   0   0  11    1.60    1.00   1
   0   0 -11    0.60    0.30   1
   0   0  12   36.50    1.80   1
   0   0 -12   37.60    1.20   1
   0   0  13    1.50    1.10   1
   0   0 -13    0.50    0.60   1
   0   0  14  251.20    6.50   1
   0   0 -14  264.10    9.50   1
   0   0  15   -0.40    1.10   1
   0   0 -15    1.70    1.30   1
   0   0  16   53.20    2.70   1
   0   0 -16   45.20    3.50   1
   0   0  17   -0.40    1.40   1
   0   0 -17   -5.30    3.00   1
   0   0  18  146.30    5.70   1
   0   0 -18  158.90   11.40   1
   0   0  19    0.00    1.60   1
   0   0 -19   -3.40    4.00   1
   0   0  20   17.10    3.60   1
   0   0 -20   11.80    3.30   1
   0   0  21   -9.20    5.20   1
   0   0 -21   -2.90    4.40   1
   0   1 -20   69.00    9.00   1
   0  -1  20   70.00    6.20   1
   0   1 -19   11.50    4.70   1
   0  -1  19    4.70    2.50   1
   0   1 -18   16.70    4.40   1
   0  -1  18   12.90    2.10   1
   0   1 -17   29.50    5.20   1
   0  -1  17   29.00    2.30   1
   0   1 -16  100.60    8.10   1
   0  -1  16   98.80    3.80   1
   0   1 -15   71.10    3.90   1
   0  -1  15   67.80    2.90   1
   0   1 -14  100.10    3.70   1
   0  -1  14  101.20    3.40   1
   0   1 -13   65.70    2.10   1
   0  -1  13   66.10    2.50   1
   0   1 -12    5.20    0.90   1
   0  -1  12    4.70    1.20   1
   0   1 -11    1.20    0.60   1
   0  -1  11    1.00    0.90   1
   0   1 -10   94.10    2.70   1
   0  -1  10   91.40    2.60   1
   0   1  -9  828.40   16.60   1
   0  -1   9  837.70   13.40   1
   0   1  -8   28.40    1.20   1
   0  -1   8   31.90    1.10   1
   0   1  -7  147.30    3.00   1
   0  -1   7  146.80    2.70   1
   0   1  -6 1082.30   17.00   1
   0  -1   6 1044.70   15.10   1
   0   1  -5    4.30    0.60   1
   0  -1   5    4.60    0.50   1
   0   1  -4  226.30    4.00   1
   0  -1   4  221.30    3.60   1
   0   1  -3   94.10    1.90   1
   0  -1   3   94.40    1.70   1
   0   1  -2    4.80    0.30   1
   0  -1   2    4.60    0.30   1
   0   1  -1   77.70    1.20   1
   0  -1   1   80.10    1.90   1
   0   1   0    0.20    0.10   1
   0   1   1   83.40    1.10   1
   0  -1  -1   87.50    2.20   1
   0   1   2    4.70    0.20   1
   0  -1  -2    4.60    0.30   1
   0   1   3   94.40    1.80   1
   0  -1  -3   96.90    1.80   1
   0   1   4  221.90    3.80   1
   0  -1  -4  232.50    4.00   1
   0   1   5    4.00    0.50   1
   0  -1  -5    3.80    0.50   1
   0   1   6 1073.10   18.20   1
   0  -1  -6 1129.60   17.00   1
   0   1   7  146.30    2.80   1
   0  -1  -7  156.20    2.70   1
   0   1   8   30.90    1.00   1
   0  -1  -8   33.80    0.90   1
   0   1   9  850.00   12.50   1
   0  -1  -9  854.60   15.90   1
   0   1  10   93.60    2.20   1
   0  -1 -10   95.20    3.60   1
   0   1  11    1.40    0.90   1
   0  -1 -11    0.00    1.40   1
   0   1  12    6.00    1.30   1
   0  -1 -12    3.90    1.40   1
   0   1  13   66.00    2.50   1
   0  -1 -13   67.50    3.50   1
   0   1  14   99.10    3.40   1
   0  -1 -14   92.80    4.70   1
   0   1  15   67.70    2.80   1
   0  -1 -15   69.40    4.10   1
   0   1  16   97.30    3.70   1
   0  -1 -16   95.10    5.10   1
   0   1  17   20.90    2.00   1
   0  -1 -17   25.90    3.10   1
   0   1  18   18.60    2.20   1
   0  -1 -18   17.80    3.20   1
   0   1  19    2.50    1.70   1
   0  -1 -19    8.60    3.30   1
   0   1  20   63.50    4.60   1
   0  -1 -20   60.70    5.40   1
   0   2 -20    6.50    4.40   1
   0  -2  20    2.40    2.90   1
   0   2 -19   11.30    4.60   1
   0  -2  19   15.10    2.80   1
   0   2 -18   14.10    4.70   1
   0  -2  18   10.00    2.50   1
   0   2 -17    5.50    3.50   1
   0  -2  17    1.00    1.30   1
   0   2 -16   31.40    5.40   1
   0  -2  16   37.70    2.40   1
   0   2 -15  337.90    9.00   1
   0  -2  15  322.80    8.10   1
   0   2 -14   25.90    1.80   1
   0  -2  14   24.10    1.80   1
   0   2 -13   51.40    3.00   1
   0  -2  13   52.20    2.50   1
   0   2 -12   23.50    1.60   1
   0  -2  12   24.30    1.50   1
   0   2 -11  129.10    3.90   1
   0  -2  11  129.10    3.50   1
   0   2 -10  297.40    9.00   1
   0  -2  10  294.20    6.20   1
   0   2  -9   99.50    2.90   1
   0  -2   9   95.50    2.50   1
   0   2  -8   75.40    1.90   1
   0  -2   8   77.50    2.20   1
   0   2  -7   90.60    2.10   1
   0  -2   7   89.40    2.40   1
   0   2  -6   19.00    0.80   1
   0  -2   6   20.80    0.70   1
   0   2  -5  276.10    4.50   1
   0  -2   5  274.70    4.20   1
   0   2  -4  386.70    6.00   1
   0  -2   4  386.90    6.20   1
   0   2  -3  521.50    7.10   1
   0  -2   3  516.00    9.30   1
   0   2  -2  102.00    1.50   1
   0  -2   2  104.20    2.00   1
   0   2  -1   40.30    0.70   1
   0  -2   1   42.00    0.90   1
   0   2   0   50.20    0.80   1
   0  -2   0   50.00    1.10   1
   0   2   1   42.90    0.80   1
   0  -2  -1   41.30    0.80   1
   0   2   2  108.40    1.60   1
   0  -2  -2  108.90    1.70   1
   0   2   3  553.60    6.50   1
   0  -2  -3  545.60    7.90   1
   0   2   4  401.70    6.60   1
   0  -2  -4  412.00    5.70   1
   0   2   5  270.50    4.60   1
   0  -2  -5  284.30    4.10   1
   0   2   6   19.30    0.70   1
   0  -2  -6   20.00    0.60   1
   0   2   7   87.90    1.90   1
   0  -2  -7   91.80    1.70   1
   0   2   8   74.40    1.70   1
   0  -2  -8   77.20    1.60   1
   0   2   9   93.70    2.00   1
   0  -2  -9   95.90    2.00   1
   0   2  10  294.00    5.40   1
   0  -2 -10  299.00    6.50   1
   0   2  11  123.30    3.30   1
   0  -2 -11  133.00    4.00   1
   0   2  12   23.90    1.60   1
   0  -2 -12   24.00    1.60   1
   0   2  13   49.80    2.30   1
   0  -2 -13   55.90    2.70   1
   0   2  14   22.70    1.80   1
   0  -2 -14   22.40    1.80   1
   0   2  15  303.30    8.00   1
   0  -2 -15  327.50    9.10   1
   0   2  16   33.50    2.30   1
   0  -2 -16   35.10    2.60   1
   0   2  17    3.90    1.60   1
   0  -2 -17    1.60    1.70   1
   0   2  18   10.50    2.30   1
   0  -2 -18    8.10    2.50   1
   0   2  19   13.40    3.00   1
   0  -2 -19    9.20    3.00   1
   0   2  20    3.20    2.30   1
   0  -2 -20    8.60    3.70   1
   0   3 -20   -3.60    4.40   1
   0  -3  20   -3.20    2.90   1
   0   3 -19  188.30   15.10   1
   0  -3  19  187.90    9.30   1
   0   3 -18   55.70    6.90   1
   0  -3  18   46.60    3.90   1
   0   3 -17    0.50    5.00   1
   0  -3  17    0.40    2.40   1
   0   3 -16   -7.10    3.10   1
   0  -3  16   -0.40    1.80   1
   0   3 -15   37.40    3.00   1
   0  -3  15   45.10    2.50   1
   0   3 -14   23.60    2.50   1
   0  -3  14   23.60    1.70   1
   0   3 -13   55.00    4.30   1
   0  -3  13   54.50    3.00   1
   0   3 -12   29.30    2.00   1
   0  -3  12   33.80    1.70   1
   0   3 -11    2.30    1.20   1
   0  -3  11    2.30    0.90   1
   0   3 -10    3.80    1.10   1
   0  -3  10    3.70    0.70   1
   0   3  -9  626.90   14.00   1
   0  -3   9  616.50   12.00   1
   0   3  -8    1.30    0.80   1
   0  -3   8    2.50    0.70   1
   0   3  -7   20.50    1.00   1
   0  -3   7   21.00    0.90   1
   0   3  -6   80.30    1.80   1
   0  -3   6   80.50    1.70   1
   0   3  -5  478.70    7.50   1
   0  -3   5  477.50    8.00   1
   0   3  -4  124.20    2.10   1
   0  -3   4  122.80    3.90   1
   0   3  -3  255.30    3.60   1
   0  -3   3  255.10    5.10   1
   0   3  -2   95.10    1.60   1
   0  -3   2   93.70    1.70   1
   0   3  -1 1198.70   14.30   1
   0  -3   1 1193.20   15.30   1
   0   3   0    0.80    0.20   1
   0  -3   0    1.20    0.30   1
   0   3   1 1167.90   12.10   1
   0  -3  -1 1169.10   16.30   1
   0   3   2  106.10    2.20   1
   0  -3  -2   99.60    2.20   1
   0   3   3  266.20    3.30   1
   0  -3  -3  260.60    4.50   1
   0   3   4  130.20    1.80   1
   0  -3  -4  127.90    2.40   1
   0   3   5  493.60    6.80   1
   0  -3  -5  488.50    7.20   1
   0   3   6   80.70    1.50   1
   0  -3  -6   82.30    1.50   1
   0   3   7   22.60    0.70   1
   0  -3  -7   24.00    0.80   1
   0   3   8    1.60    0.50   1
   0  -3  -8    0.60    0.40   1
   0   3   9  637.10   10.70   1
   0  -3  -9  651.30   10.40   1
   0   3  10    3.60    1.00   1
   0  -3 -10    2.90    0.80   1
   0   3  11    2.90    1.10   1
   0  -3 -11    1.80    1.20   1
   0   3  12   28.50    1.70   1
   0  -3 -12   30.60    2.00   1
   0   3  13   62.50    2.60   1
   0  -3 -13   57.40    2.60   1
   0   3  14   19.10    1.60   1
   0  -3 -14   20.00    1.90   1
   0   3  15   39.90    2.20   1
   0  -3 -15   45.00    2.70   1
   0   3  16    0.30    1.40   1
   0  -3 -16    1.20    1.40   1
   0   3  17    2.80    1.50   1
   0  -3 -17   -0.60    1.60   1
   0   3  18   49.80    3.70   1
   0  -3 -18   54.80    4.80   1
   0   3  19  187.10    8.70   1
   0  -3 -19  183.50   10.40   1
   0   3  20   -0.60    2.20   1
   0  -3 -20    2.20    2.90   1
   0   4 -19    6.80    4.90   1
   0  -4  19    1.90    4.70   1
   0   4 -18   27.90    5.70   1
   0  -4  18   23.00    2.90   1
   0   4 -17    2.70    3.80   1
   0  -4  17    5.50    2.20   1
   0   4 -16    3.20    2.00   1
   0  -4  16   -0.30    2.30   1
   0   4 -15  293.90   11.50   1
   0  -4  15  301.40   12.00   1
   0   4 -14    9.80    2.20   1
   0  -4  14   13.40    2.00   1
   0   4 -13    2.00    1.80   1
   0  -4  13    2.80    1.00   1
   0   4 -12  283.10    9.40   1
   0  -4  12  284.90    6.80   1
   0   4 -11    8.80    2.30   1
   0  -4  11    3.20    0.80   1
   0   4 -10  237.90    7.10   1
   0  -4  10  241.60    5.40   1
   0   4  -9   11.60    1.70   1
   0  -4   9   13.70    0.90   1
   0   4  -8   67.10    2.60   1
   0  -4   8   69.20    2.20   1
   0   4  -7  265.90    6.70   1
   0  -4   7  258.00    6.40   1
   0   4  -6  116.50    2.40   1
   0  -4   6  116.80    2.90   1
   0   4  -5    0.90    0.60   1
   0  -4   5    1.10    0.60   1
   0   4  -4   66.40    1.20   1
   0  -4   4   67.50    1.70   1
   0   4  -3  164.80    2.30   1
   0  -4   3  155.10    3.00   1
   0   4  -2   55.20    1.20   1
   0  -4   2   54.50    1.20   1
   0   4  -1  426.20    5.60   1
   0  -4   1  404.60    7.60   1
   0   4   0 1076.60   11.00   1
   0  -4   0 1050.60   16.00   1
   0   4   1  424.50    4.50   1
   0  -4  -1  409.70    6.90   1
   0   4   2   63.30    1.60   1
   0  -4  -2   57.00    1.40   1
   0   4   3  177.00    3.50   1
   0  -4  -3  163.50    3.20   1
   0   4   4   69.80    1.20   1
   0  -4  -4   65.00    1.70   1
   0   4   5    1.10    0.30   1
   0  -4  -5    1.20    0.30   1
   0   4   6  118.00    2.00   1
   0  -4  -6  116.20    2.10   1
   0   4   7  258.60    4.70   1
   0  -4  -7  262.20    4.30   1
   0   4   8   72.20    1.60   1
   0  -4  -8   76.90    1.70   1
   0   4   9   15.00    0.70   1
   0  -4  -9   13.80    0.90   1
   0   4  10  246.10    4.10   1
   0  -4 -10  257.90    5.50   1
   0   4  11    2.80    0.60   1
   0  -4 -11    3.90    0.90   1
   0   4  12  277.30    6.80   1
   0  -4 -12  286.70    7.90   1
   0   4  13    3.10    1.20   1
   0  -4 -13    4.40    1.40   1
   0   4  14   13.60    1.60   1
   0  -4 -14   10.80    1.50   1
   0   4  15  306.40    9.50   1
   0  -4 -15  299.00    9.80   1
   0   4  16   -1.60    1.80   1
   0  -4 -16    3.90    2.20   1
   0   4  17    2.80    2.30   1
   0  -4 -17    6.00    2.20   1
   0   4  18   19.10    3.00   1
   0  -4 -18   28.20    3.80   1
   0   4  19   11.80    3.10   1
   0  -4 -19    4.60    5.30   1
   0   4  20   22.10    3.80   1
   0   5 -19   -5.50    5.90   1
   0  -5  19  -10.30    6.30   1
   0   5 -18    5.00    4.60   1
   0  -5  18    4.00    4.00   1
   0   5 -17   11.00    4.60   1
   0  -5  17    8.90    3.10   1
   0   5 -16   55.20    4.80   1
   0  -5  16   74.60    5.40   1
   0   5 -15   17.80    3.00   1
   0  -5  15   16.60    3.20   1
   0   5 -14    2.20    2.20   1
   0  -5  14    3.60    2.20   1
   0   5 -13    8.10    2.30   1
   0  -5  13    8.50    2.60   1
   0   5 -12    2.40    1.90   1
   0  -5  12    1.30    1.90   1
   0   5 -11   35.60    2.90   1
   0  -5  11   32.80    2.70   1
   0   5 -10  109.00    3.80   1
   0  -5  10  109.80    4.70   1
   0   5  -9   75.30    2.90   1
   0  -5   9   74.90    3.60   1
   0   5  -8  329.40    8.10   1
   0  -5   8  323.50    8.60   1
   0   5  -7    1.80    0.90   1
   0  -5   7   -0.80    1.10   1
   0   5  -6 1065.90   17.90   1
   0  -5   6 1063.80   17.30   1
   0   5  -5  195.80    3.80   1
   0  -5   5  194.50    4.10   1
   0   5  -4   30.10    0.80   1
   0  -5   4   28.60    1.00   1
   0   5  -3  312.90    4.20   1
   0  -5   3  314.60    5.20   1
   0   5  -2  225.10    3.60   1
   0  -5   2  225.80    4.60   1
   0   5  -1   37.90    0.80   1
   0  -5   1   39.40    1.20   1
   0   5   0    0.40    0.20   1
   0  -5   0    0.60    0.30   1
   0   5   1   38.20    0.70   1
   0  -5  -1   38.90    1.70   1
   0   5   2  237.70    4.40   1
   0  -5  -2  224.80    4.80   1
   0   5   3  332.10    5.60   1
   0  -5  -3  304.20    5.60   1
   0   5   4   29.40    1.20   1
   0  -5  -4   30.60    1.30   1
   0   5   5  201.80    4.70   1
   0  -5  -5  194.20    5.00   1
   0   5   6 1104.10   17.10   1
   0  -5  -6 1081.50   14.00   1
   0   5   7    1.50    0.40   1
   0  -5  -7    0.50    0.30   1
   0   5   8  328.50    5.80   1
   0  -5  -8  331.00    6.10   1
   0   5   9   80.50    1.80   1
   0  -5  -9   83.70    2.20   1
   0   5  10  109.20    2.30   1
   0  -5 -10  112.60    3.00   1
   0   5  11   37.40    1.50   1
   0  -5 -11   35.20    2.00   1
   0   5  12    1.80    1.10   1
   0  -5 -12    0.70    1.20   1
   0   5  13    9.80    1.40   1
   0  -5 -13   12.90    1.80   1
   0   5  14    2.10    1.30   1
   0  -5 -14    5.60    1.60   1
   0   5  15   14.80    1.90   1
   0  -5 -15   14.90    1.80   1
   0   5  16   66.70    3.90   1
   0  -5 -16   70.70    3.80   1
   0   5  17    6.70    2.60   1
   0  -5 -17    7.70    2.90   1
   0   5  18    0.80    3.20   1
   0  -5 -18    3.90    2.60   1
   0   5  19   -0.40    2.70   1
   0  -5 -19   -3.20    3.70   1
   0   6 -18   65.30    8.60   1
   0  -6  18   54.30    5.20   1
   0   6 -17   70.80    8.40   1
   0  -6  17   75.10    8.60   1
   0   6 -16    5.20    3.10   1
   0  -6  16   11.50    4.90   1
   0   6 -15  117.60    7.40   1
   0  -6  15  129.00    7.50   1
   0   6 -14  166.30    8.60   1
   0  -6  14  184.80    8.70   1
   0   6 -13   39.70    3.70   1
   0  -6  13   36.40    2.70   1
   0   6 -12   16.00    2.40   1
   0  -6  12   23.60    2.10   1
   0   6 -11   60.40    3.80   1
   0  -6  11   61.70    3.00   1
   0   6 -10  119.50    5.70   1
   0  -6  10  128.70    4.40   1
   0   6  -9   22.00    1.80   1
   0  -6   9   19.80    1.60   1
   0   6  -8   78.70    3.10   1
   0  -6   8   82.20    2.90   1
   0   6  -7   87.30    3.40   1
   0  -6   7   90.80    2.70   1
   0   6  -6   53.40    2.40   1
   0  -6   6   56.90    1.70   1
   0   6  -5   43.50    1.10   1
   0  -6   5   44.20    1.40   1
   0   6  -4   85.10    1.80   1
   0  -6   4   84.80    1.90   1
   0   6  -3  112.80    2.20   1
   0  -6   3  111.60    2.80   1
   0   6  -2   17.60    0.80   1
   0  -6   2   20.00    1.10   1
   0   6  -1  152.60    2.60   1
   0  -6   1  146.40    3.30   1
   0   6   0 1086.70   14.20   1
   0  -6   0 1087.20   16.60   1
   0   6   1  146.40    2.70   1
   0  -6  -1  148.00    3.10   1
   0   6   2   18.70    1.80   1
   0  -6  -2   20.10    1.40   1
   0   6   3  116.20    5.90   1
   0  -6  -3  109.30    2.90   1
   0   6   4   82.70    3.20   1
   0  -6  -4   83.90    2.80   1
   0   6   5   40.90    1.90   1
   0  -6  -5   39.80    2.60   1
   0   6   6   55.60    2.20   1
   0  -6  -6   55.90    3.00   1
   0   6   7   88.10    3.00   1
   0  -6  -7   88.50    4.00   1
   0   6   8   84.00    2.00   1
   0  -6  -8   85.80    2.00   1
   0   6   9   21.50    0.90   1
   0  -6  -9   22.00    0.80   1
   0   6  10  118.00    3.40   1
   0  -6 -10  119.60    3.50   1
   0   6  11   54.70    2.30   1
   0  -6 -11   58.70    2.30   1
   0   6  12   16.20    1.60   1
   0  -6 -12   21.40    1.40   1
   0   6  13   29.80    2.30   1
   0  -6 -13   37.80    3.30   1
   0   6  14  161.90    7.80   1
   0  -6 -14  169.40    7.80   1
   0   6  15  119.50    7.30   1
   0  -6 -15  127.50    6.90   1
   0   6  16   10.70    2.80   1
   0  -6 -16   12.20    3.10   1
   0   6  17   73.30    5.90   1
   0  -6 -17   79.30    6.20   1
   0   6  18   58.60    5.20   1
   0  -6 -18   57.90    5.20   1
   0   7 -18    3.30    5.00   1
   0  -7  18    4.70    4.90   1
   0   7 -17    0.30    4.50   1
   0  -7  17   -0.20    3.00   1
   0   7 -16   37.00    4.70   1
   0  -7  16   44.10    4.80   1
   0   7 -15    9.60    3.00   1
   0  -7  15   11.80    2.80   1
   0   7 -14   64.90    5.30   1
   0  -7  14   59.20    7.30   1
   0   7 -13   26.60    3.50   1
   0  -7  13   28.40    2.90   1
   0   7 -12   11.40    2.50   1
   0  -7  12    9.20    1.90   1
   0   7 -11   45.60    4.10   1
   0  -7  11   50.20    3.00   1
   0   7 -10   10.10    2.50   1
   0  -7  10   11.10    1.60   1
   0   7  -9  228.50    8.60   1
   0  -7   9  232.60    7.00   1
   0   7  -8   37.90    3.10   1
   0  -7   8   41.40    2.00   1
   0   7  -7  128.60    5.20   1
   0  -7   7  127.40    3.70   1
   0   7  -6   17.00    1.90   1
   0  -7   6   17.70    1.50   1
   0   7  -5   33.30    0.90   1
   0  -7   5   33.50    1.50   1
   0   7  -4  114.10    3.10   1
   0  -7   4  114.70    3.50   1
   0   7  -3  187.50    3.60   1
   0  -7   3  189.60    4.30   1
   0   7  -2  108.60    2.30   1
   0  -7   2  105.90    2.70   1
   0   7  -1   55.90    1.40   1
   0  -7   1   55.40    1.70   1
   0   7   0    0.40    0.30   1
   0  -7   0    0.80    0.40   1
   0   7   1   49.60    2.50   1
   0  -7  -1   50.80    2.20   1
   0   7   2  100.90    3.90   1
   0  -7  -2  109.40    3.40   1
   0   7   3  202.60    9.70   1
   0  -7  -3  188.80    5.20   1
   0   7   4  111.20    6.00   1
   0  -7  -4  104.60    3.40   1
   0   7   5   31.70    2.10   1
   0  -7  -5   25.50    2.40   1
   0   7   6   12.60    1.80   1
   0  -7  -6   17.30    1.90   1
   0   7   7  131.30    5.20   1
   0  -7  -7  127.40    5.30   1
   0   7   8   37.20    2.60   1
   0  -7  -8   42.00    2.80   1
   0   7   9  225.00    7.00   1
   0  -7  -9  225.00    8.10   1
   0   7  10   13.40    1.80   1
   0  -7 -10    8.80    2.30   1
   0   7  11   46.70    2.70   1
   0  -7 -11   46.30    3.60   1
   0   7  12   10.60    2.30   1
   0  -7 -12   11.00    2.30   1
   0   7  13   28.60    3.20   1
   0  -7 -13   31.20    3.90   1
   0   7  14   49.70    4.30   1
   0  -7 -14   50.70    4.30   1
   0   7  15   17.00    3.50   1
   0  -7 -15    9.20    3.10   1
   0   7  16   43.60    4.60   1
   0  -7 -16   41.50    4.10   1
   0   7  17    5.30    3.60   1
   0  -7 -17    4.70    2.90   1
   0   7  18    0.70    4.00   1
   0  -7 -18    3.80    6.10   1
   0   8 -17    2.10    3.80   1
   0  -8  17   -9.80    6.40   1
   0   8 -16    7.60    3.90   1
   0  -8  16    2.80    2.90   1
   0   8 -15   75.10    6.10   1
   0  -8  15   72.80    5.60   1
   0   8 -14   15.20    3.50   1
   0  -8  14   12.00    2.60   1
   0   8 -13   63.80    5.20   1
   0  -8  13   69.00    4.70   1
   0   8 -12   94.60    5.90   1
   0  -8  12  103.10    5.90   1
   0   8 -11  107.40    5.90   1
   0  -8  11  108.90    4.50   1
   0   8 -10   14.80    2.90   1
   0  -8  10   13.20    1.90   1
   0   8  -9   65.10    4.20   1
   0  -8   9   62.90    3.10   1
   0   8  -8    6.30    2.10   1
   0  -8   8    4.00    1.40   1
   0   8  -7    9.80    1.90   1
   0  -8   7   12.00    1.50   1
   0   8  -6   97.70    4.40   1
   0  -8   6   89.40    3.30   1
   0   8  -5  268.20    7.60   1
   0  -8   5  276.80    7.70   1
   0   8  -4   60.10    1.50   1
   0  -8   4   62.30    2.40   1
   0   8  -3  281.00    5.40   1
   0  -8   3  287.10    6.80   1
   0   8  -2   91.00    2.50   1
   0  -8   2   91.80    2.70   1
   0   8  -1    7.70    0.60   1
   0  -8   1    7.60    0.70   1
   0   8   0    1.50    0.20   1
   0  -8   0    1.10    0.30   1
   0   8   1    7.30    2.90   1
   0  -8  -1    7.40    1.60   1
   0   8   2   87.20    4.10   1
   0  -8  -2   86.20    3.20   1
   0   8   3  278.30    9.30   1
   0  -8  -3  281.20    7.50   1
   0   8   4   62.50    3.20   1
   0  -8  -4   57.00    3.30   1
   0   8   5  290.00    9.50   1
   0  -8  -5  280.30   12.40   1
   0   8   6  100.60    4.40   1
   0  -8  -6  100.50    4.60   1
   0   8   7   12.00    1.80   1
   0  -8  -7    9.10    1.90   1
   0   8   8    3.60    1.30   1
   0  -8  -8    0.90    1.60   1
   0   8   9   69.50    3.40   1
   0  -8  -9   63.90    4.00   1
   0   8  10   12.20    1.60   1
   0  -8 -10   10.80    2.50   1
   0   8  11   98.10    5.60   1
   0  -8 -11  108.30    5.80   1
   0   8  12  103.20    5.90   1
   0  -8 -12  103.90    5.90   1
   0   8  13   61.40    4.70   1
   0  -8 -13   60.10    4.80   1
   0   8  14   17.30    3.80   1
   0  -8 -14   15.20    3.40   1
   0   8  15   61.40    5.30   1
   0  -8 -15   70.50    5.80   1
   0   8  16    6.40    3.40   1
   0  -8 -16    4.70    3.90   1
   0   8  17    0.70    3.90   1
   0  -8 -17   -0.90    3.60   1
   0   9 -15    2.70    3.00   1
   0  -9  15    2.20    2.40   1
   0   9 -14   27.20    4.10   1
   0  -9  14   25.30    2.80   1
   0   9 -13    3.00    2.20   1
   0  -9  13   -0.20    1.70   1
   0   9 -12  107.90    5.70   1
   0  -9  12  117.40    5.40   1
   0   9 -11   -0.70    2.40   1
   0  -9  11    2.60    1.80   1
   0   9 -10    0.60    2.50   1
   0  -9  10    6.20    1.90   1
   0   9  -9  162.20    6.40   1
   0  -9   9  167.50    6.00   1
   0   9  -8    5.10    1.90   1
   0  -9   8   -2.00    1.70   1
   0   9  -7   30.00    2.20   1
   0  -9   7   35.90    2.20   1
   0   9  -6  121.60    4.70   1
   0  -9   6  128.00    4.60   1
   0   9  -5  107.80    3.50   1
   0  -9   5  108.90    3.80   1
   0   9  -4  192.40    4.80   1
   0  -9   4  194.30    6.00   1
   0   9  -3   12.70    0.90   1
   0  -9   3   11.70    2.00   1
   0   9  -2    5.50    0.70   1
   0  -9   2    8.90    1.10   1
   0   9  -1   39.90    1.40   1
   0  -9   1   42.40    2.00   1
   0   9   0    1.10    1.20   1
   0  -9   0   -0.60    1.50   1
   0   9   1   38.90    2.70   1
   0  -9  -1   41.70    2.90   1
   0   9   2    3.90    1.30   1
   0  -9  -2    4.20    2.10   1
   0   9   3   11.60    1.60   1
   0  -9  -3   14.20    2.60   1
   0   9   4  186.80    6.00   1
   0  -9  -4  191.20    7.70   1
   0   9   5   99.70    4.00   1
   0  -9  -5  103.70    7.40   1
   0   9   6  115.30    4.50   1
   0  -9  -6  120.60    8.40   1
   0   9   7   30.10    2.20   1
   0  -9  -7   32.50    2.90   1
   0   9   8    3.40    1.50   1
   0  -9  -8    5.90    2.40   1
   0   9   9  163.10    6.10   1
   0  -9  -9  165.90    7.60   1
   0   9  10    7.40    2.00   1
   0  -9 -10    9.50    3.20   1
   0   9  11   -0.50    2.60   1
   0  -9 -11    2.70    3.20   1
   0   9  12  105.00    7.00   1
   0  -9 -12  107.20    6.70   1
   0   9  13    4.10    2.60   1
   0  -9 -13    4.20    2.50   1
   0   9  14   19.40    3.50   1
   0  -9 -14   23.50    3.60   1
   0   9  15   10.20    3.70   1
   0  -9 -15    6.60    3.40   1
   0  10 -14   32.70    3.80   1
   0 -10  14   30.70    3.10   1
   0  10 -13    1.50    2.60   1
   0 -10  13   -1.90    1.90   1
   0  10 -12   90.70    5.30   1
   0 -10  12   96.90    5.50   1
   0  10 -11   -0.70    2.00   1
   0 -10  11    1.40    1.70   1
   0  10 -10    4.40    1.90   1
   0 -10  10    4.80    1.80   1
   0  10  -9   44.70    3.50   1
   0 -10   9   58.60    3.60   1
   0  10  -8    1.30    1.50   1
   0 -10   8   -0.20    1.50   1
   0  10  -7    5.60    1.50   1
   0 -10   7    5.10    1.40   1
   0  10  -6    2.70    1.50   1
   0 -10   6    1.10    1.50   1
   0  10  -5   12.90    1.70   1
   0 -10   5   12.90    1.60   1
   0  10  -4   12.10    1.30   1
   0 -10   4   12.80    1.50   1
   0  10  -3   10.00    1.80   1
   0 -10   3   12.70    2.20   1
   0  10  -2  208.80    7.10   1
   0 -10   2  216.80    8.80   1
   0  10  -1   81.10    3.50   1
   0 -10   1   75.40    4.30   1
   0  10   0  326.00   11.40   1
   0 -10   0  305.40   11.00   1
   0  10   1   78.50    4.70   1
   0 -10  -1   72.70    4.30   1
   0  10   2  211.20    9.10   1
   0 -10  -2  205.40    8.20   1
   0  10   3    6.00    1.50   1
   0 -10  -3    4.00    2.70   1
   0  10   4   14.20    1.50   1
   0 -10  -4   16.00    3.40   1
   0  10   5   13.40    1.50   1
   0  10   6    0.90    1.10   1
   0 -10  -6    9.50    3.50   1
   0  10   7   -2.10    1.60   1
   0 -10  -7    9.10    3.70   1
   0  10   8   -0.10    1.60   1
   0 -10  -8   -2.40    2.00   1
   0  10   9   51.20    3.40   1
   0 -10  -9   49.80    4.40   1
   0  10  10    3.40    2.80   1
   0 -10 -10    6.20    2.50   1
   0  10  11   -0.20    2.60   1
   0 -10 -11    2.60    3.00   1
   0  10  12   92.50    6.90   1
   0 -10 -12   89.10    6.70   1
   0  10  13    7.60    2.90   1
   0 -10 -13    4.70    3.20   1
   0  10  14   36.90    4.80   1
   0 -10 -14   36.80    4.70   1
   0  11 -12    0.80    3.00   1
   0 -11  12    1.60    2.30   1
   0  11 -11   38.00    5.00   1
   0 -11  11   33.40    4.00   1
   0  11 -10   17.40    3.60   1
   0 -11  10   15.20    2.80   1
   0  11  -9   15.30    7.20   1
   0 -11   9   25.20    3.30   1
   0  11  -8  119.00   12.90   1
   0 -11   8  129.20    7.80   1
   0  11  -7   91.50    9.80   1
   0 -11   7  104.40    6.30   1
   0  11  -6  128.70   11.20   1
   0 -11   6  125.00    7.30   1
   0  11  -5   10.40    4.80   1
   0 -11   5   24.30    3.20   1
   0  11  -4   26.60    7.00   1
   0 -11   4   19.30    3.00   1
   0  11  -3   42.60    6.00   1
   0 -11   3   36.70    3.50   1
   0  11  -2    8.30    4.40   1
   0 -11   2    7.50    2.20   1
   0  11  -1   16.30    2.40   1
   0 -11   1   18.50    2.80   1
   0  11   0   -0.60    1.20   1
   0 -11   0   -2.90    1.90   1
   0  11   1   17.60    1.90   1
   0 -11  -1   22.80    3.20   1
   0  11   2    8.70    1.60   1
   0 -11  -2   15.20    2.60   1
   0  11   3   30.80    2.70   1
   0 -11  -3   34.80    4.60   1
   0  11   4   22.00    2.40   1
   0 -11  -4   21.20    3.90   1
   0  11   5   17.40    2.10   1
   0  11   6  130.30    5.90   1
   0  11   7   92.90    4.60   1
   0  11   8  121.80    5.20   1
   0  11   9   20.90    2.50   1
   0  11  10   15.40    3.60   1
   0  11  11   42.40    4.50   1
   0 -11 -11   42.00    6.20   1
   0  11  12    7.00    6.50   1
   0 -11 -12    3.40    4.70   1
   0 -12  10   52.20    6.80   1
   0  12  -9   16.40    8.20   1
   0 -12   9    8.60    3.20   1
   0  12  -8    9.80    7.50   1
   0 -12   8    1.10    2.40   1
   0  12  -7    0.70    5.40   1
   0 -12   7   18.80    3.20   1
   0  12  -6   14.40    5.40   1
   0 -12   6    8.50    2.80   1
   0  12  -5    1.40    4.70   1
   0 -12   5    2.90    2.70   1
   0  12  -4   47.00    7.30   1
   0 -12   4   37.50    4.00   1
   0  12  -3   72.30    8.70   1
   0 -12   3   68.90    5.50   1
   0  12  -2    0.00    4.20   1
   0 -12   2    2.20    2.30   1
   0  12  -1   56.00    7.50   1
   0 -12   1   52.00    4.40   1
   0  12   0    0.10    4.30   1
   0 -12   0   -3.10    2.50   1
   0  12   1   51.30    7.30   1
   0 -12  -1   50.70    4.30   1
   0  12   2    0.50    2.00   1
   0 -12  -2    2.30    4.80   1
   0  12   3   72.30    4.30   1
   0 -12  -3   89.50    8.90   1
   0  12   4   34.70    3.10   1
   0  12   5    9.50    2.50   1
   0  12   6   -1.90    2.70   1
   0  12   7   15.60    2.70   1
   0  12   8    2.40    3.50   1
   0  12   9    2.50    5.30   1
   0  12  10   45.40    7.00   1
   0 -13   6   28.00    5.40   1
   0  13  -5   15.30    8.10   1
   0 -13   5   11.30    3.50   1
   0  13  -4   -2.90    4.50   1
   0 -13   4   -1.60    3.20   1
   0  13  -3  163.30   15.60   1
   0 -13   3  141.50    9.60   1
   0  13  -2   15.40    5.80   1
   0 -13   2   19.80    3.40   1
   0  13  -1    9.00    5.50   1
   0 -13   1   12.90    3.50   1
   0  13   0    1.60    7.10   1
   0 -13   0   -3.50    2.40   1
   0  13   1   12.90    5.30   1
   0 -13  -1    9.50    4.40   1
   0  13   2   24.90    6.10   1
   0 -13  -2   29.00    5.20   1
   0  13   3  127.20   12.30   1
   0 -13  -3  139.30   13.40   1
   0  13   4    8.80    7.40   1
   0  13   5    1.30    5.00   1
   0  13   6   20.60    6.20   1
  -1  13   5    2.40    4.80   1
  -1  13   4    7.10    5.40   1
  -1  13   3   -2.00    4.40   1
  -1  13   2    4.50    5.60   1
   1 -13  -1   31.50    4.20   1
  -1  13   1   50.10    7.30   1
   1 -13   0   10.50    3.10   1
  -1  13   0   10.40    5.00   1
   1 -13   1   42.50    4.50   1
  -1  13  -1   32.70    8.40   1
   1 -13   2    3.90    2.80   1
  -1  13  -2    6.00    5.40   1
   1 -13   3    5.70    2.90   1
  -1  13  -3   11.30    7.30   1
   1 -13   4   15.00    3.70   1
  -1  13  -4   10.80    5.60   1
   1 -13   5    5.60    3.00   1
  -1  12   9    1.60    2.70   1
  -1  12   8   26.00    3.00   1
  -1  12   7    2.60    2.70   1
  -1  12   6   10.70    2.20   1
  -1  12   5    5.50    2.50   1
  -1  12   4   60.90    5.30   1
   1 -12  -3    7.70    3.60   1
  -1  12   3    4.40    2.20   1
   1 -12  -2    1.30    2.70   1
  -1  12   2    1.40    4.10   1
   1 -12  -1   52.30    4.50   1
  -1  12   1   47.30    7.20   1
   1 -12   0  131.50    7.80   1
  -1  12   0  162.30   12.50   1
   1 -12   1   81.10    5.60   1
  -1  12  -1   77.20    8.20   1
   1 -12   2    4.00    2.40   1
  -1  12  -2    4.80    4.50   1
   1 -12   3    1.00    2.30   1
  -1  12  -3   -7.30    4.00   1
   1 -12   4   49.00    4.80   1
  -1  12  -4   45.00    8.40   1
   1 -12   5    3.70    2.40   1
  -1  12  -5   11.40    5.10   1
   1 -12   6    6.60    2.60   1
  -1  12  -6   -1.80    4.60   1
   1 -12   7   10.30    2.80   1
  -1  12  -7   13.40    5.40   1
   1 -12   8   18.30    3.60   1
  -1  12  -8   20.30    6.20   1
   1 -12   9   -3.20    2.90   1
  -1  12  -9    4.90    7.20   1
   1 -11 -12   -0.80    3.60   1
  -1  11  12    0.50    4.30   1
   1 -11 -11   29.20    5.30   1
  -1  11  11   32.80    4.20   1
  -1  11  10   13.40    4.20   1
  -1  11   9   20.30    3.30   1
  -1  11   8   25.40    3.70   1
  -1  11   7    9.40    2.20   1
  -1  11   6   79.60    4.30   1
  -1  11   5   51.20    2.80   1
  -1  11   4   15.20    1.60   1
   1 -11  -3   50.10    4.10   1
  -1  11   3   47.40    2.70   1
   1 -11  -2   15.70    3.00   1
  -1  11   2   16.30    1.70   1
   1 -11  -1   18.80    2.70   1
  -1  11   1   17.00    2.00   1
   1 -11   0   21.10    2.60   1
  -1  11   0   12.00    4.60   1
   1 -11   1   84.30    5.30   1
  -1  11  -1   86.20    5.30   1
   1 -11   2    3.30    1.90   1
  -1  11  -2    2.60    1.90   1
   1 -11   3  120.50    6.60   1
  -1  11  -3  130.30    6.90   1
   1 -11   4   59.50    4.30   1
  -1  11  -4   63.80    4.70   1
   1 -11   5   87.10    5.40   1
  -1  11  -5   92.40    9.20   1
   1 -11   6   43.60    4.00   1
  -1  11  -6   38.80    7.70   1
   1 -11   7    2.80    2.60   1
  -1  11  -7   -0.70    5.90   1
   1 -11   8    4.80    2.30   1
  -1  11  -8    9.10    6.20   1
   1 -11   9   22.80    3.20   1
  -1  11  -9   12.10    6.80   1
   1 -11  10    3.00    2.60   1
  -1  11 -10    6.40    5.00   1
   1 -11  11   24.40    3.60   1
  -1  11 -11   23.00    6.60   1
   1 -11  12    0.20    3.00   1
  -1  11 -12    6.30    5.40   1
   1 -10 -14   -1.20    3.50   1
   1 -10 -13   23.30    6.00   1
  -1  10  13   26.20    7.40   1
   1 -10 -12    9.70    4.30   1
  -1  10  12    6.00    4.20   1
   1 -10 -11   68.40    7.10   1
  -1  10  11   67.30    8.80   1
   1 -10 -10   -1.60    2.80   1
  -1  10  10    2.50    2.10   1
   1 -10  -9   12.00    4.60   1
  -1  10   9   14.10    2.40   1
  -1  10   8   31.90    2.30   1
  -1  10   7    2.00    1.40   1
  -1  10   6   43.60    2.40   1
  -1  10   5  193.60    7.10   1
   1 -10  -4    6.70    2.10   1
  -1  10   4    6.30    1.20   1
   1 -10  -3  122.90    6.00   1
  -1  10   3  130.20    4.50   1
   1 -10  -2   18.00    2.90   1
  -1  10   2   20.00    2.50   1
   1 -10  -1   58.10    3.90   1
  -1  10   1   52.30    3.00   1
   1 -10   0  201.10    8.30   1
  -1  10   0  216.90    8.60   1
   1 -10   1   12.30    2.10   1
  -1  10  -1    8.80    1.50   1
   1 -10   2   23.00    2.60   1
  -1  10  -2   16.90    2.40   1
   1 -10   3   85.90    4.80   1
  -1  10  -3   89.90    5.20   1
   1 -10   4    5.80    2.20   1
  -1  10  -4    3.60    2.00   1
   1 -10   5   86.80    3.90   1
  -1  10  -5   72.50    3.00   1
   1 -10   6  103.50    4.60   1
  -1  10  -6   99.90    3.80   1
   1 -10   7    9.60    1.80   1
  -1  10  -7   12.40    2.30   1
   1 -10   8   71.40    3.80   1
  -1  10  -8   59.50    6.10   1
   1 -10   9   96.20    5.70   1
  -1  10  -9   94.00    5.80   1
   1 -10  10   -0.90    1.80   1
  -1  10 -10    2.90    2.30   1
   1 -10  11   75.80    4.70   1
  -1  10 -11   65.90    6.20   1
   1 -10  12   32.20    3.20   1
  -1  10 -12   20.90    4.90   1
   1 -10  13   14.60    3.00   1
  -1  10 -13   12.60    3.90   1
   1 -10  14   10.10    2.50   1
  -1  10 -14    9.00    3.50   1
   1  -9 -15   12.90    4.90   1
  -1   9  15   10.60    4.90   1
   1  -9 -14   -3.30    4.80   1
  -1   9  14    3.30    3.40   1
   1  -9 -13    5.00    3.90   1
  -1   9  13   13.30    3.30   1
   1  -9 -12   45.20    6.20   1
  -1   9  12   54.50    4.40   1
   1  -9 -11    1.60    2.80   1
  -1   9  11    6.00    2.20   1
   1  -9 -10    5.10    2.90   1
  -1   9  10    0.80    1.40   1
   1  -9  -9  357.00   19.60   1
  -1   9   9  383.10   12.70   1
   1  -9  -8   56.80    5.20   1
  -1   9   8   55.80    3.10   1
   1  -9  -7   51.30    5.10   1
  -1   9   7   61.30    3.30   1
  -1   9   6    4.20    1.10   1
  -1   9   5   31.70    1.80   1
   1  -9  -4  118.50    5.40   1
  -1   9   4  112.50    3.70   1
   1  -9  -3   17.00    2.10   1
  -1   9   3   14.50    1.20   1
   1  -9  -2   11.20    2.00   1
  -1   9   2   12.20    1.40   1
   1  -9  -1   64.10    3.80   1
  -1   9   1   59.10    2.80   1
   1  -9   0    5.30    1.90   1
  -1   9   0    1.40    1.20   1
   1  -9   1   72.70    3.10   1
  -1   9  -1   72.80    2.90   1
   1  -9   2   70.70    3.00   1
  -1   9  -2   78.90    2.60   1
   1  -9   3    0.10    1.10   1
  -1   9  -3    1.30    0.60   1
   1  -9   4   41.90    2.30   1
  -1   9  -4   40.70    3.00   1
   1  -9   5   61.70    2.90   1
  -1   9  -5   57.90    2.90   1
   1  -9   6   36.40    2.30   1
  -1   9  -6   34.90    2.50   1
   1  -9   7   11.70    1.70   1
  -1   9  -7    9.80    2.20   1
   1  -9   8   25.30    2.00   1
  -1   9  -8   22.10    3.90   1
   1  -9   9  364.10   11.60   1
  -1   9  -9  368.40   14.20   1
   1  -9  10    8.00    1.60   1
  -1   9 -10    9.70    2.70   1
   1  -9  11   -1.90    1.50   1
  -1   9 -11   -3.20    2.70   1
   1  -9  12    8.00    1.80   1
  -1   9 -12    7.60    2.90   1
   1  -9  13   16.80    2.40   1
  -1   9 -13   27.30    4.10   1
   1  -9  14   -0.10    2.20   1
  -1   9 -14   10.00    4.00   1
   1  -9  15   92.30    5.40   1
  -1   9 -15   84.40    7.20   1
   1  -8 -16   83.70    9.20   1
  -1   8  16   67.60    5.80   1
   1  -8 -15   81.00    8.30   1
  -1   8  15   85.60    6.60   1
   1  -8 -14   69.70    7.80   1
  -1   8  14   77.90    6.00   1
   1  -8 -13    6.50    2.60   1
  -1   8  13   14.30    2.70   1
   1  -8 -12   38.80    3.70   1
  -1   8  12   41.80    3.60   1
   1  -8 -11    7.80    2.70   1
  -1   8  11   10.50    1.80   1
   1  -8 -10    5.80    2.20   1
  -1   8  10    3.20    1.60   1
   1  -8  -9    9.80    2.10   1
  -1   8   9    5.40    1.40   1
   1  -8  -8   10.30    1.80   1
  -1   8   8    9.60    1.60   1
   1  -8  -7   70.60    4.00   1
  -1   8   7   79.20    3.30   1
   1  -8  -6    5.10    2.00   1
  -1   8   6    4.50    1.40   1
   1  -8  -5   25.40    2.00   1
  -1   8   5   25.40    2.00   1
   1  -8  -4    4.10    1.40   1
  -1   8   4    1.60    0.80   1
   1  -8  -3    4.80    1.50   1
  -1   8   3    4.90    1.20   1
   1  -8  -2  192.50    5.60   1
  -1   8   2  198.80    5.70   1
   1  -8  -1   12.60    1.90   1
  -1   8   1   12.60    1.30   1
   1  -8   0  550.10   12.10   1
  -1   8   0  548.10   11.30   1
   1  -8   1   12.60    0.80   1
  -1   8  -1   12.80    0.60   1
   1  -8   2  299.20    6.80   1
  -1   8  -2  297.50    5.70   1
   1  -8   3   58.50    2.30   1
  -1   8  -3   60.80    1.90   1
   1  -8   4   31.40    1.60   1
  -1   8  -4   32.70    2.00   1
   1  -8   5    3.30    1.00   1
  -1   8  -5    3.60    1.30   1
   1  -8   6   29.90    1.60   1
  -1   8  -6   24.50    2.50   1
   1  -8   7    7.90    1.40   1
  -1   8  -7    6.90    1.90   1
   1  -8   8    4.60    1.30   1
  -1   8  -8    6.10    2.50   1
   1  -8   9   17.80    1.50   1
  -1   8  -9   15.50    2.60   1
   1  -8  10    3.90    1.40   1
  -1   8 -10    4.00    2.10   1
   1  -8  11    0.40    1.30   1
  -1   8 -11   -0.60    2.00   1
   1  -8  12   99.60    4.10   1
  -1   8 -12   98.30    5.90   1
   1  -8  13    3.10    1.80   1
  -1   8 -13   -0.90    2.40   1
   1  -8  14   67.00    4.10   1
  -1   8 -14   62.50    5.60   1
   1  -8  15   28.20    3.30   1
  -1   8 -15   25.80    4.00   1
   1  -8  16   45.30    4.00   1
  -1   8 -16   42.10    6.90   1
   1  -7 -17   -0.70    3.60   1
  -1   7  17    0.90    3.30   1
   1  -7 -16   30.10    3.80   1
  -1   7  16   22.40    3.50   1
   1  -7 -15   -1.60    2.30   1
  -1   7  15   -2.70    2.60   1
   1  -7 -14   36.30    3.50   1
  -1   7  14   35.70    4.00   1
   1  -7 -13   45.80    4.10   1
  -1   7  13   45.30    4.20   1
   1  -7 -12   47.60    3.50   1
  -1   7  12   40.50    3.40   1
   1  -7 -11   24.70    2.30   1
  -1   7  11   24.80    2.00   1
   1  -7 -10   34.60    2.50   1
  -1   7  10   35.70    2.70   1
   1  -7  -9   23.30    2.60   1
  -1   7   9   21.00    2.40   1
   1  -7  -8   47.10    2.50   1
  -1   7   8   48.80    3.00   1
   1  -7  -7  295.60    8.30   1
  -1   7   7  284.40    9.60   1
   1  -7  -6  304.00    8.10   1
  -1   7   6  312.20    9.70   1
   1  -7  -5    8.90    1.40   1
  -1   7   5    5.30    1.40   1
   1  -7  -4  119.30    3.20   1
  -1   7   4  117.40    4.30   1
   1  -7  -3    0.70    1.40   1
  -1   7   3    2.90    0.90   1
   1  -7  -2    6.80    1.40   1
  -1   7   2    7.20    1.40   1
   1  -7  -1  157.50    4.30   1
  -1   7   1  147.30    5.20   1
   1  -7   0   53.20    1.60   1
  -1   7   0   53.20    1.60   1
   1  -7   1   68.30    1.90   1
  -1   7  -1   63.30    1.80   1
   1  -7   2   39.00    1.50   1
  -1   7  -2   39.70    1.20   1
   1  -7   3   16.00    1.10   1
  -1   7  -3   17.50    0.80   1
   1  -7   4  126.00    3.10   1
  -1   7  -4  127.40    3.10   1
   1  -7   5    8.80    1.10   1
  -1   7  -5    8.30    1.30   1
   1  -7   6  325.30    7.30   1
  -1   7  -6  329.60   10.80   1
   1  -7   7  346.30    7.70   1
  -1   7  -7  332.70   11.20   1
   1  -7   8   75.80    2.70   1
  -1   7  -8   66.40    3.80   1
   1  -7   9    7.20    1.20   1
  -1   7  -9    6.50    2.00   1
   1  -7  10    6.60    1.50   1
  -1   7 -10    6.90    2.10   1
   1  -7  11   54.70    3.30   1
  -1   7 -11   60.80    4.20   1
   1  -7  12    3.20    1.70   1
  -1   7 -12    3.70    2.10   1
   1  -7  13  116.90    5.30   1
  -1   7 -13  116.80    6.80   1
   1  -7  14   16.30    2.40   1
  -1   7 -14   18.90    3.00   1
   1  -7  15    5.80    2.20   1
  -1   7 -15   -1.90    2.90   1
   1  -7  16   28.80    3.30   1
  -1   7 -16   31.90    5.30   1
   1  -7  17   11.40    2.70   1
  -1   7 -17    5.90    5.00   1
   1  -6 -18   15.30    6.30   1
  -1   6  18    5.80    2.80   1
   1  -6 -17   71.80    5.50   1
  -1   6  17   85.20    6.00   1
   1  -6 -16   18.80    3.10   1
  -1   6  16   19.50    2.90   1
   1  -6 -15    9.00    2.80   1
  -1   6  15   14.60    3.40   1
   1  -6 -14    1.00    2.30   1
  -1   6  14    0.40    1.80   1
   1  -6 -13  106.50    5.70   1
  -1   6  13  123.00    6.30   1
   1  -6 -12  107.00    3.90   1
  -1   6  12   98.80    4.00   1
   1  -6 -11    6.10    0.90   1
  -1   6  11    7.20    1.30   1
   1  -6 -10  220.70    6.30   1
  -1   6  10  203.20    5.90   1
   1  -6  -9  115.80    2.30   1
  -1   6   9  110.30    3.00   1
   1  -6  -8   57.90    1.70   1
  -1   6   8   57.40    2.10   1
   1  -6  -7   53.20    2.40   1
  -1   6   7   52.90    2.80   1
   1  -6  -6  111.30    3.80   1
  -1   6   6  106.90    4.20   1
   1  -6  -5   58.70    2.30   1
  -1   6   5   60.90    2.80   1
   1  -6  -4  231.20    4.70   1
  -1   6   4  244.10    7.20   1
   1  -6  -3  318.60    6.70   1
  -1   6   3  335.00    9.70   1
   1  -6  -2    5.00    1.10   1
  -1   6   2    6.70    1.20   1
   1  -6  -1   20.50    0.90   1
  -1   6   1   20.50    0.80   1
   1  -6   0  158.10    3.20   1
  -1   6   0  152.00    3.00   1
   1  -6   1  137.20    2.90   1
  -1   6  -1  145.30    3.20   1
   1  -6   2    8.10    0.60   1
  -1   6  -2    8.40    0.60   1
   1  -6   3   76.50    2.10   1
  -1   6  -3   64.30    1.90   1
   1  -6   4  127.60    2.80   1
  -1   6  -4  128.30    3.10   1
   1  -6   5  182.10    3.90   1
  -1   6  -5  183.60    4.30   1
   1  -6   6    4.10    1.00   1
  -1   6  -6    3.70    1.20   1
   1  -6   7   24.10    1.90   1
  -1   6  -7   22.70    2.40   1
   1  -6   8   35.80    2.20   1
  -1   6  -8   35.60    2.70   1
   1  -6   9  111.30    3.90   1
  -1   6  -9  115.60    5.00   1
   1  -6  10  275.40    7.90   1
  -1   6 -10  270.40    9.60   1
   1  -6  11  112.90    5.30   1
  -1   6 -11  117.60    6.00   1
   1  -6  12  108.80    5.50   1
  -1   6 -12  106.10    5.60   1
   1  -6  13   43.20    3.90   1
  -1   6 -13   36.80    3.80   1
   1  -6  14   16.40    2.90   1
  -1   6 -14   14.70    3.00   1
   1  -6  15   44.40    4.40   1
  -1   6 -15   30.00    3.60   1
   1  -6  16   43.10    4.40   1
  -1   6 -16   35.50    6.10   1
   1  -6  17   35.50    4.40   1
  -1   6 -17   34.40    6.20   1
   1  -6  18    6.50    4.20   1
  -1   6 -18   15.60    7.50   1
   1  -5 -19   80.20    9.40   1
  -1   5  19  101.50    7.30   1
   1  -5 -18   38.40    6.10   1
  -1   5  18   28.70    4.90   1
   1  -5 -17   16.00    2.90   1
  -1   5  17    9.50    3.30   1
   1  -5 -16   24.80    3.20   1
  -1   5  16   23.50    3.40   1
   1  -5 -15    4.30    1.50   1
  -1   5  15    3.10    1.60   1
   1  -5 -14    8.30    1.30   1
  -1   5  14    7.40    1.60   1
   1  -5 -13   37.00    1.70   1
  -1   5  13   36.50    2.30   1
   1  -5 -12   45.70    1.80   1
  -1   5  12   42.90    2.40   1
   1  -5 -11  173.80    4.30   1
  -1   5  11  170.60    6.30   1
   1  -5 -10   22.60    1.00   1
  -1   5  10   21.60    1.10   1
   1  -5  -9  109.50    2.30   1
  -1   5   9  111.40    3.20   1
   1  -5  -8   40.20    1.10   1
  -1   5   8   39.20    1.20   1
   1  -5  -7   37.60    0.90   1
  -1   5   7   37.60    1.10   1
   1  -5  -6  119.00    2.20   1
  -1   5   6  118.70    2.50   1
   1  -5  -5   36.80    1.80   1
  -1   5   5   37.30    1.80   1
   1  -5  -4  103.90    2.90   1
  -1   5   4  108.10    2.80   1
   1  -5  -3  748.30   14.10   1
  -1   5   3  767.00   11.40   1
   1  -5  -2   28.40    1.40   1
  -1   5   2   29.10    1.20   1
   1  -5  -1  150.30    3.40   1
  -1   5   1  152.70    2.50   1
   1  -5   0   47.40    1.10   1
  -1   5   0   48.40    1.00   1
   1  -5   1  123.80    2.30   1
  -1   5  -1  125.70    2.00   1
   1  -5   2  171.80    2.80   1
  -1   5  -2  177.60    2.70   1
   1  -5   3 1159.30   15.40   1
  -1   5  -3 1242.40   18.00   1
   1  -5   4    6.30    0.70   1
  -1   5  -4    5.20    0.70   1
   1  -5   5   48.60    1.40   1
  -1   5  -5   48.50    1.50   1
   1  -5   6   37.40    1.90   1
  -1   5  -6   34.80    1.50   1
   1  -5   7   27.70    2.00   1
  -1   5  -7   25.50    2.10   1
   1  -5   8   15.00    2.00   1
  -1   5  -8   10.10    1.90   1
   1  -5   9   29.00    2.70   1
  -1   5  -9   28.90    2.50   1
   1  -5  10    0.80    1.20   1
  -1   5 -10    0.00    1.60   1
   1  -5  11  230.70    7.10   1
  -1   5 -11  235.10    8.90   1
   1  -5  12    4.00    1.60   1
  -1   5 -12    7.00    2.10   1
   1  -5  13    8.50    1.90   1
  -1   5 -13    4.40    2.20   1
   1  -5  14   -1.40    1.60   1
  -1   5 -14   -0.10    1.90   1
   1  -5  15   10.70    2.10   1
  -1   5 -15    9.80    2.60   1
   1  -5  16    2.20    2.00   1
  -1   5 -16   -2.20    3.10   1
   1  -5  17   75.60    6.20   1
  -1   5 -17   83.20    8.50   1
   1  -5  18   15.00    4.10   1
  -1   5 -18   13.20    6.70   1
   1  -5  19   49.80    5.80   1
  -1   5 -19   42.60    9.20   1
  -1   4  20   23.60    3.90   1
   1  -4 -19    1.90    3.80   1
  -1   4  19    4.30    2.90   1
   1  -4 -18    5.60    2.60   1
  -1   4  18    3.50    2.20   1
   1  -4 -17   65.40    3.30   1
  -1   4  17   70.20    4.10   1
   1  -4 -16    0.90    1.40   1
  -1   4  16    1.00    1.60   1
   1  -4 -15  252.70    6.90   1
  -1   4  15  244.30    7.90   1
   1  -4 -14    3.10    1.10   1
  -1   4  14    1.20    1.40   1
   1  -4 -13   73.70    2.50   1
  -1   4  13   72.60    3.50   1
   1  -4 -12  248.60    5.70   1
  -1   4  12  241.80    9.10   1
   1  -4 -11   10.40    0.90   1
  -1   4  11    9.90    1.10   1
   1  -4 -10   84.90    1.90   1
  -1   4  10   87.50    2.40   1
   1  -4  -9   21.10    1.00   1
  -1   4   9   20.90    1.10   1
   1  -4  -8   18.50    0.90   1
  -1   4   8   20.50    1.00   1
   1  -4  -7   49.90    1.30   1
  -1   4   7   46.10    1.30   1
   1  -4  -6  493.40    6.70   1
  -1   4   6  504.70    6.90   1
   1  -4  -5    1.30    0.30   1
  -1   4   5    1.50    0.30   1
   1  -4  -4   44.80    0.90   1
  -1   4   4   45.70    0.90   1
   1  -4  -3  481.70    6.50   1
  -1   4   3  499.00    6.00   1
   1  -4  -2  285.70    4.80   1
  -1   4   2  295.00    3.70   1
   1  -4  -1  154.80    2.50   1
  -1   4   1  151.00    2.30   1
   1  -4   0   18.80    0.60   1
  -1   4   0   19.10    0.50   1
   1  -4   1  165.00    2.80   1
  -1   4  -1  169.00    2.50   1
   1  -4   2  337.90    5.00   1
  -1   4  -2  345.30    6.00   1
   1  -4   3  202.20    3.60   1
  -1   4  -3  210.10    4.00   1
   1  -4   4   22.10    1.10   1
  -1   4  -4   24.40    0.90   1
   1  -4   5   27.10    1.60   1
  -1   4  -5   26.90    1.00   1
   1  -4   6  272.50    5.60   1
  -1   4  -6  277.80    5.30   1
   1  -4   7  143.00    3.70   1
  -1   4  -7  146.60    3.80   1
   1  -4   8  116.00    3.80   1
  -1   4  -8  122.70    3.90   1
   1  -4   9  101.00    3.50   1
  -1   4  -9   99.00    3.40   1
   1  -4  10   21.10    2.00   1
  -1   4 -10   19.30    1.80   1
   1  -4  11    1.70    0.50   1
  -1   4 -11   -0.50    1.20   1
   1  -4  12  425.60    9.20   1
  -1   4 -12  416.70   13.90   1
   1  -4  13   19.00    2.20   1
  -1   4 -13   17.90    2.30   1
   1  -4  14   15.00    2.00   1
  -1   4 -14   12.50    2.00   1
   1  -4  15  196.50    7.50   1
  -1   4 -15  175.10    8.70   1
   1  -4  16   12.20    2.40   1
  -1   4 -16    6.90    3.80   1
   1  -4  17   54.10    3.80   1
  -1   4 -17   59.10    6.70   1
   1  -4  18    4.10    2.70   1
  -1   4 -18    3.60    4.00   1
   1  -4  19    3.20    2.50   1
  -1   4 -19   -0.70    4.20   1
   1  -3 -20    6.10    3.10   1
  -1   3  20    6.00    2.40   1
   1  -3 -19    3.40    2.50   1
  -1   3  19    0.00    2.20   1
   1  -3 -18   90.40    4.80   1
  -1   3  18   80.30    4.60   1
   1  -3 -17    9.50    2.10   1
  -1   3  17    6.70    1.80   1
   1  -3 -16    3.40    1.40   1
  -1   3  16    3.40    1.80   1
   1  -3 -15   28.40    2.10   1
  -1   3  15   30.90    2.60   1
   1  -3 -14   25.00    1.70   1
  -1   3  14   27.50    2.20   1
   1  -3 -13   11.30    1.00   1
  -1   3  13   12.20    1.60   1
   1  -3 -12  128.20    3.90   1
  -1   3  12  137.60    4.00   1
   1  -3 -11   -0.10    0.70   1
  -1   3  11    0.00    0.80   1
   1  -3 -10    7.00    0.80   1
  -1   3  10    9.40    0.90   1
   1  -3  -9  218.10    3.70   1
  -1   3   9  220.10    4.60   1
   1  -3  -8  714.30    9.30   1
  -1   3   8  722.40   11.00   1
   1  -3  -7   50.30    1.10   1
  -1   3   7   52.70    1.30   1
   1  -3  -6  440.30    6.80   1
  -1   3   6  432.30    6.10   1
   1  -3  -5   45.30    0.90   1
  -1   3   5   47.00    1.00   1
   1  -3  -4  307.50    4.10   1
  -1   3   4  318.60    4.30   1
   1  -3  -3   15.50    0.60   1
  -1   3   3   14.90    0.40   1
   1  -3  -2  386.70    5.40   1
  -1   3   2  405.00    4.70   1
   1  -3  -1    0.80    0.20   1
  -1   3   1    1.10    0.20   1
   1  -3   0   30.00    0.80   1
  -1   3   0   30.90    0.60   1
   1  -3   1    7.30    0.40   1
  -1   3  -1    6.90    0.30   1
   1  -3   2   66.60    1.60   1
  -1   3  -2   66.10    1.60   1
   1  -3   3    9.40    0.60   1
  -1   3  -3    8.00    0.50   1
   1  -3   4   23.40    1.20   1
  -1   3  -4   22.80    1.60   1
   1  -3   5   13.30    0.80   1
  -1   3  -5   11.10    0.70   1
   1  -3   6 1037.50   18.90   1
  -1   3  -6 1059.80   15.50   1
   1  -3   7    4.20    0.50   1
  -1   3  -7    4.40    0.90   1
   1  -3   8  421.20    8.40   1
  -1   3  -8  435.70   10.30   1
   1  -3   9  110.40    3.10   1
  -1   3  -9  112.70    3.60   1
   1  -3  10   47.20    1.70   1
  -1   3 -10   48.20    2.20   1
   1  -3  11    2.40    0.80   1
  -1   3 -11    2.30    1.00   1
   1  -3  12    6.70    1.10   1
  -1   3 -12    5.20    1.30   1
   1  -3  13   11.50    1.30   1
  -1   3 -13    9.20    1.70   1
   1  -3  14    6.10    1.20   1
  -1   3 -14    4.00    1.90   1
   1  -3  15   59.80    3.30   1
  -1   3 -15   52.70    5.50   1
   1  -3  16   23.70    2.70   1
  -1   3 -16   24.30    4.40   1
   1  -3  17   11.10    2.40   1
  -1   3 -17   13.60    4.40   1
   1  -3  18   77.40    4.80   1
  -1   3 -18   78.90    8.20   1
   1  -3  19    0.10    2.20   1
  -1   3 -19   -4.10    3.90   1
   1  -3  20    5.20    3.00   1
  -1   3 -20    5.30    4.90   1
   1  -2 -20   11.20    2.70   1
  -1   2  20   12.70    2.70   1
   1  -2 -19   10.50    2.40   1
  -1   2  19    6.60    2.20   1
   1  -2 -18   50.20    3.50   1
  -1   2  18   42.40    3.50   1
   1  -2 -17  120.20    5.30   1
  -1   2  17  104.10    5.00   1
   1  -2 -16   59.90    3.10   1
  -1   2  16   57.60    3.30   1
   1  -2 -15   22.80    2.00   1
  -1   2  15   21.20    2.20   1
   1  -2 -14   37.80    2.30   1
  -1   2  14   40.80    2.50   1
   1  -2 -13   39.70    1.80   1
  -1   2  13   39.90    2.40   1
   1  -2 -12  248.90    6.40   1
  -1   2  12  236.10    5.80   1
   1  -2 -11  107.50    2.90   1
  -1   2  11  112.10    3.20   1
   1  -2 -10    0.70    0.70   1
  -1   2  10    0.90    0.80   1
   1  -2  -9    2.50    0.60   1
  -1   2   9    2.90    0.80   1
   1  -2  -8   15.70    0.80   1
  -1   2   8   16.20    0.90   1
   1  -2  -7    5.30    0.60   1
  -1   2   7    4.60    0.60   1
   1  -2  -6  143.60    2.20   1
  -1   2   6  150.60    2.50   1
   1  -2  -5  168.20    2.70   1
  -1   2   5  177.70    2.70   1
   1  -2  -4    9.40    0.40   1
  -1   2   4    8.70    0.40   1
   1  -2  -3   53.70    0.90   1
  -1   2   3   54.60    0.90   1
   1  -2  -2  543.50    9.00   1
  -1   2   2  550.40    6.20   1
   1  -2  -1  125.10    2.00   1
  -1   2   1  128.50    2.20   1
   1  -2   0  814.30   10.60   1
  -1   2   0  828.70    9.40   1
   1  -2   1  502.50    6.30   1
  -1   2  -1  509.20    6.80   1
   1  -2   2  921.60   11.80   1
  -1   2  -2  949.80   12.10   1
   1  -2   3    0.50    0.30   1
  -1   2  -3    1.70    0.50   1
   1  -2   4   10.50    0.50   1
  -1   2  -4   11.20    0.60   1
   1  -2   5   17.00    1.00   1
  -1   2  -5   17.00    1.30   1
   1  -2   6    7.20    1.00   1
  -1   2  -6    7.10    0.90   1
   1  -2   7   64.50    2.00   1
  -1   2  -7   68.90    1.60   1
   1  -2   8   76.90    2.00   1
  -1   2  -8   78.50    2.20   1
   1  -2   9   -0.10    0.70   1
  -1   2  -9    0.50    0.90   1
   1  -2  10   -0.50    0.80   1
  -1   2 -10    1.20    0.60   1
   1  -2  11   12.30    1.30   1
  -1   2 -11   13.10    1.20   1
   1  -2  12  556.60   11.50   1
  -1   2 -12  570.20   13.20   1
   1  -2  13   10.10    1.20   1
  -1   2 -13    6.70    1.30   1
   1  -2  14   32.20    1.90   1
  -1   2 -14   29.60    2.30   1
   1  -2  15   58.20    2.80   1
  -1   2 -15   54.30    5.80   1
   1  -2  16  112.40    4.10   1
  -1   2 -16  114.60    8.50   1
   1  -2  17   66.20    4.40   1
  -1   2 -17   71.40    7.90   1
   1  -2  18   -1.30    2.30   1
  -1   2 -18    0.10    5.10   1
   1  -2  19    8.60    2.80   1
  -1   2 -19    7.70    6.30   1
   1  -2  20   35.50    3.80   1
  -1   2 -20   36.70    6.70   1
   1  -1 -20    6.40    2.50   1
  -1   1  20    2.90    2.50   1
   1  -1 -19   17.70    2.70   1
  -1   1  19   15.50    2.80   1
   1  -1 -18  154.50    6.30   1
  -1   1  18  158.80    6.50   1
   1  -1 -17    6.20    2.40   1
  -1   1  17    1.50    1.90   1
   1  -1 -16    2.10    2.10   1
  -1   1  16    2.50    1.80   1
   1  -1 -15    1.70    1.60   1
  -1   1  15    1.50    1.50   1
   1  -1 -14   63.50    2.40   1
  -1   1  14   64.60    3.00   1
   1  -1 -13   12.80    1.30   1
  -1   1  13   10.80    1.50   1
   1  -1 -12  273.90    6.70   1
  -1   1  12  270.30    5.80   1
   1  -1 -11  190.20    5.30   1
  -1   1  11  181.00    4.00   1
   1  -1 -10    8.30    1.00   1
  -1   1  10    8.40    0.90   1
   1  -1  -9  222.40    3.70   1
  -1   1   9  223.50    4.10   1
   1  -1  -8   21.70    0.80   1
  -1   1   8   21.20    1.00   1
   1  -1  -7  412.30    6.00   1
  -1   1   7  402.50    7.10   1
   1  -1  -6   65.40    1.90   1
  -1   1   6   71.30    2.20   1
   1  -1  -5   24.50    0.70   1
  -1   1   5   25.10    0.80   1
   1  -1  -4  552.00    6.30   1
  -1   1   4  564.70    7.60   1
   1  -1  -3  533.20    7.50   1
  -1   1   3  527.50    6.60   1
   1  -1  -2   51.40    1.00   1
  -1   1   2   53.60    1.20   1
   1  -1  -1   44.30    0.80   1
  -1   1   1   44.40    0.70   1
   1  -1   0    9.20    0.30   1
  -1   1   0    9.50    0.30   1
   1  -1   1   10.00    0.40   1
  -1   1  -1    9.60    0.40   1
   1  -1   2  357.20    5.00   1
  -1   1  -2  361.90    5.40   1
   1  -1   3  983.50   13.80   1
  -1   1  -3  983.30   13.70   1
   1  -1   4  300.20    4.90   1
  -1   1  -4  326.80    6.00   1
   1  -1   5    0.70    0.40   1
  -1   1  -5    2.90    0.50   1
   1  -1   6  411.70    7.30   1
  -1   1  -6  424.80    7.20   1
   1  -1   7  343.90    6.40   1
  -1   1  -7  360.60    6.00   1
   1  -1   8    4.60    0.90   1
  -1   1  -8    5.60    0.60   1
   1  -1   9   30.50    2.20   1
  -1   1  -9   28.60    1.50   1
   1  -1  10    1.40    0.80   1
  -1   1 -10    0.20    0.40   1
   1  -1  11  271.60    6.00   1
  -1   1 -11  273.20    6.20   1
   1  -1  12   90.20    3.20   1
  -1   1 -12   95.20    4.30   1
   1  -1  13  140.30    4.20   1
  -1   1 -13  131.20    5.10   1
   1  -1  14   81.70    3.10   1
  -1   1 -14   74.60    6.30   1
   1  -1  15    5.30    1.40   1
  -1   1 -15   10.10    3.20   1
   1  -1  16   30.20    2.10   1
  -1   1 -16   28.70    4.80   1
   1  -1  17   59.80    3.10   1
  -1   1 -17   58.50    6.70   1
   1  -1  18  166.80    7.20   1
  -1   1 -18  175.70   11.80   1
   1  -1  19    3.70    2.50   1
  -1   1 -19   -0.30    3.50   1
   1  -1  20   15.00    3.90   1
  -1   1 -20   14.50    6.80   1
   1   0 -20   -6.50    2.60   1
  -1   0  20   -3.40    2.00   1
   1   0 -19    3.00    2.50   1
  -1   0  19    2.90    2.20   1
   1   0 -18    2.50    2.50   1
  -1   0  18   -0.30    2.30   1
   1   0 -17   79.10    6.90   1
  -1   0  17   77.40    4.30   1
   1   0 -16    3.10    4.50   1
  -1   0  16   -1.20    1.60   1
   1   0 -15   16.50    1.80   1
  -1   0  15   18.20    1.90   1
   1   0 -14    0.00    0.50   1
  -1   0  14    0.50    1.10   1
   1   0 -13  395.90    8.70   1
  -1   0  13  416.10    8.30   1
   1   0 -12    0.20    0.50   1
  -1   0  12    0.40    0.80   1
   1   0 -11   50.20    2.40   1
  -1   0  11   51.70    2.00   1
   1   0 -10    0.50    0.90   1
  -1   0  10    0.10    0.70   1
   1   0  -9  616.50   13.10   1
  -1   0   9  641.70   12.00   1
   1   0  -8    0.30    0.50   1
  -1   0   8    0.00    0.60   1
   1   0  -7  133.70    2.50   1
  -1   0   7  138.70    2.60   1
   1   0  -6    0.00    0.40   1
  -1   0   6    0.50    0.50   1
   1   0  -5  410.20    6.50   1
  -1   0   5  404.90    7.40   1
   1   0  -4    0.80    0.40   1
  -1   0   4    0.90    0.30   1
   1   0  -3 2071.00   25.70   1
  -1   0   3 1990.70   26.30   1
   1   0  -2    1.20    0.30   1
  -1   0   2    0.40    0.20   1
   1   0  -1   59.50    1.20   1
  -1   0   1   58.80    1.10   1
   1   0   0    1.50    0.20   1
  -1   0   0    1.30    0.20   1
   1   0   1   11.70    0.30   1
  -1   0  -1   12.50    0.40   1
   1   0   2    1.40    0.30   1
  -1   0  -2    0.90    0.20   1
   1   0   3  528.80   11.00   1
  -1   0  -3  545.40   13.70   1
   1   0   4    0.70    0.30   1
  -1   0  -4    0.30    0.50   1
   1   0   5  975.40   17.00   1
  -1   0  -5 1016.40   17.50   1
   1   0   6    1.00    0.60   1
  -1   0  -6    1.80    0.50   1
   1   0   7   87.90    2.50   1
  -1   0  -7   91.20    2.60   1
   1   0   8    0.70    0.80   1
  -1   0  -8    1.30    0.70   1
   1   0   9  552.40   12.60   1
  -1   0  -9  569.70   22.80   1
   1   0  10    0.40    1.10   1
  -1   0 -10   -2.50    2.00   1
   1   0  11  188.80    5.30   1
  -1   0 -11  176.40    8.70   1
   1   0  12    1.10    1.00   1
  -1   0 -12    5.20    2.30   1
   1   0  13   80.30    3.50   1
  -1   0 -13   76.90    7.60   1
   1   0  14   -1.90    1.20   1
  -1   0 -14    4.30    3.60   1
   1   0  15   38.80    2.20   1
  -1   0 -15   38.60    3.20   1
   1   0  16    0.90    1.30   1
  -1   0 -16    2.70    1.70   1
   1   0  17   18.70    1.90   1
  -1   0 -17   21.50    3.00   1
   1   0  18    3.80    1.50   1
  -1   0 -18    1.00    3.40   1
   1   0  19    7.30    2.00   1
  -1   0 -19    4.70    4.10   1
   1   0  20    2.30    2.80   1
  -1   0 -20   12.60    5.90   1
   1   1 -20    4.10    2.50   1
  -1  -1  20    3.30    3.00   1
   1   1 -19   22.30    4.30   1
  -1  -1  19   16.70    2.70   1
   1   1 -18  159.70   11.60   1
  -1  -1  18  148.20    6.30   1
   1   1 -17    8.90    4.20   1
  -1  -1  17    2.50    1.70   1
   1   1 -16    5.20    3.30   1
  -1  -1  16    1.50    1.70   1
   1   1 -15    0.40    1.50   1
  -1  -1  15    4.10    1.60   1
   1   1 -14   61.70    2.50   1
  -1  -1  14   57.40    2.50   1
   1   1 -13   16.40    1.40   1
  -1  -1  13   12.30    1.70   1
   1   1 -12  267.30    7.00   1
  -1  -1  12  267.90    5.90   1
   1   1 -11  174.80    4.90   1
  -1  -1  11  179.10    4.20   1
   1   1 -10    7.20    0.80   1
  -1  -1  10    9.60    1.00   1
   1   1  -9  208.80    5.20   1
  -1  -1   9  226.90    4.60   1
   1   1  -8   20.90    0.80   1
  -1  -1   8   21.30    1.00   1
   1   1  -7  419.40    6.00   1
  -1  -1   7  421.70    6.80   1
   1   1  -6   69.00    2.00   1
  -1  -1   6   60.70    1.90   1
   1   1  -5   23.20    0.90   1
  -1  -1   5   24.00    1.00   1
   1   1  -4  546.00    8.10   1
  -1  -1   4  545.70    8.90   1
   1   1  -3  520.40    7.50   1
  -1  -1   3  525.00    9.50   1
   1   1  -2   76.90    2.30   1
  -1  -1   2   80.50    2.70   1
   1   1  -1   43.40    0.90   1
  -1  -1   1   43.40    1.00   1
   1   1   0    9.40    0.20   1
  -1  -1   0   10.50    0.50   1
   1   1   1    8.80    0.40   1
  -1  -1  -1    7.90    0.30   1
   1   1   2  348.30    4.80   1
  -1  -1  -2  358.30    6.60   1
   1   1   3  964.70   14.50   1
  -1  -1  -3 1007.20   13.90   1
   1   1   4  291.40    5.60   1
  -1  -1  -4  310.50    5.40   1
   1   1   5    1.20    0.50   1
  -1  -1  -5    2.20    0.60   1
   1   1   6  422.30    8.10   1
  -1  -1  -6  433.80    8.20   1
   1   1   7  346.80    7.40   1
  -1  -1  -7  371.00    8.00   1
   1   1   8    5.10    0.80   1
  -1  -1  -8    7.30    0.90   1
   1   1   9   30.60    2.10   1
  -1  -1  -9   37.00    2.90   1
   1   1  10    2.80    1.10   1
  -1  -1 -10    2.00    2.00   1
   1   1  11  261.10    6.80   1
  -1  -1 -11  262.90   12.00   1
   1   1  12   83.90    3.70   1
  -1  -1 -12   83.10    7.00   1
   1   1  13  133.30    3.90   1
  -1  -1 -13  118.70    7.10   1
   1   1  14   84.40    3.30   1
  -1  -1 -14   72.40    3.90   1
   1   1  15    6.10    1.50   1
  -1  -1 -15    3.80    2.10   1
   1   1  16   29.50    2.20   1
  -1  -1 -16   28.40    2.80   1
   1   1  17   64.90    3.30   1
  -1  -1 -17   57.70    4.10   1
   1   1  18  177.20    6.30   1
  -1  -1 -18  169.60   12.30   1
   1   1  19   -0.80    2.00   1
  -1  -1 -19    4.90    3.10   1
   1   1  20   16.50    2.60   1
  -1  -1 -20   19.40    3.60   1
   1   2 -20   11.70    3.50   1
  -1  -2  20   11.70    3.90   1
   1   2 -19   19.40    4.00   1
  -1  -2  19   12.80    3.60   1
   1   2 -18   38.20    6.00   1
  -1  -2  18   48.70    4.40   1
   1   2 -17  108.10    9.60   1
  -1  -2  17  102.90    5.10   1
   1   2 -16   60.20    4.00   1
  -1  -2  16   62.10    3.50   1
   1   2 -15   28.60    2.80   1
  -1  -2  15   24.10    2.00   1
   1   2 -14   37.20    2.70   1
  -1  -2  14   40.70    2.20   1
   1   2 -13   47.00    3.00   1
  -1  -2  13   42.10    2.10   1
   1   2 -12  251.20    6.50   1
  -1  -2  12  242.60    5.80   1
   1   2 -11  109.30    3.30   1
  -1  -2  11  106.00    2.90   1
   1   2 -10    0.60    0.40   1
  -1  -2  10    0.10    0.70   1
   1   2  -9    2.00    0.40   1
  -1  -2   9    3.00    0.80   1
   1   2  -8   17.50    0.70   1
  -1  -2   8   14.20    1.00   1
   1   2  -7    4.30    0.70   1
  -1  -2   7    4.30    0.60   1
   1   2  -6  150.90    2.90   1
  -1  -2   6  143.30    2.70   1
   1   2  -5  172.30    3.00   1
  -1  -2   5  175.30    3.80   1
   1   2  -4   10.30    0.60   1
  -1  -2   4    9.50    0.70   1
   1   2  -3   54.80    1.20   1
  -1  -2   3   53.30    1.30   1
   1   2  -2  567.60    9.10   1
  -1  -2   2  537.90    8.00   1
   1   2  -1  174.00    4.40   1
  -1  -2   1  168.90    2.70   1
   1   2   0  845.40   10.90   1
  -1  -2   0  874.00   11.40   1
   1   2   1  494.50    6.70   1
  -1  -2  -1  491.70    7.80   1
   1   2   2  902.00   13.50   1
  -1  -2  -2  922.90   12.70   1
   1   2   3    2.30    0.40   1
  -1  -2  -3    1.80    0.40   1
   1   2   4   11.30    0.50   1
  -1  -2  -4   11.00    0.60   1
   1   2   5   17.60    1.00   1
  -1  -2  -5   17.40    1.00   1
   1   2   6    9.00    0.90   1
  -1  -2  -6   10.60    1.10   1
   1   2   7   65.40    1.90   1
  -1  -2  -7   67.50    1.90   1
   1   2   8   74.20    2.30   1
  -1  -2  -8   78.60    2.60   1
   1   2   9    0.60    0.70   1
  -1  -2  -9    1.60    0.80   1
   1   2  10    0.80    1.00   1
  -1  -2 -10    0.20    1.70   1
   1   2  11   14.10    1.80   1
  -1  -2 -11   19.10    2.10   1
   1   2  12  550.10   13.50   1
  -1  -2 -12  528.90   15.80   1
   1   2  13    8.80    1.50   1
  -1  -2 -13   12.30    2.00   1
   1   2  14   30.30    1.90   1
  -1  -2 -14   28.00    2.60   1
   1   2  15   61.90    2.80   1
  -1  -2 -15   59.90    3.00   1
   1   2  16  108.70    4.20   1
  -1  -2 -16  113.70    4.70   1
   1   2  17   64.40    3.30   1
  -1  -2 -17   64.00    3.80   1
   1   2  18    3.70    1.70   1
  -1  -2 -18    3.00    1.90   1
   1   2  19    7.40    2.30   1
  -1  -2 -19    4.90    2.60   1
   1   2  20   37.30    3.30   1
  -1  -2 -20   29.30    4.90   1
   1   3 -20    2.60    3.40   1
  -1  -3  20   15.80    7.80   1
   1   3 -19   -2.30    2.80   1
  -1  -3  19    0.00    4.40   1
   1   3 -18   89.40    8.50   1
  -1  -3  18   76.70    5.70   1
   1   3 -17   13.60    4.50   1
  -1  -3  17   12.40    2.80   1
   1   3 -16    2.50    2.40   1
  -1  -3  16    3.80    1.80   1
   1   3 -15   25.90    2.80   1
  -1  -3  15   23.50    2.10   1
   1   3 -14   28.10    2.90   1
  -1  -3  14   26.90    2.00   1
   1   3 -13    8.80    2.70   1
  -1  -3  13   12.70    1.40   1
   1   3 -12  130.80    5.40   1
  -1  -3  12  144.10    3.90   1
   1   3 -11    1.30    2.30   1
  -1  -3  11    1.40    0.90   1
   1   3 -10    9.00    3.60   1
  -1  -3  10    7.40    1.20   1
   1   3  -9  215.80    5.20   1
  -1  -3   9  220.80    4.60   1
   1   3  -8  691.10   12.60   1
  -1  -3   8  706.50   13.50   1
   1   3  -7   49.90    1.40   1
  -1  -3   7   48.40    1.70   1
   1   3  -6  432.90    7.00   1
  -1  -3   6  434.50    9.20   1
   1   3  -5   45.30    1.10   1
  -1  -3   5   45.90    1.20   1
   1   3  -4  310.80    4.60   1
  -1  -3   4  306.90    4.90   1
   1   3  -3   15.40    0.60   1
  -1  -3   3   16.10    0.70   1
   1   3  -2  403.40    5.30   1
  -1  -3   2  404.40    6.80   1
   1   3  -1    1.30    0.40   1
  -1  -3   1    1.10    0.40   1
   1   3   0   31.20    0.70   1
  -1  -3   0   32.70    0.80   1
   1   3   1    5.90    0.40   1
  -1  -3  -1    6.10    0.30   1
   1   3   2   96.90    2.00   1
  -1  -3  -2   98.20    1.80   1
   1   3   3    8.80    0.40   1
  -1  -3  -3    9.00    0.40   1
   1   3   4   36.20    1.30   1
  -1  -3  -4   39.30    1.50   1
   1   3   5   12.40    0.50   1
  -1  -3  -5   13.10    0.70   1
   1   3   6 1115.60   17.10   1
  -1  -3  -6 1095.00   18.80   1
   1   3   7    4.60    0.50   1
  -1  -3  -7    6.10    0.70   1
   1   3   8  434.60    7.90   1
  -1  -3  -8  457.80    8.50   1
   1   3   9  116.60    3.20   1
  -1  -3  -9  119.40    3.00   1
   1   3  10   50.50    2.90   1
  -1  -3 -10   46.40    2.20   1
   1   3  11    3.00    1.20   1
  -1  -3 -11    4.10    1.10   1
   1   3  12    7.90    1.50   1
  -1  -3 -12   11.60    1.70   1
   1   3  13    6.20    1.30   1
  -1  -3 -13    7.90    1.50   1
   1   3  14    9.40    1.90   1
  -1  -3 -14    7.80    1.60   1
   1   3  15   51.90    2.60   1
  -1  -3 -15   51.80    3.00   1
   1   3  16   27.50    2.20   1
  -1  -3 -16   25.90    2.50   1
   1   3  17   11.50    2.20   1
  -1  -3 -17    8.70    1.90   1
   1   3  18   74.90    4.00   1
  -1  -3 -18   77.40    4.40   1
   1   3  19    2.10    1.90   1
  -1  -3 -19    1.80    2.50   1
   1   3  20    4.30    2.30   1
  -1  -3 -20    2.70    2.90   1
   1   4 -19    4.80    3.10   1
  -1  -4  19   -1.90    4.50   1
   1   4 -18    9.10    3.80   1
  -1  -4  18   10.10    6.20   1
   1   4 -17   75.20    8.00   1
  -1  -4  17   70.50    7.80   1
   1   4 -16    4.20    2.20   1
  -1  -4  16   -2.90    3.40   1
   1   4 -15  236.30   10.50   1
  -1  -4  15  240.10   15.30   1
   1   4 -14    2.60    2.00   1
  -1  -4  14    5.00    1.70   1
   1   4 -13   75.60    4.30   1
  -1  -4  13   77.80    4.00   1
   1   4 -12  254.70    9.70   1
  -1  -4  12  256.00    8.20   1
   1   4 -11   11.10    2.10   1
  -1  -4  11   11.00    1.30   1
   1   4 -10   85.50    2.70   1
  -1  -4  10   86.30    3.40   1
   1   4  -9   21.70    1.30   1
  -1  -4   9   23.20    1.40   1
   1   4  -8   23.90    1.20   1
  -1  -4   8   20.50    1.30   1
   1   4  -7   51.70    1.70   1
  -1  -4   7   49.40    1.80   1
   1   4  -6  493.80    7.80   1
  -1  -4   6  495.10    7.70   1
   1   4  -5    2.00    0.50   1
  -1  -4   5    1.00    0.50   1
   1   4  -4   48.20    1.10   1
  -1  -4   4   48.60    1.60   1
   1   4  -3  503.30    7.00   1
  -1  -4   3  498.80    7.80   1
   1   4  -2  297.60    3.90   1
  -1  -4   2  294.00    4.70   1
   1   4  -1  161.40    2.40   1
  -1  -4   1  159.90    2.80   1
   1   4   0   18.60    0.50   1
  -1  -4   0   19.50    0.70   1
   1   4   1  170.40    2.50   1
  -1  -4  -1  164.70    2.80   1
   1   4   2  345.40    4.60   1
  -1  -4  -2  331.40    5.00   1
   1   4   3  206.60    3.70   1
  -1  -4  -3  212.70    3.90   1
   1   4   4   27.00    0.70   1
  -1  -4  -4   27.10    0.80   1
   1   4   5   27.20    0.70   1
  -1  -4  -5   26.10    0.80   1
   1   4   6  285.00    4.90   1
  -1  -4  -6  284.50    5.30   1
   1   4   7  151.40    3.20   1
  -1  -4  -7  147.80    3.10   1
   1   4   8  122.20    2.40   1
  -1  -4  -8  119.30    2.70   1
   1   4   9   97.80    2.00   1
  -1  -4  -9   99.40    2.30   1
   1   4  10   21.90    1.30   1
  -1  -4 -10   24.40    1.30   1
   1   4  11    2.60    1.50   1
  -1  -4 -11    1.90    1.20   1
   1   4  12  405.30   11.30   1
  -1  -4 -12  403.00   10.70   1
   1   4  13   17.10    1.90   1
  -1  -4 -13   19.90    1.90   1
   1   4  14   15.20    1.70   1
  -1  -4 -14   11.70    1.70   1
   1   4  15  197.80    6.30   1
  -1  -4 -15  202.20    7.40   1
   1   4  16    8.10    1.90   1
  -1  -4 -16   14.20    2.30   1
   1   4  17   58.50    3.40   1
  -1  -4 -17   61.00    3.60   1
   1   4  18    4.70    2.00   1
  -1  -4 -18    4.80    2.00   1
   1   4  19    6.00    3.00   1
  -1  -4 -19    9.60    4.00   1
   1   5 -19   89.20    7.20   1
  -1  -5  19   99.60   10.10   1
   1   5 -18   32.80    4.40   1
  -1  -5  18   23.80    5.90   1
   1   5 -17   16.30    3.70   1
  -1  -5  17   27.70    6.80   1
   1   5 -16   29.80    3.80   1
  -1  -5  16   28.80    5.60   1
   1   5 -15    3.80    3.40   1
  -1  -5  15   10.50    5.20   1
   1   5 -14   10.20    2.80   1
  -1  -5  14    9.90    3.80   1
   1   5 -13   37.30    3.20   1
  -1  -5  13   30.20    4.30   1
   1   5 -12   45.80    3.80   1
  -1  -5  12   51.80    2.80   1
   1   5 -11  164.90    6.90   1
  -1  -5  11  168.80    6.30   1
   1   5 -10   21.00    1.40   1
  -1  -5  10   20.30    1.30   1
   1   5  -9  112.00    3.60   1
  -1  -5   9  113.60    3.80   1
   1   5  -8   41.90    1.60   1
  -1  -5   8   39.60    2.30   1
   1   5  -7   40.20    1.50   1
  -1  -5   7   41.90    2.00   1
   1   5  -6  123.30    3.10   1
  -1  -5   6  119.10    3.20   1
   1   5  -5   38.60    1.20   1
  -1  -5   5   40.90    1.40   1
   1   5  -4  106.30    2.00   1
  -1  -5   4   99.80    3.00   1
   1   5  -3  789.10   10.10   1
  -1  -5   3  784.70   11.50   1
   1   5  -2   32.30    0.90   1
  -1  -5   2   35.10    1.20   1
   1   5  -1  161.90    2.50   1
  -1  -5   1  159.60    3.10   1
   1   5   0   49.70    0.90   1
  -1  -5   0   47.50    1.30   1
   1   5   1  126.40    2.00   1
  -1  -5  -1  131.60    2.70   1
   1   5   2  179.60    2.80   1
  -1  -5  -2  176.30    2.90   1
   1   5   3 1229.20   15.30   1
  -1  -5  -3 1196.80   18.40   1
   1   5   4   10.20    0.60   1
  -1  -5  -4   10.60    0.60   1
   1   5   5   50.30    1.20   1
  -1  -5  -5   53.70    1.20   1
   1   5   6   39.80    1.10   1
  -1  -5  -6   44.70    1.30   1
   1   5   7   27.20    1.00   1
  -1  -5  -7   29.00    1.10   1
   1   5   8   14.90    0.80   1
  -1  -5  -8   17.30    0.90   1
   1   5   9   31.00    1.10   1
  -1  -5  -9   36.50    1.60   1
   1   5  10    1.40    0.40   1
  -1  -5 -10    1.80    0.70   1
   1   5  11  231.50    7.10   1
  -1  -5 -11  237.50    6.90   1
   1   5  12    7.70    1.30   1
  -1  -5 -12    8.50    1.50   1
   1   5  13    8.20    1.70   1
  -1  -5 -13    6.10    1.70   1
   1   5  14    1.80    1.30   1
  -1  -5 -14    1.50    1.30   1
   1   5  15    9.20    1.50   1
  -1  -5 -15   11.60    1.80   1
   1   5  16    2.60    1.70   1
  -1  -5 -16    4.70    1.80   1
   1   5  17   79.60    5.90   1
  -1  -5 -17   66.40    5.00   1
   1   5  18   10.10    3.20   1
  -1  -5 -18   11.30    2.90   1
   1   5  19   45.80    5.20   1
  -1  -5 -19   50.90    7.10   1
   1   6 -18    8.80    3.90   1
  -1  -6  18    7.60    4.80   1
   1   6 -17   81.70    6.80   1
  -1  -6  17   83.40    9.30   1
   1   6 -16   26.50    3.40   1
  -1  -6  16   23.70    3.30   1
   1   6 -15   13.00    2.70   1
  -1  -6  15   12.60    2.90   1
   1   6 -14    3.10    2.40   1
  -1  -6  14    0.10    1.80   1
   1   6 -13  110.00    6.40   1
  -1  -6  13  123.10    6.40   1
   1   6 -12  111.30    5.70   1
  -1  -6  12  110.80    5.10   1
   1   6 -11    9.40    2.70   1
  -1  -6  11   13.50    2.10   1
   1   6 -10  234.20    8.80   1
  -1  -6  10  222.00    8.40   1
   1   6  -9  110.80    4.00   1
  -1  -6   9  118.30    4.10   1
   1   6  -8   58.80    2.10   1
  -1  -6   8   62.80    2.60   1
   1   6  -7   54.20    1.70   1
  -1  -6   7   61.40    2.30   1
   1   6  -6  109.10    3.10   1
  -1  -6   6  113.80    3.00   1
   1   6  -5   61.90    1.70   1
  -1  -6   5   62.80    2.40   1
   1   6  -4  249.60    4.20   1
  -1  -6   4  242.10    5.30   1
   1   6  -3  347.60    5.60   1
  -1  -6   3  334.60    6.70   1
   1   6  -2    5.60    0.60   1
  -1  -6   2    5.00    0.70   1
   1   6  -1   29.90    0.90   1
  -1  -6   1   31.90    1.20   1
   1   6   0  164.90    2.80   1
  -1  -6   0  160.50    3.70   1
   1   6   1  143.40    2.30   1
  -1  -6  -1  143.10    2.90   1
   1   6   2    7.70    0.50   1
  -1  -6  -2    7.80    0.50   1
   1   6   3   81.90    2.20   1
  -1  -6  -3   90.50    2.10   1
   1   6   4  127.50    2.90   1
  -1  -6  -4  142.10    3.30   1
   1   6   5  182.90    3.20   1
  -1  -6  -5  181.90    3.30   1
   1   6   6    6.50    0.50   1
  -1  -6  -6    8.40    0.70   1
   1   6   7   21.00    0.80   1
  -1  -6  -7   24.80    0.80   1
   1   6   8   39.50    1.20   1
  -1  -6  -8   41.10    1.40   1
   1   6   9  113.10    3.10   1
  -1  -6  -9  110.00    2.90   1
   1   6  10  260.50    6.10   1
  -1  -6 -10  268.00    7.40   1
   1   6  11  102.50    4.20   1
  -1  -6 -11  109.30    4.30   1
   1   6  12  108.40    4.50   1
  -1  -6 -12  108.30    4.50   1
   1   6  13   43.40    2.60   1
  -1  -6 -13   45.50    2.90   1
   1   6  14   17.30    2.60   1
  -1  -6 -14   19.00    2.80   1
   1   6  15   41.70    4.10   1
  -1  -6 -15   35.70    3.50   1
   1   6  16   35.40    3.80   1
  -1  -6 -16   36.80    4.10   1
   1   6  17   36.30    4.20   1
  -1  -6 -17   35.70    4.50   1
   1   6  18   15.00    4.10   1
  -1  -6 -18   10.50    3.30   1
   1   7 -17   -2.00    3.50   1
  -1  -7  17    2.70    5.80   1
   1   7 -16   28.60    3.60   1
  -1  -7  16   27.80    5.70   1
   1   7 -15    0.90    2.30   1
  -1  -7  15    1.40    2.00   1
   1   7 -14   39.50    3.60   1
  -1  -7  14   37.40    3.70   1
   1   7 -13   55.90    3.80   1
  -1  -7  13   50.10    4.00   1
   1   7 -12   44.70    3.20   1
  -1  -7  12   44.30    3.40   1
   1   7 -11   23.90    2.60   1
  -1  -7  11   29.30    2.50   1
   1   7 -10   40.10    2.80   1
  -1  -7  10   30.00    2.40   1
   1   7  -9   24.70    2.30   1
  -1  -7   9   20.60    2.30   1
   1   7  -8   49.10    2.70   1
  -1  -7   8   58.50    3.10   1
   1   7  -7  312.90    6.60   1
  -1  -7   7  298.40    8.20   1
   1   7  -6  325.00    6.60   1
  -1  -7   6  324.70    7.30   1
   1   7  -5    6.70    0.80   1
  -1  -7   5    5.40    1.00   1
   1   7  -4  123.40    2.80   1
  -1  -7   4  124.80    3.40   1
   1   7  -3    2.90    0.60   1
  -1  -7   3    3.30    0.90   1
   1   7  -2    4.10    0.50   1
  -1  -7   2    7.40    0.90   1
   1   7  -1  166.40    3.60   1
  -1  -7   1  171.30    3.50   1
   1   7   0   54.60    1.40   1
  -1  -7   0   58.60    1.70   1
   1   7   1   70.40    1.90   1
  -1  -7  -1   74.00    1.90   1
   1   7   2   39.40    1.20   1
  -1  -7  -2   39.90    1.30   1
   1   7   3   17.10    0.70   1
  -1  -7  -3   21.70    2.20   1
   1   7   4  127.50    6.80   1
  -1  -7  -4  129.20    3.90   1
   1   7   5    8.90    1.60   1
  -1  -7  -5    8.80    1.40   1
   1   7   6  336.00   10.70   1
  -1  -7  -6  335.60   10.30   1
   1   7   7  344.20    8.50   1
  -1  -7  -7  353.10   11.40   1
   1   7   8   76.80    2.80   1
  -1  -7  -8   76.00    2.90   1
   1   7   9    6.40    0.70   1
  -1  -7  -9    7.40    1.10   1
   1   7  10    8.00    1.60   1
  -1  -7 -10    8.80    2.00   1
   1   7  11   50.30    5.30   1
  -1  -7 -11   56.30    3.80   1
   1   7  12    4.30    3.00   1
  -1  -7 -12   13.80    3.00   1
   1   7  13  134.10   10.20   1
  -1  -7 -13  122.70    6.60   1
   1   7  14   16.00    3.20   1
  -1  -7 -14   15.00    2.80   1
   1   7  15    3.40    2.60   1
  -1  -7 -15    4.40    3.00   1
   1   7  16   30.20    3.90   1
  -1  -7 -16   28.90    3.60   1
   1   7  17   14.30    3.60   1
  -1  -7 -17   15.80    3.40   1
   1   8 -16   74.70    5.10   1
  -1  -8  16   78.30    9.30   1
   1   8 -15   91.10    5.70   1
  -1  -8  15   84.50   10.30   1
   1   8 -14   75.60    4.90   1
  -1  -8  14   77.40    5.50   1
   1   8 -13    7.80    2.20   1
  -1  -8  13    7.10    2.10   1
   1   8 -12   41.20    3.40   1
  -1  -8  12   44.10    2.90   1
   1   8 -11    4.60    1.90   1
  -1  -8  11    6.40    1.80   1
   1   8 -10    6.10    1.80   1
  -1  -8  10    4.00    1.40   1
   1   8  -9   10.30    2.10   1
  -1  -8   9   11.50    1.60   1
   1   8  -8   12.90    1.80   1
  -1  -8   8   10.90    1.50   1
   1   8  -7   74.30    3.30   1
  -1  -8   7   81.90    3.40   1
   1   8  -6    5.10    1.30   1
  -1  -8   6    5.70    1.20   1
   1   8  -5   23.60    2.80   1
  -1  -8   5   21.90    2.20   1
   1   8  -4    2.70    0.80   1
  -1  -8   4    3.70    1.10   1
   1   8  -3    3.00    0.90   1
  -1  -8   3    7.70    0.90   1
   1   8  -2  200.60    3.80   1
  -1  -8   2  206.00    4.90   1
   1   8  -1   11.70    1.10   1
  -1  -8   1   15.10    1.00   1
   1   8   0  587.80    9.60   1
  -1  -8   0  588.60   11.60   1
   1   8   1   12.10    0.50   1
  -1  -8  -1   12.70    0.70   1
   1   8   2  301.70   14.70   1
  -1  -8  -2  285.00    9.60   1
   1   8   3   59.10    5.50   1
  -1  -8  -3   59.30    3.40   1
   1   8   4   32.70    3.80   1
  -1  -8  -4   27.20    2.40   1
   1   8   5    3.90    1.50   1
  -1  -8  -5    1.50    1.20   1
   1   8   6   30.30    2.50   1
  -1  -8  -6   30.50    2.50   1
   1   8   7    9.90    2.40   1
  -1  -8  -7   11.40    2.00   1
   1   8   8    3.30    1.50   1
  -1  -8  -8    9.70    2.20   1
   1   8   9   14.10    2.80   1
  -1  -8  -9   14.10    2.20   1
   1   8  10    4.50    2.80   1
  -1  -8 -10    1.20    1.70   1
   1   8  11    2.60    2.70   1
  -1  -8 -11    4.00    2.10   1
   1   8  12   94.30    8.50   1
  -1  -8 -12   94.30    5.70   1
   1   8  13   -1.00    2.30   1
  -1  -8 -13   -0.30    2.10   1
   1   8  14   61.00    5.00   1
  -1  -8 -14   64.40    5.00   1
   1   8  15   31.70    4.20   1
  -1  -8 -15   41.80    4.80   1
   1   8  16   53.40    5.30   1
  -1  -8 -16   51.60    5.00   1
   1   9 -15   17.00    3.30   1
  -1  -9  15   20.90    3.70   1
   1   9 -14    5.80    3.10   1
  -1  -9  14    0.80    3.40   1
   1   9 -13   17.80    3.30   1
  -1  -9  13   11.60    2.40   1
   1   9 -12   55.20    3.80   1
  -1  -9  12   55.60    4.90   1
   1   9 -11    2.70    2.00   1
  -1  -9  11   -1.50    1.50   1
   1   9 -10    4.20    1.80   1
  -1  -9  10    0.90    1.50   1
   1   9  -9  401.20   12.30   1
  -1  -9   9  398.60   11.30   1
   1   9  -8   62.30    3.60   1
  -1  -9   8   57.10    3.10   1
   1   9  -7   54.90    3.10   1
  -1  -9   7   53.90    2.90   1
   1   9  -6    6.00    1.50   1
  -1  -9   6    4.50    1.50   1
   1   9  -5   32.80    2.20   1
  -1  -9   5   33.70    2.10   1
   1   9  -4  119.50    4.70   1
  -1  -9   4  121.20    4.00   1
   1   9  -3   14.80    1.60   1
  -1  -9   3   20.20    1.60   1
   1   9  -2   12.50    1.30   1
  -1  -9   2   13.40    1.30   1
   1   9  -1   65.00    2.40   1
  -1  -9   1   68.20    2.80   1
   1   9   0    2.00    0.50   1
  -1  -9   0    2.10    0.60   1
   1   9   1   76.00    4.10   1
  -1  -9  -1   75.10    3.30   1
   1   9   2   75.30    4.20   1
  -1  -9  -2   72.10    4.00   1
   1   9   3   -0.70    4.00   1
  -1  -9  -3    2.60    1.70   1
   1   9   4   44.60    2.50   1
  -1  -9  -4   45.60    3.30   1
   1   9   5   64.20    3.80   1
  -1  -9  -5   57.50    3.70   1
   1   9   6   40.40    3.30   1
  -1  -9  -6   39.30    5.10   1
   1   9   7    6.80    2.20   1
  -1  -9  -7   12.10    2.10   1
   1   9   8   28.70    3.00   1
  -1  -9  -8   24.20    2.90   1
   1   9   9  372.80   14.40   1
  -1  -9  -9  385.10   13.90   1
   1   9  10   12.40    3.30   1
  -1  -9 -10    9.30    2.70   1
   1   9  11   -2.50    2.80   1
  -1  -9 -11    3.30    2.50   1
   1   9  12    8.10    2.70   1
  -1  -9 -12   12.90    3.00   1
   1   9  13   25.30    3.70   1
  -1  -9 -13   16.20    3.00   1
   1   9  14   -1.20    3.50   1
  -1  -9 -14    0.80    2.60   1
   1   9  15  100.60    7.60   1
  -1  -9 -15   97.60    7.40   1
   1  10 -14    1.30    2.60   1
  -1 -10  14   -1.40    3.50   1
   1  10 -13   14.60    4.20   1
  -1 -10  13   15.70    5.70   1
   1  10 -12   10.70    3.30   1
  -1 -10  12   12.60    2.60   1
   1  10 -11   69.10    4.60   1
  -1 -10  11   69.60    4.10   1
   1  10 -10    1.90    1.80   1
  -1 -10  10    3.10    1.80   1
   1  10  -9   16.30    2.30   1
  -1 -10   9   20.10    2.40   1
   1  10  -8   32.20    2.80   1
  -1 -10   8   39.90    2.70   1
   1  10  -7    0.10    1.50   1
  -1 -10   7    6.10    1.80   1
   1  10  -6   49.40    3.00   1
  -1 -10   6   53.30    3.10   1
   1  10  -5  190.30    7.10   1
  -1 -10   5  186.00    7.00   1
   1  10  -4    8.10    1.30   1
  -1 -10   4   10.10    1.50   1
   1  10  -3  140.50    6.80   1
  -1 -10   3  133.20    6.20   1
   1  10  -2   19.20    4.60   1
  -1 -10   2   17.20    2.30   1
   1  10  -1   60.10    6.30   1
  -1 -10   1   51.50    3.40   1
   1  10   0  213.10   13.80   1
  -1 -10   0  201.00    8.20   1
   1  10   1   10.70    1.60   1
  -1 -10  -1    9.50    2.10   1
   1  10   2   11.50    5.20   1
  -1 -10  -2   20.30    2.40   1
   1  10   3   98.70    5.30   1
  -1 -10  -3   91.20    5.10   1
   1  10   4    6.90    1.40   1
  -1 -10  -4    6.20    2.00   1
   1  10   5   73.90    4.80   1
  -1 -10  -5   90.10    7.90   1
   1  10   6  106.40    4.70   1
  -1 -10  -6  111.10    9.10   1
   1  10   7   11.00    3.30   1
  -1 -10  -7   11.20    4.10   1
   1  10   8   67.10    6.30   1
  -1 -10  -8   82.90    7.90   1
   1  10   9   87.30    7.40   1
  -1 -10  -9   95.30    5.50   1
   1  10  10   -2.80    2.10   1
  -1 -10 -10    5.50    2.80   1
   1  10  11   88.50    6.40   1
  -1 -10 -11   85.80    6.20   1
   1  10  12   25.50    3.70   1
  -1 -10 -12   20.10    3.40   1
   1  10  13   10.40    3.40   1
  -1 -10 -13    9.10    3.30   1
   1  10  14   15.00    6.70   1
  -1 -10 -14   13.40    3.50   1
   1  11 -12    4.10    3.10   1
   1  11 -11   36.20    4.70   1
  -1 -11  11   31.60    5.50   1
   1  11 -10    7.00    3.70   1
  -1 -11  10   10.30    2.50   1
   1  11  -9   19.80    3.40   1
  -1 -11   9   21.80    3.20   1
   1  11  -8   29.40    6.70   1
  -1 -11   8   20.10    2.90   1
   1  11  -7    7.10    5.50   1
  -1 -11   7    9.80    2.50   1
   1  11  -6   80.00    9.10   1
  -1 -11   6   69.40    4.80   1
   1  11  -5   62.60    7.80   1
  -1 -11   5   61.70    4.30   1
   1  11  -4   16.90    5.40   1
  -1 -11   4   20.80    3.00   1
   1  11  -3   57.10    6.70   1
  -1 -11   3   61.40    4.20   1
   1  11  -2   10.50    4.70   1
  -1 -11   2   19.20    2.60   1
   1  11  -1   24.70    5.40   1
  -1 -11   1   23.30    3.10   1
   1  11   0   17.40    4.80   1
  -1 -11   0   20.80    3.10   1
   1  11   1  103.70   10.10   1
  -1 -11  -1   80.20    7.20   1
   1  11   2   10.40    5.80   1
  -1 -11  -2    1.80    2.80   1
   1  11   3  144.10   12.30   1
  -1 -11  -3  126.20    9.10   1
   1  11   4   63.70    4.70   1
  -1 -11  -4   59.80    4.60   1
   1  11   5   94.80    5.80   1
  -1 -11  -5   88.40    7.90   1
   1  11   6   37.70    4.00   1
  -1 -11  -6   45.10    6.70   1
   1  11   7    0.20    3.00   1
  -1 -11  -7    2.60    3.70   1
   1  11   8    6.00    2.80   1
  -1 -11  -8    7.10    5.30   1
   1  11   9   13.30    3.30   1
  -1 -11  -9   10.60    4.60   1
   1  11  10   -0.10    3.10   1
  -1 -11 -10   -0.20    4.30   1
   1  11  11   24.90    3.70   1
  -1 -11 -11   36.10    6.30   1
   1  11  12    3.50    3.70   1
  -1 -11 -12   17.40    4.40   1
   1  12  -9   17.90    9.20   1
  -1 -12   9    3.90    3.00   1
   1  12  -8   24.40    9.30   1
  -1 -12   8   25.80    3.70   1
   1  12  -7   -3.50    5.90   1
  -1 -12   7    5.00    2.60   1
   1  12  -6   20.00    6.40   1
  -1 -12   6    9.20    2.80   1
   1  12  -5   17.70    7.90   1
  -1 -12   5    5.50    2.60   1
   1  12  -4   56.70    9.00   1
  -1 -12   4   58.50    7.20   1
   1  12  -3    1.80    4.60   1
  -1 -12   3    0.80    2.50   1
   1  12  -2    1.70    5.10   1
  -1 -12   2    0.20    2.30   1
   1  12  -1   62.10    8.20   1
  -1 -12   1   61.30    4.90   1
   1  12   0  143.00   12.00   1
  -1 -12   0  133.20    9.90   1
   1  12   1   83.20    9.40   1
  -1 -12  -1   86.00    7.30   1
   1  12   2    2.50    2.20   1
  -1 -12  -2    6.20    3.40   1
   1  12   3    0.70    2.10   1
  -1 -12  -3    3.10    3.50   1
   1  12   4   47.80    3.80   1
  -1 -12  -4   39.10    5.70   1
   1  12   5    6.00    2.50   1
   1  12   6    6.20    2.50   1
   1  12   7   10.50    3.20   1
   1  12   8   17.50    4.00   1
   1  12   9    3.00    2.90   1
  -1 -12  -9   -2.90    4.30   1
  -1 -13   6  115.90   11.60   1
  -1 -13   5   -2.00    5.60   1
   1  13  -4    8.50    6.00   1
  -1 -13   4    8.70    3.40   1
   1  13  -3    3.70    5.80   1
  -1 -13   3    6.60    3.30   1
   1  13  -2   -8.40    7.70   1
  -1 -13   2    1.00    2.60   1
   1  13  -1   48.40    8.20   1
  -1 -13   1   47.00    6.50   1
   1  13   0   21.20    6.70   1
  -1 -13   0   11.10    4.50   1
   1  13   1   48.50    8.20   1
  -1 -13  -1   40.80    6.60   1
   1  13   2    4.50    2.80   1
  -1 -13  -2   10.90    4.50   1
   1  13   3    8.20    3.10   1
  -1 -13  -3    6.20    4.20   1
   1  13   4   14.30    3.60   1
   1  13   5    2.30    2.90   1
  -2  13   4   16.00    5.70   1
  -2  13   3   31.70    6.90   1
   2 -13  -2   50.00    7.70   1
  -2  13   2   56.20    8.50   1
   2 -13  -1    3.30    3.00   1
  -2  13   1    0.00    5.00   1
   2 -13   0    3.50    2.90   1
  -2  13   0  -11.60    7.20   1
   2 -13   1   30.90    4.20   1
  -2  13  -1   30.60    7.00   1
   2 -13   2   -0.40    3.10   1
  -2  13  -2   -3.90    4.80   1
   2 -13   3  177.80   10.80   1
   2 -13   4   10.90    4.50   1
  -2  12   9   14.80    5.10   1
  -2  12   8    2.00    3.10   1
  -2  12   7    2.40    2.40   1
  -2  12   6   17.00    2.60   1
  -2  12   5    5.70    4.40   1
   2 -12  -4   54.90    6.50   1
  -2  12   4   54.50    6.10   1
   2 -12  -3  199.90   15.80   1
  -2  12   3  221.00   12.20   1
   2 -12  -2    7.40    2.90   1
  -2  12   2    5.80    4.60   1
   2 -12  -1   33.00    4.20   1
  -2  12   1   25.50    3.60   1
   2 -12   0   -1.20    2.30   1
  -2  12   0    3.20    2.80   1
   2 -12   1   70.00    5.80   1
  -2  12  -1   74.80    5.60   1
   2 -12   2    1.90    2.70   1
  -2  12  -2   -8.80    5.80   1
   2 -12   3    2.70    3.10   1
  -2  12  -3   -1.00    4.10   1
   2 -12   4   31.30    3.90   1
  -2  12  -4   13.40    3.30   1
   2 -12   5   15.20    3.10   1
  -2  12  -5    8.30    7.20   1
   2 -12   6   15.40    3.40   1
  -2  12  -6   10.50    5.30   1
   2 -12   7   87.50    6.90   1
  -2  12  -7   91.30   10.40   1
   2 -12   8    5.10    3.30   1
  -2  12  -8    7.30    5.30   1
  -2  11  11   10.10    6.20   1
  -2  11  10   39.80    4.40   1
  -2  11   9   75.20    5.00   1
  -2  11   8  128.40    6.60   1
  -2  11   7   55.10    3.80   1
  -2  11   6   63.60    4.00   1
  -2  11   5    4.80    2.00   1
   2 -11  -4    7.50    3.40   1
  -2  11   4    6.60    2.00   1
   2 -11  -3   -1.20    3.20   1
  -2  11   3    1.30    2.20   1
   2 -11  -2   43.00    3.90   1
  -2  11   2   38.60    3.50   1
   2 -11  -1    4.00    2.20   1
  -2  11   1    3.80    2.20   1
   2 -11   0    1.60    2.40   1
  -2  11   0    3.70    5.30   1
   2 -11   1    4.40    2.20   1
  -2  11  -1    4.60    4.00   1
   2 -11   2   -2.00    2.10   1
  -2  11  -2    1.60    2.20   1
   2 -11   3   47.00    3.70   1
  -2  11  -3   43.70    4.00   1
   2 -11   4   10.90    2.40   1
  -2  11  -4   19.10    2.90   1
   2 -11   5    5.30    2.30   1
  -2  11  -5    2.60    4.20   1
   2 -11   6  112.80    6.90   1
  -2  11  -6  105.70    6.50   1
   2 -11   7   63.70    4.90   1
  -2  11  -7   62.20    8.40   1
   2 -11   8   81.00    5.70   1
  -2  11  -8   78.40    9.00   1
   2 -11   9    6.50    2.90   1
  -2  11  -9    3.00    4.90   1
   2 -11  10    7.90    2.80   1
  -2  11 -10    8.40    5.40   1
   2 -11  11   33.30    4.80   1
  -2  11 -11   47.70    7.50   1
   2 -10 -13   26.80    6.90   1
  -2  10  13   13.30    5.00   1
   2 -10 -12   21.50    5.10   1
  -2  10  12   16.70    5.40   1
   2 -10 -11    1.20    3.30   1
  -2  10  11   -1.80    5.00   1
   2 -10 -10    4.70    4.70   1
  -2  10  10    6.30    2.00   1
   2 -10  -9   45.90    5.50   1
  -2  10   9   48.90    3.50   1
  -2  10   8   21.60    2.50   1
   2 -10  -7   24.30    4.30   1
  -2  10   7   24.30    2.40   1
   2 -10  -6   21.80    4.50   1
  -2  10   6   25.70    3.10   1
   2 -10  -5    2.90    2.50   1
  -2  10   5    2.20    1.90   1
   2 -10  -4    5.90    2.60   1
  -2  10   4    6.80    2.20   1
   2 -10  -3   64.50    3.50   1
  -2  10   3   61.00    3.90   1
   2 -10  -2  131.70    5.40   1
  -2  10   2  143.50    5.60   1
   2 -10  -1  107.90    5.70   1
  -2  10   1  117.40    4.30   1
   2 -10   0  210.60    8.10   1
  -2  10   0  203.50    8.10   1
   2 -10   1   20.70    2.90   1
  -2  10  -1   13.50    2.40   1
   2 -10   2  114.90    5.90   1
  -2  10  -2  105.20    6.00   1
   2 -10   3    7.90    2.10   1
  -2  10  -3    6.00    4.90   1
   2 -10   4   40.00    3.50   1
  -2  10  -4   49.00    3.80   1
   2 -10   5  129.90    6.70   1
  -2  10  -5  132.70    9.80   1
   2 -10   6    7.40    1.70   1
  -2  10  -6    5.20    1.60   1
   2 -10   7    0.50    1.30   1
  -2  10  -7    1.90    2.00   1
   2 -10   8   20.00    1.80   1
  -2  10  -8   16.30    2.70   1
   2 -10   9    2.60    1.50   1
  -2  10  -9   -0.60    2.10   1
   2 -10  10    4.70    1.60   1
  -2  10 -10    3.20    2.40   1
   2 -10  11    4.40    1.90   1
  -2  10 -11    3.30    3.20   1
   2 -10  12  114.30    5.20   1
  -2  10 -12  108.60    7.20   1
   2 -10  13    9.60    2.20   1
  -2  10 -13    4.50    3.00   1
   2  -9 -14    4.00    4.40   1
  -2   9  14   12.70    5.00   1
   2  -9 -13   -1.50    3.30   1
  -2   9  13    6.70    5.50   1
   2  -9 -12  253.30   18.00   1
  -2   9  12  237.60   18.10   1
   2  -9 -11   14.20    2.60   1
  -2   9  11   13.50    2.60   1
   2  -9 -10    2.10    2.00   1
  -2   9  10    2.70    4.70   1
   2  -9  -9   74.30    4.90   1
  -2   9   9   61.80    7.30   1
   2  -9  -8    9.10    2.20   1
  -2   9   8   11.10    2.10   1
   2  -9  -7   43.60    3.60   1
  -2   9   7   42.00    2.60   1
   2  -9  -6    7.50    4.80   1
  -2   9   6    9.00    1.80   1
   2  -9  -5   21.60    3.00   1
  -2   9   5   21.40    1.80   1
   2  -9  -4  266.10   10.40   1
  -2   9   4  268.00   14.30   1
   2  -9  -3    2.30    1.40   1
  -2   9   3    3.10    1.20   1
   2  -9  -2   25.70    2.50   1
  -2   9   2   19.50    1.90   1
   2  -9  -1    1.20    1.90   1
  -2   9   1    0.30    1.50   1
   2  -9   0    1.80    1.30   1
  -2   9   0   -0.10    1.30   1
   2  -9   1   45.40    2.70   1
  -2   9  -1   47.90    3.20   1
   2  -9   2  135.00    4.00   1
  -2   9  -2  137.10    3.70   1
   2  -9   3    3.30    1.00   1
  -2   9  -3    2.30    1.40   1
   2  -9   4   56.10    2.60   1
  -2   9  -4   52.10    3.00   1
   2  -9   5  120.20    4.10   1
  -2   9  -5  120.80    6.20   1
   2  -9   6  248.20    6.70   1
  -2   9  -6  245.90    8.30   1
   2  -9   7   34.50    2.10   1
  -2   9  -7   30.90    3.00   1
   2  -9   8    5.00    1.50   1
  -2   9  -8    5.10    2.10   1
   2  -9   9   73.30    3.30   1
  -2   9  -9   69.80    4.80   1
   2  -9  10    6.60    1.70   1
  -2   9 -10    5.30    2.70   1
   2  -9  11    5.60    2.20   1
  -2   9 -11    5.60    2.50   1
   2  -9  12    5.90    2.60   1
  -2   9 -12    1.60    2.90   1
   2  -9  13    4.10    1.90   1
  -2   9 -13    2.00    2.90   1
   2  -9  14   42.40    3.60   1
  -2   9 -14   39.80    4.80   1
   2  -9  15   24.80    2.80   1
  -2   9 -15   22.00    5.20   1
   2  -8 -16   -2.30    3.80   1
  -2   8  16   11.80    5.10   1
   2  -8 -15   37.10    6.40   1
  -2   8  15   32.10    6.20   1
   2  -8 -14    4.20    3.90   1
  -2   8  14   -0.80    4.00   1
   2  -8 -13   48.40    7.00   1
  -2   8  13   60.60    7.00   1
   2  -8 -12   15.10    2.70   1
  -2   8  12   14.10    2.50   1
   2  -8 -11   36.10    3.60   1
  -2   8  11   39.00    3.70   1
   2  -8 -10    6.20    2.60   1
  -2   8  10    9.80    2.00   1
   2  -8  -9   10.90    2.70   1
  -2   8   9   11.60    2.20   1
   2  -8  -8    1.10    2.10   1
  -2   8   8    0.80    1.30   1
   2  -8  -7    2.90    1.70   1
  -2   8   7   -0.30    1.30   1
   2  -8  -6   27.10    2.50   1
  -2   8   6   30.50    1.90   1
   2  -8  -5  285.60   10.10   1
  -2   8   5  296.60    8.20   1
   2  -8  -4   13.60    2.10   1
  -2   8   4   11.60    1.50   1
   2  -8  -3  332.70    8.90   1
  -2   8   3  354.60   11.50   1
   2  -8  -2    9.70    1.40   1
  -2   8   2   12.30    1.10   1
   2  -8  -1   31.40    2.00   1
  -2   8   1   36.30    1.50   1
   2  -8   0    4.90    0.50   1
  -2   8   0    5.00    0.70   1
   2  -8   1    8.50    0.90   1
  -2   8  -1    7.00    0.80   1
   2  -8   2   50.20    1.80   1
  -2   8  -2   49.30    2.00   1
   2  -8   3   92.90    3.80   1
  -2   8  -3   84.50    3.40   1
   2  -8   4   51.50    1.90   1
  -2   8  -4   55.70    2.70   1
   2  -8   5  130.10    4.30   1
  -2   8  -5  118.50    4.60   1
   2  -8   6    7.90    1.30   1
  -2   8  -6    6.50    1.80   1
   2  -8   7   12.70    1.50   1
  -2   8  -7   15.40    2.10   1
   2  -8   8   19.20    1.70   1
  -2   8  -8   14.20    2.30   1
   2  -8   9  179.60    5.60   1
  -2   8  -9  168.60    7.80   1
   2  -8  10    1.90    1.40   1
  -2   8 -10    0.50    1.80   1
   2  -8  11  148.40    5.20   1
  -2   8 -11  141.60    7.20   1
   2  -8  12  130.40    5.00   1
  -2   8 -12  129.20    7.30   1
   2  -8  13   56.30    3.40   1
  -2   8 -13   50.00    4.60   1
   2  -8  14    4.70    2.00   1
  -2   8 -14    3.00    2.90   1
   2  -8  15   23.00    2.80   1
  -2   8 -15   15.70    3.30   1
   2  -8  16    7.00    2.40   1
  -2   8 -16    6.70    4.80   1
   2  -7 -17    5.30    4.20   1
  -2   7  17    8.40    6.20   1
   2  -7 -16   37.60    6.30   1
  -2   7  16   34.10    6.40   1
   2  -7 -15    1.80    4.90   1
  -2   7  15   -3.40    2.30   1
   2  -7 -14  106.70    9.40   1
  -2   7  14  112.30   11.00   1
   2  -7 -13    4.40    2.30   1
  -2   7  13    1.40    2.60   1
   2  -7 -12    7.50    2.50   1
  -2   7  12    8.60    2.30   1
   2  -7 -11   72.70    4.40   1
  -2   7  11   73.10    4.10   1
   2  -7 -10   75.70    4.30   1
  -2   7  10   76.30    4.50   1
   2  -7  -9  331.90   12.00   1
  -2   7   9  361.70   12.70   1
   2  -7  -8   74.20    3.90   1
  -2   7   8   65.90    3.80   1
   2  -7  -7  121.90    5.30   1
  -2   7   7  117.80    5.20   1
   2  -7  -6   50.40    2.50   1
  -2   7   6   51.30    2.80   1
   2  -7  -5    1.90    1.30   1
  -2   7   5    1.80    1.30   1
   2  -7  -4   11.30    2.90   1
  -2   7   4    4.60    1.00   1
   2  -7  -3   20.50    2.30   1
  -2   7   3   17.20    1.20   1
   2  -7  -2  179.00    5.30   1
  -2   7   2  193.10    4.20   1
   2  -7  -1    6.90    0.50   1
  -2   7   1    6.60    0.50   1
   2  -7   0   48.80    1.40   1
  -2   7   0   49.20    1.40   1
   2  -7   1   48.80    1.40   1
  -2   7  -1   51.50    1.40   1
   2  -7   2   16.80    1.00   1
  -2   7  -2   17.60    1.00   1
   2  -7   3  279.30    5.20   1
  -2   7  -3  285.80    5.50   1
   2  -7   4  272.80    5.00   1
  -2   7  -4  277.00    5.80   1
   2  -7   5   40.80    1.60   1
  -2   7  -5   44.30    2.80   1
   2  -7   6   12.40    1.30   1
  -2   7  -6   11.10    1.50   1
   2  -7   7   67.10    3.10   1
  -2   7  -7   66.30    3.10   1
   2  -7   8    2.30    1.20   1
  -2   7  -8    0.40    1.70   1
   2  -7   9   63.40    3.40   1
  -2   7  -9   59.30    4.70   1
   2  -7  10   22.40    2.00   1
  -2   7 -10   14.90    2.60   1
   2  -7  11   43.80    2.90   1
  -2   7 -11   38.90    3.50   1
   2  -7  12   63.00    3.70   1
  -2   7 -12   58.40    4.40   1
   2  -7  13   33.10    3.00   1
  -2   7 -13   29.10    3.40   1
   2  -7  14    2.20    2.00   1
  -2   7 -14    5.10    2.40   1
   2  -7  15   26.50    3.20   1
  -2   7 -15   25.60    4.20   1
   2  -7  16    4.00    2.30   1
  -2   7 -16   11.20    6.20   1
   2  -7  17   21.30    3.30   1
  -2   7 -17   20.00    5.40   1
   2  -6 -18   38.70    6.20   1
  -2   6  18   53.70    8.60   1
   2  -6 -17   74.90    8.10   1
  -2   6  17   71.70    6.00   1
   2  -6 -16   44.90    5.90   1
  -2   6  16   58.60    5.10   1
   2  -6 -15   96.90    9.10   1
  -2   6  15   95.00    5.90   1
   2  -6 -14   39.50    5.60   1
  -2   6  14   31.30    3.60   1
   2  -6 -13   73.20    4.30   1
  -2   6  13   66.80    4.50   1
   2  -6 -12   31.10    2.70   1
  -2   6  12   32.70    3.00   1
   2  -6 -11  151.50    4.80   1
  -2   6  11  139.80    4.70   1
   2  -6 -10   16.90    1.60   1
  -2   6  10   17.20    1.50   1
   2  -6  -9    1.40    0.60   1
  -2   6   9    2.00    0.80   1
   2  -6  -8   38.40    1.20   1
  -2   6   8   36.40    1.40   1
   2  -6  -7    0.00    0.30   1
  -2   6   7    0.50    0.60   1
   2  -6  -6    7.70    0.40   1
  -2   6   6    6.50    0.50   1
   2  -6  -5   58.50    1.20   1
  -2   6   5   57.40    1.50   1
   2  -6  -4   63.10    1.40   1
  -2   6   4   62.10    1.80   1
   2  -6  -3  370.20    5.30   1
  -2   6   3  366.10    6.20   1
   2  -6  -2  127.00    2.30   1
  -2   6   2  129.10    2.60   1
   2  -6  -1   61.50    1.60   1
  -2   6   1   63.20    1.90   1
   2  -6   0  580.60    9.10   1
  -2   6   0  587.40    9.20   1
   2  -6   1  201.10    3.60   1
  -2   6  -1  201.00    3.70   1
   2  -6   2   37.00    1.50   1
  -2   6  -2   36.60    1.30   1
   2  -6   3    3.90    1.30   1
  -2   6  -3    1.40    0.60   1
   2  -6   4    3.50    0.80   1
  -2   6  -4    2.30    0.80   1
   2  -6   5    1.00    0.80   1
  -2   6  -5    2.20    1.00   1
   2  -6   6   86.50    2.50   1
  -2   6  -6   86.60    3.80   1
   2  -6   7  117.60    3.30   1
  -2   6  -7  114.40    4.90   1
   2  -6   8    1.50    1.00   1
  -2   6  -8    1.60    2.00   1
   2  -6   9    1.20    1.70   1
  -2   6  -9    1.20    2.30   1
   2  -6  10  123.30    5.70   1
  -2   6 -10  136.20    5.70   1
   2  -6  11   10.50    2.60   1
  -2   6 -11   10.20    2.60   1
   2  -6  12   35.50    3.70   1
  -2   6 -12   30.70    3.30   1
   2  -6  13   -1.20    2.50   1
  -2   6 -13    2.20    2.10   1
   2  -6  14  132.80    7.90   1
  -2   6 -14  138.10    7.60   1
   2  -6  15  101.90    6.40   1
  -2   6 -15  106.50    9.70   1
   2  -6  16    2.30    3.00   1
  -2   6 -16   -0.60    3.60   1
   2  -6  17   36.10    4.60   1
  -2   6 -17   36.80    6.30   1
   2  -6  18   14.40    3.80   1
  -2   6 -18   22.20    5.80   1
  -2   5  19    4.80    3.20   1
   2  -5 -18    5.10    5.30   1
  -2   5  18    4.50    2.80   1
   2  -5 -17    4.40    5.30   1
  -2   5  17   -0.80    2.50   1
   2  -5 -16   37.20    5.50   1
  -2   5  16   43.60    3.90   1
   2  -5 -15    0.90    1.70   1
  -2   5  15   -0.60    1.50   1
   2  -5 -14    6.30    1.40   1
  -2   5  14    6.90    1.70   1
   2  -5 -13    7.80    1.20   1
  -2   5  13    7.80    2.30   1
   2  -5 -12   16.20    1.40   1
  -2   5  12   18.80    1.80   1
   2  -5 -11    1.20    0.90   1
  -2   5  11    1.50    1.10   1
   2  -5 -10  148.80    4.00   1
  -2   5  10  136.40    4.50   1
   2  -5  -9    2.40    0.60   1
  -2   5   9    0.50    0.70   1
   2  -5  -8  143.00    3.40   1
  -2   5   8  143.00    4.00   1
   2  -5  -7    2.60    0.50   1
  -2   5   7    2.20    0.70   1
   2  -5  -6  649.90   10.90   1
  -2   5   6  651.80   12.30   1
   2  -5  -5   19.60    0.70   1
  -2   5   5   17.60    0.80   1
   2  -5  -4    3.80    0.40   1
  -2   5   4    4.00    0.40   1
   2  -5  -3  108.00    2.20   1
  -2   5   3  108.30    1.90   1
   2  -5  -2  178.60    3.00   1
  -2   5   2  172.00    2.80   1
   2  -5  -1    8.90    0.50   1
  -2   5   1    7.50    0.60   1
   2  -5   0  170.60    3.10   1
  -2   5   0  176.50    2.90   1
   2  -5   1   23.10    0.80   1
  -2   5  -1   21.90    0.70   1
   2  -5   2   50.10    1.40   1
  -2   5  -2   48.10    1.30   1
   2  -5   3  210.20    4.30   1
  -2   5  -3  218.40    4.00   1
   2  -5   4  145.90    3.00   1
  -2   5  -4  151.50    3.50   1
   2  -5   5   76.90    2.40   1
  -2   5  -5   78.20    2.50   1
   2  -5   6  692.30   15.70   1
  -2   5  -6  706.90   16.60   1
   2  -5   7    1.40    1.10   1
  -2   5  -7   -1.60    1.20   1
   2  -5   8  411.90    9.80   1
  -2   5  -8  413.50   12.40   1
   2  -5   9   64.20    3.40   1
  -2   5  -9   66.50    3.40   1
   2  -5  10    0.30    1.70   1
  -2   5 -10    1.10    1.70   1
   2  -5  11   57.30    3.00   1
  -2   5 -11   60.50    3.70   1
   2  -5  12   25.60    2.20   1
  -2   5 -12   22.40    2.70   1
   2  -5  13   11.50    2.00   1
  -2   5 -13    8.60    4.30   1
   2  -5  14   25.00    2.50   1
  -2   5 -14   30.60    3.20   1
   2  -5  15   24.10    2.70   1
  -2   5 -15   24.80    4.60   1
   2  -5  16   39.80    3.50   1
  -2   5 -16   30.80    5.40   1
   2  -5  17    8.00    2.40   1
  -2   5 -17   13.10    5.10   1
   2  -5  18   42.00    3.80   1
  -2   5 -18   60.40    7.90   1
   2  -4 -19   25.40    7.30   1
  -2   4  19   12.10    3.30   1
   2  -4 -18   54.70    7.30   1
  -2   4  18   58.30    5.40   1
   2  -4 -17    4.60    2.00   1
  -2   4  17    3.30    2.70   1
   2  -4 -16    1.30    1.80   1
  -2   4  16    3.80    2.00   1
   2  -4 -15  321.30   10.40   1
  -2   4  15  328.00   10.90   1
   2  -4 -14    0.40    1.10   1
  -2   4  14   -1.30    1.40   1
   2  -4 -13    1.30    1.10   1
  -2   4  13    2.10    1.40   1
   2  -4 -12  150.50    4.80   1
  -2   4  12  146.10    5.50   1
   2  -4 -11    3.00    0.80   1
  -2   4  11    2.70    1.20   1
   2  -4 -10  164.70    3.80   1
  -2   4  10  158.50    4.10   1
   2  -4  -9  171.40    3.30   1
  -2   4   9  163.80    3.80   1
   2  -4  -8   39.40    1.20   1
  -2   4   8   36.80    1.40   1
   2  -4  -7  168.40    3.00   1
  -2   4   7  166.00    3.70   1
   2  -4  -6  302.30    4.90   1
  -2   4   6  316.10    4.90   1
   2  -4  -5  118.40    2.30   1
  -2   4   5  117.50    2.20   1
   2  -4  -4   90.00    1.90   1
  -2   4   4   91.50    1.50   1
   2  -4  -3   38.30    1.00   1
  -2   4   3   37.60    0.80   1
   2  -4  -2   31.10    0.80   1
  -2   4   2   29.70    0.70   1
   2  -4  -1  589.40    8.10   1
  -2   4   1  604.10    6.40   1
   2  -4   0  320.60    4.60   1
  -2   4   0  326.30    4.30   1
   2  -4   1    2.10    0.50   1
  -2   4  -1    1.50    0.40   1
   2  -4   2   27.80    0.80   1
  -2   4  -2   27.10    0.80   1
   2  -4   3  133.10    2.30   1
  -2   4  -3  142.70    2.80   1
   2  -4   4    5.60    0.50   1
  -2   4  -4    4.30    0.70   1
   2  -4   5  109.20    2.30   1
  -2   4  -5  111.20    2.90   1
   2  -4   6   -0.10    0.90   1
  -2   4  -6    5.00    1.50   1
   2  -4   7   26.50    1.70   1
  -2   4  -7   22.40    1.90   1
   2  -4   8    1.50    1.10   1
  -2   4  -8   -0.20    1.00   1
   2  -4   9   49.60    2.40   1
  -2   4  -9   53.60    2.70   1
   2  -4  10  226.60    4.90   1
  -2   4 -10  230.00    6.50   1
   2  -4  11   13.20    0.80   1
  -2   4 -11   12.50    2.10   1
   2  -4  12  361.80   10.00   1
  -2   4 -12  376.70   12.20   1
   2  -4  13   47.00    3.00   1
  -2   4 -13   50.40    3.30   1
   2  -4  14   24.40    2.40   1
  -2   4 -14   22.80    2.80   1
   2  -4  15   97.10    4.90   1
  -2   4 -15  106.20   10.20   1
   2  -4  16    5.10    2.20   1
  -2   4 -16    4.30    5.50   1
   2  -4  17   38.70    3.70   1
  -2   4 -17   33.80    6.00   1
   2  -4  18    1.20    2.40   1
  -2   4 -18   -1.70    4.10   1
   2  -4  19    3.70    2.60   1
  -2   4 -19   11.30    5.00   1
  -2   3  20    8.50    3.10   1
   2  -3 -19   61.20    4.40   1
  -2   3  19   58.30    4.40   1
   2  -3 -18   59.10    4.00   1
  -2   3  18   56.30    4.00   1
   2  -3 -17    3.00    1.80   1
  -2   3  17    2.20    2.00   1
   2  -3 -16    1.70    1.90   1
  -2   3  16   -0.40    1.70   1
   2  -3 -15   25.00    2.40   1
  -2   3  15   27.20    2.60   1
   2  -3 -14    8.00    1.10   1
  -2   3  14    9.10    1.70   1
   2  -3 -13   46.50    2.10   1
  -2   3  13   46.00    2.60   1
   2  -3 -12   96.40    3.10   1
  -2   3  12   95.10    3.60   1
   2  -3 -11  142.00    3.90   1
  -2   3  11  134.50    4.00   1
   2  -3 -10    6.90    1.00   1
  -2   3  10    7.30    1.10   1
   2  -3  -9  440.50    6.90   1
  -2   3   9  449.80    7.80   1
   2  -3  -8    0.70    0.60   1
  -2   3   8    0.50    0.60   1
   2  -3  -7   22.60    0.80   1
  -2   3   7   21.50    0.90   1
   2  -3  -6    0.70    0.50   1
  -2   3   6    0.50    0.50   1
   2  -3  -5   37.80    1.00   1
  -2   3   5   35.40    1.10   1
   2  -3  -4   40.90    1.00   1
  -2   3   4   43.20    0.80   1
   2  -3  -3  139.40    2.40   1
  -2   3   3  145.90    2.20   1
   2  -3  -2    3.90    0.40   1
  -2   3   2    4.60    0.30   1
   2  -3  -1  358.90    5.20   1
  -2   3   1  373.10    4.70   1
   2  -3   0    2.20    0.30   1
  -2   3   0    2.40    0.20   1
   2  -3   1  564.60    7.80   1
  -2   3  -1  584.90    7.40   1
   2  -3   2  132.50    2.10   1
  -2   3  -2  137.10    2.20   1
   2  -3   3  698.50    8.80   1
  -2   3  -3  717.20    9.60   1
   2  -3   4   23.40    0.80   1
  -2   3  -4   26.40    0.90   1
   2  -3   5  388.00    6.30   1
  -2   3  -5  406.20    6.90   1
   2  -3   6   58.90    1.60   1
  -2   3  -6   61.80    1.80   1
   2  -3   7   19.20    0.90   1
  -2   3  -7   19.30    1.40   1
   2  -3   8   21.10    1.00   1
  -2   3  -8   23.50    1.40   1
   2  -3   9  170.50    4.80   1
  -2   3  -9  176.60    5.40   1
   2  -3  10    0.50    0.50   1
  -2   3 -10    0.90    1.00   1
   2  -3  11    4.30    1.00   1
  -2   3 -11    0.60    1.00   1
   2  -3  12    0.20    0.90   1
  -2   3 -12    2.30    1.30   1
   2  -3  13   33.20    1.80   1
  -2   3 -13   32.70    2.70   1
   2  -3  14   29.00    1.80   1
  -2   3 -14   30.40    2.60   1
   2  -3  15  112.10    5.00   1
  -2   3 -15  114.80    8.80   1
   2  -3  16   -0.80    1.80   1
  -2   3 -16    6.40    3.40   1
   2  -3  17    4.10    2.20   1
  -2   3 -17    1.40    3.70   1
   2  -3  18   41.70    3.70   1
  -2   3 -18   35.90    6.00   1
   2  -3  19  183.90    8.70   1
  -2   3 -19  156.30   15.00   1
   2  -2 -20   28.00    3.30   1
  -2   2  20   27.40    3.30   1
   2  -2 -19   38.20    3.60   1
  -2   2  19   39.50    3.80   1
   2  -2 -18    6.20    2.20   1
  -2   2  18   -3.00    2.30   1
   2  -2 -17    2.60    1.90   1
  -2   2  17    3.40    1.80   1
   2  -2 -16    3.50    1.80   1
  -2   2  16    5.50    1.80   1
   2  -2 -15  291.00    9.10   1
  -2   2  15  290.20    9.50   1
   2  -2 -14    3.20    1.30   1
  -2   2  14    5.30    1.70   1
   2  -2 -13   20.70    1.60   1
  -2   2  13   18.70    1.90   1
   2  -2 -12   49.40    2.00   1
  -2   2  12   54.90    2.40   1
   2  -2 -11   49.10    2.00   1
  -2   2  11   49.50    2.10   1
   2  -2 -10  128.30    4.00   1
  -2   2  10  117.10    3.30   1
   2  -2  -9    1.50    0.90   1
  -2   2   9    1.60    0.90   1
   2  -2  -8    4.20    0.60   1
  -2   2   8    5.60    0.60   1
   2  -2  -7   62.30    1.40   1
  -2   2   7   63.80    1.50   1
   2  -2  -6   85.40    1.60   1
  -2   2   6   88.20    1.70   1
   2  -2  -5  574.50    8.10   1
  -2   2   5  580.80    7.60   1
   2  -2  -4  216.40    3.20   1
  -2   2   4  223.50    3.10   1
   2  -2  -3  800.70    9.90   1
  -2   2   3  822.80    9.40   1
   2  -2  -2    1.30    0.20   1
  -2   2   2    1.40    0.30   1
   2  -2  -1  369.70    5.30   1
  -2   2   1  376.70    5.00   1
   2  -2   0   14.40    0.50   1
  -2   2   0   13.90    0.40   1
   2  -2   1    7.80    0.40   1
  -2   2  -1    8.60    0.40   1
   2  -2   2   17.90    0.50   1
  -2   2  -2   19.40    0.60   1
   2  -2   3  436.00    7.00   1
  -2   2  -3  463.10    8.50   1
   2  -2   4  173.10    2.90   1
  -2   2  -4  182.60    3.90   1
   2  -2   5   58.00    1.80   1
  -2   2  -5   57.00    2.10   1
   2  -2   6    6.10    0.60   1
  -2   2  -6    8.50    0.90   1
   2  -2   7    5.30    0.80   1
  -2   2  -7    6.80    1.00   1
   2  -2   8    4.70    0.90   1
  -2   2  -8    6.10    1.00   1
   2  -2   9  406.90   10.20   1
  -2   2  -9  433.50   10.00   1
   2  -2  10  282.10    7.40   1
  -2   2 -10  306.00    7.20   1
   2  -2  11   75.20    3.10   1
  -2   2 -11   78.90    2.80   1
   2  -2  12   27.40    1.70   1
  -2   2 -12   28.90    2.00   1
   2  -2  13   93.50    3.20   1
  -2   2 -13   89.60    4.50   1
   2  -2  14   23.30    1.70   1
   2  -2  15   32.80    2.40   1
  -2   2 -15   35.70    5.00   1
   2  -2  16   65.50    4.00   1
  -2   2 -16   53.80    6.00   1
   2  -2  17   16.90    2.80   1
  -2   2 -17    7.30    4.10   1
   2  -2  18    2.10    2.70   1
  -2   2 -18    2.00    5.60   1
   2  -2  19    6.40    2.50   1
  -2   2 -19    6.80    4.30   1
   2  -2  20   -1.20    2.40   1
  -2   2 -20    7.10    4.70   1
   2  -1 -20   32.70    3.70   1
  -2   1  20   34.80    3.70   1
   2  -1 -19   -2.30    2.20   1
  -2   1  19    2.70    2.10   1
   2  -1 -18    3.70    2.40   1
  -2   1  18    5.20    2.10   1
   2  -1 -17   24.20    2.70   1
  -2   1  17   28.90    2.70   1
   2  -1 -16   92.00    4.30   1
  -2   1  16   94.60    4.60   1
   2  -1 -15   -0.70    1.20   1
  -2   1  15    2.70    1.80   1
   2  -1 -14  140.10    4.10   1
  -2   1  14  142.00    5.00   1
   2  -1 -13   46.00    2.20   1
  -2   1  13   45.20    2.60   1
   2  -1 -12   26.50    1.60   1
  -2   1  12   28.60    1.80   1
   2  -1 -11    3.30    0.90   1
  -2   1  11    4.90    1.00   1
   2  -1 -10  200.60    4.10   1
  -2   1  10  206.40    4.30   1
   2  -1  -9  642.10    9.90   1
  -2   1   9  643.60   11.30   1
   2  -1  -8    5.60    0.80   1
  -2   1   8    5.80    0.90   1
   2  -1  -7  336.20    5.00   1
  -2   1   7  341.20    5.20   1
   2  -1  -6  671.30    8.70   1
  -2   1   6  653.00   10.00   1
   2  -1  -5    1.50    0.50   1
  -2   1   5    1.80    0.40   1
   2  -1  -4    3.60    0.50   1
  -2   1   4    2.60    0.40   1
   2  -1  -3   32.80    0.70   1
  -2   1   3   31.60    0.80   1
   2  -1  -2    1.10    0.20   1
  -2   1   2    0.70    0.40   1
   2  -1  -1   35.30    0.80   1
  -2   1   1   35.30    0.70   1
   2  -1   0  324.50    4.70   1
  -2   1   0  332.80    4.70   1
   2  -1   1   10.50    0.40   1
  -2   1  -1   10.70    0.60   1
   2  -1   2    0.10    0.40   1
  -2   1  -2   -0.10    0.30   1
   2  -1   3   45.30    1.10   1
  -2   1  -3   46.80    1.30   1
   2  -1   4  561.80    7.90   1
  -2   1  -4  577.50    9.80   1
   2  -1   5   64.20    1.40   1
  -2   1  -5   66.70    1.90   1
   2  -1   6  322.90    5.90   1
  -2   1  -6  352.80    8.80   1
   2  -1   7  142.40    3.30   1
  -2   1  -7  147.70    4.70   1
   2  -1   8  149.90    3.40   1
  -2   1  -8  155.70    5.30   1
   2  -1   9  377.70   10.30   1
  -2   1  -9  362.40   10.50   1
   2  -1  10   13.70    1.80   1
  -2   1 -10   12.70    1.30   1
   2  -1  11    2.20    1.40   1
  -2   1 -11    1.90    0.90   1
   2  -1  12    3.20    1.40   1
  -2   1 -12    5.20    0.70   1
   2  -1  13   98.10    4.00   1
  -2   1 -13   95.40    6.60   1
   2  -1  14    1.80    1.40   1
  -2   1 -14   -2.00    2.80   1
   2  -1  15  117.70    4.30   1
  -2   1 -15  103.70    8.40   1
   2  -1  16   27.70    2.40   1
  -2   1 -16   28.30    5.20   1
   2  -1  17   12.00    1.90   1
  -2   1 -17   14.50    4.00   1
   2  -1  18  117.00    6.20   1
  -2   1 -18   92.00    9.90   1
   2  -1  19   -0.20    2.40   1
  -2   1 -19   -6.10    4.10   1
   2  -1  20   35.20    4.00   1
  -2   1 -20   32.80    8.20   1
   2   0 -20    1.10    2.40   1
  -2   0  20    4.90    2.30   1
   2   0 -19    0.20    2.40   1
  -2   0  19    3.10    2.10   1
   2   0 -18  130.40    5.90   1
  -2   0  18  124.70    6.30   1
   2   0 -17    0.20    2.30   1
  -2   0  17   -3.30    2.00   1
   2   0 -16  216.10    7.70   1
  -2   0  16  220.10    7.70   1
   2   0 -15   -0.90    1.00   1
  -2   0  15    0.10    1.50   1
   2   0 -14   58.90    2.80   1
  -2   0  14   62.00    3.80   1
   2   0 -13   -0.40    0.80   1
  -2   0  13    0.10    1.20   1
   2   0 -12   50.20    2.60   1
  -2   0  12   48.20    2.20   1
   2   0 -11   -0.40    1.20   1
  -2   0  11   -1.20    0.90   1
   2   0 -10    4.10    1.70   1
  -2   0  10    5.90    1.30   1
   2   0  -9    1.00    1.20   1
  -2   0   9    1.20    0.80   1
   2   0  -8  180.00    3.80   1
  -2   0   8  183.90    4.20   1
   2   0  -7    0.20    0.50   1
  -2   0   7    0.20    0.70   1
   2   0  -6   41.10    1.80   1
  -2   0   6   37.30    1.40   1
   2   0  -5   -0.30    0.50   1
  -2   0   5    1.00    0.30   1
   2   0  -4    6.40    0.60   1
  -2   0   4    6.30    0.50   1
   2   0  -3   -0.10    0.40   1
  -2   0   3    0.10    0.20   1
   2   0  -2  134.50    2.50   1
  -2   0   2  135.70    2.40   1
   2   0  -1    0.40    0.30   1
  -2   0   1    1.50    0.30   1
   2   0   0 2579.90   38.20   1
  -2   0   0 2614.40   30.20   1
   2   0   1    0.60    0.20   1
  -2   0  -1    0.40    0.30   1
   2   0   2   39.60    0.90   1
  -2   0  -2   39.80    1.20   1
   2   0   3   -0.20    0.40   1
  -2   0  -3   -0.80    0.40   1
   2   0   4  170.00    3.00   1
  -2   0  -4  176.90    3.30   1
   2   0   5   -0.40    0.30   1
  -2   0  -5   -0.50    0.40   1
   2   0   6  637.70   10.60   1
  -2   0  -6  679.70   11.30   1
   2   0   7   -0.20    0.30   1
  -2   0  -7    0.40    0.40   1
   2   0   8   89.90    3.00   1
  -2   0  -8   88.20    2.50   1
   2   0   9   -1.10    1.10   1
  -2   0  -9   -0.10    0.40   1
   2   0  10  133.70    4.20   1
  -2   0 -10  139.00    7.40   1
   2   0  11   -2.30    1.30   1
  -2   0 -11    0.70    3.00   1
   2   0  12   85.20    3.40   1
  -2   0 -12   92.10    6.20   1
   2   0  13   -2.10    1.50   1
  -2   0 -13   -2.60    2.50   1
   2   0  14  329.20    9.50   1
  -2   0 -14  317.50   17.30   1
   2   0  15   -0.90    1.30   1
  -2   0 -15   -1.70    2.70   1
   2   0  16   12.90    2.00   1
  -2   0 -16   12.90    3.90   1
   2   0  17    0.00    1.50   1
  -2   0 -17    5.90    4.70   1
   2   0  18   64.00    3.60   1
  -2   0 -18   67.70    5.20   1
   2   0  19    1.70    2.30   1
  -2   0 -19   -1.10    4.30   1
   2   0  20   31.00    4.00   1
  -2   0 -20   24.70    7.20   1
   2   1 -20   36.50    3.90   1
  -2  -1  20   27.60    5.90   1
   2   1 -19   -0.20    2.20   1
  -2  -1  19    0.50    2.10   1
   2   1 -18    1.00    2.60   1
  -2  -1  18    5.70    2.50   1
   2   1 -17   21.70    2.50   1
  -2  -1  17   26.80    2.50   1
   2   1 -16   94.70    4.30   1
  -2  -1  16   94.50    4.40   1
   2   1 -15    0.90    1.60   1
  -2  -1  15    1.70    1.60   1
   2   1 -14  134.30    4.90   1
  -2  -1  14  145.00    4.90   1
   2   1 -13   44.70    2.60   1
  -2  -1  13   46.50    2.60   1
   2   1 -12   31.10    2.10   1
  -2  -1  12   28.80    2.00   1
   2   1 -11    2.90    1.30   1
  -2  -1  11    5.70    1.30   1
   2   1 -10  195.20    5.40   1
  -2  -1  10  197.70    4.60   1
   2   1  -9  625.60   12.50   1
  -2  -1   9  632.00   12.60   1
   2   1  -8    7.80    1.00   1
  -2  -1   8    6.70    1.10   1
   2   1  -7  331.70    5.30   1
  -2  -1   7  328.20    6.20   1
   2   1  -6  665.00    9.40   1
  -2  -1   6  660.00   12.50   1
   2   1  -5    2.30    0.60   1
  -2  -1   5    1.40    0.30   1
   2   1  -4    4.30    1.10   1
  -2  -1   4    3.40    0.30   1
   2   1  -3   31.30    1.00   1
  -2  -1   3   32.30    1.00   1
   2   1  -2    0.70    0.40   1
  -2  -1   2    1.60    0.40   1
   2   1  -1   35.30    0.80   1
  -2  -1   1   36.50    1.10   1
   2   1   0  343.50    5.30   1
  -2  -1   0  339.60    5.40   1
   2   1   1   10.80    0.50   1
  -2  -1  -1    9.70    0.40   1
   2   1   2   -0.50    0.40   1
  -2  -1  -2    0.30    0.40   1
   2   1   3   47.80    1.00   1
  -2  -1  -3   48.80    1.30   1
   2   1   4  567.30    7.70   1
  -2  -1  -4  584.00   10.70   1
   2   1   5   63.50    1.60   1
  -2  -1  -5   63.40    1.40   1
   2   1   6  328.10    6.20   1
  -2  -1  -6  348.40    7.30   1
   2   1   7  147.30    3.20   1
  -2  -1  -7  151.90    3.50   1
   2   1   8  151.10    4.20   1
  -2  -1  -8  152.20    7.30   1
   2   1   9  379.60   10.40   1
  -2  -1  -9  413.00   20.00   1
   2   1  10   16.80    2.10   1
  -2  -1 -10   20.50    3.50   1
   2   1  11    0.30    1.30   1
  -2  -1 -11    2.70    2.20   1
   2   1  12    6.00    1.60   1
  -2  -1 -12    4.20    2.50   1
   2   1  13   85.60    3.50   1
  -2  -1 -13  105.30    7.80   1
   2   1  14    1.40    1.70   1
  -2  -1 -14    0.10    2.60   1
   2   1  15  118.80    4.60   1
  -2  -1 -15  113.10    8.40   1
   2   1  16   23.40    2.20   1
  -2  -1 -16   25.20    2.80   1
   2   1  17   12.90    1.90   1
  -2  -1 -17   11.70    2.80   1
   2   1  18  105.40    5.10   1
  -2  -1 -18  107.30    7.00   1
   2   1  19    2.50    2.40   1
  -2  -1 -19   -1.70    3.60   1
   2   1  20   31.20    4.50   1
  -2  -1 -20   43.90    5.10   1
   2   2 -20   26.20    4.00   1
  -2  -2  20   19.30    5.90   1
   2   2 -19   37.00    4.50   1
  -2  -2  19   36.00    7.00   1
   2   2 -18   -1.80    3.10   1
  -2  -2  18    2.50    2.40   1
   2   2 -17    7.20    2.70   1
  -2  -2  17    3.10    1.90   1
   2   2 -16    6.40    2.10   1
  -2  -2  16    7.80    2.00   1
   2   2 -15  299.60    9.20   1
  -2  -2  15  293.80    9.40   1
   2   2 -14    3.60    1.50   1
  -2  -2  14    3.10    1.40   1
   2   2 -13   16.30    2.00   1
  -2  -2  13   17.80    1.90   1
   2   2 -12   49.60    2.70   1
  -2  -2  12   54.80    2.50   1
   2   2 -11   51.70    2.70   1
  -2  -2  11   47.90    2.30   1
   2   2 -10  129.30    4.80   1
  -2  -2  10  128.30    5.30   1
   2   2  -9    4.10    1.80   1
  -2  -2   9    6.60    2.80   1
   2   2  -8    5.00    1.10   1
  -2  -2   8    4.90    1.00   1
   2   2  -7   59.30    1.80   1
  -2  -2   7   60.00    2.20   1
   2   2  -6   83.20    1.90   1
  -2  -2   6   85.30    2.40   1
   2   2  -5  570.40    8.20   1
  -2  -2   5  567.50    9.30   1
   2   2  -4  214.00    3.70   1
  -2  -2   4  214.90    3.60   1
   2   2  -3  807.00   13.00   1
  -2  -2   3  834.90   13.50   1
   2   2  -2    1.30    0.30   1
  -2  -2   2    1.30    0.30   1
   2   2  -1  378.10    6.00   1
  -2  -2   1  382.20    6.60   1
   2   2   0   14.10    0.60   1
  -2  -2   0   14.30    0.60   1
   2   2   1    8.00    0.60   1
  -2  -2  -1    8.80    0.50   1
   2   2   2   19.10    0.60   1
  -2  -2  -2   18.40    0.60   1
   2   2   3  436.80    6.50   1
  -2  -2  -3  438.10    7.30   1
   2   2   4  170.70    3.00   1
  -2  -2  -4  171.20    3.80   1
   2   2   5   53.60    1.40   1
  -2  -2  -5   57.10    1.90   1
   2   2   6    7.50    0.50   1
  -2  -2  -6    8.70    0.70   1
   2   2   7    6.70    0.50   1
  -2  -2  -7    3.80    0.90   1
   2   2   8    4.70    0.90   1
  -2  -2  -8    6.30    1.20   1
   2   2   9  409.20    9.70   1
  -2  -2  -9  428.00   17.10   1
   2   2  10  283.70    7.30   1
  -2  -2 -10  283.00   12.50   1
   2   2  11   81.50    3.20   1
  -2  -2 -11   75.10    5.20   1
   2   2  12   28.90    2.00   1
  -2  -2 -12   24.70    3.50   1
   2   2  13   85.30    3.80   1
  -2  -2 -13   82.90    6.20   1
   2   2  14   23.50    2.40   1
   2   2  15   31.60    3.10   1
  -2  -2 -15   34.70    3.60   1
   2   2  16   65.30    3.20   1
  -2  -2 -16   60.30    3.60   1
   2   2  17   10.00    1.80   1
  -2  -2 -17    7.30    2.30   1
   2   2  18    2.40    2.10   1
  -2  -2 -18    4.50    2.30   1
   2   2  19    9.00    2.30   1
  -2  -2 -19   11.60    3.20   1
   2   2  20    0.00    2.20   1
  -2  -2 -20   -3.10    2.80   1
   2   3 -20   -3.30    4.70   1
  -2  -3  20    1.80    4.20   1
   2   3 -19   59.60    5.80   1
  -2  -3  19   78.10    9.40   1
   2   3 -18   55.90    5.20   1
  -2  -3  18   55.30    7.80   1
   2   3 -17   -0.60    2.60   1
  -2  -3  17   -3.90    3.40   1
   2   3 -16    2.80    2.20   1
  -2  -3  16   -0.80    2.20   1
   2   3 -15   25.70    2.70   1
  -2  -3  15   23.70    2.90   1
   2   3 -14    7.90    1.80   1
  -2  -3  14   11.30    2.00   1
   2   3 -13   46.40    2.90   1
  -2  -3  13   44.40    3.00   1
   2   3 -12   88.70    4.80   1
  -2  -3  12   94.40    4.50   1
   2   3 -11  132.50    4.70   1
  -2  -3  11  133.50    5.30   1
   2   3 -10    5.60    1.10   1
  -2  -3  10    7.00    1.70   1
   2   3  -9  427.40    9.10   1
  -2  -3   9  428.60   12.60   1
   2   3  -8    0.80    1.00   1
  -2  -3   8    0.80    1.00   1
   2   3  -7   21.70    1.30   1
  -2  -3   7   21.00    1.10   1
   2   3  -6    0.80    0.70   1
  -2  -3   6    0.90    0.60   1
   2   3  -5   43.10    1.80   1
  -2  -3   5   36.80    1.10   1
   2   3  -4   43.30    1.30   1
  -2  -3   4   42.60    1.10   1
   2   3  -3  147.90    3.50   1
  -2  -3   3  142.60    3.50   1
   2   3  -2    4.70    0.60   1
  -2  -3   2    7.80    0.70   1
   2   3  -1  373.40    5.50   1
  -2  -3   1  389.50    6.80   1
   2   3   0    2.80    0.30   1
  -2  -3   0    2.40    0.50   1
   2   3   1  572.50    8.50   1
  -2  -3  -1  566.10    9.10   1
   2   3   2  133.70    2.50   1
  -2  -3  -2  127.80    2.30   1
   2   3   3  713.20   11.10   1
  -2  -3  -3  707.40   10.20   1
   2   3   4   23.10    0.80   1
  -2  -3  -4   24.60    0.80   1
   2   3   5  398.50    6.30   1
  -2  -3  -5  400.80    6.80   1
   2   3   6   61.70    1.30   1
  -2  -3  -6   60.50    1.80   1
   2   3   7   21.30    0.80   1
  -2  -3  -7   19.60    1.10   1
   2   3   8   22.40    1.00   1
  -2  -3  -8   20.40    1.20   1
   2   3   9  179.10    6.00   1
  -2  -3  -9  190.50    8.00   1
   2   3  10    1.40    1.10   1
  -2  -3 -10    0.40    1.10   1
   2   3  11    2.80    1.70   1
  -2  -3 -11    7.20    2.10   1
   2   3  12    4.90    1.50   1
  -2  -3 -12    4.50    1.70   1
   2   3  13   29.80    2.10   1
  -2  -3 -13   33.10    2.40   1
   2   3  14   27.00    2.30   1
  -2  -3 -14   29.80    2.20   1
   2   3  15  111.50    4.90   1
  -2  -3 -15  111.40    4.60   1
   2   3  16    6.10    1.70   1
  -2  -3 -16    3.60    1.60   1
   2   3  17    2.30    2.10   1
  -2  -3 -17    4.20    2.40   1
   2   3  18   38.60    3.10   1
  -2  -3 -18   43.50    3.40   1
   2   3  19  170.50    7.20   1
  -2  -3 -19  154.60    7.40   1
   2   4 -19   24.40    4.80   1
  -2  -4  19   26.00    7.10   1
   2   4 -18   52.90    5.60   1
  -2  -4  18   54.10    7.60   1
   2   4 -17    6.00    2.70   1
  -2  -4  17   -0.70    3.70   1
   2   4 -16    3.70    2.00   1
  -2  -4  16    1.40    3.70   1
   2   4 -15  317.70   10.50   1
  -2  -4  15  313.60   12.60   1
   2   4 -14   -4.20    1.90   1
  -2  -4  14    0.70    1.30   1
   2   4 -13    2.60    2.00   1
  -2  -4  13    0.80    1.40   1
   2   4 -12  137.50    5.40   1
  -2  -4  12  142.40    6.70   1
   2   4 -11    0.30    1.50   1
  -2  -4  11    2.30    1.20   1
   2   4 -10  153.40    4.60   1
  -2  -4  10  160.30    4.50   1
   2   4  -9  166.20    4.30   1
  -2  -4   9  168.80    4.10   1
   2   4  -8   34.80    1.80   1
  -2  -4   8   34.20    1.50   1
   2   4  -7  163.20    4.30   1
  -2  -4   7  159.50    4.20   1
   2   4  -6  295.90    6.60   1
  -2  -4   6  301.60    6.10   1
   2   4  -5  119.50    2.60   1
  -2  -4   5  115.90    2.50   1
   2   4  -4   92.30    2.20   1
  -2  -4   4   90.10    2.20   1
   2   4  -3   40.10    1.40   1
  -2  -4   3   41.20    1.30   1
   2   4  -2   32.10    1.00   1
  -2  -4   2   32.90    1.00   1
   2   4  -1  598.50    8.40   1
  -2  -4   1  606.20    9.20   1
   2   4   0  324.30    4.90   1
  -2  -4   0  330.30    5.40   1
   2   4   1    3.00    0.60   1
  -2  -4  -1    1.90    1.00   1
   2   4   2   27.20    0.80   1
  -2  -4  -2   24.60    0.70   1
   2   4   3  133.60    2.50   1
  -2  -4  -3  130.30    2.30   1
   2   4   4    6.00    0.60   1
  -2  -4  -4    6.00    0.50   1
   2   4   5  106.90    2.10   1
  -2  -4  -5  109.30    2.30   1
   2   4   6    4.80    0.80   1
  -2  -4  -6    4.60    1.00   1
   2   4   7   26.70    1.10   1
  -2  -4  -7   28.20    1.70   1
   2   4   8    1.30    0.50   1
  -2  -4  -8    0.80    0.70   1
   2   4   9   57.50    2.00   1
  -2  -4  -9   60.30    2.90   1
   2   4  10  224.80    6.20   1
  -2  -4 -10  231.70    6.30   1
   2   4  11   10.50    1.60   1
  -2  -4 -11   10.80    1.40   1
   2   4  12  359.20   10.20   1
  -2  -4 -12  355.80   10.00   1
   2   4  13   45.50    2.60   1
  -2  -4 -13   47.60    2.60   1
   2   4  14   26.70    2.20   1
  -2  -4 -14   26.70    2.10   1
   2   4  15   84.70    4.90   1
  -2  -4 -15   97.20    5.00   1
   2   4  16    3.70    1.80   1
  -2  -4 -16    4.70    1.80   1
   2   4  17   42.40    3.20   1
  -2  -4 -17   39.80    3.50   1
   2   4  18    1.40    1.90   1
  -2  -4 -18   -2.20    1.90   1
   2   4  19    9.60    3.10   1
  -2  -4 -19    3.00    3.10   1
   2   5 -18   -0.40    3.80   1
  -2  -5  18   -7.00    4.30   1
   2   5 -17   -1.90    2.30   1
  -2  -5  17   -0.50    3.90   1
   2   5 -16   39.00    3.60   1
  -2  -5  16   33.40    6.20   1
   2   5 -15    0.90    2.30   1
  -2  -5  15    5.10    4.80   1
   2   5 -14   12.60    2.30   1
  -2  -5  14   10.30    3.50   1
   2   5 -13   11.00    2.20   1
  -2  -5  13    5.30    1.20   1
   2   5 -12    9.90    2.20   1
  -2  -5  12   14.10    1.30   1
   2   5 -11    2.60    1.60   1
  -2  -5  11    1.40    1.30   1
   2   5 -10  144.50    5.00   1
  -2  -5  10  138.00    4.40   1
   2   5  -9    4.70    1.30   1
  -2  -5   9    3.10    0.70   1
   2   5  -8  151.20    4.80   1
  -2  -5   8  153.40    5.40   1
   2   5  -7    1.40    0.90   1
  -2  -5   7    2.10    0.90   1
   2   5  -6  679.60   13.30   1
  -2  -5   6  672.30   18.40   1
   2   5  -5   20.00    1.40   1
  -2  -5   5   19.10    1.50   1
   2   5  -4    4.20    0.80   1
  -2  -5   4    5.30    0.90   1
   2   5  -3  117.50    2.40   1
  -2  -5   3  117.90    2.90   1
   2   5  -2  179.90    2.90   1
  -2  -5   2  174.80    3.80   1
   2   5  -1    7.70    0.60   1
  -2  -5   1    9.70    0.80   1
   2   5   0  182.40    3.40   1
  -2  -5   0  176.30    3.30   1
   2   5   1   23.00    0.80   1
  -2  -5  -1   23.70    0.90   1
   2   5   2   52.50    1.30   1
  -2  -5  -2   51.60    1.40   1
   2   5   3  228.90    3.70   1
  -2  -5  -3  218.70    3.50   1
   2   5   4  152.10    3.10   1
  -2  -5  -4  144.70    3.00   1
   2   5   5   79.90    1.80   1
  -2  -5  -5   80.00    1.70   1
   2   5   6  728.70   11.10   1
  -2  -5  -6  744.80   12.80   1
   2   5   7    0.00    0.50   1
  -2  -5  -7    0.60    0.50   1
   2   5   8  414.30    7.40   1
  -2  -5  -8  403.70    7.90   1
   2   5   9   66.60    1.80   1
  -2  -5  -9   66.50    2.10   1
   2   5  10    2.80    1.20   1
  -2  -5 -10    1.90    1.40   1
   2   5  11   58.00    2.80   1
  -2  -5 -11   60.10    2.80   1
   2   5  12   25.90    2.10   1
  -2  -5 -12   24.70    2.10   1
   2   5  13   12.80    1.90   1
  -2  -5 -13   12.30    1.80   1
   2   5  14   30.00    2.40   1
  -2  -5 -14   30.10    2.40   1
   2   5  15   18.30    2.20   1
  -2  -5 -15   20.10    2.30   1
   2   5  16   31.20    3.00   1
  -2  -5 -16   47.30    3.40   1
   2   5  17    7.20    2.70   1
  -2  -5 -17   11.20    3.20   1
   2   5  18   40.20    4.90   1
  -2  -5 -18   36.70    4.80   1
   2   6 -18   43.20    5.00   1
  -2  -6  18   49.30    7.80   1
   2   6 -17   89.80    5.60   1
  -2  -6  17   78.70    9.00   1
   2   6 -16   50.50    4.10   1
  -2  -6  16   45.70    6.50   1
   2   6 -15   79.70    6.50   1
  -2  -6  15  100.10   10.00   1
   2   6 -14   35.00    3.30   1
  -2  -6  14   33.20    5.30   1
   2   6 -13   62.50    3.90   1
  -2  -6  13   68.80    4.00   1
   2   6 -12   26.30    2.50   1
  -2  -6  12   28.50    2.40   1
   2   6 -11  135.80    5.40   1
  -2  -6  11  142.90    6.20   1
   2   6 -10   20.20    2.40   1
  -2  -6  10   20.30    2.50   1
   2   6  -9    1.50    1.70   1
  -2  -6   9    1.00    1.10   1
   2   6  -8   38.70    1.90   1
  -2  -6   8   39.90    1.80   1
   2   6  -7    2.00    1.00   1
  -2  -6   7    0.40    0.50   1
   2   6  -6    6.80    1.10   1
  -2  -6   6    7.60    1.30   1
   2   6  -5   54.40    2.10   1
  -2  -6   5   58.90    2.30   1
   2   6  -4   66.20    2.50   1
  -2  -6   4   62.20    2.10   1
   2   6  -3  379.20    6.40   1
  -2  -6   3  363.20    6.70   1
   2   6  -2  133.20    2.60   1
  -2  -6   2  130.00    2.90   1
   2   6  -1   68.10    1.60   1
  -2  -6   1   67.70    2.00   1
   2   6   0  608.70    9.90   1
  -2  -6   0  623.60   11.80   1
   2   6   1  209.30    4.20   1
  -2  -6  -1  203.20    4.00   1
   2   6   2   44.90    1.40   1
  -2  -6  -2   43.20    1.40   1
   2   6   3   13.60    1.20   1
  -2  -6  -3   23.90    2.00   1
   2   6   4    3.30    0.50   1
  -2  -6  -4    3.40    0.50   1
   2   6   5    1.80    0.60   1
  -2  -6  -5    2.20    0.50   1
   2   6   6   94.30    2.20   1
  -2  -6  -6   86.90    2.30   1
   2   6   7  120.20    2.90   1
  -2  -6  -7  112.90    2.60   1
   2   6   8    1.10    0.70   1
  -2  -6  -8    2.80    0.60   1
   2   6   9    0.60    0.80   1
  -2  -6  -9    1.50    0.90   1
   2   6  10  120.70    4.20   1
  -2  -6 -10  131.00    4.40   1
   2   6  11   11.70    2.20   1
  -2  -6 -11   13.90    2.10   1
   2   6  12   29.30    2.20   1
  -2  -6 -12   29.70    2.20   1
   2   6  13    0.10    1.40   1
  -2  -6 -13    2.50    1.90   1
   2   6  14  144.90    7.40   1
  -2  -6 -14  135.00    7.20   1
   2   6  15  102.10    9.60   1
  -2  -6 -15  110.00    6.40   1
   2   6  16   -0.20    2.50   1
  -2  -6 -16   -2.20    2.40   1
   2   6  17   36.90    4.50   1
  -2  -6 -17   26.90    3.80   1
   2   6  18    6.10    3.50   1
  -2  -6 -18   11.40    3.60   1
   2   7 -17    2.20    2.70   1
  -2  -7  17    2.20    4.50   1
   2   7 -16   27.80    3.40   1
  -2  -7  16   33.60    6.20   1
   2   7 -15   -3.50    2.60   1
  -2  -7  15   -1.20    5.00   1
   2   7 -14  106.10    5.80   1
  -2  -7  14  118.90   10.30   1
   2   7 -13    1.30    2.10   1
  -2  -7  13   -0.80    1.70   1
   2   7 -12   11.70    2.50   1
  -2  -7  12   12.70    2.30   1
   2   7 -11   72.20    4.20   1
  -2  -7  11   72.20    4.40   1
   2   7 -10   76.50    3.90   1
  -2  -7  10   83.50    4.70   1
   2   7  -9  364.00   10.40   1
  -2  -7   9  345.80    9.60   1
   2   7  -8   68.10    3.30   1
  -2  -7   8   66.10    3.00   1
   2   7  -7  111.40    4.30   1
  -2  -7   7  116.70    4.10   1
   2   7  -6   49.90    2.30   1
  -2  -7   6   51.60    2.40   1
   2   7  -5    0.80    0.90   1
  -2  -7   5    2.00    1.20   1
   2   7  -4    7.80    1.50   1
  -2  -7   4   17.20    2.00   1
   2   7  -3   21.40    1.30   1
  -2  -7   3   28.20    1.70   1
   2   7  -2  192.30    4.10   1
  -2  -7   2  186.80    4.10   1
   2   7  -1    7.70    0.70   1
  -2  -7   1    9.50    0.90   1
   2   7   0   51.90    1.50   1
  -2  -7   0   50.40    1.80   1
   2   7   1   53.10    1.70   1
  -2  -7  -1   52.40    1.80   1
   2   7   2   21.20    0.90   1
  -2  -7  -2   20.70    1.40   1
   2   7   3  289.40    5.80   1
  -2  -7  -3  282.40    6.10   1
   2   7   4  281.40    7.10   1
  -2  -7  -4  275.10    5.70   1
   2   7   5   41.00    1.60   1
  -2  -7  -5   46.20    1.40   1
   2   7   6   11.10    0.90   1
  -2  -7  -6   13.70    1.20   1
   2   7   7   67.70    2.30   1
  -2  -7  -7   68.70    3.30   1
   2   7   8    2.10    0.80   1
  -2  -7  -8    2.80    1.30   1
   2   7   9   65.00    2.70   1
  -2  -7  -9   77.60    4.30   1
   2   7  10   17.80    2.10   1
  -2  -7 -10   26.00    2.00   1
   2   7  11   41.40    4.60   1
  -2  -7 -11   39.80    3.20   1
   2   7  12   58.20    5.90   1
  -2  -7 -12   60.20    4.20   1
   2   7  13   37.80    5.10   1
  -2  -7 -13   32.70    3.20   1
   2   7  14   14.70    5.70   1
  -2  -7 -14    5.40    2.80   1
   2   7  15   29.10    5.30   1
  -2  -7 -15   17.60    3.40   1
   2   7  16    4.00    2.80   1
  -2  -7 -16    0.60    2.70   1
   2   7  17   21.80    4.90   1
  -2  -7 -17   16.00    3.50   1
   2   8 -16    3.90    3.00   1
  -2  -8  16    2.90    4.10   1
   2   8 -15   42.40    3.90   1
  -2  -8  15   44.30    6.70   1
   2   8 -14    1.50    2.40   1
  -2  -8  14    0.30    3.70   1
   2   8 -13   53.80    3.90   1
  -2  -8  13   49.30    4.50   1
   2   8 -12   15.90    2.70   1
  -2  -8  12   14.40    2.80   1
   2   8 -11   31.80    2.90   1
  -2  -8  11   38.90    2.90   1
   2   8 -10    4.10    2.10   1
  -2  -8  10    6.20    1.60   1
   2   8  -9   16.70    2.30   1
  -2  -8   9   15.10    2.10   1
   2   8  -8    0.60    1.50   1
  -2  -8   8    1.00    1.10   1
   2   8  -7    2.00    1.40   1
  -2  -8   7    0.00    1.30   1
   2   8  -6   30.90    2.20   1
  -2  -8   6   27.60    2.00   1
   2   8  -5  295.80    8.90   1
  -2  -8   5  302.40    8.40   1
   2   8  -4   12.00    1.50   1
  -2  -8   4   12.30    1.50   1
   2   8  -3  346.80   10.00   1
  -2  -8   3  352.20    8.10   1
   2   8  -2   10.20    1.20   1
  -2  -8   2   12.80    1.10   1
   2   8  -1   34.00    1.30   1
  -2  -8   1   36.70    1.60   1
   2   8   0    5.00    0.80   1
  -2  -8   0    3.50    0.80   1
   2   8   1    5.30    0.80   1
  -2  -8  -1    8.40    0.90   1
   2   8   2   53.50    2.30   1
  -2  -8  -2   48.10    2.20   1
   2   8   3   91.10    2.80   1
  -2  -8  -3  107.90    3.90   1
   2   8   4   54.70    2.40   1
  -2  -8  -4   54.90    2.30   1
   2   8   5  121.60    3.40   1
  -2  -8  -5  144.40    4.90   1
   2   8   6    8.90    1.10   1
  -2  -8  -6   11.00    1.80   1
   2   8   7   15.80    2.50   1
  -2  -8  -7   10.20    1.90   1
   2   8   8   17.70    2.40   1
  -2  -8  -8   17.20    2.10   1
   2   8   9  180.30    8.00   1
  -2  -8  -9  178.90    8.00   1
   2   8  10   -0.80    2.70   1
  -2  -8 -10    2.80    1.80   1
   2   8  11  133.80   10.30   1
  -2  -8 -11  131.10    6.90   1
   2   8  12  141.10   11.00   1
  -2  -8 -12  129.70    7.20   1
   2   8  13   59.90    6.90   1
  -2  -8 -13   45.20    4.30   1
   2   8  14    7.30    4.00   1
  -2  -8 -14   10.30    2.60   1
   2   8  15   14.40    3.40   1
  -2  -8 -15   17.00    3.80   1
   2   8  16    5.20    6.40   1
  -2  -8 -16    8.50    4.20   1
   2   9 -15   -2.30    3.10   1
  -2  -9  15    4.20    4.00   1
   2   9 -14    5.60    2.70   1
  -2  -9  14    5.90    2.80   1
   2   9 -13    6.30    2.70   1
  -2  -9  13   -3.60    2.40   1
   2   9 -12  240.20   10.30   1
  -2  -9  12  250.50   12.20   1
   2   9 -11   20.60    2.70   1
  -2  -9  11   17.70    3.10   1
   2   9 -10    7.20    2.30   1
  -2  -9  10    5.60    1.90   1
   2   9  -9   68.80    4.00   1
  -2  -9   9   72.40    3.80   1
   2   9  -8    4.10    1.70   1
  -2  -9   8    7.60    1.70   1
   2   9  -7   42.70    2.90   1
  -2  -9   7   40.50    2.90   1
   2   9  -6    4.60    2.00   1
  -2  -9   6   15.50    2.30   1
   2   9  -5   18.50    2.10   1
  -2  -9   5   26.70    2.10   1
   2   9  -4  272.80    8.70   1
  -2  -9   4  275.30    7.70   1
   2   9  -3    4.30    1.40   1
  -2  -9   3    2.30    1.10   1
   2   9  -2   19.50    1.50   1
  -2  -9   2   28.90    1.80   1
   2   9  -1    2.40    1.30   1
  -2  -9   1    2.40    1.10   1
   2   9   0    0.90    0.70   1
  -2  -9   0   -1.40    0.80   1
   2   9   1   47.80    2.40   1
  -2  -9  -1   52.40    2.30   1
   2   9   2  132.50    9.10   1
  -2  -9  -2  128.60    5.90   1
   2   9   3    3.10    1.20   1
  -2  -9  -3    5.60    1.80   1
   2   9   4   49.40    3.60   1
  -2  -9  -4   61.50    4.20   1
   2   9   5  115.30    5.80   1
  -2  -9  -5  121.20    5.80   1
   2   9   6  262.40   10.00   1
  -2  -9  -6  231.50   13.60   1
   2   9   7   35.40    3.40   1
  -2  -9  -7   37.10    3.20   1
   2   9   8    4.40    2.70   1
  -2  -9  -8    6.70    2.50   1
   2   9   9   65.70    6.70   1
  -2  -9  -9   74.20    4.90   1
   2   9  10   -0.20    4.10   1
  -2  -9 -10    5.80    2.10   1
   2   9  11    2.80    5.00   1
  -2  -9 -11    4.70    2.30   1
   2   9  12    9.50    4.60   1
  -2  -9 -12   13.20    3.20   1
   2   9  13    0.80    3.70   1
  -2  -9 -13    1.10    2.90   1
   2   9  14   33.00    6.60   1
  -2  -9 -14   29.20    4.00   1
   2   9  15   27.70    7.40   1
  -2  -9 -15   13.80    3.20   1
   2  10 -13   12.60    2.90   1
  -2 -10  13   16.50    3.30   1
   2  10 -12   20.60    3.10   1
  -2 -10  12   20.40    4.80   1
   2  10 -11    3.30    2.10   1
  -2 -10  11    0.20    2.40   1
   2  10 -10    7.90    2.20   1
  -2 -10  10    1.20    2.10   1
   2  10  -9   46.30    3.50   1
  -2 -10   9   44.60    3.00   1
   2  10  -8   23.30    2.60   1
  -2 -10   8   23.70    2.50   1
   2  10  -7   26.00    2.60   1
  -2 -10   7   26.50    2.40   1
   2  10  -6   23.20    2.60   1
  -2 -10   6   22.30    2.00   1
   2  10  -5    2.20    1.40   1
  -2 -10   5    8.80    1.70   1
   2  10  -4    8.20    1.80   1
  -2 -10   4    7.50    1.40   1
   2  10  -3   59.80    2.80   1
  -2 -10   3   66.90    3.30   1
   2  10  -2  135.50   10.50   1
  -2 -10   2  143.70    6.60   1
   2  10  -1  113.70   10.50   1
  -2 -10   1  130.40    8.70   1
   2  10   0  210.70   12.60   1
  -2 -10   0  206.30    8.90   1
   2  10   1   19.50    6.00   1
  -2 -10  -1   19.50    2.60   1
   2  10   2  119.30    9.60   1
  -2 -10  -2  110.90    5.90   1
   2  10   3    3.90    4.00   1
  -2 -10  -3    8.70    2.30   1
   2  10   4   41.20    3.80   1
  -2 -10  -4   46.80    3.70   1
   2  10   5  127.10    6.40   1
  -2 -10  -5  125.10   10.00   1
   2  10   6    8.30    2.70   1
  -2 -10  -6    2.50    3.10   1
   2  10   7    1.10    2.40   1
  -2 -10  -7   -0.10    3.40   1
   2  10   8   16.50    3.90   1
  -2 -10  -8   23.00    4.90   1
   2  10   9    8.80    3.80   1
  -2 -10  -9    4.80    5.50   1
   2  10  10   -4.70    3.50   1
  -2 -10 -10    0.70    2.40   1
   2  10  11    1.80    5.40   1
  -2 -10 -11    4.10    2.40   1
   2  10  12  101.00    9.90   1
  -2 -10 -12  125.90    8.00   1
   2  10  13    6.70    4.70   1
  -2 -10 -13   16.10    3.20   1
   2  11 -11    4.40    3.20   1
   2  11 -10   37.80    5.10   1
  -2 -11  10   37.90    6.00   1
   2  11  -9   66.20    5.60   1
  -2 -11   9   80.70    8.40   1
   2  11  -8  159.20   15.10   1
  -2 -11   8  135.20    8.30   1
   2  11  -7   59.90    8.20   1
  -2 -11   7   56.80    4.70   1
   2  11  -6   66.50    8.40   1
  -2 -11   6   65.60    4.50   1
   2  11  -5   10.30    7.80   1
  -2 -11   5    8.10    2.30   1
   2  11  -4    5.70    5.10   1
  -2 -11   4    8.90    2.50   1
   2  11  -3    9.80    5.10   1
  -2 -11   3    6.10    2.40   1
   2  11  -2   41.20    7.00   1
  -2 -11   2   29.90    5.60   1
   2  11  -1    1.90    4.50   1
  -2 -11   1    4.20    3.40   1
   2  11   0    6.70    5.00   1
  -2 -11   0    4.60    4.50   1
   2  11   1    3.40    4.50   1
  -2 -11  -1    1.60    2.20   1
   2  11   2    5.00    4.90   1
  -2 -11  -2    3.20    2.20   1
   2  11   3   61.60    8.30   1
  -2 -11  -3   46.60    3.90   1
   2  11   4   15.40    3.00   1
  -2 -11  -4   22.50    3.60   1
   2  11   5    3.80    2.60   1
  -2 -11  -5   -0.10    3.20   1
   2  11   6  111.20    7.40   1
  -2 -11  -6  114.20   10.00   1
   2  11   7   50.80    6.80   1
  -2 -11  -7   63.60    7.40   1
   2  11   8   90.10    9.60   1
  -2 -11  -8   81.70    8.80   1
   2  11   9    1.60    3.60   1
  -2 -11  -9    8.30    4.50   1
   2  11  10    6.80    4.50   1
  -2 -11 -10    6.60    4.40   1
   2  11  11   35.10    6.10   1
   2  12  -8    9.60    6.50   1
  -2 -12   8   -1.00    3.50   1
   2  12  -7    9.40    6.80   1
  -2 -12   7   12.60    4.50   1
   2  12  -6   23.60    7.20   1
  -2 -12   6   17.10    3.60   1
   2  12  -5    4.80    6.40   1
  -2 -12   5    4.00    2.80   1
   2  12  -4   52.00    8.80   1
  -2 -12   4   53.20    4.70   1
   2  12  -3  222.60   20.00   1
  -2 -12   3  211.40   16.20   1
   2  12  -2   20.80    6.80   1
  -2 -12   2   10.90    4.00   1
   2  12  -1   27.10    7.00   1
  -2 -12   1   34.30    6.00   1
   2  12   0   10.00    5.60   1
  -2 -12   0    0.30    3.40   1
   2  12   1   91.70    9.90   1
  -2 -12  -1   78.50    8.30   1
   2  12   2    2.50    5.30   1
  -2 -12  -2    2.90    3.60   1
   2  12   3    8.30    3.00   1
  -2 -12  -3   10.40    4.20   1
   2  12   4   26.20    5.50   1
  -2 -12  -4   22.80    3.60   1
   2  12   5   11.10    3.70   1
  -2 -12  -5   20.70    5.20   1
   2  12   6   15.40    5.50   1
  -2 -12  -6   10.00    4.60   1
   2  12   7   78.50    8.50   1
  -2 -12  -7   90.20    9.60   1
   2  12   8    7.10    4.40   1
  -2 -12  -8   -3.10    4.10   1
   2  13  -3   55.70    9.50   1
   2  13  -2   37.30    8.10   1
  -2 -13   2   41.90    6.60   1
   2  13  -1    4.10    5.70   1
  -2 -13   1    6.70    4.30   1
   2  13   0    2.30    5.80   1
  -2 -13   0    1.70    5.00   1
   2  13   1   26.70    6.90   1
  -2 -13  -1   35.50    6.00   1
   2  13   2   -4.60    2.90   1
  -2 -13  -2    6.90    4.30   1
   2  13   3  174.80   10.10   1
  -2 -13  -3  196.10   17.10   1
   2  13   4   12.50    3.60   1
  -3  12   7    7.10    3.30   1
  -3  12   6  118.50    7.70   1
  -3  12   5   10.60    3.30   1
   3 -12  -4   39.10    7.50   1
  -3  12   4   29.80    4.20   1
   3 -12  -3    6.70    3.90   1
  -3  12   3    2.20    4.30   1
   3 -12  -2   14.40    5.70   1
  -3  12   2    6.70    2.90   1
   3 -12  -1   18.20    4.80   1
  -3  12   1   29.00    4.00   1
   3 -12   0   32.50    3.80   1
  -3  12   0   33.40    6.90   1
   3 -12   1   42.60    5.20   1
  -3  12  -1   46.70    5.40   1
   3 -12   2   23.10    3.70   1
  -3  12  -2   25.90    3.90   1
   3 -12   3    4.00    2.70   1
  -3  12  -3    3.70    3.50   1
   3 -12   4    1.10    2.40   1
  -3  12  -4   -3.40    2.70   1
   3 -12   5   16.70    3.30   1
  -3  12  -5   14.70    3.40   1
   3 -12   6   17.40    3.50   1
  -3  12  -6   16.90    4.20   1
   3 -12   7   27.30    6.50   1
  -3  11  10   19.20    3.90   1
   3 -11  -9    2.40    4.30   1
  -3  11   9    8.20    2.70   1
   3 -11  -8   38.50    6.10   1
  -3  11   8   34.70    3.50   1
   3 -11  -7   14.90    6.00   1
  -3  11   7    7.50    2.70   1
   3 -11  -6   57.50    7.20   1
  -3  11   6   51.30    4.70   1
   3 -11  -5    4.20    2.80   1
  -3  11   5    4.90    2.30   1
   3 -11  -4   -2.00    2.40   1
  -3  11   4    3.30    2.20   1
   3 -11  -3    8.30    3.90   1
  -3  11   3    9.40    4.40   1
   3 -11  -2   18.70    3.20   1
  -3  11   2   20.30    3.30   1
   3 -11  -1    4.40    2.00   1
  -3  11   1    8.70    2.50   1
   3 -11   0   92.40    5.80   1
  -3  11   0   86.10    5.70   1
   3 -11   1   52.50    4.20   1
  -3  11  -1   44.20    4.20   1
   3 -11   2    2.60    2.30   1
  -3  11  -2   -4.60    3.70   1
   3 -11   3  131.50    7.50   1
  -3  11  -3  131.50   11.40   1
   3 -11   4   78.30    5.50   1
  -3  11  -4   95.20   10.20   1
   3 -11   5   53.90    4.60   1
  -3  11  -5   53.70    4.90   1
   3 -11   6   -0.30    2.30   1
  -3  11  -6    1.70    2.80   1
   3 -11   7    0.60    2.60   1
  -3  11  -7   -0.80    2.80   1
   3 -11   8   29.40    4.30   1
  -3  11  -8   26.40    5.90   1
   3 -11   9    2.20    2.60   1
  -3  11  -9   -2.90    6.00   1
   3 -11  10   43.40    6.90   1
  -3  11 -10   49.10    7.40   1
   3 -10 -12   12.80    4.50   1
  -3  10  12   -2.40    3.10   1
   3 -10 -11   17.70    3.30   1
  -3  10  11   10.50    3.60   1
   3 -10 -10    8.90    4.00   1
  -3  10  10    8.70    3.40   1
   3 -10  -9    6.90    5.20   1
  -3  10   9   11.10    3.40   1
   3 -10  -8    2.00    3.50   1
  -3  10   8   -4.10    2.90   1
   3 -10  -7    6.80    3.80   1
  -3  10   7    4.40    2.20   1
   3 -10  -6    7.20    3.60   1
  -3  10   6    5.80    2.60   1
   3 -10  -5  146.40    7.90   1
  -3  10   5  161.40    8.10   1
   3 -10  -4   55.80    4.40   1
  -3  10   4   58.60    4.40   1
   3 -10  -3   88.10    5.20   1
  -3  10   3   87.90    5.30   1
   3 -10  -2    9.50    3.50   1
  -3  10   2    2.50    2.80   1
   3 -10  -1   77.70    3.90   1
  -3  10   1   84.30    6.30   1
   3 -10   0   43.30    3.10   1
  -3  10   0   39.30    4.90   1
   3 -10   1    3.20    1.60   1
  -3  10  -1    8.60    2.90   1
   3 -10   2    0.10    1.90   1
  -3  10  -2    0.10    2.00   1
   3 -10   3   39.20    3.10   1
  -3  10  -3   44.40    5.90   1
   3 -10   4   15.70    2.50   1
  -3  10  -4   13.30    5.70   1
   3 -10   5    4.50    2.10   1
  -3  10  -5    5.30    2.60   1
   3 -10   6   43.50    3.90   1
  -3  10  -6   45.10    4.30   1
   3 -10   7    3.80    2.70   1
  -3  10  -7   11.10    2.90   1
   3 -10   8   24.20    2.50   1
  -3  10  -8   20.00    3.10   1
   3 -10   9  187.80    7.10   1
  -3  10  -9  181.10   10.00   1
   3 -10  10    9.50    2.00   1
  -3  10 -10    8.10    2.90   1
   3 -10  11   50.30    3.40   1
  -3  10 -11   56.20    5.40   1
   3 -10  12   11.80    2.40   1
  -3  10 -12   11.70    4.10   1
  -3   9  14   -1.60    4.30   1
   3  -9 -13   26.60    6.40   1
  -3   9  13   15.80    7.00   1
   3  -9 -12   58.60    5.10   1
  -3   9  12   57.30    8.10   1
   3  -9 -11   14.00    3.00   1
  -3   9  11   22.60    5.20   1
   3  -9 -10   10.70    3.30   1
  -3   9  10    2.60    2.50   1
   3  -9  -9  156.60    8.00   1
  -3   9   9  158.50    8.70   1
   3  -9  -8   57.70    6.60   1
  -3   9   8   67.50    4.70   1
  -3   9   7  196.40    9.10   1
   3  -9  -6    0.20    1.90   1
  -3   9   6    2.30    2.80   1
   3  -9  -5    3.80    2.10   1
  -3   9   5    3.90    2.00   1
   3  -9  -4   85.20    5.10   1
  -3   9   4   70.60    6.20   1
   3  -9  -3   29.80    3.10   1
  -3   9   3   30.20    2.70   1
   3  -9  -2   16.00    1.80   1
  -3   9   2   19.70    2.50   1
   3  -9  -1    4.70    1.70   1
  -3   9   1    5.20    1.70   1
   3  -9   0    2.50    1.40   1
  -3   9   0    1.60    1.20   1
   3  -9   1   13.40    1.80   1
  -3   9  -1   15.40    2.00   1
   3  -9   2  183.80    4.80   1
  -3   9  -2  177.50    7.50   1
   3  -9   3   49.40    2.00   1
  -3   9  -3   45.20    4.40   1
   3  -9   4   15.00    1.40   1
  -3   9  -4   18.50    2.50   1
   3  -9   5   37.20    2.00   1
  -3   9  -5   33.00    2.40   1
   3  -9   6   71.90    3.00   1
  -3   9  -6   68.00    3.40   1
   3  -9   7   12.40    1.60   1
  -3   9  -7   18.30    2.40   1
   3  -9   8    0.30    1.40   1
  -3   9  -8    1.40    1.60   1
   3  -9   9  131.10    4.70   1
  -3   9  -9  122.70    6.70   1
   3  -9  10    5.80    1.80   1
  -3   9 -10    5.90    2.50   1
   3  -9  11    3.90    1.90   1
  -3   9 -11    2.30    2.40   1
   3  -9  12    2.50    2.00   1
  -3   9 -12    1.00    4.60   1
   3  -9  13   39.70    3.30   1
  -3   9 -13   25.70    3.90   1
   3  -9  14   -1.20    2.10   1
  -3   9 -14   -1.60    2.70   1
   3  -8 -15   57.70    8.90   1
  -3   8  15   57.00    8.00   1
   3  -8 -14   59.90    7.90   1
  -3   8  14   61.10    9.80   1
   3  -8 -13   -1.30    3.50   1
  -3   8  13   10.70    4.60   1
   3  -8 -12   -0.10    2.10   1
  -3   8  12    3.00    3.80   1
   3  -8 -11    0.80    2.50   1
  -3   8  11    1.90    3.60   1
   3  -8 -10    1.70    2.00   1
  -3   8  10   -3.00    4.30   1
   3  -8  -9   37.70    3.30   1
  -3   8   9   41.30    6.20   1
   3  -8  -8   38.20    3.40   1
  -3   8   8   37.00    3.20   1
   3  -8  -7   46.90    3.80   1
  -3   8   7   40.90    3.10   1
   3  -8  -6   37.70    3.20   1
  -3   8   6   38.00    3.00   1
   3  -8  -5   55.20    3.90   1
  -3   8   5   59.80    3.50   1
   3  -8  -4    9.40    2.00   1
  -3   8   4    5.50    2.60   1
   3  -8  -3    2.30    1.70   1
  -3   8   3    2.60    1.90   1
   3  -8  -2   85.20    3.00   1
  -3   8   2   83.80    3.50   1
   3  -8  -1  104.10    2.90   1
  -3   8   1  108.50    3.80   1
   3  -8   0  345.40    7.30   1
  -3   8   0  356.60    7.80   1
   3  -8   1   39.00    1.80   1
  -3   8  -1   40.70    2.60   1
   3  -8   2  203.80    5.00   1
  -3   8  -2  208.50    6.30   1
   3  -8   3   61.60    2.20   1
  -3   8  -3   56.80    3.00   1
   3  -8   4   86.30    2.70   1
  -3   8  -4   78.00    4.10   1
   3  -8   5   18.10    1.40   1
  -3   8  -5   16.50    2.10   1
   3  -8   6  151.20    4.20   1
  -3   8  -6  139.60    6.20   1
   3  -8   7    8.30    1.40   1
  -3   8  -7    8.20    1.80   1
   3  -8   8   32.60    2.10   1
  -3   8  -8   31.00    2.50   1
   3  -8   9   91.00    3.70   1
  -3   8  -9   91.40    7.80   1
   3  -8  10    0.80    1.50   1
  -3   8 -10   -0.50    2.30   1
   3  -8  11   24.00    2.30   1
  -3   8 -11   25.80    3.30   1
   3  -8  12   79.50    3.80   1
  -3   8 -12   72.70    5.30   1
   3  -8  13    4.70    1.80   1
  -3   8 -13   14.60    4.30   1
   3  -8  14   47.40    3.30   1
  -3   8 -14   45.80    4.90   1
   3  -8  15    1.00    2.00   1
  -3   8 -15   -3.40    4.00   1
   3  -7 -16    2.80    4.00   1
  -3   7  16   15.70    7.40   1
   3  -7 -15    6.00    4.10   1
  -3   7  15   10.60    4.90   1
   3  -7 -14   45.90    7.40   1
  -3   7  14   44.40    7.20   1
   3  -7 -13    3.30    2.00   1
  -3   7  13    2.40    3.60   1
   3  -7 -12  104.40    5.90   1
  -3   7  12  114.70    9.50   1
   3  -7 -11    2.20    1.80   1
  -3   7  11   -1.50    4.70   1
   3  -7 -10   42.00    3.50   1
  -3   7  10   40.00    3.30   1
   3  -7  -9   77.00    4.50   1
  -3   7   9   85.10    4.80   1
   3  -7  -8   12.20    2.20   1
  -3   7   8   11.80    1.90   1
   3  -7  -7   86.90    4.70   1
  -3   7   7   85.20    3.90   1
   3  -7  -6  109.10    3.10   1
  -3   7   6  107.50    3.20   1
   3  -7  -5    5.40    0.50   1
  -3   7   5    5.00    0.60   1
   3  -7  -4   48.50    1.70   1
  -3   7   4   49.40    1.70   1
   3  -7  -3   76.10    2.10   1
  -3   7   3   73.70    1.70   1
   3  -7  -2   14.20    0.80   1
  -3   7   2   14.60    0.80   1
   3  -7  -1   46.60    1.50   1
  -3   7   1   42.70    1.20   1
   3  -7   0  168.80    3.60   1
  -3   7   0  170.10    3.40   1
   3  -7   1    3.30    0.70   1
  -3   7  -1    3.00    0.60   1
   3  -7   2   27.70    1.30   1
  -3   7  -2   24.50    1.10   1
   3  -7   3    5.20    0.90   1
  -3   7  -3    3.70    0.70   1
   3  -7   4   60.50    2.10   1
  -3   7  -4   57.20    4.40   1
   3  -7   5    0.20    1.00   1
  -3   7  -5    3.50    1.60   1
   3  -7   6  151.50    4.00   1
  -3   7  -6  149.00    8.80   1
   3  -7   7  116.50    3.40   1
  -3   7  -7  109.50    4.50   1
   3  -7   8  101.00    3.60   1
  -3   7  -8   97.90    4.30   1
   3  -7   9   19.20    1.70   1
  -3   7  -9   17.30    2.60   1
   3  -7  10    8.60    1.70   1
  -3   7 -10    5.80    2.00   1
   3  -7  11    7.00    1.50   1
  -3   7 -11    8.00    2.30   1
   3  -7  12    4.70    1.70   1
  -3   7 -12    6.90    2.30   1
   3  -7  13  129.00    4.90   1
  -3   7 -13  131.80    7.60   1
   3  -7  14    3.80    1.80   1
  -3   7 -14    7.70    2.70   1
   3  -7  15    4.90    2.50   1
  -3   7 -15    6.40    3.90   1
   3  -7  16   25.90    3.40   1
  -3   7 -16   24.40    5.90   1
   3  -6 -17   61.20    8.00   1
  -3   6  17   53.20    7.60   1
   3  -6 -16   -3.60    3.60   1
  -3   6  16   -2.30    5.90   1
   3  -6 -15    4.30    3.90   1
  -3   6  15    8.20    4.20   1
   3  -6 -14    7.90    3.80   1
  -3   6  14    2.60    3.70   1
   3  -6 -13  118.20    6.60   1
  -3   6  13  121.00    7.00   1
   3  -6 -12  105.70    5.80   1
  -3   6  12   97.30    5.70   1
   3  -6 -11    4.20    0.90   1
  -3   6  11    4.60    1.00   1
   3  -6 -10   55.70    2.40   1
  -3   6  10   52.60    2.80   1
   3  -6  -9   20.40    1.60   1
  -3   6   9   23.90    1.60   1
   3  -6  -8    3.00    0.60   1
  -3   6   8    3.50    0.70   1
   3  -6  -7  148.10    3.80   1
  -3   6   7  142.30    4.30   1
   3  -6  -6  256.40    4.60   1
  -3   6   6  256.90    5.70   1
   3  -6  -5   23.70    0.90   1
  -3   6   5   23.90    1.00   1
   3  -6  -4   45.60    1.40   1
  -3   6   4   43.70    1.10   1
   3  -6  -3  455.50    9.10   1
  -3   6   3  479.90    8.40   1
   3  -6  -2    1.70    0.50   1
  -3   6   2    1.60    0.60   1
   3  -6  -1    6.50    0.70   1
  -3   6   1    7.60    0.70   1
   3  -6   0   -0.50    0.60   1
  -3   6   0    0.90    0.20   1
   3  -6   1  104.80    2.30   1
  -3   6  -1  108.70    2.50   1
   3  -6   2    4.50    0.70   1
  -3   6  -2    3.90    0.50   1
   3  -6   3   13.40    1.20   1
  -3   6  -3   11.30    0.80   1
   3  -6   4    9.20    0.90   1
  -3   6  -4    8.90    1.20   1
   3  -6   5   85.60    2.40   1
  -3   6  -5   80.00    3.10   1
   3  -6   6    1.80    1.00   1
  -3   6  -6   -0.10    1.30   1
   3  -6   7  148.20    3.80   1
  -3   6  -7  144.60    6.00   1
   3  -6   8    0.00    1.00   1
  -3   6  -8   -0.50    1.50   1
   3  -6   9   71.40    3.30   1
  -3   6  -9   69.30    3.80   1
   3  -6  10  125.10    6.10   1
  -3   6 -10  130.60    6.10   1
   3  -6  11  187.90    8.50   1
  -3   6 -11  187.80    8.50   1
   3  -6  12  121.80    6.40   1
  -3   6 -12  119.40    6.50   1
   3  -6  13   -2.70    2.80   1
  -3   6 -13    0.90    2.50   1
   3  -6  14   16.00    3.40   1
  -3   6 -14   17.00    2.60   1
   3  -6  15   38.20    4.60   1
  -3   6 -15   33.60    5.60   1
   3  -6  16   37.90    4.50   1
  -3   6 -16   47.80    6.70   1
   3  -6  17   -6.90    3.60   1
  -3   6 -17   -4.70    6.80   1
   3  -5 -18   25.50    6.90   1
  -3   5  18   16.00    5.10   1
   3  -5 -17   -1.50    5.10   1
  -3   5  17    3.00    5.40   1
   3  -5 -16   15.90    5.50   1
  -3   5  16   14.20    2.80   1
   3  -5 -15   21.20    5.60   1
  -3   5  15   23.80    3.30   1
   3  -5 -14   -0.50    1.30   1
  -3   5  14    2.20    1.50   1
   3  -5 -13  127.30    4.40   1
  -3   5  13  123.60    5.40   1
   3  -5 -12   43.90    2.10   1
  -3   5  12   37.50    2.70   1
   3  -5 -11   66.90    2.70   1
  -3   5  11   59.20    2.90   1
   3  -5 -10   27.20    1.50   1
  -3   5  10   24.70    1.70   1
   3  -5  -9  173.50    4.60   1
  -3   5   9  173.20    5.30   1
   3  -5  -8   34.70    1.30   1
  -3   5   8   35.40    1.60   1
   3  -5  -7   53.40    1.60   1
  -3   5   7   52.80    1.80   1
   3  -5  -6  116.40    2.30   1
  -3   5   6  117.20    3.10   1
   3  -5  -5   15.40    0.90   1
  -3   5   5   15.40    0.80   1
   3  -5  -4   86.00    1.90   1
  -3   5   4   85.90    2.00   1
   3  -5  -3   59.90    1.80   1
  -3   5   3   58.90    1.80   1
   3  -5  -2    9.10    0.80   1
  -3   5   2    8.30    0.70   1
   3  -5  -1   11.10    0.70   1
  -3   5   1   11.40    0.80   1
   3  -5   0  122.40    2.30   1
  -3   5   0  123.60    2.90   1
   3  -5   1  238.30    4.30   1
  -3   5  -1  245.90    4.70   1
   3  -5   2  265.00    4.30   1
  -3   5  -2  260.30    5.20   1
   3  -5   3 1161.50   15.90   1
  -3   5  -3 1210.90   17.90   1
   3  -5   4    3.80    0.60   1
  -3   5  -4    1.60    0.90   1
   3  -5   5  133.10    2.80   1
  -3   5  -5  129.00    4.20   1
   3  -5   6   11.70    0.70   1
  -3   5  -6   12.00    1.50   1
   3  -5   7    1.10    0.80   1
  -3   5  -7   -2.40    2.70   1
   3  -5   8   71.30    2.70   1
  -3   5  -8   68.00    5.00   1
   3  -5   9   -0.50    1.10   1
  -3   5  -9   -2.10    2.20   1
   3  -5  10   35.50    2.30   1
  -3   5 -10   33.80    2.80   1
   3  -5  11   92.90    4.00   1
  -3   5 -11   98.30    5.00   1
   3  -5  12    0.60    1.50   1
  -3   5 -12    3.40    1.80   1
   3  -5  13   16.80    2.30   1
  -3   5 -13   13.70    2.90   1
   3  -5  14   14.80    2.20   1
  -3   5 -14   13.80    3.90   1
   3  -5  15   32.50    3.20   1
  -3   5 -15   32.90    6.00   1
   3  -5  16    5.00    2.10   1
  -3   5 -16    9.00    4.20   1
   3  -5  17   69.90    5.20   1
  -3   5 -17   76.30    8.80   1
   3  -5  18    5.10    3.00   1
  -3   5 -18    1.30    4.00   1
   3  -4 -18   57.20    8.40   1
  -3   4  18   50.50    5.40   1
   3  -4 -17   38.30    4.10   1
  -3   4  17   31.30    3.30   1
   3  -4 -16    2.70    1.90   1
  -3   4  16   -0.80    1.90   1
   3  -4 -15  139.80    5.90   1
  -3   4  15  120.20    5.60   1
   3  -4 -14   22.70    1.90   1
  -3   4  14   21.60    2.30   1
   3  -4 -13   61.10    2.60   1
  -3   4  13   62.90    3.30   1
   3  -4 -12    7.40    1.30   1
  -3   4  12    6.00    1.80   1
   3  -4 -11   56.30    2.30   1
  -3   4  11   50.50    2.50   1
   3  -4 -10  108.20    3.20   1
  -3   4  10  108.30    3.80   1
   3  -4  -9   41.90    1.60   1
  -3   4   9   43.20    2.20   1
   3  -4  -8   42.70    1.30   1
  -3   4   8   40.20    1.70   1
   3  -4  -7    4.20    0.70   1
  -3   4   7    6.00    0.90   1
   3  -4  -6  218.70    3.80   1
  -3   4   6  211.90    5.00   1
   3  -4  -5    1.00    0.60   1
  -3   4   5    0.40    0.40   1
   3  -4  -4  174.70    3.20   1
  -3   4   4  172.10    3.10   1
   3  -4  -3  507.60    7.30   1
  -3   4   3  527.80    8.50   1
   3  -4  -2    4.00    0.60   1
  -3   4   2    3.50    0.60   1
   3  -4  -1  270.00    4.60   1
  -3   4   1  277.90    4.80   1
   3  -4   0    1.80    0.50   1
  -3   4   0    0.00    0.50   1
   3  -4   1  107.00    2.20   1
  -3   4  -1  103.40    2.30   1
   3  -4   2  100.70    2.00   1
  -3   4  -2  103.90    2.10   1
   3  -4   3   10.90    0.80   1
  -3   4  -3    9.80    0.70   1
   3  -4   4    0.30    0.40   1
  -3   4  -4    0.70    0.70   1
   3  -4   5    3.00    0.50   1
  -3   4  -5    1.50    1.00   1
   3  -4   6   24.00    1.20   1
  -3   4  -6   23.00    1.60   1
   3  -4   7  144.70    3.40   1
  -3   4  -7  139.70    5.70   1
   3  -4   8   57.70    1.90   1
  -3   4  -8   47.00    3.80   1
   3  -4   9  159.90    3.80   1
  -3   4  -9  165.30    9.00   1
   3  -4  10   40.10    2.50   1
  -3   4 -10   43.30    2.90   1
   3  -4  11   -0.20    1.30   1
  -3   4 -11    1.00    1.30   1
   3  -4  12  304.30    9.40   1
  -3   4 -12  314.40   11.30   1
   3  -4  13    4.60    1.80   1
  -3   4 -13    2.70    1.70   1
   3  -4  14    0.80    1.70   1
  -3   4 -14    8.40    3.60   1
   3  -4  15   92.10    4.70   1
  -3   4 -15   85.10    8.90   1
   3  -4  16    2.70    2.00   1
  -3   4 -16    2.20    3.90   1
   3  -4  17   47.20    4.20   1
  -3   4 -17   53.20    8.00   1
   3  -4  18   21.20    3.30   1
  -3   4 -18   11.30    5.00   1
   3  -3 -19    4.80    3.10   1
  -3   3  19    6.50    2.50   1
   3  -3 -18    8.20    2.20   1
  -3   3  18   10.40    2.60   1
   3  -3 -17    4.90    2.20   1
  -3   3  17    9.40    2.30   1
   3  -3 -16   13.00    2.10   1
  -3   3  16   18.20    2.40   1
   3  -3 -15    2.60    1.20   1
  -3   3  15    0.90    1.90   1
   3  -3 -14   12.30    1.50   1
  -3   3  14   11.60    1.90   1
   3  -3 -13   10.40    1.30   1
  -3   3  13   10.40    1.80   1
   3  -3 -12  224.40    6.30   1
  -3   3  12  231.40    7.30   1
   3  -3 -11    5.50    1.10   1
  -3   3  11    4.10    1.20   1
   3  -3 -10   11.30    1.20   1
  -3   3  10   10.80    1.20   1
   3  -3  -9   89.00    2.40   1
  -3   3   9   82.80    2.40   1
   3  -3  -8  479.70    8.30   1
  -3   3   8  494.30    9.10   1
   3  -3  -7   55.60    1.40   1
  -3   3   7   60.30    1.60   1
   3  -3  -6   48.80    1.50   1
  -3   3   6   50.20    1.70   1
   3  -3  -5    2.40    0.40   1
  -3   3   5    3.50    0.50   1
   3  -3  -4  274.80    4.20   1
  -3   3   4  289.80    4.40   1
   3  -3  -3   22.80    0.80   1
  -3   3   3   24.10    0.70   1
   3  -3  -2  651.30    9.20   1
  -3   3   2  694.90    9.70   1
   3  -3  -1   14.30    0.70   1
  -3   3   1   15.40    0.60   1
   3  -3   0   68.80    1.40   1
  -3   3   0   68.40    1.50   1
   3  -3   1    2.10    0.40   1
  -3   3  -1    1.90    0.50   1
   3  -3   2  126.40    2.30   1
  -3   3  -2  128.80    2.20   1
   3  -3   3    2.10    0.50   1
  -3   3  -3    1.10    0.40   1
   3  -3   4   70.00    1.70   1
  -3   3  -4   75.20    2.30   1
   3  -3   5    5.30    0.60   1
  -3   3  -5    4.60    0.90   1
   3  -3   6  889.20   14.40   1
  -3   3  -6  929.00   18.00   1
   3  -3   7   42.40    1.50   1
  -3   3  -7   44.80    2.00   1
   3  -3   8  145.10    3.70   1
  -3   3  -8  158.40    5.70   1
   3  -3   9   67.20    2.10   1
  -3   3  -9   65.90    3.40   1
   3  -3  10   43.50    1.90   1
  -3   3 -10   42.80    2.60   1
   3  -3  11    2.70    1.30   1
  -3   3 -11    2.80    1.50   1
   3  -3  12  191.30    6.30   1
  -3   3 -12  200.40    7.40   1
   3  -3  13   13.50    1.40   1
  -3   3 -13   11.10    2.10   1
   3  -3  14    7.20    2.10   1
  -3   3 -14    7.80    3.50   1
   3  -3  15   44.10    3.30   1
  -3   3 -15   43.20    6.30   1
   3  -3  16  105.50    5.80   1
  -3   3 -16  109.30    9.30   1
   3  -3  17   -3.10    2.20   1
  -3   3 -17   -6.70    4.00   1
   3  -3  18   30.10    3.70   1
  -3   3 -18   34.30    7.50   1
   3  -3  19    2.20    3.40   1
  -3   3 -19    8.00    5.20   1
   3  -2 -19    1.10    2.80   1
  -3   2  19    3.90    2.40   1
   3  -2 -18  133.60    6.70   1
  -3   2  18  143.20    7.00   1
   3  -2 -17   65.70    4.00   1
  -3   2  17   69.20    4.00   1
   3  -2 -16   42.00    3.00   1
  -3   2  16   37.20    2.80   1
   3  -2 -15   21.10    1.90   1
  -3   2  15   20.10    2.30   1
   3  -2 -14   85.30    3.30   1
  -3   2  14   76.40    3.90   1
   3  -2 -13   48.40    2.30   1
  -3   2  13   47.10    2.70   1
   3  -2 -12   31.40    2.10   1
  -3   2  12   31.50    2.60   1
   3  -2 -11   97.70    3.10   1
  -3   2  11  100.20    3.70   1
   3  -2 -10   26.30    1.60   1
  -3   2  10   23.20    1.50   1
   3  -2  -9    1.50    0.80   1
  -3   2   9    0.90    0.70   1
   3  -2  -8   77.90    2.20   1
  -3   2   8   72.60    2.10   1
   3  -2  -7   25.10    1.00   1
  -3   2   7   23.20    1.00   1
   3  -2  -6  162.10    3.10   1
  -3   2   6  164.30    3.60   1
   3  -2  -5  133.40    2.30   1
  -3   2   5  136.10    2.30   1
   3  -2  -4   46.00    1.10   1
  -3   2   4   46.60    1.20   1
   3  -2  -3  157.70    2.50   1
  -3   2   3  163.50    2.50   1
   3  -2  -2  117.90    2.20   1
  -3   2   2  123.30    2.10   1
   3  -2  -1   59.50    1.20   1
  -3   2   1   59.30    1.20   1
   3  -2   0  453.50    6.70   1
  -3   2   0  467.40    6.80   1
   3  -2   1  383.10    6.20   1
  -3   2  -1  399.00    5.90   1
   3  -2   2  308.70    4.30   1
  -3   2  -2  321.70    5.40   1
   3  -2   3   69.60    1.30   1
  -3   2  -3   72.70    1.80   1
   3  -2   4  152.00    2.70   1
  -3   2  -4  162.10    3.40   1
   3  -2   5   13.40    0.90   1
  -3   2  -5   10.70    1.20   1
   3  -2   6  235.90    4.60   1
  -3   2  -6  236.10    6.30   1
   3  -2   7  222.50    4.30   1
  -3   2  -7  233.70    8.10   1
   3  -2   8  120.00    2.80   1
  -3   2  -8  115.10    6.60   1
   3  -2   9   10.00    0.80   1
  -3   2  -9   14.20    2.70   1
   3  -2  10    4.20    0.80   1
  -3   2 -10    3.10    1.00   1
   3  -2  11    0.50    1.60   1
  -3   2 -11    1.60    1.20   1
   3  -2  12  286.20    8.20   1
  -3   2 -12  284.50   10.10   1
   3  -2  13   10.20    1.80   1
  -3   2 -13    4.60    2.90   1
   3  -2  14   31.00    2.10   1
  -3   2 -14   34.80    4.80   1
   3  -2  15   74.60    4.30   1
  -3   2 -15   71.50    7.10   1
   3  -2  16   33.10    3.20   1
  -3   2 -16   38.00    5.50   1
   3  -2  17    3.50    2.80   1
  -3   2 -17   17.20    5.60   1
   3  -2  18   18.90    3.00   1
  -3   2 -18   21.10    5.20   1
   3  -2  19    0.20    2.50   1
  -3   2 -19   -1.30    3.60   1
   3  -1 -19   34.30    3.90   1
  -3   1  19   34.20    3.90   1
   3  -1 -18   61.30    4.30   1
  -3   1  18   68.80    4.50   1
   3  -1 -17   34.00    3.00   1
  -3   1  17   31.10    3.00   1
   3  -1 -16   -0.70    2.50   1
  -3   1  16    1.80    2.00   1
   3  -1 -15   -1.00    1.50   1
  -3   1  15   -1.00    1.80   1
   3  -1 -14   22.60    1.90   1
  -3   1  14   28.80    2.50   1
   3  -1 -13   50.40    2.40   1
  -3   1  13   50.60    3.00   1
   3  -1 -12  278.10    6.80   1
  -3   1  12  291.50    8.40   1
   3  -1 -11   17.40    1.50   1
  -3   1  11   16.40    1.40   1
   3  -1 -10   -1.20    0.90   1
  -3   1  10    0.50    0.80   1
   3  -1  -9  379.10    6.50   1
  -3   1   9  390.00    7.30   1
   3  -1  -8    3.10    0.70   1
  -3   1   8    3.30    0.60   1
   3  -1  -7  137.10    3.20   1
  -3   1   7  145.60    3.30   1
   3  -1  -6    4.10    0.80   1
  -3   1   6    2.60    0.50   1
   3  -1  -5   14.20    0.70   1
  -3   1   5   14.40    0.70   1
   3  -1  -4  475.70    6.40   1
  -3   1   4  495.40    8.60   1
   3  -1  -3    4.90    0.40   1
  -3   1   3    6.00    0.60   1
   3  -1  -2   -0.10    0.30   1
  -3   1   2    0.50    0.40   1
   3  -1  -1   24.10    0.80   1
  -3   1   1   24.30    0.60   1
   3  -1   0  128.40    2.30   1
  -3   1   0  134.00    2.20   1
   3  -1   1   43.10    1.00   1
  -3   1  -1   43.20    1.10   1
   3  -1   2  422.40    6.30   1
  -3   1  -2  433.90    6.90   1
   3  -1   3  583.10    8.40   1
  -3   1  -3  603.70   10.10   1
   3  -1   4   63.50    2.00   1
  -3   1  -4   63.40    1.70   1
   3  -1   5   50.60    1.40   1
  -3   1  -5   49.70    1.60   1
   3  -1   6  191.60    3.80   1
  -3   1  -6  202.90    5.50   1
   3  -1   7  143.40    3.30   1
  -3   1  -7  151.80    4.70   1
   3  -1   8   34.00    1.30   1
  -3   1  -8   35.10    2.10   1
   3  -1   9   17.60    1.30   1
  -3   1  -9   16.70    1.60   1
   3  -1  10   16.10    1.70   1
  -3   1 -10   14.90    1.10   1
   3  -1  11  116.80    4.20   1
  -3   1 -11  125.50    3.60   1
   3  -1  12    4.40    1.80   1
  -3   1 -12    1.60    1.00   1
   3  -1  13  120.80    4.80   1
  -3   1 -13  116.80    8.20   1
   3  -1  14   45.60    3.10   1
  -3   1 -14   43.50    6.00   1
   3  -1  15   37.90    2.90   1
  -3   1 -15   42.70    5.30   1
   3  -1  16   41.70    2.70   1
  -3   1 -16   35.60    6.10   1
   3  -1  17   54.70    4.10   1
  -3   1 -17   62.10    6.90   1
   3  -1  18  104.40    6.30   1
   3  -1  19   10.50    2.70   1
  -3   1 -19    2.90    4.40   1
   3   0 -20   -2.50    3.10   1
  -3   0  20    0.30    2.90   1
   3   0 -19    7.60    2.80   1
  -3   0  19    4.60    2.70   1
   3   0 -18    3.20    2.20   1
  -3   0  18   -3.30    2.90   1
   3   0 -17   37.70    3.20   1
  -3   0  17   31.50    3.50   1
   3   0 -16    1.00    2.10   1
  -3   0  16    1.30    2.60   1
   3   0 -15    2.30    1.40   1
  -3   0  15    0.30    1.60   1
   3   0 -14   -0.10    1.10   1
  -3   0  14    1.50    1.50   1
   3   0 -13  270.80    6.10   1
  -3   0  13  279.70    8.20   1
   3   0 -12   -0.20    1.10   1
  -3   0  12   -0.10    1.30   1
   3   0 -11   10.20    2.00   1
  -3   0  11    7.00    1.20   1
   3   0 -10   -1.50    1.00   1
  -3   0  10   -1.00    0.90   1
   3   0  -9   55.60    2.60   1
  -3   0   9   55.10    2.40   1
   3   0  -8   -0.20    0.90   1
  -3   0   8   -0.20    0.50   1
   3   0  -7  453.20    8.20   1
  -3   0   7  451.90    8.60   1
   3   0  -6    1.30    0.80   1
  -3   0   6   -0.40    0.40   1
   3   0  -5   84.40    2.00   1
  -3   0   5   81.90    2.30   1
   3   0  -4    0.00    0.50   1
  -3   0   4    0.60    0.70   1
   3   0  -3 1897.80   22.60   1
  -3   0   3 1890.70   29.30   1
   3   0  -2   -0.30    0.30   1
  -3   0   2   -0.10    0.40   1
   3   0  -1   19.60    1.10   1
  -3   0   1   19.70    0.60   1
   3   0   0   -0.60    0.50   1
  -3   0   0    0.50    0.30   1
   3   0   1   50.20    1.20   1
  -3   0  -1   53.10    1.20   1
   3   0   2    0.10    0.20   1
  -3   0  -2   -0.30    0.50   1
   3   0   3    1.70    0.30   1
  -3   0  -3    1.80    0.60   1
   3   0   4   -0.10    0.40   1
  -3   0  -4   -0.50    0.60   1
   3   0   5  988.80   16.00   1
  -3   0  -5 1026.30   22.60   1
   3   0   6    3.10    0.80   1
  -3   0  -6   -0.30    0.80   1
   3   0   7  187.30    4.50   1
  -3   0  -7  190.90    6.60   1
   3   0   8   -0.10    0.50   1
  -3   0  -8   -0.60    1.10   1
   3   0   9  373.20    7.80   1
  -3   0  -9  385.50   11.50   1
   3   0  10    0.60    1.20   1
  -3   0 -10    0.40    0.50   1
   3   0  11  458.20   11.60   1
  -3   0 -11  436.00   19.20   1
   3   0  12    1.80    1.40   1
  -3   0 -12    2.30    2.50   1
   3   0  13    2.10    2.10   1
  -3   0 -13    3.50    3.00   1
   3   0  14    0.30    1.60   1
  -3   0 -14    0.90    2.80   1
   3   0  15   67.50    3.80   1
  -3   0 -15   58.70    6.30   1
   3   0  16   -2.20    1.80   1
  -3   0 -16   -1.20    3.00   1
   3   0  17   -0.60    1.70   1
  -3   0 -17    5.00    3.70   1
   3   0  18   -1.70    2.20   1
  -3   0 -18    3.30    4.10   1
   3   0  19    5.20    3.30   1
  -3   0 -19    6.20    5.90   1
   3   1 -19   36.70    3.80   1
  -3  -1  19   39.10    4.60   1
   3   1 -18   64.50    4.50   1
  -3  -1  18   71.20    5.40   1
   3   1 -17   36.40    3.40   1
  -3  -1  17   43.10    4.30   1
   3   1 -16    1.00    1.30   1
  -3  -1  16    1.30    2.00   1
   3   1 -15    0.80    1.40   1
  -3  -1  15    2.00    2.00   1
   3   1 -14   25.30    2.00   1
  -3  -1  14   31.90    2.90   1
   3   1 -13   48.20    2.60   1
  -3  -1  13   42.40    3.40   1
   3   1 -12  278.10    7.00   1
  -3  -1  12  285.60    9.30   1
   3   1 -11   15.10    1.90   1
  -3  -1  11   15.20    1.40   1
   3   1 -10    0.10    1.00   1
  -3  -1  10    0.70    0.90   1
   3   1  -9  367.50    8.10   1
  -3  -1   9  380.70    8.80   1
   3   1  -8    3.70    1.30   1
  -3  -1   8    3.10    0.60   1
   3   1  -7  139.60    3.30   1
  -3  -1   7  141.30    3.10   1
   3   1  -6    4.70    0.90   1
  -3  -1   6    5.10    1.30   1
   3   1  -5   13.30    0.80   1
  -3  -1   5   13.90    1.20   1
   3   1  -4  474.90    7.20   1
  -3  -1   4  466.20    8.40   1
   3   1  -3    6.10    0.60   1
  -3  -1   3    6.40    0.60   1
   3   1  -2    0.40    0.40   1
  -3  -1   2    0.80    0.70   1
   3   1  -1   22.90    1.00   1
  -3  -1   1   23.00    0.70   1
   3   1   0  134.20    2.60   1
  -3  -1   0  129.30    2.20   1
   3   1   1   43.30    1.20   1
  -3  -1  -1   41.80    0.90   1
   3   1   2  441.30    6.20   1
  -3  -1  -2  434.40    7.70   1
   3   1   3  590.00    7.70   1
  -3  -1  -3  568.90   11.20   1
   3   1   4   61.20    1.40   1
  -3  -1  -4   70.80    2.60   1
   3   1   5   50.90    1.30   1
  -3  -1  -5   48.50    1.60   1
   3   1   6  194.30    3.60   1
  -3  -1  -6  186.20    5.80   1
   3   1   7  137.40    3.40   1
  -3  -1  -7  140.70    5.10   1
   3   1   8   32.70    1.40   1
  -3  -1  -8   35.00    2.00   1
   3   1   9   19.80    1.00   1
  -3  -1  -9   19.60    1.20   1
   3   1  10   15.50    1.50   1
  -3  -1 -10   20.60    2.80   1
   3   1  11  111.90    4.10   1
  -3  -1 -11  116.70    7.00   1
   3   1  12    3.00    1.80   1
  -3  -1 -12    2.10    3.10   1
   3   1  13  126.60    4.90   1
  -3  -1 -13  132.90    8.60   1
   3   1  14   51.50    3.10   1
  -3  -1 -14   46.30    5.30   1
   3   1  15   39.30    3.30   1
  -3  -1 -15   35.10    5.70   1
   3   1  16   38.10    3.20   1
  -3  -1 -16   49.80    5.40   1
   3   1  17   59.00    3.30   1
  -3  -1 -17   52.40    7.10   1
   3   1  18  106.90    5.20   1
  -3  -1 -18  107.70    7.10   1
   3   1  19    1.20    2.40   1
  -3  -1 -19   -1.00    2.60   1
   3   2 -19    3.20    2.50   1
  -3  -2  19    2.70    4.30   1
   3   2 -18  150.90    7.50   1
  -3  -2  18  129.80    7.80   1
   3   2 -17   61.50    3.50   1
  -3  -2  17   66.00    4.70   1
   3   2 -16   38.80    2.70   1
  -3  -2  16   32.50    3.40   1
   3   2 -15   18.30    2.60   1
  -3  -2  15   24.50    3.10   1
   3   2 -14   77.20    3.70   1
  -3  -2  14   84.40    4.70   1
   3   2 -13   42.90    2.90   1
  -3  -2  13   49.50    3.20   1
   3   2 -12   30.90    2.60   1
  -3  -2  12   29.70    3.40   1
   3   2 -11  103.00    3.90   1
  -3  -2  11  100.90    4.60   1
   3   2 -10   24.60    2.00   1
  -3  -2  10   22.90    2.30   1
   3   2  -9    0.20    1.50   1
  -3  -2   9    0.80    1.50   1
   3   2  -8   73.30    3.10   1
  -3  -2   8   75.80    2.10   1
   3   2  -7   26.20    2.40   1
  -3  -2   7   23.10    2.70   1
   3   2  -6  158.70    3.70   1
  -3  -2   6  170.90    4.30   1
   3   2  -5  132.80    3.10   1
  -3  -2   5  134.80    4.50   1
   3   2  -4   45.80    1.50   1
  -3  -2   4   48.20    1.60   1
   3   2  -3  163.20    3.00   1
  -3  -2   3  163.00    3.50   1
   3   2  -2  119.60    2.00   1
  -3  -2   2  113.90    2.30   1
   3   2  -1   60.00    1.50   1
  -3  -2   1   57.40    1.40   1
   3   2   0  461.90    8.30   1
  -3  -2   0  462.70    8.10   1
   3   2   1  406.00    6.40   1
  -3  -2  -1  389.70    6.90   1
   3   2   2  316.60    4.80   1
  -3  -2  -2  309.00    5.20   1
   3   2   3   69.70    1.40   1
  -3  -2  -3   69.30    2.00   1
   3   2   4  158.50    2.80   1
  -3  -2  -4  160.50    4.00   1
   3   2   5   12.20    0.70   1
  -3  -2  -5   12.70    1.00   1
   3   2   6  248.70    5.50   1
  -3  -2  -6  243.90    7.60   1
   3   2   7  233.00    5.40   1
  -3  -2  -7  237.30    7.70   1
   3   2   8  116.20    2.70   1
  -3  -2  -8  120.30    4.20   1
   3   2   9   11.90    0.60   1
  -3  -2  -9   11.30    3.00   1
   3   2  10    5.30    1.30   1
  -3  -2 -10    3.30    1.90   1
   3   2  11    0.70    1.30   1
  -3  -2 -11    0.50    2.10   1
   3   2  12  283.30    8.30   1
  -3  -2 -12  282.00   13.80   1
   3   2  13    8.10    1.80   1
  -3  -2 -13   11.00    3.00   1
   3   2  14   30.30    2.50   1
  -3  -2 -14   28.00    4.20   1
   3   2  15   72.20    4.30   1
  -3  -2 -15   89.80    7.50   1
   3   2  16   34.10    3.00   1
  -3  -2 -16   39.10    5.20   1
   3   2  17    9.80    2.40   1
  -3  -2 -17    5.40    1.90   1
   3   2  18   14.40    2.70   1
  -3  -2 -18   16.30    3.20   1
   3   2  19   -2.30    1.90   1
  -3  -2 -19    0.20    2.40   1
   3   3 -19    4.70    2.60   1
  -3  -3  19    5.40    4.80   1
   3   3 -18    8.00    2.70   1
  -3  -3  18   16.80    6.70   1
   3   3 -17    7.20    2.60   1
  -3  -3  17    4.30    4.30   1
   3   3 -16   19.10    2.70   1
  -3  -3  16   12.70    3.00   1
   3   3 -15    5.20    2.50   1
  -3  -3  15    3.80    1.90   1
   3   3 -14   14.00    2.30   1
  -3  -3  14   11.70    2.20   1
   3   3 -13   10.70    2.10   1
  -3  -3  13   10.80    2.00   1
   3   3 -12  210.30    7.00   1
  -3  -3  12  233.60    6.90   1
   3   3 -11    5.80    3.10   1
  -3  -3  11    5.90    1.00   1
   3   3 -10    9.10    1.80   1
  -3  -3  10   10.70    1.00   1
   3   3  -9   84.40    3.50   1
  -3  -3   9   91.70    3.10   1
   3   3  -8  465.20   11.10   1
  -3  -3   8  479.10   13.30   1
   3   3  -7   55.30    2.80   1
  -3  -3   7   55.20    1.80   1
   3   3  -6   54.80    3.80   1
  -3  -3   6   50.40    2.10   1
   3   3  -5    2.40    1.20   1
  -3  -3   5    2.40    0.60   1
   3   3  -4  278.90    6.40   1
  -3  -3   4  280.40    6.50   1
   3   3  -3   22.60    1.20   1
  -3  -3   3   22.40    1.00   1
   3   3  -2  690.80    9.60   1
  -3  -3   2  683.90   11.80   1
   3   3  -1   15.00    0.80   1
  -3  -3   1   13.20    0.80   1
   3   3   0   71.60    1.70   1
  -3  -3   0   68.60    1.70   1
   3   3   1    1.70    0.50   1
  -3  -3  -1    2.40    0.50   1
   3   3   2  128.30    2.60   1
  -3  -3  -2  125.10    2.50   1
   3   3   3    1.30    0.60   1
  -3  -3  -3    2.20    0.40   1
   3   3   4   70.00    1.80   1
  -3  -3  -4   68.70    1.90   1
   3   3   5    4.50    0.70   1
  -3  -3  -5    4.90    0.70   1
   3   3   6  885.40   15.20   1
  -3  -3  -6  892.70   18.80   1
   3   3   7   43.20    1.50   1
  -3  -3  -7   45.00    1.80   1
   3   3   8  137.60    4.20   1
  -3  -3  -8  150.20    4.50   1
   3   3   9   67.00    2.10   1
  -3  -3  -9   72.90    3.40   1
   3   3  10   44.30    2.20   1
  -3  -3 -10   38.50    2.30   1
   3   3  11    1.90    1.20   1
  -3  -3 -11    2.90    1.70   1
   3   3  12  191.50    6.40   1
  -3  -3 -12  189.00    7.90   1
   3   3  13   13.60    1.90   1
  -3  -3 -13    9.30    1.90   1
   3   3  14    5.40    1.70   1
  -3  -3 -14    6.20    1.90   1
   3   3  15   46.50    3.30   1
  -3  -3 -15   44.90    2.90   1
   3   3  16  109.70    5.70   1
  -3  -3 -16  104.90    5.30   1
   3   3  17    2.00    2.20   1
  -3  -3 -17    1.50    1.90   1
   3   3  18   31.60    2.90   1
  -3  -3 -18   31.90    3.00   1
   3   3  19    1.20    2.80   1
  -3  -3 -19    3.30    3.30   1
   3   4 -18   71.00    6.40   1
  -3  -4  18   59.80    7.80   1
   3   4 -17   29.90    3.60   1
  -3  -4  17   36.70    7.40   1
   3   4 -16   -1.00    2.30   1
  -3  -4  16   -2.20    3.20   1
   3   4 -15  123.10    6.00   1
  -3  -4  15  121.20    6.40   1
   3   4 -14   26.80    2.90   1
  -3  -4  14   20.50    2.70   1
   3   4 -13   61.10    3.60   1
  -3  -4  13   68.20    4.00   1
   3   4 -12    5.40    2.30   1
  -3  -4  12    7.10    1.40   1
   3   4 -11   51.80    3.10   1
  -3  -4  11   51.80    2.50   1
   3   4 -10  105.10    4.20   1
  -3  -4  10  103.90    3.30   1
   3   4  -9   38.90    2.70   1
  -3  -4   9   44.80    2.20   1
   3   4  -8   36.20    2.40   1
  -3  -4   8   36.60    1.80   1
   3   4  -7    5.40    1.70   1
  -3  -4   7    4.40    0.70   1
   3   4  -6  218.40    6.10   1
  -3  -4   6  212.30    4.40   1
   3   4  -5    0.60    1.30   1
  -3  -4   5    0.70    0.70   1
   3   4  -4  169.50    4.30   1
  -3  -4   4  166.20    4.30   1
   3   4  -3  521.60    9.90   1
  -3  -4   3  505.70   10.90   1
   3   4  -2    3.80    0.40   1
  -3  -4   2    2.30    0.60   1
   3   4  -1  276.20    4.30   1
  -3  -4   1  270.80    6.00   1
   3   4   0    0.90    0.50   1
  -3  -4   0    2.20    0.70   1
   3   4   1  108.50    2.60   1
  -3  -4  -1  120.50    2.90   1
   3   4   2  102.20    2.30   1
  -3  -4  -2  103.10    2.40   1
   3   4   3    7.90    0.70   1
  -3  -4  -3    9.40    0.70   1
   3   4   4    1.30    0.60   1
  -3  -4  -4   -0.40    0.60   1
   3   4   5    4.70    0.70   1
  -3  -4  -5    4.50    0.60   1
   3   4   6   20.90    1.30   1
  -3  -4  -6   24.60    1.80   1
   3   4   7  146.60    3.50   1
  -3  -4  -7  143.40    3.90   1
   3   4   8   55.90    1.80   1
  -3  -4  -8   56.40    2.60   1
   3   4   9  162.00    4.30   1
  -3  -4  -9  163.50    5.90   1
   3   4  10   45.90    3.00   1
  -3  -4 -10   45.30    3.10   1
   3   4  11   -0.80    1.50   1
  -3  -4 -11    3.80    1.50   1
   3   4  12  295.80    9.10   1
  -3  -4 -12  306.00    8.90   1
   3   4  13    0.80    1.40   1
  -3  -4 -13    1.20    1.30   1
   3   4  14    2.30    1.70   1
  -3  -4 -14    2.20    1.40   1
   3   4  15   90.80    4.80   1
  -3  -4 -15   87.50    4.70   1
   3   4  16    1.30    2.10   1
  -3  -4 -16    0.40    1.90   1
   3   4  17   42.80    3.70   1
  -3  -4 -17   45.50    3.50   1
   3   4  18   20.70    2.50   1
  -3  -4 -18   18.60    2.80   1
   3   5 -18   15.50    4.00   1
  -3  -5  18   11.70    5.40   1
   3   5 -17   -4.30    2.60   1
  -3  -5  17   -4.00    4.10   1
   3   5 -16   15.30    2.80   1
  -3  -5  16   13.90    5.00   1
   3   5 -15   23.50    3.10   1
  -3  -5  15   20.60    4.80   1
   3   5 -14    5.60    2.30   1
  -3  -5  14   -0.40    1.60   1
   3   5 -13  118.60    5.20   1
  -3  -5  13  117.60    6.00   1
   3   5 -12   36.20    2.90   1
  -3  -5  12   33.40    2.80   1
   3   5 -11   61.70    3.40   1
  -3  -5  11   63.40    2.90   1
   3   5 -10   25.60    2.30   1
  -3  -5  10   25.80    1.60   1
   3   5  -9  169.70    5.70   1
  -3  -5   9  165.60    5.10   1
   3   5  -8   33.70    2.50   1
  -3  -5   8   35.10    1.50   1
   3   5  -7   53.00    2.80   1
  -3  -5   7   53.70    2.70   1
   3   5  -6  113.10    4.00   1
  -3  -5   6  117.60    3.60   1
   3   5  -5   17.00    2.10   1
  -3  -5   5   15.00    0.90   1
   3   5  -4   92.80    3.30   1
  -3  -5   4   87.80    2.70   1
   3   5  -3   63.60    2.10   1
  -3  -5   3   61.90    2.50   1
   3   5  -2    8.90    0.80   1
  -3  -5   2    8.60    1.30   1
   3   5  -1   11.60    0.70   1
  -3  -5   1   10.80    1.00   1
   3   5   0  123.30    2.60   1
  -3  -5   0  121.20    2.80   1
   3   5   1  245.40    5.00   1
  -3  -5  -1  233.90    5.30   1
   3   5   2  263.40    5.20   1
  -3  -5  -2  261.90    4.90   1
   3   5   3 1203.00   21.70   1
  -3  -5  -3 1184.00   17.70   1
   3   5   4    3.30    0.80   1
  -3  -5  -4    4.00    0.50   1
   3   5   5  129.90    2.90   1
  -3  -5  -5  127.40    2.80   1
   3   5   6   10.80    0.90   1
  -3  -5  -6   12.80    0.90   1
   3   5   7   -0.20    0.90   1
  -3  -5  -7    1.50    1.10   1
   3   5   8   72.40    2.20   1
  -3  -5  -8   76.90    2.90   1
   3   5   9    0.70    0.70   1
  -3  -5  -9    0.60    1.30   1
   3   5  10   35.40    2.20   1
  -3  -5 -10   34.80    2.30   1
   3   5  11  101.70    4.00   1
  -3  -5 -11   95.30    4.00   1
   3   5  12    0.80    1.40   1
  -3  -5 -12   -0.10    1.30   1
   3   5  13   21.30    2.20   1
  -3  -5 -13   17.20    2.10   1
   3   5  14   10.20    2.00   1
  -3  -5 -14   13.90    1.90   1
   3   5  15   33.30    3.00   1
  -3  -5 -15   30.00    2.60   1
   3   5  16    2.70    2.50   1
  -3  -5 -16    5.50    2.10   1
   3   5  17   65.40    7.60   1
  -3  -5 -17   71.80    5.80   1
   3   5  18   -4.20    3.60   1
  -3  -5 -18    4.40    2.70   1
   3   6 -17   45.80    4.50   1
  -3  -6  17   46.60    7.10   1
   3   6 -16   -0.90    2.80   1
  -3  -6  16    1.60    5.80   1
   3   6 -15    5.10    2.40   1
  -3  -6  15    5.70    4.20   1
   3   6 -14    6.50    2.40   1
  -3  -6  14   12.00    3.90   1
   3   6 -13  112.60    5.80   1
  -3  -6  13  128.20    9.50   1
   3   6 -12  103.90    5.00   1
  -3  -6  12   92.30    8.20   1
   3   6 -11    1.70    2.30   1
  -3  -6  11    6.10    3.70   1
   3   6 -10   57.80    3.70   1
  -3  -6  10   61.00    3.70   1
   3   6  -9   20.70    2.40   1
  -3  -6   9   21.60    2.00   1
   3   6  -8    0.10    1.50   1
  -3  -6   8    0.90    0.80   1
   3   6  -7  142.10    6.20   1
  -3  -6   7  136.50    4.60   1
   3   6  -6  252.20    7.40   1
  -3  -6   6  259.60    6.80   1
   3   6  -5   24.90    2.10   1
  -3  -6   5   24.50    1.40   1
   3   6  -4   48.20    2.10   1
  -3  -6   4   43.50    1.90   1
   3   6  -3  479.90    9.00   1
  -3  -6   3  451.90   10.70   1
   3   6  -2    1.80    0.70   1
  -3  -6   2    2.50    0.90   1
   3   6  -1    7.70    0.90   1
  -3  -6   1   12.30    1.30   1
   3   6   0    0.70    0.50   1
  -3  -6   0   -0.10    0.70   1
   3   6   1  108.50    2.80   1
  -3  -6  -1  109.60    2.70   1
   3   6   2    3.20    0.90   1
  -3  -6  -2    2.80    0.60   1
   3   6   3   13.00    2.10   1
  -3  -6  -3   13.30    1.00   1
   3   6   4    9.80    0.80   1
  -3  -6  -4   10.00    0.70   1
   3   6   5   84.70    2.60   1
  -3  -6  -5   80.60    2.40   1
   3   6   6    1.80    0.90   1
  -3  -6  -6    2.50    1.00   1
   3   6   7  159.90    4.30   1
  -3  -6  -7  156.40    4.80   1
   3   6   8    0.10    0.80   1
  -3  -6  -8   -0.90    1.00   1
   3   6   9   67.70    2.50   1
  -3  -6  -9   68.40    3.00   1
   3   6  10  135.50    4.90   1
  -3  -6 -10  139.80    4.90   1
   3   6  11  180.90    6.70   1
  -3  -6 -11  175.80    6.50   1
   3   6  12  120.90    5.00   1
  -3  -6 -12  126.90    5.00   1
   3   6  13    4.40    1.90   1
  -3  -6 -13    2.30    1.60   1
   3   6  14   17.10    2.70   1
  -3  -6 -14   19.00    3.40   1
   3   6  15   35.90    5.40   1
  -3  -6 -15   32.60    3.90   1
   3   6  16   36.00    7.30   1
  -3  -6 -16   42.40    4.70   1
   3   6  17   -2.80    4.50   1
  -3  -6 -17   -1.10    2.50   1
   3   7 -16    1.80    2.60   1
  -3  -7  16   -2.20    3.80   1
   3   7 -15    8.00    2.70   1
  -3  -7  15   10.70    4.40   1
   3   7 -14   37.30    3.60   1
  -3  -7  14   41.60    6.40   1
   3   7 -13   -0.70    2.60   1
  -3  -7  13    0.70    5.00   1
   3   7 -12  101.00    5.50   1
  -3  -7  12  102.20    9.00   1
   3   7 -11    0.30    2.00   1
  -3  -7  11    2.00    3.10   1
   3   7 -10   37.10    4.10   1
  -3  -7  10   41.70    3.60   1
   3   7  -9   83.10    4.40   1
  -3  -7   9   76.80    3.40   1
   3   7  -8    9.30    2.00   1
  -3  -7   8   13.20    1.60   1
   3   7  -7   81.50    3.90   1
  -3  -7   7   92.40    4.10   1
   3   7  -6  104.60    4.40   1
  -3  -7   6  107.00    4.00   1
   3   7  -5    4.50    1.40   1
  -3  -7   5    5.90    1.00   1
   3   7  -4   53.60    3.10   1
  -3  -7   4   49.40    2.30   1
   3   7  -3   71.70    2.70   1
  -3  -7   3   74.90    2.90   1
   3   7  -2   15.30    1.10   1
  -3  -7   2   13.60    1.40   1
   3   7  -1   42.30    1.80   1
  -3  -7   1   45.90    2.10   1
   3   7   0  165.70    4.60   1
  -3  -7   0  165.90    5.10   1
   3   7   1    3.10    0.90   1
  -3  -7  -1    3.60    0.90   1
   3   7   2   25.30    1.90   1
  -3  -7  -2   25.60    1.40   1
   3   7   3    3.10    1.20   1
  -3  -7  -3    5.80    1.20   1
   3   7   4   56.10    2.70   1
  -3  -7  -4   61.60    2.70   1
   3   7   5    0.50    0.70   1
  -3  -7  -5    0.60    0.70   1
   3   7   6  154.90    4.40   1
  -3  -7  -6  147.00    6.20   1
   3   7   7  124.20    3.50   1
  -3  -7  -7  122.90    4.30   1
   3   7   8  105.70    3.60   1
  -3  -7  -8   96.60    4.00   1
   3   7   9   20.90    1.80   1
  -3  -7  -9   20.10    1.80   1
   3   7  10    5.90    1.40   1
  -3  -7 -10    7.50    1.50   1
   3   7  11    8.70    2.10   1
  -3  -7 -11    9.30    2.10   1
   3   7  12    4.40    3.50   1
  -3  -7 -12    5.90    1.90   1
   3   7  13  130.40   10.70   1
  -3  -7 -13  109.30    6.60   1
   3   7  14   14.20    5.40   1
  -3  -7 -14    2.50    2.20   1
   3   7  15    7.00    3.90   1
  -3  -7 -15    2.80    2.70   1
   3   7  16   19.10    5.40   1
  -3  -7 -16   20.70    3.60   1
   3   8 -15   53.10    4.50   1
  -3  -8  15   53.20    5.50   1
   3   8 -14   52.60    4.70   1
  -3  -8  14   54.30    5.10   1
   3   8 -13    0.50    2.50   1
  -3  -8  13    0.20    2.60   1
   3   8 -12    3.10    2.30   1
  -3  -8  12    2.30    2.50   1
   3   8 -11    4.20    2.40   1
  -3  -8  11    1.60    2.30   1
   3   8 -10    1.90    1.90   1
  -3  -8  10    2.00    2.10   1
   3   8  -9   39.80    3.10   1
  -3  -8   9   43.80    4.00   1
   3   8  -8   44.90    3.30   1
  -3  -8   8   37.80    2.40   1
   3   8  -7   42.40    3.10   1
  -3  -8   7   45.10    2.70   1
   3   8  -6   40.50    2.80   1
  -3  -8   6   42.80    2.70   1
   3   8  -5   59.40    4.10   1
  -3  -8   5   63.20    2.80   1
   3   8  -4   13.30    1.80   1
  -3  -8   4   11.80    1.40   1
   3   8  -3    1.70    1.20   1
  -3  -8   3    5.00    1.30   1
   3   8  -2   88.00    3.30   1
  -3  -8   2   85.80    3.30   1
   3   8  -1  110.80    4.20   1
  -3  -8   1  106.20    4.40   1
   3   8   0  351.00    9.50   1
  -3  -8   0  372.50    9.80   1
   3   8   1   42.20    2.40   1
  -3  -8  -1   40.10    2.20   1
   3   8   2  220.00    6.40   1
  -3  -8  -2  207.90    6.30   1
   3   8   3   56.90    2.90   1
  -3  -8  -3   62.90    2.80   1
   3   8   4   80.60    4.50   1
  -3  -8  -4   77.90    3.40   1
   3   8   5   17.20    1.30   1
  -3  -8  -5   19.20    1.90   1
   3   8   6  169.70    5.40   1
  -3  -8  -6  153.70    6.10   1
   3   8   7    9.90    1.30   1
  -3  -8  -7    7.10    1.90   1
   3   8   8   33.60    3.10   1
  -3  -8  -8   34.10    3.00   1
   3   8   9   79.10    7.10   1
  -3  -8  -9   87.60    5.10   1
   3   8  10   -0.50    3.10   1
  -3  -8 -10   -2.00    1.50   1
   3   8  11   28.70    5.10   1
  -3  -8 -11   28.50    3.10   1
   3   8  12   72.10    7.40   1
  -3  -8 -12   67.50    5.00   1
   3   8  13    0.80    5.60   1
  -3  -8 -13    3.60    2.40   1
   3   8  14   46.50    6.70   1
  -3  -8 -14   39.90    4.10   1
   3   8  15    3.00    4.00   1
  -3  -8 -15   10.20    5.20   1
   3   9 -14    4.50    2.90   1
  -3  -9  14    0.20    2.80   1
   3   9 -13   18.70    3.30   1
  -3  -9  13   21.90    3.50   1
   3   9 -12   73.10    5.10   1
  -3  -9  12   68.20    5.50   1
   3   9 -11   17.50    2.90   1
  -3  -9  11   15.00    4.00   1
   3   9 -10    7.90    3.00   1
  -3  -9  10   -1.20    2.40   1
   3   9  -9  161.50    7.10   1
  -3  -9   9  169.80    8.50   1
   3   9  -8   61.40    3.80   1
  -3  -9   8   61.50    4.10   1
   3   9  -7  203.00    7.50   1
  -3  -9   7  189.10    6.50   1
   3   9  -6   -0.50    1.50   1
  -3  -9   6    2.60    1.50   1
   3   9  -5    5.90    2.10   1
  -3  -9   5    3.60    2.00   1
   3   9  -4   74.90    4.60   1
  -3  -9   4   79.70    4.50   1
   3   9  -3   30.00    1.90   1
  -3  -9   3   26.30    1.90   1
   3   9  -2   15.30    2.20   1
  -3  -9   2   16.90    1.70   1
   3   9  -1    3.30    1.20   1
  -3  -9   1    3.90    1.10   1
   3   9   0    2.80    1.10   1
  -3  -9   0    2.50    1.20   1
   3   9   1   12.60    1.50   1
  -3  -9  -1   11.50    1.50   1
   3   9   2  173.40    6.50   1
  -3  -9  -2  175.00    6.40   1
   3   9   3   44.50    5.60   1
  -3  -9  -3   49.60    3.50   1
  -3  -9  -4   17.00    2.60   1
   3   9   5   37.60    3.60   1
  -3  -9  -5   37.50    5.00   1
   3   9   6   62.90    4.50   1
  -3  -9  -6   65.90    6.70   1
   3   9   7   21.30    3.10   1
  -3  -9  -7   11.20    4.10   1
   3   9   8   -0.20    2.60   1
  -3  -9  -8   -1.80    3.10   1
   3   9   9  114.30    9.40   1
  -3  -9  -9  112.50    6.30   1
   3   9  10    0.20    3.50   1
  -3  -9 -10    5.20    2.50   1
   3   9  11    5.00    3.70   1
  -3  -9 -11    0.30    3.80   1
   3   9  12    7.90    5.60   1
  -3  -9 -12    0.70    5.20   1
   3   9  13   33.20    6.50   1
  -3  -9 -13   37.80    6.90   1
   3   9  14    1.60    4.50   1
   3  10 -12    1.60    2.40   1
  -3 -10  12    3.10    2.70   1
   3  10 -11   15.90    3.40   1
  -3 -10  11   18.60    3.40   1
   3  10 -10   13.50    2.80   1
  -3 -10  10   12.80    3.00   1
   3  10  -9    7.10    2.50   1
  -3 -10   9    9.90    2.90   1
   3  10  -8   -1.30    1.90   1
  -3 -10   8    0.40    2.20   1
   3  10  -7    1.20    2.00   1
  -3 -10   7    3.40    2.60   1
   3  10  -6    1.40    2.00   1
  -3 -10   6    7.70    2.00   1
   3  10  -5  149.00    6.80   1
  -3 -10   5  138.80    7.40   1
   3  10  -4   62.70    3.10   1
  -3 -10   4   57.70    3.90   1
   3  10  -3   83.50    4.30   1
  -3 -10   3   98.90    4.70   1
   3  10  -2    3.80    1.80   1
  -3 -10   2    1.50    2.50   1
   3  10  -1   61.80    7.50   1
  -3 -10   1   69.00    4.50   1
   3  10   0   29.90    5.90   1
  -3 -10   0   47.40    3.80   1
   3  10   1   11.90    6.70   1
  -3 -10  -1    4.10    1.90   1
  -3 -10  -2    2.80    2.30   1
   3  10   3   31.50    6.10   1
  -3 -10  -3   40.40    3.90   1
   3  10   4   15.30    3.70   1
  -3 -10  -4   13.70    2.90   1
   3  10   5    6.70    2.80   1
  -3 -10  -5    3.00    3.50   1
   3  10   6   51.90    4.50   1
  -3 -10  -6   50.40    5.90   1
   3  10   7    3.20    4.50   1
  -3 -10  -7    2.10    3.40   1
   3  10   8   23.20    4.60   1
  -3 -10  -8   30.90    6.60   1
   3  10   9  191.60   15.00   1
  -3 -10  -9  189.40   16.00   1
   3  10  10    3.20    3.80   1
  -3 -10 -10    6.00    6.00   1
   3  10  11   40.60    6.60   1
  -3 -10 -11   46.50    8.20   1
   3  10  12    2.20    5.70   1
   3  11 -10   15.90    4.00   1
  -3 -11  10   17.40    4.30   1
   3  11  -9    5.00    3.10   1
  -3 -11   9    9.50    4.10   1
   3  11  -8   35.30    8.40   1
  -3 -11   8   29.10    6.20   1
   3  11  -7   17.40    6.70   1
  -3 -11   7   12.60    5.20   1
   3  11  -6   61.40    9.50   1
  -3 -11   6   62.70    6.90   1
   3  11  -5   18.20    8.10   1
  -3 -11   5    7.00    3.50   1
   3  11  -4    2.30    5.60   1
  -3 -11   4    7.40    3.30   1
   3  11  -3   13.70    6.30   1
  -3 -11   3   16.80    5.20   1
   3  11  -2   28.30    8.60   1
  -3 -11   2   23.00    4.40   1
   3  11  -1   14.10    7.70   1
  -3 -11   1    2.10    2.40   1
   3  11   0   89.90   11.30   1
  -3 -11   0   84.20    5.60   1
   3  11   1   47.00    7.70   1
  -3 -11  -1   48.30    3.90   1
   3  11   2    6.60    5.00   1
  -3 -11  -2    3.80    2.60   1
   3  11   3  131.20   13.30   1
  -3 -11  -3  113.00    6.80   1
   3  11   4   81.90    6.30   1
  -3 -11  -4   79.70    5.60   1
   3  11   5   55.10    5.60   1
  -3 -11  -5   44.60    6.20   1
   3  11   6    4.40    3.50   1
  -3 -11  -6    2.30    4.20   1
   3  11   7    0.60    3.30   1
  -3 -11  -7    0.00    3.90   1
   3  11   8   11.20    4.20   1
  -3 -11  -8   18.30    5.10   1
   3  11   9   -0.50    5.40   1
  -3 -11  -9    2.00    4.30   1
   3  11  10   20.00    5.50   1
   3  12  -6  110.00   13.60   1
  -3 -12   6  108.70   10.90   1
   3  12  -5   13.30    6.70   1
  -3 -12   5    3.60    3.70   1
   3  12  -4   42.10   11.20   1
  -3 -12   4   35.30    5.70   1
   3  12  -3    2.40    6.20   1
  -3 -12   3    2.90    3.00   1
   3  12  -2    7.70    6.10   1
  -3 -12   2    6.70    3.80   1
   3  12  -1   20.00    6.60   1
  -3 -12   1   32.00    5.00   1
   3  12   0   19.10    6.60   1
  -3 -12   0   40.90    7.10   1
   3  12   1   50.60    8.50   1
  -3 -12  -1   53.20    4.60   1
   3  12   2   22.20    8.70   1
  -3 -12  -2   25.90    3.70   1
   3  12   3    4.30    3.00   1
  -3 -12  -3    4.30    3.10   1
   3  12   4    2.70    3.10   1
  -3 -12  -4    4.10    4.50   1
   3  12   5   17.80    6.00   1
  -3 -12  -5   11.60    4.70   1
   3  12   6   12.50    4.50   1
  -3 -12  -6   12.30    5.20   1
   3  12   7   32.60    5.70   1
  -4  12   4   31.60    4.60   1
   4 -12  -3  138.10    8.90   1
  -4  12   3  140.80    9.70   1
   4 -12  -2   12.00    3.50   1
  -4  12   2   17.60    3.80   1
   4 -12  -1   20.00    3.80   1
  -4  12   1   15.90    7.50   1
   4 -12   0    9.30    4.20   1
  -4  12   0    0.90    2.80   1
   4 -12   1   11.00    4.70   1
  -4  12  -1   16.10    4.10   1
   4 -12   2    4.40    4.10   1
  -4  12  -3   22.30    5.30   1
  -4  12  -4   -1.10    4.10   1
   4 -11  -8   43.20    7.80   1
  -4  11   8   47.40    5.20   1
   4 -11  -7    5.40    4.50   1
  -4  11   7    7.70    3.70   1
   4 -11  -6   18.70    5.10   1
  -4  11   6    8.70    3.00   1
   4 -11  -5    0.20    2.40   1
  -4  11   5   -8.40    3.70   1
   4 -11  -4    0.00    2.50   1
  -4  11   4   -3.30    3.60   1
   4 -11  -3   41.10    4.50   1
  -4  11   3   30.50    5.90   1
   4 -11  -2   46.80    5.50   1
   4 -11  -1   -0.50    2.50   1
  -4  11   1   -1.80    3.20   1
   4 -11   0   23.00    3.60   1
  -4  11   0   29.90    5.20   1
   4 -11   1    5.30    2.30   1
  -4  11  -1   14.40    4.40   1
   4 -11   2   15.00    2.60   1
  -4  11  -2   15.80    3.40   1
   4 -11   3    5.50    2.10   1
  -4  11  -3    5.10    2.90   1
   4 -11   4   24.90    3.30   1
  -4  11  -4   29.70    4.40   1
   4 -11   5   17.30    4.30   1
  -4  11  -5   -1.20    4.10   1
   4 -11   6   66.90    8.20   1
  -4  11  -6   63.20    7.90   1
   4 -11   7    4.30    4.10   1
  -4  11  -7    5.00    3.20   1
  -4  11  -8   43.40    8.30   1
   4 -10 -11   -1.90    3.90   1
  -4  10  11   11.00    5.40   1
   4 -10 -10    6.40    5.70   1
  -4  10  10   -2.20    4.50   1
   4 -10  -9   10.90    4.00   1
  -4  10   9   15.50    3.60   1
   4 -10  -8   38.20    6.00   1
  -4  10   8   44.50    4.70   1
   4 -10  -7    8.60    5.40   1
  -4  10   7    8.40    2.80   1
   4 -10  -6   21.80    3.70   1
  -4  10   6   21.70    5.50   1
   4 -10  -5    1.50    2.70   1
  -4  10   5    4.40    2.40   1
   4 -10  -4   31.60    3.80   1
  -4  10   4   32.40    3.50   1
   4 -10  -3   45.00    3.90   1
  -4  10   3   46.60    5.90   1
   4 -10  -2   43.70    4.10   1
  -4  10   2   42.40    6.20   1
   4 -10  -1   59.20    5.00   1
  -4  10   1   48.30    6.20   1
   4 -10   0  103.00    6.40   1
  -4  10   0  113.00    9.20   1
   4 -10   1    3.80    2.00   1
  -4  10  -1   -0.50    2.80   1
   4 -10   2   29.40    2.60   1
  -4  10  -2   37.00    5.20   1
   4 -10   3   18.60    2.40   1
  -4  10  -3   19.20    4.30   1
   4 -10   4   25.30    2.80   1
  -4  10  -4   28.30    4.50   1
   4 -10   5  132.80    6.20   1
  -4  10  -5  143.60   11.40   1
   4 -10   6   65.50    4.90   1
  -4  10  -6   83.40    8.70   1
   4 -10   7    8.30    3.10   1
  -4  10  -7   -2.60    5.50   1
   4 -10   8   33.30    6.00   1
  -4  10  -8   43.10    4.80   1
   4 -10   9   -6.60    3.20   1
  -4  10  -9   -4.20    4.00   1
   4 -10  10   10.70    6.10   1
  -4  10 -10    8.20    6.30   1
  -4   9  13   -2.80    4.70   1
   4  -9 -12  189.90   10.60   1
  -4   9  12  200.30   17.30   1
   4  -9 -11   63.70    6.10   1
  -4   9  11   76.30    6.30   1
   4  -9 -10    2.30    2.50   1
  -4   9  10   -1.20    2.60   1
   4  -9  -9   34.70    6.00   1
  -4   9   9   20.00    6.00   1
   4  -9  -8    2.70    3.60   1
  -4   9   8    0.80    3.20   1
   4  -9  -7   55.50    6.70   1
  -4   9   7   70.50    5.20   1
   4  -9  -6   -0.10    2.20   1
  -4   9   6    2.10    2.40   1
   4  -9  -5    3.50    2.10   1
  -4   9   5    5.70    2.60   1
   4  -9  -4  133.40    7.10   1
   4  -9  -3    1.10    2.40   1
  -4   9   3    3.70    1.80   1
   4  -9  -2    9.10    2.70   1
  -4   9   2    9.10    2.30   1
   4  -9  -1   38.80    3.40   1
  -4   9   1   37.30    4.40   1
   4  -9   0   20.40    2.00   1
  -4   9   0   24.40    2.40   1
   4  -9   1   13.90    2.00   1
  -4   9  -1   14.00    3.40   1
   4  -9   2  163.70    6.30   1
  -4   9  -2  180.10   11.50   1
   4  -9   3   24.70    2.00   1
  -4   9  -3   20.80    2.50   1
   4  -9   4   11.10    1.40   1
  -4   9  -4    8.00    2.00   1
   4  -9   5   16.30    1.50   1
  -4   9  -5   12.60    2.50   1
   4  -9   6  102.30    3.80   1
  -4   9  -6   89.40    5.60   1
   4  -9   7   15.30    1.70   1
  -4   9  -7   14.70    2.30   1
   4  -9   8   11.90    1.80   1
  -4   9  -8    9.10    2.20   1
   4  -9   9    4.10    1.60   1
  -4   9  -9    1.30    3.10   1
   4  -9  10    4.60    2.10   1
  -4   9 -10    0.80    2.30   1
   4  -9  11   -0.40    2.40   1
  -4   9 -11    3.10    2.80   1
   4  -9  12   15.40    3.00   1
  -4   9 -12   13.10    3.10   1
   4  -8 -14    7.10    4.70   1
  -4   8  14   14.30    5.50   1
   4  -8 -13   26.70    3.50   1
  -4   8  13   22.40    5.70   1
   4  -8 -12    4.10    2.60   1
  -4   8  12    0.60    2.70   1
   4  -8 -11   10.50    3.40   1
  -4   8  11    7.50    3.00   1
   4  -8 -10   42.70    4.10   1
  -4   8  10   43.40    4.30   1
   4  -8  -9    2.40    2.80   1
  -4   8   9    3.80    2.70   1
   4  -8  -8   13.30    2.60   1
  -4   8   8   25.20    3.30   1
   4  -8  -7   18.70    4.00   1
  -4   8   7   22.60    2.90   1
   4  -8  -6    4.70    3.00   1
  -4   8   6    8.90    2.50   1
   4  -8  -5  243.70    9.40   1
  -4   8   5  245.50   10.10   1
   4  -8  -4   17.40    2.50   1
  -4   8   4   19.90    2.80   1
   4  -8  -3  222.10    9.40   1
  -4   8   3  215.00    9.20   1
   4  -8  -2   12.90    1.40   1
  -4   8   2   12.40    1.50   1
   4  -8  -1   33.20    1.80   1
  -4   8   1   31.00    2.10   1
   4  -8   0   16.70    1.20   1
  -4   8   0   16.40    1.40   1
   4  -8   1   44.30    1.90   1
  -4   8  -1   39.40    2.30   1
   4  -8   2   -0.20    0.90   1
  -4   8  -2    1.40    0.80   1
   4  -8   3    4.50    1.20   1
  -4   8  -3    3.50    1.50   1
   4  -8   4    1.00    1.00   1
  -4   8  -4    3.90    1.60   1
   4  -8   5   18.00    1.50   1
  -4   8  -5   15.80    2.30   1
   4  -8   6   11.70    1.30   1
  -4   8  -6   16.10    3.30   1
   4  -8   7    4.60    1.20   1
  -4   8  -7    5.20    2.70   1
   4  -8   8    2.40    1.20   1
  -4   8  -8   -1.20    2.10   1
   4  -8   9  243.40    7.60   1
  -4   8  -9  251.80   11.50   1
   4  -8  10    0.20    1.70   1
  -4   8 -10    0.80    4.60   1
   4  -8  11  125.50    5.50   1
  -4   8 -11  120.50    7.80   1
   4  -8  12   15.20    3.20   1
  -4   8 -12   18.60    3.70   1
   4  -8  13   25.90    3.30   1
  -4   8 -13   18.70    3.90   1
   4  -8  14   -0.10    3.20   1
  -4   8 -14    2.40    5.70   1
   4  -7 -15   16.70    5.40   1
  -4   7  15   21.20    5.70   1
   4  -7 -14   60.10    7.40   1
  -4   7  14   52.80    7.60   1
   4  -7 -13   11.50    2.70   1
  -4   7  13    7.20    4.00   1
   4  -7 -12   17.10    2.80   1
  -4   7  12   20.40    4.60   1
   4  -7 -11   33.00    3.90   1
  -4   7  11   27.40    5.10   1
   4  -7 -10   25.30    3.10   1
  -4   7  10   35.20    5.40   1
   4  -7  -9  167.00    7.90   1
  -4   7   9  164.00   11.20   1
   4  -7  -8   55.60    3.70   1
  -4   7   8   62.50    6.30   1
   4  -7  -7   49.50    3.90   1
  -4   7   7   47.70    3.50   1
   4  -7  -6    5.80    0.90   1
  -4   7   6    4.20    1.10   1
   4  -7  -5    4.10    0.80   1
  -4   7   5    1.30    1.10   1
   4  -7  -4   -0.70    0.70   1
  -4   7   4   -0.60    1.00   1
   4  -7  -3    7.40    0.90   1
  -4   7   3    6.00    1.00   1
   4  -7  -2  104.20    3.20   1
  -4   7   2   97.60    4.40   1
   4  -7  -1    1.80    0.90   1
  -4   7   1   -0.10    1.30   1
   4  -7   0   71.20    2.40   1
  -4   7   0   64.90    3.40   1
   4  -7   1   72.10    2.50   1
  -4   7  -1   63.50    3.50   1
   4  -7   2   27.10    1.40   1
  -4   7  -2   29.60    2.00   1
   4  -7   3  274.80    6.90   1
  -4   7  -3  285.30   10.20   1
   4  -7   4  286.90    6.50   1
  -4   7  -4  270.10   10.30   1
   4  -7   5  105.80    3.20   1
  -4   7  -5  107.20    5.30   1
   4  -7   6   17.30    1.40   1
  -4   7  -6   17.60    2.70   1
   4  -7   7   16.60    1.40   1
  -4   7  -7   18.40    2.50   1
   4  -7   8    4.80    1.20   1
  -4   7  -8    0.60    2.50   1
   4  -7   9    1.70    1.30   1
  -4   7  -9    7.60    2.50   1
   4  -7  10   60.70    3.10   1
  -4   7 -10   55.80    4.30   1
   4  -7  11    4.80    1.50   1
  -4   7 -11    1.20    2.10   1
   4  -7  12   68.20    3.50   1
  -4   7 -12   57.60    4.70   1
   4  -7  13   26.00    3.00   1
  -4   7 -13   30.40    3.80   1
   4  -7  14    8.20    2.80   1
  -4   7 -14    4.00    4.00   1
   4  -7  15   65.20    4.80   1
  -4   7 -15   74.30    9.00   1
   4  -6 -16   96.60   10.20   1
  -4   6  16   87.30   11.00   1
   4  -6 -15   53.20    6.70   1
  -4   6  15   57.80    7.90   1
   4  -6 -14    2.50    2.50   1
  -4   6  14    3.70    5.40   1
   4  -6 -13   18.70    2.80   1
  -4   6  13   12.90    4.70   1
   4  -6 -12   39.90    3.80   1
  -4   6  12   37.20    5.80   1
   4  -6 -11  104.30    5.90   1
  -4   6  11  100.40    8.90   1
   4  -6 -10   20.00    1.60   1
  -4   6  10   18.40    2.10   1
   4  -6  -9   23.30    1.50   1
  -4   6   9   20.90    2.30   1
   4  -6  -8    9.30    1.10   1
  -4   6   8    7.60    1.30   1
   4  -6  -7    0.80    0.70   1
  -4   6   7    0.30    0.80   1
   4  -6  -6  161.20    4.00   1
  -4   6   6  156.50    5.50   1
   4  -6  -5   34.70    1.60   1
  -4   6   5   30.00    2.00   1
   4  -6  -4   12.80    0.90   1
  -4   6   4   11.70    1.20   1
   4  -6  -3  190.40    4.80   1
  -4   6   3  203.80    5.00   1
   4  -6  -2  173.70    4.40   1
  -4   6   2  176.00    5.40   1
   4  -6  -1   64.50    2.20   1
  -4   6   1   63.40    2.50   1
   4  -6   0   53.50    2.40   1
  -4   6   0   53.90    2.90   1
   4  -6   1   99.90    2.70   1
  -4   6  -1  103.10    4.40   1
   4  -6   2   37.90    1.50   1
  -4   6  -2   37.30    1.90   1
   4  -6   3   26.20    1.50   1
  -4   6  -3   22.80    1.70   1
   4  -6   4   53.10    1.90   1
  -4   6  -4   53.40    3.30   1
   4  -6   5    0.00    0.90   1
  -4   6  -5   -1.10    1.40   1
   4  -6   6   45.90    1.90   1
  -4   6  -6   54.30    3.60   1
   4  -6   7  133.70    4.40   1
  -4   6  -7  136.60    8.00   1
   4  -6   8   52.90    2.30   1
  -4   6  -8   55.90    4.00   1
   4  -6   9   15.70    1.50   1
  -4   6  -9   15.20    3.20   1
   4  -6  10   28.10    2.00   1
  -4   6 -10   22.70    2.80   1
   4  -6  11    5.70    1.70   1
  -4   6 -11    5.30    2.30   1
   4  -6  12   41.10    2.60   1
  -4   6 -12   40.90    3.80   1
   4  -6  13    3.10    1.40   1
  -4   6 -13    4.20    3.30   1
   4  -6  14   51.40    3.80   1
  -4   6 -14   40.80    6.10   1
   4  -6  15   48.20    5.50   1
  -4   6 -15   48.40    7.10   1
   4  -6  16    1.20    3.60   1
  -4   6 -16    0.80    4.00   1
   4  -5 -17    5.00    4.30   1
  -4   5  17    6.80    4.30   1
   4  -5 -16   -4.40    3.70   1
  -4   5  16    4.80    4.40   1
   4  -5 -15    4.00    3.80   1
  -4   5  15    4.70    4.10   1
   4  -5 -14   11.50    2.90   1
  -4   5  14    9.30    4.00   1
   4  -5 -13   31.10    2.60   1
  -4   5  13   32.90    3.50   1
   4  -5 -12   84.10    3.20   1
  -4   5  12   81.50    4.80   1
   4  -5 -11   33.50    1.90   1
  -4   5  11   31.50    3.00   1
   4  -5 -10  171.30    5.30   1
  -4   5  10  155.20    7.30   1
   4  -5  -9    7.30    1.20   1
  -4   5   9    5.70    1.70   1
   4  -5  -8   88.50    3.10   1
  -4   5   8   81.30    4.20   1
   4  -5  -7   52.80    2.10   1
  -4   5   7   45.50    2.30   1
   4  -5  -6  198.10    4.50   1
  -4   5   6  195.50   10.60   1
   4  -5  -5    5.80    0.80   1
  -4   5   5    6.30    0.90   1
   4  -5  -4    6.10    0.80   1
  -4   5   4    6.70    0.70   1
   4  -5  -3    5.50    0.70   1
  -4   5   3    5.70    0.70   1
   4  -5  -2  122.60    2.70   1
  -4   5   2  121.50    2.80   1
   4  -5  -1   55.40    1.90   1
  -4   5   1   58.00    2.00   1
   4  -5   0  358.90    7.80   1
  -4   5   0  373.20   10.90   1
   4  -5   1   10.20    0.80   1
  -4   5  -1    8.20    1.10   1
   4  -5   2    5.20    0.70   1
  -4   5  -2    5.70    1.00   1
   4  -5   3   34.40    1.20   1
  -4   5  -3   35.50    1.90   1
   4  -5   4   61.20    1.90   1
  -4   5  -4   63.00    2.40   1
   4  -5   5    1.60    0.60   1
  -4   5  -5    1.70    1.10   1
   4  -5   6  114.20    2.70   1
  -4   5  -6  109.70    4.70   1
   4  -5   7   28.30    1.40   1
  -4   5  -7   29.00    2.70   1
   4  -5   8  272.70    6.30   1
  -4   5  -8  268.10    9.80   1
   4  -5   9    7.40    1.10   1
  -4   5  -9    8.20    3.70   1
   4  -5  10   29.40    1.90   1
  -4   5 -10   30.60    4.40   1
   4  -5  11   15.30    2.10   1
  -4   5 -11   13.50    2.50   1
   4  -5  12   44.90    3.00   1
  -4   5 -12   39.30    3.50   1
   4  -5  13    0.90    1.90   1
  -4   5 -13    3.30    2.00   1
   4  -5  14   96.60    4.90   1
  -4   5 -14   88.00    8.70   1
   4  -5  15    0.10    1.90   1
  -4   5 -15   -0.30    3.70   1
   4  -5  16    5.50    2.50   1
  -4   5 -16    7.00    4.20   1
   4  -5  17    1.40    2.70   1
  -4   5 -17    6.50    4.80   1
   4  -4 -18   59.60    7.80   1
   4  -4 -17   18.60    4.60   1
  -4   4  17   18.60    5.20   1
   4  -4 -16   13.50    2.90   1
  -4   4  16   14.60    3.20   1
   4  -4 -15  104.70    4.30   1
  -4   4  15   93.20    6.20   1
   4  -4 -14    4.10    1.40   1
  -4   4  14    2.60    1.50   1
   4  -4 -13    0.70    1.20   1
  -4   4  13    0.80    1.40   1
   4  -4 -12   55.10    2.60   1
  -4   4  12   49.50    3.10   1
   4  -4 -11    5.80    1.20   1
  -4   4  11    8.30    2.00   1
   4  -4 -10   48.30    2.30   1
  -4   4  10   50.20    3.20   1
   4  -4  -9  123.40    3.60   1
  -4   4   9  121.60    7.90   1
   4  -4  -8   11.50    1.10   1
  -4   4   8   10.40    1.70   1
   4  -4  -7   35.60    1.60   1
  -4   4   7   36.40    2.40   1
   4  -4  -6  413.60    7.60   1
  -4   4   6  422.30   10.30   1
   4  -4  -5   50.70    1.70   1
  -4   4   5   51.70    1.80   1
   4  -4  -4  112.30    2.70   1
  -4   4   4  118.40    2.80   1
   4  -4  -3    8.20    0.80   1
  -4   4   3    7.20    0.80   1
   4  -4  -2   19.30    1.10   1
  -4   4   2   19.60    1.10   1
   4  -4  -1  479.00    9.40   1
  -4   4   1  477.50   11.00   1
   4  -4   0   15.40    1.00   1
  -4   4   0   15.20    1.40   1
   4  -4   1    1.10    0.70   1
  -4   4  -1    2.00    1.00   1
   4  -4   2   26.70    1.10   1
  -4   4  -2   26.90    1.80   1
   4  -4   3   74.90    1.70   1
  -4   4  -3   72.40    2.60   1
   4  -4   4    8.00    0.70   1
  -4   4  -4    7.00    0.90   1
   4  -4   5  207.00    3.80   1
  -4   4  -5  210.60    5.90   1
   4  -4   6   22.80    1.00   1
  -4   4  -6   22.80    2.50   1
   4  -4   7    2.20    0.70   1
  -4   4  -7    1.50    1.70   1
   4  -4   8   10.50    1.30   1
  -4   4  -8   13.70    2.60   1
   4  -4   9  206.70    5.70   1
  -4   4  -9  197.50   10.70   1
   4  -4  10   90.40    3.30   1
  -4   4 -10   95.00    6.70   1
   4  -4  11   16.30    1.50   1
  -4   4 -11   16.70    2.10   1
   4  -4  12  184.50    6.70   1
  -4   4 -12  177.10    8.40   1
   4  -4  13   63.60    3.70   1
  -4   4 -13   60.00    6.60   1
   4  -4  14   15.10    2.30   1
  -4   4 -14   17.10    4.30   1
   4  -4  15    2.40    2.10   1
  -4   4 -15   -1.40    3.30   1
   4  -4  16   26.10    3.20   1
  -4   4 -16   29.20    5.90   1
   4  -4  17   51.70    4.30   1
  -4   4 -17   41.20    6.20   1
   4  -3 -18    9.90    3.10   1
  -4   3  18   11.50    3.20   1
   4  -3 -17   17.50    2.60   1
  -4   3  17    9.50    3.00   1
   4  -3 -16   -1.00    1.90   1
  -4   3  16   -2.10    2.50   1
   4  -3 -15  152.90    5.40   1
  -4   3  15  156.90    8.60   1
   4  -3 -14   13.90    1.70   1
  -4   3  14   15.70    2.80   1
   4  -3 -13   13.40    1.50   1
  -4   3  13   16.00    2.40   1
   4  -3 -12   79.70    3.10   1
  -4   3  12   85.70    5.00   1
   4  -3 -11  255.60    7.60   1
  -4   3  11  244.20    9.10   1
   4  -3 -10    0.80    1.10   1
  -4   3  10   -1.20    1.70   1
   4  -3  -9   26.40    1.60   1
  -4   3   9   31.50    3.90   1
   4  -3  -8    3.20    0.80   1
  -4   3   8    3.60    1.20   1
   4  -3  -7   79.90    2.20   1
  -4   3   7   77.40    3.00   1
   4  -3  -6    0.70    0.50   1
  -4   3   6    0.20    0.90   1
   4  -3  -5   75.40    1.70   1
  -4   3   5   76.40    2.40   1
   4  -3  -4   68.50    1.90   1
  -4   3   4   72.40    2.50   1
   4  -3  -3   85.70    2.50   1
  -4   3   3   85.80    2.30   1
   4  -3  -2    6.50    0.80   1
  -4   3   2    7.80    0.60   1
   4  -3  -1    3.90    0.80   1
  -4   3   1    3.30    0.80   1
   4  -3   0    0.00    0.70   1
  -4   3   0    0.60    0.80   1
   4  -3   1  143.70    2.90   1
  -4   3  -1  145.70    4.30   1
   4  -3   2   75.90    1.60   1
  -4   3  -2   70.10    2.10   1
   4  -3   3 1105.40   15.80   1
  -4   3  -3 1060.20   21.80   1
   4  -3   4   21.00    0.90   1
  -4   3  -4   21.90    2.00   1
   4  -3   5  183.80    3.40   1
  -4   3  -5  176.30    4.90   1
   4  -3   6   29.40    1.10   1
  -4   3  -6   29.80    1.60   1
   4  -3   7   -0.40    0.70   1
  -4   3  -7    3.60    1.60   1
   4  -3   8   17.30    1.10   1
  -4   3  -8   16.70    2.70   1
   4  -3   9    8.90    1.10   1
  -4   3  -9    5.80    2.40   1
   4  -3  10    0.60    0.90   1
  -4   3 -10   -2.20    3.20   1
   4  -3  11   11.00    1.30   1
  -4   3 -11    7.80    1.60   1
   4  -3  12   10.90    1.90   1
  -4   3 -12    9.90    2.00   1
   4  -3  13   -1.80    1.60   1
  -4   3 -13    3.00    3.20   1
   4  -3  14    8.90    2.00   1
  -4   3 -14   11.30    4.00   1
   4  -3  15   93.50    5.00   1
  -4   3 -15   94.50    8.60   1
   4  -3  16    8.10    2.70   1
  -4   3 -16   11.60    4.30   1
   4  -3  17   42.10    4.00   1
  -4   3 -17   43.80    7.20   1
   4  -3  18   15.50    5.00   1
   4  -2 -18   -0.50    2.30   1
  -4   2  18   -1.70    3.80   1
   4  -2 -17    3.90    2.90   1
  -4   2  17    1.50    3.00   1
   4  -2 -16   -0.10    2.00   1
  -4   2  16   -0.20    2.80   1
   4  -2 -15   95.20    4.10   1
  -4   2  15   85.30    5.90   1
   4  -2 -14   22.40    2.20   1
  -4   2  14   22.20    3.00   1
   4  -2 -13   13.00    1.50   1
  -4   2  13   12.30    2.40   1
   4  -2 -12   82.90    3.20   1
  -4   2  12   80.10    4.60   1
   4  -2 -11   -0.60    1.10   1
  -4   2  11    1.40    1.70   1
   4  -2 -10    7.50    1.30   1
  -4   2  10    8.80    1.90   1
   4  -2  -9   48.20    2.30   1
  -4   2   9   52.70    2.30   1
   4  -2  -8    1.20    0.80   1
  -4   2   8    3.00    0.80   1
   4  -2  -7    4.90    0.70   1
  -4   2   7    4.20    1.00   1
   4  -2  -6  275.70    4.90   1
  -4   2   6  280.00    7.40   1
   4  -2  -5  505.00    8.20   1
  -4   2   5  519.60   10.30   1
   4  -2  -4   60.90    1.70   1
  -4   2   4   60.00    1.80   1
   4  -2  -3  382.80    6.00   1
  -4   2   3  392.90    6.80   1
   4  -2  -2   30.90    0.90   1
  -4   2   2   33.40    1.10   1
   4  -2  -1  214.80    3.60   1
  -4   2   1  213.60    5.70   1
   4  -2   0   75.40    1.70   1
  -4   2   0   79.70    2.60   1
   4  -2   1  104.50    2.50   1
  -4   2  -1  106.30    3.20   1
   4  -2   2    1.70    0.50   1
  -4   2  -2    2.80    0.90   1
   4  -2   3   41.10    1.40   1
  -4   2  -3   38.50    3.10   1
   4  -2   4    3.80    0.40   1
  -4   2  -4    4.90    1.50   1
   4  -2   5   17.30    1.00   1
  -4   2  -5   17.60    1.80   1
   4  -2   6   34.20    1.40   1
  -4   2  -6   30.00    2.20   1
   4  -2   7   -0.40    0.70   1
  -4   2  -7    0.80    2.40   1
   4  -2   8    9.70    0.90   1
  -4   2  -8    7.80    2.90   1
   4  -2   9  582.80   12.00   1
  -4   2  -9  576.10   25.40   1
   4  -2  10   86.50    2.90   1
  -4   2 -10   78.10    5.80   1
   4  -2  11   49.90    2.20   1
  -4   2 -11   52.60    4.90   1
   4  -2  12   44.50    2.80   1
  -4   2 -12   38.30    2.70   1
   4  -2  13  110.80    4.80   1
  -4   2 -13  102.60    8.60   1
   4  -2  14    4.80    1.70   1
  -4   2 -14    1.40    3.20   1
   4  -2  15    4.80    2.40   1
  -4   2 -15   13.00    5.40   1
   4  -2  16   28.90    3.00   1
  -4   2 -16   29.50    5.20   1
   4  -2  17   32.80    3.70   1
  -4   2 -17   34.20    6.10   1
   4  -2  18    2.10    2.60   1
  -4   2 -18    4.00    4.50   1
   4  -1 -19   11.20    3.30   1
  -4   1  19    5.30    3.30   1
   4  -1 -18    6.40    2.60   1
  -4   1  18    4.90    3.00   1
   4  -1 -17    4.20    2.10   1
  -4   1  17    4.80    4.00   1
   4  -1 -16    6.30    2.00   1
  -4   1  16    2.20    2.40   1
   4  -1 -15   13.20    1.80   1
  -4   1  15   20.80    3.10   1
   4  -1 -14   79.30    3.50   1
  -4   1  14   69.20    4.60   1
   4  -1 -13   30.40    2.10   1
  -4   1  13   28.40    3.10   1
   4  -1 -12  118.30    4.10   1
  -4   1  12  123.30    5.80   1
   4  -1 -11   26.50    1.70   1
  -4   1  11   22.90    2.60   1
   4  -1 -10  138.80    3.90   1
  -4   1  10  144.80    5.90   1
   4  -1  -9  205.70    5.00   1
  -4   1   9  205.70    5.20   1
   4  -1  -8    2.90    0.80   1
  -4   1   8    3.90    0.70   1
   4  -1  -7  277.30    5.10   1
  -4   1   7  280.70    7.20   1
   4  -1  -6  203.70    3.90   1
  -4   1   6  202.40    6.60   1
   4  -1  -5   61.20    1.60   1
  -4   1   5   54.30    2.10   1
   4  -1  -4    1.30    0.50   1
  -4   1   4    1.60    0.90   1
   4  -1  -3  138.40    2.60   1
  -4   1   3  132.70    3.10   1
   4  -1  -2   20.90    0.90   1
  -4   1   2   21.80    0.90   1
   4  -1  -1  104.70    2.60   1
  -4   1   1  112.70    2.80   1
   4  -1   0  403.70    8.00   1
  -4   1   0  425.10    8.40   1
   4  -1   1    1.10    0.50   1
  -4   1  -1    2.30    0.60   1
   4  -1   2    0.40    0.70   1
  -4   1  -2    1.20    0.70   1
   4  -1   3   86.40    2.10   1
  -4   1  -3   85.90    3.70   1
   4  -1   4  422.50    6.80   1
  -4   1  -4  424.80   10.50   1
   4  -1   5   17.00    0.80   1
  -4   1  -5   15.40    1.50   1
   4  -1   6   13.30    1.10   1
  -4   1  -6   11.40    1.80   1
   4  -1   7   62.40    2.10   1
  -4   1  -7   69.70    3.20   1
   4  -1   8  154.50    4.00   1
  -4   1  -8  149.50    5.90   1
   4  -1   9   60.30    2.20   1
  -4   1  -9   64.40    3.30   1
   4  -1  10  122.10    3.70   1
  -4   1 -10  122.60    7.40   1
   4  -1  11    3.70    0.90   1
  -4   1 -11    3.20    2.40   1
   4  -1  12   -1.40    1.50   1
  -4   1 -12    0.40    2.40   1
   4  -1  13   77.50    4.00   1
  -4   1 -13   87.60    7.00   1
   4  -1  14   64.00    3.70   1
  -4   1 -14   64.10    6.80   1
   4  -1  15   89.50    4.90   1
  -4   1 -15   99.80    8.30   1
   4  -1  16    1.20    2.20   1
  -4   1 -16   -0.50    3.40   1
   4  -1  17   -1.50    2.50   1
  -4   1 -17    3.00    4.00   1
   4  -1  18  181.00    8.40   1
  -4   1 -18  145.00   13.10   1
   4   0 -19   -1.00    2.50   1
  -4   0  19   -2.30    3.10   1
   4   0 -18   50.80    4.20   1
  -4   0  18   57.10    5.50   1
   4   0 -17    0.50    2.10   1
  -4   0  17    1.40    3.00   1
   4   0 -16  315.80    9.60   1
  -4   0  16  335.40   14.80   1
   4   0 -15    0.80    1.40   1
  -4   0  15    1.00    2.20   1
   4   0 -14    2.60    1.40   1
  -4   0  14    3.00    2.10   1
   4   0 -13   -1.10    1.30   1
  -4   0  13    1.10    2.10   1
   4   0 -12   50.90    2.50   1
  -4   0  12   54.60    3.60   1
   4   0 -11   -0.80    1.30   1
  -4   0  11   -1.00    1.90   1
   4   0 -10   82.50    2.90   1
  -4   0  10   86.20    4.40   1
   4   0  -9   -0.30    1.10   1
  -4   0   9    0.80    0.70   1
   4   0  -8    1.50    1.10   1
  -4   0   8   -0.20    0.60   1
   4   0  -7   -0.30    0.80   1
  -4   0   7    0.60    0.90   1
   4   0  -6  326.10    6.60   1
  -4   0   6  313.40   10.70   1
   4   0  -5   -0.50    0.60   1
  -4   0   5   -0.60    0.90   1
   4   0  -4   13.30    0.90   1
  -4   0   4   12.40    1.40   1
   4   0  -3    0.00    0.30   1
  -4   0   3   -0.10    0.80   1
   4   0  -2  323.20    7.60   1
  -4   0   2  305.70    6.30   1
   4   0  -1    2.40    1.00   1
  -4   0   1    0.20    0.20   1
   4   0   0  463.90    9.30   1
  -4   0   0  464.40    8.80   1
   4   0   1    1.10    0.60   1
  -4   0  -1    0.40    0.40   1
   4   0   2  349.30    7.20   1
  -4   0  -2  363.40    7.60   1
   4   0   3   -0.60    0.70   1
  -4   0  -3   -1.10    0.90   1
   4   0   4  256.80    4.80   1
  -4   0  -4  250.80    6.50   1
   4   0   5    0.40    0.50   1
  -4   0  -5   -1.00    1.50   1
   4   0   6  405.10    7.50   1
  -4   0  -6  405.10   12.30   1
   4   0   7    0.00    0.50   1
  -4   0  -7    0.00    1.60   1
   4   0   8   41.60    1.70   1
  -4   0  -8   47.70    2.80   1
   4   0   9   -0.40    0.80   1
  -4   0  -9    4.00    1.40   1
   4   0  10   12.30    1.00   1
  -4   0 -10   13.20    2.80   1
   4   0  11   -0.80    1.50   1
  -4   0 -11    1.70    0.80   1
   4   0  12   78.40    3.80   1
  -4   0 -12   81.70    6.60   1
   4   0  13   -0.30    1.60   1
  -4   0 -13   -4.00    2.70   1
   4   0  14  125.30    5.40   1
  -4   0 -14  116.30    8.80   1
   4   0  15   -1.20    1.80   1
   4   0  16    0.10    2.00   1
  -4   0 -16   -6.00    3.50   1
   4   0  17   -1.00    2.70   1
   4   0  18    3.30    2.50   1
  -4   0 -18    0.30    3.90   1
   4   1 -19    5.40    2.70   1
  -4  -1  19    5.70    3.70   1
   4   1 -18    3.30    2.60   1
  -4  -1  18   -0.20    2.60   1
   4   1 -17    4.90    2.50   1
  -4  -1  17    4.60    2.60   1
   4   1 -16    5.90    1.60   1
  -4  -1  16   11.80    3.50   1
   4   1 -15   15.00    2.20   1
  -4  -1  15   17.00    2.90   1
   4   1 -14   76.80    3.60   1
  -4  -1  14   83.70    4.80   1
   4   1 -13   28.50    2.10   1
  -4  -1  13   29.00    3.00   1
   4   1 -12  115.00    4.00   1
  -4  -1  12  121.70    5.90   1
   4   1 -11   24.20    1.80   1
  -4  -1  11   29.10    3.00   1
   4   1 -10  133.00    4.10   1
  -4  -1  10  135.30    5.70   1
   4   1  -9  199.70    5.20   1
  -4  -1   9  194.80    7.10   1
   4   1  -8    2.10    1.40   1
  -4  -1   8    3.00    0.60   1
   4   1  -7  282.30    6.30   1
  -4  -1   7  277.90    7.10   1
   4   1  -6  206.10    4.40   1
  -4  -1   6  203.00    7.20   1
   4   1  -5   57.40    1.80   1
  -4  -1   5   56.90    2.10   1
   4   1  -4    2.10    0.70   1
  -4  -1   4    0.60    1.20   1
   4   1  -3  136.90    3.20   1
  -4  -1   3  133.30    4.90   1
   4   1  -2   22.20    0.90   1
  -4  -1   2   19.80    1.00   1
   4   1  -1  103.20    3.30   1
  -4  -1   1  108.30    2.60   1
   4   1   0  431.00    8.70   1
  -4  -1   0  413.90    7.80   1
   4   1   1    2.00    1.10   1
  -4  -1  -1    2.20    0.40   1
   4   1   2    0.90    0.70   1
  -4  -1  -2    1.10    1.00   1
   4   1   3   92.20    2.00   1
  -4  -1  -3   86.80    3.10   1
   4   1   4  443.10    8.10   1
  -4  -1  -4  416.90   12.70   1
   4   1   5   20.30    1.10   1
  -4  -1  -5   14.00    1.50   1
   4   1   6   11.10    0.80   1
  -4  -1  -6   12.10    1.40   1
   4   1   7   70.30    2.10   1
  -4  -1  -7   57.90    3.50   1
   4   1   8  155.40    3.60   1
  -4  -1  -8  150.30    6.20   1
   4   1   9   59.00    2.30   1
  -4  -1  -9   63.00    3.40   1
   4   1  10  117.60    3.70   1
  -4  -1 -10  116.70    6.90   1
   4   1  11    2.30    1.40   1
  -4  -1 -11    2.60    3.30   1
   4   1  12    0.80    1.80   1
  -4  -1 -12    0.70    3.40   1
   4   1  13   75.70    3.80   1
  -4  -1 -13   85.10    6.90   1
   4   1  14   60.80    3.60   1
  -4  -1 -14   61.40    6.40   1
   4   1  15   93.10    4.90   1
  -4  -1 -15  110.70    9.40   1
   4   1  16   -2.00    2.20   1
  -4  -1 -16    6.50    5.10   1
   4   1  17    0.60    2.10   1
  -4  -1 -17   -1.50    3.50   1
   4   1  18  158.80    8.30   1
  -4  -1 -18  148.60   13.30   1
   4   2 -18    0.80    2.70   1
  -4  -2  18   -1.80    2.90   1
   4   2 -17    4.50    2.20   1
  -4  -2  17    4.60    2.60   1
   4   2 -16    0.30    1.70   1
  -4  -2  16    1.00    2.30   1
   4   2 -15   84.90    3.90   1
  -4  -2  15   84.20    5.60   1
   4   2 -14   23.20    2.30   1
  -4  -2  14   14.60    2.70   1
   4   2 -13   15.10    2.10   1
  -4  -2  13   15.30    2.80   1
   4   2 -12   79.40    3.40   1
  -4  -2  12   77.10    4.40   1
   4   2 -11    0.20    1.30   1
  -4  -2  11   -2.40    2.00   1
   4   2 -10    6.10    1.30   1
  -4  -2  10    9.50    1.90   1
   4   2  -9   52.20    2.60   1
  -4  -2   9   46.90    3.80   1
   4   2  -8    2.30    1.10   1
  -4  -2   8    0.40    1.70   1
   4   2  -7    4.80    1.00   1
  -4  -2   7    4.40    1.50   1
   4   2  -6  275.70    6.20   1
  -4  -2   6  258.30    8.50   1
   4   2  -5  488.30   11.50   1
  -4  -2   5  506.70   11.90   1
   4   2  -4   64.80    2.00   1
  -4  -2   4   56.80    2.70   1
   4   2  -3  390.50    7.10   1
  -4  -2   3  379.50    8.90   1
   4   2  -2   32.20    1.90   1
  -4  -2   2   29.70    1.40   1
   4   2  -1  215.30    5.80   1
  -4  -2   1  214.40    6.90   1
   4   2   0   72.60    2.70   1
  -4  -2   0   74.10    2.80   1
   4   2   1  104.30    2.90   1
  -4  -2  -1  106.00    3.10   1
   4   2   2    2.00    0.70   1
  -4  -2  -2    2.70    1.40   1
   4   2   3   43.50    1.40   1
  -4  -2  -3   42.80    1.60   1
   4   2   4    3.60    0.60   1
  -4  -2  -4    3.40    1.40   1
   4   2   5   18.10    1.10   1
  -4  -2  -5   16.00    1.70   1
   4   2   6   30.80    1.60   1
  -4  -2  -6   32.20    2.10   1
   4   2   7   -0.40    0.90   1
  -4  -2  -7   -0.80    1.00   1
   4   2   8   10.30    1.10   1
  -4  -2  -8   10.70    1.60   1
   4   2   9  554.60   11.80   1
  -4  -2  -9  547.30   24.90   1
   4   2  10   80.80    2.80   1
  -4  -2 -10   88.40    6.10   1
   4   2  11   46.10    2.60   1
  -4  -2 -11   49.20    4.70   1
   4   2  12   44.20    2.80   1
  -4  -2 -12   47.60    4.40   1
   4   2  13  111.20    4.80   1
  -4  -2 -13  118.10    9.00   1
   4   2  14    4.60    1.80   1
  -4  -2 -14   -0.20    2.60   1
   4   2  15    6.90    2.20   1
  -4  -2 -15    1.50    3.20   1
   4   2  16   28.20    2.90   1
  -4  -2 -16   23.80    3.20   1
   4   2  17   35.80    3.90   1
  -4  -2 -17   27.70    3.60   1
   4   2  18   -1.20    2.30   1
  -4  -2 -18   -0.30    2.50   1
   4   3 -18   12.90    3.40   1
  -4  -3  18   26.60    8.10   1
   4   3 -17    9.20    2.10   1
  -4  -3  17    7.40    2.90   1
   4   3 -16    0.00    1.80   1
  -4  -3  16    0.80    2.20   1
   4   3 -15  153.90    5.80   1
  -4  -3  15  148.00    8.30   1
   4   3 -14   11.60    1.90   1
  -4  -3  14    8.90    2.30   1
   4   3 -13   12.30    1.90   1
  -4  -3  13   10.40    2.60   1
   4   3 -12   74.90    3.60   1
  -4  -3  12   80.00    4.80   1
   4   3 -11  234.40    6.60   1
  -4  -3  11  260.50    9.90   1
   4   3 -10   -0.50    1.30   1
  -4  -3  10    1.50    1.80   1
   4   3  -9   27.30    2.10   1
  -4  -3   9   24.30    3.00   1
   4   3  -8    4.90    1.40   1
  -4  -3   8    3.90    1.50   1
   4   3  -7   79.00    2.60   1
  -4  -3   7   81.20    2.60   1
   4   3  -6    0.20    0.80   1
  -4  -3   6   -0.80    0.70   1
   4   3  -5   81.40    2.50   1
  -4  -3   5   74.00    3.50   1
   4   3  -4   70.90    2.20   1
  -4  -3   4   64.90    1.90   1
   4   3  -3   89.70    3.30   1
  -4  -3   3   92.20    3.30   1
   4   3  -2    8.80    0.70   1
  -4  -3   2    6.30    1.00   1
   4   3  -1    5.10    0.60   1
  -4  -3   1    4.20    1.10   1
   4   3   0    0.70    0.60   1
  -4  -3   0   -0.20    0.90   1
   4   3   1  150.80    3.70   1
  -4  -3  -1  147.90    4.60   1
   4   3   2   75.10    2.70   1
  -4  -3  -2   79.30    3.00   1
   4   3   3 1154.30   19.10   1
  -4  -3  -3 1113.80   30.60   1
   4   3   4   21.30    1.00   1
  -4  -3  -4   19.00    1.10   1
   4   3   5  178.00    4.00   1
  -4  -3  -5  181.70    5.10   1
   4   3   6   29.40    1.30   1
  -4  -3  -6   27.80    1.40   1
   4   3   7    0.90    1.00   1
  -4  -3  -7    0.70    0.80   1
   4   3   8   17.80    1.70   1
  -4  -3  -8   18.50    1.30   1
   4   3   9    6.00    0.90   1
  -4  -3  -9    5.70    1.60   1
   4   3  10    0.80    0.70   1
  -4  -3 -10    1.60    1.20   1
   4   3  11    9.20    1.70   1
  -4  -3 -11    6.50    1.50   1
   4   3  12    5.40    1.90   1
  -4  -3 -12   10.50    2.10   1
   4   3  13   -1.20    1.90   1
  -4  -3 -13   -0.40    2.00   1
   4   3  14   11.00    2.10   1
  -4  -3 -14    9.30    2.10   1
   4   3  15   88.70    4.90   1
  -4  -3 -15   83.20    5.40   1
   4   3  16   13.60    2.80   1
  -4  -3 -16    8.40    2.10   1
   4   3  17   40.60    3.70   1
  -4  -3 -17   39.20    3.30   1
   4   3  18   19.80    4.90   1
  -4  -3 -18   15.90    3.20   1
   4   4 -18   52.20    7.50   1
   4   4 -17   20.40    2.70   1
  -4  -4  17   15.40    6.50   1
   4   4 -16   17.50    2.50   1
  -4  -4  16   19.50    3.60   1
   4   4 -15   93.00    4.50   1
  -4  -4  15  102.70    6.20   1
   4   4 -14   -0.10    2.20   1
  -4  -4  14    2.50    2.70   1
   4   4 -13    1.50    2.40   1
  -4  -4  13    0.40    2.40   1
   4   4 -12   53.20    3.60   1
  -4  -4  12   52.00    3.80   1
   4   4 -11    7.20    2.10   1
  -4  -4  11   10.40    2.40   1
   4   4 -10   51.10    3.20   1
  -4  -4  10   44.00    3.00   1
   4   4  -9  111.10    4.60   1
  -4  -4   9  115.70    5.30   1
   4   4  -8    9.80    1.70   1
  -4  -4   8    8.00    1.70   1
   4   4  -7   32.00    2.30   1
  -4  -4   7   34.50    1.50   1
   4   4  -6  414.00   10.80   1
  -4  -4   6  421.80   12.60   1
   4   4  -5   53.00    2.20   1
  -4  -4   5   47.50    2.10   1
   4   4  -4  112.70    3.30   1
  -4  -4   4  112.20    3.40   1
   4   4  -3    8.60    1.20   1
  -4  -4   3    8.40    1.30   1
   4   4  -2   21.20    1.10   1
  -4  -4   2   20.70    1.70   1
   4   4  -1  495.00   10.20   1
  -4  -4   1  475.90   13.80   1
   4   4   0   17.90    1.20   1
  -4  -4   0   18.30    1.60   1
   4   4   1    0.80    0.80   1
  -4  -4  -1    0.80    1.00   1
   4   4   2   25.40    1.40   1
  -4  -4  -2   26.00    1.90   1
   4   4   3   77.40    2.20   1
  -4  -4  -3   78.70    3.20   1
   4   4   4    6.80    0.70   1
  -4  -4  -4    5.70    0.70   1
   4   4   5  212.10    4.40   1
  -4  -4  -5  201.80    5.80   1
   4   4   6   25.10    1.60   1
  -4  -4  -6   18.90    1.50   1
   4   4   7    2.20    0.90   1
  -4  -4  -7    1.30    0.80   1
   4   4   8   10.00    1.00   1
  -4  -4  -8    9.60    1.50   1
   4   4   9  207.20    6.20   1
  -4  -4  -9  202.40    7.30   1
   4   4  10   90.50    3.80   1
  -4  -4 -10   93.40    4.50   1
   4   4  11   12.70    2.00   1
  -4  -4 -11   16.80    2.20   1
   4   4  12  184.30    6.80   1
  -4  -4 -12  182.40    7.90   1
   4   4  13   60.40    3.60   1
  -4  -4 -13   59.60    3.90   1
   4   4  14   14.90    2.20   1
  -4  -4 -14   17.30    2.10   1
   4   4  15   -0.10    2.00   1
  -4  -4 -15   -0.30    1.60   1
   4   4  16   23.30    3.20   1
  -4  -4 -16   26.60    3.10   1
   4   4  17   50.00    4.40   1
  -4  -4 -17   48.80    3.90   1
   4   5 -17    1.30    2.30   1
  -4  -5  17    8.00    4.70   1
   4   5 -16    3.00    2.40   1
  -4  -5  16    4.70    4.50   1
   4   5 -15    4.40    2.50   1
  -4  -5  15    1.60    4.00   1
   4   5 -14    4.40    2.40   1
  -4  -5  14   10.30    2.80   1
   4   5 -13   30.00    3.30   1
  -4  -5  13   24.10    3.10   1
   4   5 -12   83.40    4.60   1
  -4  -5  12   83.20    4.90   1
   4   5 -11   34.40    2.90   1
  -4  -5  11   36.90    3.30   1
   4   5 -10  165.50    6.40   1
  -4  -5  10  155.70    7.00   1
   4   5  -9    6.00    2.10   1
  -4  -5   9   11.50    1.90   1
   4   5  -8   81.20    4.30   1
  -4  -5   8   88.20    7.40   1
   4   5  -7   48.70    2.90   1
  -4  -5   7   49.80    3.10   1
   4   5  -6  207.30    6.60   1
  -4  -5   6  210.40    5.90   1
   4   5  -5    7.10    1.60   1
  -4  -5   5    6.50    1.10   1
   4   5  -4    5.90    0.70   1
  -4  -5   4    6.50    1.00   1
   4   5  -3    5.30    0.40   1
  -4  -5   3    5.60    1.20   1
   4   5  -2  118.80    3.40   1
  -4  -5   2  118.10    3.70   1
   4   5  -1   55.20    2.10   1
  -4  -5   1   54.20    2.10   1
   4   5   0  367.70    9.50   1
  -4  -5   0  382.80    9.50   1
   4   5   1   11.20    1.10   1
  -4  -5  -1    9.60    1.40   1
   4   5   2    4.30    1.00   1
  -4  -5  -2    6.60    1.30   1
   4   5   3   32.70    1.60   1
  -4  -5  -3   32.80    2.00   1
   4   5   4   57.00    1.90   1
  -4  -5  -4   58.70    4.20   1
   4   5   5    1.60    1.00   1
  -4  -5  -5    0.70    0.70   1
   4   5   6  113.30    3.60   1
  -4  -5  -6  111.10    4.70   1
   4   5   7   29.80    1.60   1
  -4  -5  -7   26.00    1.80   1
   4   5   8  277.20    8.20   1
  -4  -5  -8  284.80    9.40   1
   4   5   9    6.70    1.40   1
  -4  -5  -9    7.70    1.30   1
   4   5  10   30.40    2.20   1
  -4  -5 -10   30.60    2.10   1
   4   5  11   14.50    2.10   1
  -4  -5 -11   17.30    1.70   1
   4   5  12   41.10    3.10   1
  -4  -5 -12   38.30    2.70   1
   4   5  13    2.80    2.10   1
  -4  -5 -13    0.70    1.60   1
   4   5  14   79.90    4.80   1
  -4  -5 -14   88.10    4.60   1
   4   5  15    3.40    2.20   1
  -4  -5 -15    2.50    1.90   1
   4   5  16    5.80    2.80   1
  -4  -5 -16    4.40    2.30   1
  -4  -5 -17   -3.30    4.50   1
   4   6 -16   84.50    5.80   1
  -4  -6  16   87.00    9.60   1
   4   6 -15   56.80    4.60   1
  -4  -6  15   59.20    8.10   1
   4   6 -14    1.20    2.40   1
  -4  -6  14   -1.70    3.60   1
   4   6 -13   12.50    3.00   1
  -4  -6  13   18.80    5.90   1
   4   6 -12   36.60    3.50   1
  -4  -6  12   41.60    5.90   1
   4   6 -11  106.50    5.30   1
  -4  -6  11  110.00    9.40   1
   4   6 -10   16.90    2.60   1
  -4  -6  10   24.80    4.20   1
   4   6  -9   19.00    2.40   1
  -4  -6   9   19.70    2.60   1
   4   6  -8    6.90    1.90   1
  -4  -6   8   11.50    2.00   1
   4   6  -7   -0.40    1.60   1
  -4  -6   7    1.90    1.80   1
   4   6  -6  165.80    6.00   1
  -4  -6   6  164.90    5.40   1
   4   6  -5   32.90    2.30   1
  -4  -6   5   35.50    1.90   1
   4   6  -4   13.60    2.00   1
  -4  -6   4   11.40    1.50   1
   4   6  -3  193.10    5.30   1
  -4  -6   3  200.30    6.00   1
   4   6  -2  179.90    4.90   1
  -4  -6   2  181.60    5.20   1
   4   6  -1   60.00    2.50   1
  -4  -6   1   69.20    2.80   1
   4   6   0   50.80    2.10   1
  -4  -6   0   45.80    2.10   1
   4   6   1  104.60    3.80   1
  -4  -6  -1  102.70    3.50   1
   4   6   2   38.50    2.10   1
  -4  -6  -2   38.00    2.00   1
   4   6   3   21.50    1.80   1
  -4  -6  -3   25.80    1.70   1
   4   6   4   56.40    2.60   1
  -4  -6  -4   53.50    3.00   1
   4   6   5   -0.10    1.10   1
  -4  -6  -5    0.90    1.60   1
   4   6   6   44.80    2.10   1
  -4  -6  -6   47.50    2.60   1
   4   6   7  145.50    5.10   1
  -4  -6  -7  145.40    4.80   1
   4   6   8   51.60    2.40   1
  -4  -6  -8   52.10    2.70   1
   4   6   9   16.40    1.80   1
  -4  -6  -9   16.00    1.60   1
   4   6  10   31.10    2.40   1
  -4  -6 -10   30.40    2.20   1
   4   6  11    6.30    2.00   1
  -4  -6 -11    4.90    2.10   1
   4   6  12   35.80    2.90   1
  -4  -6 -12   40.10    2.90   1
   4   6  13    2.20    1.70   1
  -4  -6 -13    2.50    1.60   1
   4   6  14   48.10    5.80   1
  -4  -6 -14   41.70    6.80   1
   4   6  15   54.00    8.30   1
  -4  -6 -15   57.10    8.80   1
   4   6  16    2.70    4.40   1
  -4  -6 -16   -2.30    3.70   1
   4   7 -15   11.60    3.40   1
  -4  -7  15   25.60    6.80   1
   4   7 -14   55.10    4.70   1
  -4  -7  14   62.10    7.80   1
   4   7 -13   11.60    3.10   1
  -4  -7  13    5.30    2.80   1
   4   7 -12   13.10    2.70   1
  -4  -7  12   16.20    2.90   1
   4   7 -11   33.60    3.50   1
  -4  -7  11   32.40    3.40   1
   4   7 -10   24.20    3.00   1
  -4  -7  10   28.40    3.30   1
   4   7  -9  159.80    6.90   1
  -4  -7   9  168.20    7.60   1
   4   7  -8   48.30    3.30   1
  -4  -7   8   48.70    3.60   1
   4   7  -7   47.60    3.30   1
  -4  -7   7   49.10    3.40   1
   4   7  -6    6.40    1.80   1
  -4  -7   6    5.90    1.10   1
   4   7  -5    3.80    1.70   1
  -4  -7   5    4.90    1.30   1
   4   7  -4   -0.90    1.50   1
  -4  -7   4    2.20    1.50   1
   4   7  -3    8.00    1.70   1
  -4  -7   3    9.20    1.60   1
   4   7  -2   99.80    4.00   1
  -4  -7   2  100.50    3.90   1
   4   7  -1    1.10    1.40   1
  -4  -7   1    2.80    1.20   1
   4   7   0   66.20    3.10   1
  -4  -7   0   64.30    2.70   1
   4   7   1   69.60    3.10   1
  -4  -7  -1   74.20    3.10   1
   4   7   2   26.80    1.90   1
  -4  -7  -2   29.80    1.90   1
   4   7   3  278.30    7.70   1
  -4  -7  -3  278.90    8.00   1
   4   7   4  292.20    8.80   1
  -4  -7  -4  300.10    8.60   1
   4   7   5  105.60    3.80   1
  -4  -7  -5   99.00    5.00   1
   4   7   6   14.20    1.50   1
  -4  -7  -6   16.30    1.90   1
   4   7   7   13.90    1.50   1
  -4  -7  -7   18.20    1.60   1
   4   7   8    2.90    1.20   1
  -4  -7  -8    4.10    1.10   1
   4   7   9    4.20    1.60   1
  -4  -7  -9    5.00    1.30   1
   4   7  10   66.70    4.20   1
  -4  -7 -10   62.10    4.20   1
   4   7  11    2.70    1.90   1
  -4  -7 -11    0.70    4.70   1
   4   7  12   65.60    6.30   1
  -4  -7 -12   67.60    7.50   1
   4   7  13   36.20    6.90   1
  -4  -7 -13   39.40    7.60   1
   4   7  14    5.50    4.10   1
  -4  -7 -14    7.00    4.60   1
   4   7  15   59.80    8.20   1
  -4  -7 -15   61.00    8.30   1
   4   8 -14    8.40    3.20   1
  -4  -8  14   12.00    3.30   1
   4   8 -13   28.00    3.90   1
  -4  -8  13   29.80    4.40   1
   4   8 -12    1.30    2.40   1
  -4  -8  12    1.10    2.40   1
   4   8 -11    9.80    2.80   1
  -4  -8  11    8.00    2.70   1
   4   8 -10   42.90    3.80   1
  -4  -8  10   48.40    4.10   1
   4   8  -9    0.50    2.10   1
  -4  -8   9    3.00    2.30   1
   4   8  -8   23.50    2.80   1
  -4  -8   8   20.80    2.60   1
   4   8  -7   27.00    2.70   1
  -4  -8   7   25.60    3.10   1
   4   8  -6    4.30    1.80   1
  -4  -8   6    4.40    1.80   1
   4   8  -5  247.00    8.90   1
  -4  -8   5  246.70    8.20   1
   4   8  -4   21.30    1.90   1
  -4  -8   4   19.00    1.70   1
   4   8  -3  232.30    8.00   1
  -4  -8   3  235.00    7.70   1
   4   8  -2   16.50    2.00   1
  -4  -8   2   14.60    1.60   1
   4   8  -1   32.70    2.50   1
  -4  -8   1   32.60    2.20   1
   4   8   0   20.30    2.00   1
  -4  -8   0   19.80    1.80   1
   4   8   1   50.90    2.80   1
  -4  -8  -1   47.00    2.50   1
   4   8   2   -0.70    1.40   1
  -4  -8  -2   -1.30    1.40   1
   4   8   3    5.10    1.20   1
  -4  -8  -3    7.30    1.40   1
   4   8   4    1.20    1.10   1
  -4  -8  -4    0.20    1.10   1
   4   8   5   23.80    2.10   1
  -4  -8  -5   24.00    2.60   1
   4   8   6   15.90    2.00   1
  -4  -8  -6   12.20    2.20   1
   4   8   7    2.40    1.10   1
  -4  -8  -7    6.60    1.70   1
   4   8   8   -3.30    2.80   1
  -4  -8  -8   -8.00    4.10   1
   4   8   9  259.70   16.10   1
  -4  -8  -9  227.40   15.80   1
   4   8  10   -3.00    3.30   1
  -4  -8 -10    2.70    3.50   1
   4   8  11   95.50   10.20   1
  -4  -8 -11  112.90   10.30   1
   4   8  12   19.90    5.00   1
  -4  -8 -12   14.40    6.00   1
   4   8  13   29.60    5.90   1
  -4  -8 -13   19.60    5.30   1
   4   9 -13    2.30    3.00   1
  -4  -9  13    3.40    3.50   1
   4   9 -12  201.00    9.80   1
  -4  -9  12  186.80   10.40   1
   4   9 -11   61.50    4.70   1
  -4  -9  11   65.20    5.50   1
   4   9 -10    4.20    3.10   1
  -4  -9  10    4.40    2.70   1
   4   9  -9   21.60    3.10   1
  -4  -9   9   20.70    3.40   1
   4   9  -8   -1.40    1.90   1
  -4  -9   8    0.40    2.30   1
   4   9  -7   61.60    4.10   1
  -4  -9   7   57.50    4.30   1
   4   9  -6   -0.30    2.00   1
  -4  -9   6    1.50    1.80   1
   4   9  -5    1.70    1.50   1
  -4  -9   5    2.00    2.00   1
   4   9  -4  130.80    6.10   1
  -4  -9   4  138.40    5.70   1
   4   9  -3    0.30    1.50   1
  -4  -9   3    0.60    1.70   1
   4   9  -2    7.10    1.40   1
  -4  -9   2   12.70    2.00   1
   4   9  -1   41.40    2.90   1
  -4  -9   1   39.50    2.50   1
   4   9   0   18.70    2.00   1
  -4  -9   0   19.40    1.90   1
   4   9   1   15.70    1.90   1
  -4  -9  -1   14.80    1.70   1
   4   9   2  163.60    6.70   1
  -4  -9  -2  171.60    5.50   1
   4   9   3   17.30    2.50   1
  -4  -9  -3   18.70    1.80   1
   4   9   4   12.00    2.90   1
  -4  -9  -4   15.20    2.50   1
   4   9   5   14.00    2.90   1
  -4  -9  -5   17.00    4.20   1
   4   9   6  121.40    6.80   1
  -4  -9  -6  124.00    9.40   1
   4   9   7   25.20    4.60   1
  -4  -9  -7   21.30    4.60   1
   4   9   8   17.70    4.20   1
  -4  -9  -8   14.50    4.60   1
   4   9   9    4.10    4.00   1
  -4  -9  -9    6.80    3.90   1
   4   9  10    4.60    4.10   1
  -4  -9 -10    5.60    4.10   1
   4   9  11    4.40    5.20   1
  -4  -9 -11   -1.30    5.50   1
   4   9  12   30.80    6.10   1
  -4  -9 -12   19.70    5.30   1
   4  10 -11   -3.00    2.60   1
  -4 -10  11    0.20    2.60   1
   4  10 -10    3.30    2.70   1
  -4 -10  10    3.20    2.70   1
   4  10  -9   10.90    2.60   1
  -4 -10   9   13.10    2.90   1
   4  10  -8   38.30    3.80   1
  -4 -10   8   44.80    4.10   1
   4  10  -7    3.40    2.00   1
  -4 -10   7    4.90    2.10   1
   4  10  -6   29.20    3.20   1
  -4 -10   6   30.70    3.60   1
   4  10  -5    4.20    1.80   1
  -4 -10   5    4.30    2.10   1
   4  10  -4   29.20    3.00   1
  -4 -10   4   34.10    3.30   1
   4  10  -3   41.90    3.10   1
  -4 -10   3   45.80    3.10   1
   4  10  -2   40.10    7.20   1
  -4 -10   2   40.20    3.50   1
   4  10  -1   42.90    6.70   1
  -4 -10   1   60.10    4.30   1
   4  10   0   87.70    9.50   1
  -4 -10   0  111.70    6.40   1
   4  10   1    4.60    5.00   1
  -4 -10  -1    2.50    2.00   1
   4  10   2   39.70    6.20   1
  -4 -10  -2   25.90    3.20   1
   4  10   3   15.50    5.00   1
  -4 -10  -3   13.70    2.90   1
   4  10   4   27.70    4.10   1
  -4 -10  -4   18.20    4.30   1
   4  10   5  123.30    7.40   1
  -4 -10  -5  121.80    9.20   1
   4  10   6   68.50    7.80   1
  -4 -10  -6   53.30    7.10   1
   4  10   7    7.90    5.40   1
  -4 -10  -7    3.10    3.80   1
   4  10   8   39.00    7.20   1
  -4 -10  -8   45.70    6.80   1
   4  10   9   -3.90    3.50   1
  -4 -10  -9    3.80    4.10   1
   4  10  10    7.00    4.80   1
  -4 -10 -10   16.80    5.40   1
  -4 -11   8   37.70    6.10   1
   4  11  -7   -6.00    6.30   1
  -4 -11   7   10.00    4.10   1
   4  11  -6   12.90    6.80   1
  -4 -11   6    8.30    4.00   1
   4  11  -5    4.70    6.30   1
  -4 -11   5    0.50    3.50   1
   4  11  -4   -4.10    5.60   1
  -4 -11   4    5.70    4.80   1
   4  11  -3   35.50    7.10   1
  -4 -11   3   31.60    5.50   1
   4  11  -2   48.90    8.70   1
  -4 -11   2   46.60    4.20   1
   4  11  -1    1.10    5.80   1
  -4 -11   1    0.30    2.60   1
   4  11   0   29.20    7.00   1
  -4 -11   0   18.80    3.00   1
  -4 -11  -1   10.20    2.70   1
   4  11   2   14.40    6.20   1
  -4 -11  -2   18.80    3.20   1
   4  11   3    9.30    5.70   1
  -4 -11  -3   11.40    3.10   1
   4  11   4   18.60    3.80   1
  -4 -11  -4   35.10    6.60   1
   4  11   5    9.80    4.40   1
  -4 -11  -5    6.00    4.30   1
   4  11   6   61.00    8.40   1
  -4 -11  -6   64.00    7.70   1
   4  11   7    9.90    4.40   1
  -4 -11  -7    6.20    4.00   1
  -4 -12   4   36.00    6.10   1
   4  12  -3  134.60   14.00   1
  -4 -12   3  165.00   13.80   1
   4  12  -2    5.60    6.00   1
  -4 -12   2   16.50    4.80   1
   4  12  -1   13.40    7.20   1
  -4 -12   1   23.70    5.70   1
   4  12   0    6.40    9.00   1
  -4 -12   0   12.00    5.10   1
   4  12   1   20.10    9.70   1
  -4 -12  -1   17.60    4.00   1
   4  12   2    3.40    6.20   1
  -4 -12  -2   -3.00    3.10   1
   4  12   3   15.30    5.30   1
  -4 -12  -3   19.80    3.50   1
   5 -11  -5   -2.90    3.80   1
   5 -11  -4    4.10    3.30   1
   5 -11  -3    2.90    3.00   1
  -5  11   3    2.50    4.20   1
   5 -11  -2    0.30    3.30   1
  -5  11   2    5.70    4.60   1
   5 -11  -1    5.40    3.20   1
   5 -11   0   53.00    5.40   1
  -5  11   0   60.40    8.10   1
   5 -11   1   42.70    4.70   1
   5 -11   2    8.10    3.10   1
  -5  11  -2    4.00    4.70   1
   5 -11   3   98.70    7.40   1
   5 -11   4   38.30    7.90   1
  -5  11  -4   20.20    5.60   1
   5 -10  -8   14.90    4.70   1
  -5  10   8    6.90    3.20   1
   5 -10  -7   11.40    4.70   1
  -5  10   7   13.50    5.70   1
   5 -10  -6    3.60    2.70   1
  -5  10   6    6.40    2.70   1
   5 -10  -5   81.50    6.60   1
  -5  10   5   81.00    6.40   1
   5 -10  -4   51.10    4.90   1
  -5  10   4   49.40    4.60   1
   5 -10  -3   69.40    5.80   1
  -5  10   3   73.40    9.00   1
   5 -10  -2    4.80    3.10   1
  -5  10   2    8.40    4.10   1
   5 -10  -1   59.90    4.90   1
  -5  10   1   74.40    8.10   1
   5 -10   0    3.10    2.80   1
  -5  10   0    6.80    4.30   1
   5 -10   1   14.20    3.40   1
  -5  10  -1   14.90    4.60   1
   5 -10   2   35.90    4.20   1
  -5  10  -2   55.10    6.60   1
   5 -10   3   -0.70    3.00   1
  -5  10  -3    1.90    3.70   1
   5 -10   4   20.90    3.40   1
  -5  10  -4   27.40    5.60   1
   5 -10   5    7.30    2.90   1
  -5  10  -5   13.00    4.80   1
   5 -10   6    7.40    3.10   1
  -5  10  -6    8.20    3.30   1
   5 -10   7    9.20    4.10   1
  -5  10  -7    7.40    4.60   1
  -5  10  -8    2.80    3.30   1
   5  -9 -11   15.20    6.40   1
  -5   9  11   20.80    6.10   1
   5  -9 -10    7.90    4.50   1
  -5   9  10   24.80    7.40   1
   5  -9  -9   25.60    4.80   1
  -5   9   9   30.00    4.30   1
   5  -9  -8    8.40    5.50   1
  -5   9   8    7.70    2.90   1
   5  -9  -7  186.00   15.00   1
  -5   9   7  163.50   10.10   1
   5  -9  -6   -0.50    2.20   1
  -5   9   6   -0.90    3.40   1
   5  -9  -5   40.10    4.10   1
  -5   9   5   36.70    6.10   1
   5  -9  -4    4.20    2.70   1
  -5   9   4    2.60    2.30   1
   5  -9  -3   39.20    3.90   1
  -5   9   3   42.20    4.00   1
   5  -9  -2   21.80    3.40   1
  -5   9   2   12.70    3.10   1
   5  -9  -1   64.80    4.80   1
  -5   9   1   59.40    7.10   1
   5  -9   0   11.30    2.60   1
  -5   9   0   15.80    4.30   1
   5  -9   1    4.60    2.60   1
   5  -9   2   71.70    5.20   1
  -5   9  -2   80.10    7.20   1
   5  -9   3   69.40    5.00   1
  -5   9  -3   67.30    6.70   1
   5  -9   4    8.50    3.90   1
  -5   9  -4   16.10    4.40   1
   5  -9   5    6.30    2.10   1
  -5   9  -5    3.10    2.70   1
   5  -9   6   29.10    2.50   1
  -5   9  -6   32.80    3.90   1
   5  -9   7   16.50    2.40   1
  -5   9  -7   20.20    3.50   1
   5  -9   8   -0.10    1.60   1
  -5   9  -8    3.50    2.60   1
   5  -9   9    1.50    2.00   1
  -5   9  -9    6.90    2.70   1
   5  -9  10   -0.70    2.60   1
  -5   9 -10   -1.70    3.10   1
   5  -8 -12    3.60    2.90   1
  -5   8  12   14.10    3.70   1
   5  -8 -11   -1.70    2.50   1
  -5   8  11    0.60    2.90   1
   5  -8 -10   16.00    4.50   1
  -5   8  10   17.00    3.60   1
   5  -8  -9   20.80    4.50   1
  -5   8   9   17.50    3.50   1
   5  -8  -8   42.30    5.80   1
  -5   8   8   47.80    4.50   1
   5  -8  -7    5.40    4.50   1
  -5   8   7    2.20    2.40   1
   5  -8  -6   36.50    3.80   1
  -5   8   6   31.80    3.80   1
   5  -8  -5    0.20    2.80   1
  -5   8   5    5.80    2.60   1
   5  -8  -4   26.00    3.10   1
  -5   8   4   19.90    3.10   1
   5  -8  -3    0.60    1.80   1
  -5   8   3   -0.30    1.80   1
   5  -8  -2   20.00    2.70   1
  -5   8   2   20.30    2.90   1
   5  -8  -1   24.70    2.90   1
  -5   8   1   27.50    3.00   1
   5  -8   0  144.90    4.70   1
  -5   8   0  135.10    5.20   1
   5  -8   1   27.10    1.90   1
  -5   8  -1   24.10    2.10   1
   5  -8   2   48.40    2.40   1
  -5   8  -2   33.30    4.00   1
   5  -8   3    4.70    1.40   1
  -5   8  -3    3.50    1.70   1
   5  -8   4   84.50    3.70   1
  -5   8  -4   67.00    4.70   1
   5  -8   5   12.40    1.70   1
  -5   8  -5   13.70    2.50   1
   5  -8   6  243.90    7.70   1
  -5   8  -6  221.80   10.80   1
   5  -8   7    7.50    1.70   1
  -5   8  -7    3.10    2.20   1
   5  -8   8   29.70    2.50   1
  -5   8  -8   37.60    5.70   1
   5  -8   9   74.90    4.20   1
  -5   8  -9   66.40    5.60   1
   5  -8  10    0.30    2.10   1
  -5   8 -10   -3.90    2.60   1
   5  -8  11    6.10    2.80   1
  -5   8 -11    4.40    5.30   1
   5  -8  12   17.90    3.40   1
  -5   8 -12   12.10    3.70   1
   5  -7 -14   16.00    5.50   1
   5  -7 -13    6.20    2.90   1
  -5   7  13    4.40    3.10   1
   5  -7 -12  100.70    6.70   1
  -5   7  12  106.20    7.40   1
   5  -7 -11   10.50    2.70   1
  -5   7  11   10.40    3.00   1
   5  -7 -10   58.80    4.70   1
  -5   7  10   48.70    4.90   1
   5  -7  -9  108.40    6.40   1
  -5   7   9  106.20   10.10   1
   5  -7  -8    3.70    3.20   1
  -5   7   8    6.00    3.40   1
   5  -7  -7   21.20    4.90   1
  -5   7   7   12.80    2.50   1
   5  -7  -6   26.60    2.90   1
  -5   7   6   25.80    3.10   1
   5  -7  -5   28.50    1.90   1
  -5   7   5   28.80    2.30   1
   5  -7  -4    8.40    1.10   1
  -5   7   4    4.30    1.20   1
   5  -7  -3  149.60    4.90   1
  -5   7   3  143.60    5.50   1
   5  -7  -2   21.40    1.60   1
  -5   7   2   21.70    2.00   1
   5  -7  -1    3.30    1.10   1
  -5   7   1    5.10    1.40   1
   5  -7   0  220.80    6.30   1
  -5   7   0  216.20    7.40   1
   5  -7   1   22.80    1.80   1
  -5   7  -1   21.90    2.50   1
   5  -7   2   41.90    2.20   1
  -5   7  -2   42.10    2.40   1
   5  -7   3   35.40    2.20   1
  -5   7  -3   34.00    2.20   1
   5  -7   4   39.60    2.20   1
  -5   7  -4   35.50    3.30   1
   5  -7   5   32.60    2.10   1
  -5   7  -5   31.70    3.00   1
   5  -7   6   38.30    2.40   1
  -5   7  -6   40.70    3.40   1
   5  -7   7    4.00    1.50   1
  -5   7  -7    5.20    2.60   1
   5  -7   8   44.60    2.80   1
  -5   7  -8   41.00    5.30   1
   5  -7   9   51.10    3.00   1
  -5   7  -9   46.30    6.10   1
   5  -7  10   28.30    2.80   1
  -5   7 -10   27.90    3.60   1
   5  -7  11   11.50    2.30   1
  -5   7 -11    8.40    3.10   1
   5  -7  12   34.10    3.60   1
  -5   7 -12   27.10    4.20   1
   5  -7  13   31.70    3.50   1
  -5   7 -13   32.40    6.20   1
   5  -6 -15   23.40    5.70   1
   5  -6 -14   22.20    3.50   1
  -5   6  14   15.40    6.40   1
   5  -6 -13   14.20    3.00   1
  -5   6  13   16.80    6.70   1
   5  -6 -12   50.10    4.60   1
  -5   6  12   37.30    4.60   1
   5  -6 -11    1.40    2.10   1
  -5   6  11    5.00    3.00   1
   5  -6 -10    6.50    2.20   1
  -5   6  10   14.00    4.00   1
   5  -6  -9   23.20    2.00   1
  -5   6   9   26.10    2.80   1
   5  -6  -8    2.30    1.00   1
  -5   6   8    0.40    1.40   1
   5  -6  -7   68.60    3.10   1
  -5   6   7   59.30    3.60   1
   5  -6  -6  331.40    8.10   1
  -5   6   6  324.70   10.00   1
   5  -6  -5   46.50    2.20   1
  -5   6   5   43.20    2.50   1
   5  -6  -4   38.10    1.70   1
  -5   6   4   38.10    2.30   1
   5  -6  -3  161.10    4.70   1
  -5   6   3  155.20    6.70   1
   5  -6  -2   15.70    1.30   1
  -5   6   2   17.40    1.60   1
   5  -6  -1   14.30    1.20   1
  -5   6   1   15.50    1.50   1
   5  -6   0   13.40    1.30   1
  -5   6   0   13.20    1.60   1
   5  -6   1    1.80    1.10   1
  -5   6  -1    4.60    1.30   1
   5  -6   2   23.30    1.70   1
  -5   6  -2   21.10    1.70   1
   5  -6   3   26.00    1.50   1
  -5   6  -3   23.60    1.90   1
   5  -6   4    3.50    0.90   1
  -5   6  -4    4.00    2.00   1
   5  -6   5    5.80    0.90   1
  -5   6  -5    3.20    1.80   1
   5  -6   6    0.10    1.40   1
  -5   6  -6    2.30    2.20   1
   5  -6   7   79.80    3.40   1
  -5   6  -7   88.10    5.30   1
   5  -6   8   13.50    1.70   1
  -5   6  -8    7.00    2.30   1
   5  -6   9   46.20    2.80   1
  -5   6  -9   47.50    5.80   1
   5  -6  10   19.30    2.00   1
  -5   6 -10   25.40    4.70   1
   5  -6  11  124.70    5.30   1
  -5   6 -11  124.00    7.10   1
   5  -6  12   61.30    5.30   1
  -5   6 -12   60.20    5.10   1
   5  -6  13   -1.40    2.70   1
  -5   6 -13   -5.70    3.90   1
   5  -6  14   -1.20    3.30   1
  -5   6 -14   -1.80    4.10   1
   5  -5 -16   14.60    5.50   1
   5  -5 -15   54.30    7.50   1
  -5   5  15   46.40    7.50   1
   5  -5 -14    7.60    2.80   1
  -5   5  14    7.40    4.40   1
   5  -5 -13  141.90    8.20   1
  -5   5  13  139.20   12.40   1
   5  -5 -12    1.60    1.60   1
  -5   5  12    3.30    3.60   1
   5  -5 -11   15.10    1.90   1
  -5   5  11   12.10    2.10   1
   5  -5 -10    1.50    1.10   1
  -5   5  10    1.70    1.60   1
   5  -5  -9   74.40    3.00   1
  -5   5   9   70.00    4.40   1
   5  -5  -8   -2.10    1.20   1
  -5   5   8    1.40    1.80   1
   5  -5  -7    1.00    0.90   1
  -5   5   7    4.40    1.30   1
   5  -5  -6   15.40    1.10   1
  -5   5   6   14.20    1.80   1
   5  -5  -5    1.30    0.80   1
  -5   5   5    1.60    1.40   1
   5  -5  -4    9.10    1.10   1
  -5   5   4    9.30    1.40   1
   5  -5  -3   35.50    1.70   1
  -5   5   3   36.20    2.00   1
   5  -5  -2    0.80    0.70   1
  -5   5   2    2.50    1.10   1
   5  -5  -1    2.80    0.90   1
  -5   5   1    1.00    1.00   1
   5  -5   0   34.30    1.70   1
  -5   5   0   32.60    1.90   1
   5  -5   1  172.60    4.60   1
  -5   5  -1  171.20    6.70   1
   5  -5   2  101.70    3.10   1
  -5   5  -2   92.80    3.50   1
   5  -5   3  409.50    9.60   1
  -5   5  -3  404.00   10.60   1
   5  -5   4    0.40    0.70   1
  -5   5  -4   -0.70    1.80   1
   5  -5   5  178.80    4.70   1
  -5   5  -5  181.30    7.50   1
   5  -5   6   12.50    1.00   1
  -5   5  -6    8.30    2.00   1
   5  -5   7   31.40    1.70   1
  -5   5  -7   27.70    2.90   1
   5  -5   8   81.40    3.10   1
  -5   5  -8   75.30    4.40   1
   5  -5   9    4.30    1.20   1
  -5   5  -9   14.20    4.00   1
   5  -5  10   16.20    1.80   1
  -5   5 -10   18.30    3.70   1
   5  -5  11    0.30    1.60   1
  -5   5 -11    0.50    4.50   1
   5  -5  12    0.60    1.90   1
  -5   5 -12    4.50    2.00   1
   5  -5  13    3.20    2.30   1
  -5   5 -13    8.40    4.20   1
   5  -5  14   13.30    2.40   1
  -5   5 -14   10.60    4.70   1
   5  -5  15   72.00    6.40   1
  -5   5 -15   66.30    8.70   1
   5  -4 -16    6.00    3.90   1
  -5   4  16    1.70    4.30   1
   5  -4 -15   61.70    4.30   1
  -5   4  15   66.20    5.50   1
   5  -4 -14   19.10    2.20   1
  -5   4  14   13.00    3.30   1
   5  -4 -13   21.50    2.10   1
  -5   4  13   19.30    2.90   1
   5  -4 -12    6.70    1.70   1
  -5   4  12    8.60    2.50   1
   5  -4 -11   37.60    2.30   1
  -5   4  11   30.10    3.10   1
   5  -4 -10   96.20    3.60   1
  -5   4  10   90.80    5.50   1
   5  -4  -9  132.10    4.50   1
  -5   4   9  127.60    6.20   1
   5  -4  -8   78.30    3.00   1
  -5   4   8   76.30    3.50   1
   5  -4  -7    5.80    1.00   1
  -5   4   7    4.20    1.20   1
   5  -4  -6   57.50    2.10   1
  -5   4   6   66.20    3.00   1
   5  -4  -5    1.40    0.90   1
  -5   4   5    1.10    1.20   1
   5  -4  -4  343.80    7.50   1
  -5   4   4  340.50    8.80   1
   5  -4  -3  134.90    3.80   1
  -5   4   3  137.90    5.10   1
   5  -4  -2   17.10    1.30   1
  -5   4   2   10.30    1.70   1
   5  -4  -1  174.50    4.40   1
  -5   4   1  172.40    5.40   1
   5  -4   0   29.90    1.50   1
  -5   4   0   29.40    1.80   1
   5  -4   1    4.50    1.00   1
  -5   4  -1    3.60    1.10   1
   5  -4   2    9.60    1.10   1
  -5   4  -2    9.80    1.40   1
   5  -4   3   34.10    1.80   1
  -5   4  -3   28.20    3.20   1
   5  -4   4    6.30    0.80   1
  -5   4  -4   11.00    1.80   1
   5  -4   5   27.80    1.30   1
  -5   4  -5   25.20    2.50   1
   5  -4   6   71.50    2.20   1
  -5   4  -6   67.40    3.80   1
   5  -4   7   97.90    3.00   1
  -5   4  -7  105.40    5.00   1
   5  -4   8    6.30    1.00   1
  -5   4  -8    1.50    2.30   1
   5  -4   9  145.10    4.50   1
  -5   4  -9  129.20    8.60   1
   5  -4  10   94.40    3.90   1
  -5   4 -10  107.70    8.40   1
   5  -4  11    7.80    1.30   1
  -5   4 -11   11.50    3.60   1
   5  -4  12   53.60    3.60   1
  -5   4 -12   46.20    6.80   1
   5  -4  13   -1.60    1.70   1
  -5   4 -13    3.00    3.50   1
   5  -4  14    7.50    2.20   1
  -5   4 -14    6.30    3.70   1
   5  -4  15   23.40    3.00   1
  -5   4 -15   10.80    4.90   1
   5  -4  16   31.80    3.90   1
  -5   4 -16   20.10    5.60   1
   5  -3 -17    2.00    2.80   1
  -5   3  17    6.40    4.20   1
   5  -3 -16   10.20    2.50   1
  -5   3  16   -3.40    3.10   1
   5  -3 -15    4.30    1.70   1
  -5   3  15    3.70    2.60   1
   5  -3 -14    4.50    1.70   1
  -5   3  14    3.00    2.30   1
   5  -3 -13   19.50    2.00   1
  -5   3  13   23.80    3.30   1
   5  -3 -12   90.30    3.70   1
  -5   3  12   76.30    5.10   1
   5  -3 -11    2.00    1.10   1
  -5   3  11   -1.30    1.90   1
   5  -3 -10  108.50    4.00   1
  -5   3  10  103.50    5.50   1
   5  -3  -9   23.30    1.70   1
  -5   3   9   25.10    2.20   1
   5  -3  -8  109.50    4.00   1
  -5   3   8  115.40    4.40   1
   5  -3  -7   72.60    2.60   1
  -5   3   7   67.70    3.00   1
   5  -3  -6   35.20    1.60   1
  -5   3   6   34.80    2.30   1
   5  -3  -5   11.30    1.00   1
  -5   3   5   12.10    1.60   1
   5  -3  -4   13.40    1.20   1
  -5   3   4   13.30    1.20   1
   5  -3  -3   22.20    1.40   1
  -5   3   3   23.20    1.40   1
   5  -3  -2  288.10    6.50   1
  -5   3   2  304.70    7.90   1
   5  -3  -1   42.60    1.80   1
  -5   3   1   44.40    2.10   1
   5  -3   0  217.70    5.10   1
  -5   3   0  223.60    6.10   1
   5  -3   1    0.60    0.90   1
  -5   3  -1   -0.20    1.20   1
   5  -3   2   64.40    1.90   1
  -5   3  -2   66.80    2.70   1
   5  -3   3   16.70    1.10   1
  -5   3  -3   18.90    2.10   1
   5  -3   4   16.00    1.10   1
  -5   3  -4   13.60    2.30   1
   5  -3   5    1.30    0.70   1
  -5   3  -5   -0.40    1.40   1
   5  -3   6  301.10    6.50   1
  -5   3  -6  306.10   10.00   1
   5  -3   7   24.10    1.30   1
  -5   3  -7   25.60    3.00   1
   5  -3   8   65.00    2.30   1
  -5   3  -8   55.30    5.60   1
   5  -3   9    0.90    1.10   1
  -5   3  -9   -1.90    2.30   1
   5  -3  10    4.00    1.00   1
  -5   3 -10    2.30    2.60   1
   5  -3  11   -0.20    1.10   1
  -5   3 -11    3.80    4.00   1
   5  -3  12  284.60    9.00   1
  -5   3 -12  259.30   15.40   1
   5  -3  13   26.70    2.80   1
  -5   3 -13   31.30    6.00   1
   5  -3  14   10.10    2.30   1
  -5   3 -14   16.60    4.70   1
   5  -3  15   24.90    3.20   1
  -5   3 -15   31.10    7.10   1
   5  -3  16   73.80    5.20   1
  -5   3 -16   73.00    9.50   1
   5  -2 -17   14.40    2.80   1
  -5   2  17   13.30    3.80   1
   5  -2 -16   31.30    3.20   1
  -5   2  16   29.40    3.70   1
   5  -2 -15   35.60    3.00   1
  -5   2  15   35.00    3.80   1
   5  -2 -14   33.60    2.70   1
  -5   2  14   30.60    3.50   1
   5  -2 -13    2.20    1.40   1
  -5   2  13    0.40    2.10   1
   5  -2 -12   18.80    2.00   1
  -5   2  12   16.60    2.70   1
   5  -2 -11   45.20    2.40   1
  -5   2  11   50.20    3.60   1
   5  -2 -10    2.30    1.10   1
  -5   2  10    2.90    2.00   1
   5  -2  -9   43.20    1.90   1
  -5   2   9   39.40    3.10   1
   5  -2  -8  166.70    4.80   1
  -5   2   8  169.50    7.00   1
   5  -2  -7    2.60    1.10   1
  -5   2   7    1.30    1.50   1
   5  -2  -6  109.40    3.00   1
  -5   2   6  110.20    3.50   1
   5  -2  -5   33.60    1.20   1
  -5   2   5   37.90    1.90   1
   5  -2  -4  146.00    3.30   1
  -5   2   4  147.60    3.90   1
   5  -2  -3   20.30    0.80   1
  -5   2   3   19.10    1.00   1
   5  -2  -2    1.50    0.30   1
  -5   2   2    0.80    0.90   1
   5  -2  -1   39.30    1.10   1
  -5   2   1   37.80    1.60   1
   5  -2   0  298.10    5.60   1
  -5   2   0  297.40    6.60   1
   5  -2   1   96.70    2.40   1
  -5   2  -1  100.30    2.90   1
   5  -2   2   26.30    1.30   1
  -5   2  -2   28.30    1.50   1
   5  -2   3   28.00    1.40   1
  -5   2  -3   27.40    2.30   1
   5  -2   4   22.00    1.30   1
  -5   2  -4   18.90    2.00   1
   5  -2   5   14.50    1.30   1
  -5   2  -5   14.50    2.00   1
   5  -2   6  390.40    8.70   1
  -5   2  -6  382.50   17.20   1
   5  -2   7  118.60    3.00   1
  -5   2  -7  114.10    6.90   1
   5  -2   8    7.80    1.30   1
  -5   2  -8   10.10    2.70   1
   5  -2   9    6.70    1.20   1
  -5   2  -9    6.60    2.50   1
   5  -2  10   25.80    1.80   1
  -5   2 -10   27.80    4.80   1
   5  -2  11    5.40    1.70   1
  -5   2 -11    0.80    2.60   1
   5  -2  12   31.00    2.70   1
  -5   2 -12   27.30    4.50   1
   5  -2  13    5.60    2.00   1
  -5   2 -13   11.80    4.80   1
   5  -2  14   56.70    3.80   1
  -5   2 -14   57.10    6.90   1
   5  -2  15   55.20    4.20   1
  -5   2 -15   48.10    7.00   1
   5  -2  16    3.60    2.50   1
  -5   2 -16   -4.30    4.10   1
   5  -2  17    3.50    3.20   1
  -5   2 -17   -3.10    4.00   1
   5  -1 -17   46.60    4.20   1
  -5   1  17   40.10    4.70   1
   5  -1 -16    2.00    2.00   1
  -5   1  16    2.70    3.00   1
   5  -1 -15    5.10    2.20   1
  -5   1  15    3.80    3.70   1
   5  -1 -14   55.50    3.20   1
  -5   1  14   65.90    5.10   1
   5  -1 -13   62.20    3.20   1
  -5   1  13   64.60    4.80   1
   5  -1 -12  180.90    6.00   1
  -5   1  12  183.50    8.40   1
   5  -1 -11    2.90    1.40   1
  -5   1  11    2.10    2.40   1
   5  -1 -10   23.20    1.70   1
  -5   1  10   26.50    2.70   1
   5  -1  -9  273.00    6.90   1
  -5   1   9  288.20   10.70   1
   5  -1  -8   19.80    1.70   1
  -5   1   8   23.40    2.80   1
   5  -1  -7   13.30    1.00   1
  -5   1   7   12.30    1.70   1
   5  -1  -6    6.00    0.90   1
  -5   1   6    4.20    1.10   1
   5  -1  -5   11.90    1.00   1
  -5   1   5   10.20    1.30   1
   5  -1  -4   83.80    2.30   1
  -5   1   4   86.40    2.40   1
   5  -1  -3  260.20    5.30   1
  -5   1   3  264.40    5.20   1
   5  -1  -2    4.00    0.70   1
  -5   1   2    4.20    0.80   1
   5  -1  -1    1.50    0.60   1
  -5   1   1    0.60    0.70   1
   5  -1   0  105.20    2.50   1
  -5   1   0  106.90    3.30   1
   5  -1   1  181.30    4.20   1
  -5   1  -1  190.70    4.60   1
   5  -1   2  162.90    4.00   1
  -5   1  -2  172.00    5.00   1
   5  -1   3   98.40    2.80   1
  -5   1  -3  100.10    3.30   1
   5  -1   4   24.90    1.40   1
  -5   1  -4   27.80    1.80   1
   5  -1   5  180.20    4.40   1
  -5   1  -5  180.00    6.30   1
   5  -1   6   44.30    1.90   1
  -5   1  -6   36.90    4.10   1
   5  -1   7    0.50    1.10   1
  -5   1  -7   -7.60    2.80   1
   5  -1   8   10.10    1.20   1
  -5   1  -8    8.80    3.40   1
   5  -1   9   12.20    1.30   1
  -5   1  -9   10.90    3.80   1
   5  -1  10   11.90    1.30   1
  -5   1 -10    8.10    3.90   1
   5  -1  11    3.40    1.80   1
  -5   1 -11    6.30    3.00   1
   5  -1  12   11.70    2.20   1
  -5   1 -12   19.20    3.80   1
   5  -1  13   39.40    3.10   1
  -5   1 -13   33.40    5.10   1
   5  -1  14   20.50    2.70   1
  -5   1 -14   18.70    4.10   1
   5  -1  15  113.70    6.10   1
  -5   1 -15  117.70   10.40   1
   5  -1  16   16.70    3.10   1
  -5   1 -16   28.90    6.70   1
   5  -1  17   15.60    3.00   1
  -5   1 -17   11.80    5.00   1
   5   0 -17    2.70    2.50   1
  -5   0  17    0.80    3.20   1
   5   0 -16    4.00    1.90   1
  -5   0  16   -5.10    3.50   1
   5   0 -15   11.00    2.20   1
  -5   0  15    5.90    3.10   1
   5   0 -14    1.00    1.60   1
  -5   0  14    0.90    2.20   1
   5   0 -13   45.40    2.70   1
  -5   0  13   47.00    4.10   1
   5   0 -12    0.00    1.50   1
  -5   0  12   -2.90    2.20   1
   5   0 -11    5.50    1.30   1
  -5   0  11    2.70    1.80   1
   5   0 -10   -0.30    1.10   1
  -5   0  10   -1.10    1.80   1
   5   0  -9   25.90    1.90   1
  -5   0   9   32.60    2.80   1
   5   0  -8    0.50    1.00   1
  -5   0   8    1.20    1.70   1
   5   0  -7  129.60    4.00   1
  -5   0   7  129.40    5.90   1
   5   0  -6    0.80    0.80   1
  -5   0   6   -1.00    1.80   1
   5   0  -5  121.20    3.10   1
  -5   0   5  120.60    3.90   1
   5   0  -4   -0.20    0.60   1
  -5   0   4    0.30    1.50   1
   5   0  -3  653.70   11.30   1
  -5   0   3  640.00   12.50   1
   5   0  -2    0.00    0.70   1
  -5   0   2   -0.40    1.10   1
   5   0  -1   14.20    1.20   1
  -5   0   1   15.20    1.00   1
   5   0   0    0.20    0.80   1
  -5   0   0    1.20    0.60   1
   5   0   1   23.60    1.40   1
  -5   0  -1   24.30    1.50   1
   5   0   2    0.20    0.90   1
  -5   0  -2    0.00    0.70   1
   5   0   3  131.10    3.50   1
  -5   0  -3  139.00    4.30   1
   5   0   4   -1.20    0.90   1
  -5   0  -4   -0.20    1.60   1
   5   0   5  112.20    3.20   1
  -5   0  -5   99.40    5.80   1
   5   0   6    0.20    0.40   1
  -5   0  -6    0.70    1.90   1
   5   0   7  153.10    4.20   1
  -5   0  -7  148.60    8.40   1
   5   0   8   -0.80    0.90   1
  -5   0  -8   -4.20    3.00   1
   5   0   9  311.30    7.90   1
  -5   0  -9  323.50   15.90   1
   5   0  10   -1.20    0.80   1
  -5   0 -10    2.70    3.50   1
   5   0  11  387.20   11.10   1
  -5   0 -11  408.60   20.00   1
   5   0  12   -2.60    1.70   1
  -5   0 -12   -1.60    2.70   1
   5   0  13    2.90    1.80   1
  -5   0 -13    6.80    3.00   1
   5   0  14   -2.10    1.70   1
  -5   0 -14   -0.80    3.40   1
   5   0  15    9.80    3.10   1
  -5   0 -15   13.50    5.50   1
   5   0  16    1.10    2.20   1
  -5   0 -16   -2.90    3.80   1
   5   0  17   14.70    3.00   1
  -5   0 -17   14.90    5.40   1
   5   1 -17   34.50    3.80   1
  -5  -1  17   35.20    4.60   1
   5   1 -16   -0.40    1.70   1
  -5  -1  16    0.20    3.00   1
   5   1 -15    3.60    1.80   1
  -5  -1  15   -2.20    3.10   1
   5   1 -14   56.30    3.20   1
  -5  -1  14   62.00    4.80   1
   5   1 -13   56.30    3.10   1
  -5  -1  13   71.90    5.00   1
   5   1 -12  179.70    6.00   1
  -5  -1  12  183.80    8.70   1
   5   1 -11    3.20    1.50   1
  -5  -1  11    3.40    2.30   1
   5   1 -10   26.60    1.90   1
  -5  -1  10   26.20    2.90   1
   5   1  -9  267.30    7.10   1
  -5  -1   9  256.40   10.00   1
   5   1  -8   19.60    1.50   1
  -5  -1   8   21.40    1.70   1
   5   1  -7   12.50    1.30   1
  -5  -1   7   13.40    2.10   1
   5   1  -6    5.30    0.90   1
  -5  -1   6    6.90    1.10   1
   5   1  -5    9.90    1.20   1
  -5  -1   5   11.20    2.20   1
   5   1  -4   83.20    3.10   1
  -5  -1   4   80.50    3.70   1
   5   1  -3  262.50    7.10   1
  -5  -1   3  253.70    6.60   1
   5   1  -2    4.20    0.60   1
  -5  -1   2    4.40    0.60   1
   5   1  -1    1.40    1.50   1
  -5  -1   1    0.60    0.30   1
   5   1   0   99.50    3.40   1
  -5  -1   0  103.90    3.90   1
   5   1   1  179.30    3.90   1
  -5  -1  -1  184.90    6.10   1
   5   1   2  166.80    4.20   1
  -5  -1  -2  172.40    5.50   1
   5   1   3  102.60    3.40   1
  -5  -1  -3  100.50    3.30   1
   5   1   4   29.40    1.60   1
  -5  -1  -4   27.50    3.20   1
   5   1   5  193.20    4.00   1
  -5  -1  -5  184.00    9.30   1
   5   1   6   47.20    1.70   1
  -5  -1  -6   45.50    3.80   1
   5   1   7    1.10    1.00   1
  -5  -1  -7   -0.60    2.80   1
   5   1   8    7.00    1.10   1
  -5  -1  -8    8.90    2.60   1
   5   1   9   13.00    1.30   1
  -5  -1  -9   15.50    2.80   1
   5   1  10   10.60    1.70   1
  -5  -1 -10   18.20    3.30   1
   5   1  11    5.70    1.80   1
  -5  -1 -11    6.20    3.00   1
   5   1  12   13.50    2.10   1
  -5  -1 -12   19.80    4.10   1
   5   1  13   35.00    3.80   1
  -5  -1 -13   34.80    5.90   1
   5   1  14   30.80    3.20   1
  -5  -1 -14   18.70    5.40   1
   5   1  15  117.20    6.30   1
  -5  -1 -15  104.70   10.40   1
   5   1  16   22.30    3.00   1
  -5  -1 -16   14.30    4.30   1
   5   1  17   10.80    3.30   1
  -5  -1 -17   24.80    7.10   1
   5   2 -17   16.90    2.60   1
  -5  -2  17   18.20    3.50   1
   5   2 -16   33.10    3.10   1
  -5  -2  16   35.10    4.40   1
   5   2 -15   33.60    2.80   1
  -5  -2  15   36.20    4.50   1
   5   2 -14   31.40    2.70   1
  -5  -2  14   32.10    4.80   1
   5   2 -13    1.60    1.60   1
  -5  -2  13    1.70    2.30   1
   5   2 -12   12.60    1.80   1
  -5  -2  12   19.10    2.70   1
   5   2 -11   40.00    2.40   1
  -5  -2  11   46.00    3.90   1
   5   2 -10    1.50    1.20   1
  -5  -2  10   -0.60    1.80   1
   5   2  -9   42.80    2.30   1
  -5  -2   9   38.40    3.30   1
   5   2  -8  159.70    4.70   1
  -5  -2   8  152.20    6.10   1
   5   2  -7    5.20    1.00   1
  -5  -2   7    1.80    1.00   1
   5   2  -6  112.90    3.40   1
  -5  -2   6  108.80    3.90   1
   5   2  -5   32.70    1.50   1
  -5  -2   5   35.20    2.80   1
   5   2  -4  149.30    4.70   1
  -5  -2   4  135.50    3.50   1
   5   2  -3   18.60    1.80   1
  -5  -2   3   22.20    1.40   1
   5   2  -2    2.50    0.30   1
  -5  -2   2    1.60    0.60   1
   5   2  -1   38.00    2.30   1
  -5  -2   1   38.70    2.10   1
   5   2   0  303.70    7.90   1
  -5  -2   0  295.80    8.70   1
   5   2   1   97.40    3.00   1
  -5  -2  -1   89.40    5.70   1
   5   2   2   26.70    1.50   1
  -5  -2  -2   22.70    2.60   1
   5   2   3   27.90    1.30   1
  -5  -2  -3   27.20    3.10   1
   5   2   4   21.30    1.40   1
  -5  -2  -4   21.10    1.00   1
   5   2   5   19.50    1.20   1
  -5  -2  -5   15.90    2.70   1
   5   2   6  394.10   10.20   1
  -5  -2  -6  395.10   16.00   1
   5   2   7  107.10    3.40   1
  -5  -2  -7  104.80    6.70   1
   5   2   8    9.30    1.30   1
  -5  -2  -8   12.30    2.80   1
   5   2   9    6.40    1.20   1
  -5  -2  -9   11.50    2.70   1
   5   2  10   22.80    2.30   1
  -5  -2 -10   23.30    4.00   1
   5   2  11   -0.80    1.90   1
  -5  -2 -11   -2.50    3.40   1
   5   2  12   34.20    2.90   1
  -5  -2 -12   23.50    5.10   1
   5   2  13    8.90    2.60   1
  -5  -2 -13   11.70    4.40   1
   5   2  14   63.10    4.10   1
  -5  -2 -14   57.80    6.40   1
   5   2  15   59.80    4.30   1
  -5  -2 -15   53.40    4.50   1
   5   2  16   -0.40    2.10   1
  -5  -2 -16    1.40    2.30   1
   5   2  17    4.90    3.10   1
  -5  -2 -17    4.00    5.90   1
   5   3 -17    0.50    2.50   1
  -5  -3  17    1.20    3.00   1
   5   3 -16    5.70    2.90   1
  -5  -3  16    2.50    3.30   1
   5   3 -15    5.50    2.30   1
  -5  -3  15   13.00    3.40   1
   5   3 -14    4.10    2.20   1
  -5  -3  14    1.20    3.80   1
   5   3 -13   15.50    2.30   1
  -5  -3  13   23.10    3.30   1
   5   3 -12   74.00    3.60   1
  -5  -3  12   73.50    4.90   1
   5   3 -11    3.70    1.50   1
  -5  -3  11    3.70    2.50   1
   5   3 -10  106.50    4.10   1
  -5  -3  10  100.10    5.50   1
   5   3  -9   23.60    1.90   1
  -5  -3   9   22.10    2.90   1
   5   3  -8  107.70    4.50   1
  -5  -3   8  115.90    5.30   1
   5   3  -7   65.60    2.70   1
  -5  -3   7   61.80    2.50   1
   5   3  -6   32.40    1.80   1
  -5  -3   6   36.00    2.80   1
   5   3  -5   11.10    0.80   1
  -5  -3   5   11.90    1.40   1
   5   3  -4    9.10    1.60   1
  -5  -3   4   11.60    1.20   1
   5   3  -3   18.00    1.80   1
  -5  -3   3   22.10    1.30   1
   5   3  -2  317.30    6.70   1
  -5  -3   2  312.10    8.20   1
   5   3  -1   47.70    1.80   1
  -5  -3   1   48.30    2.30   1
   5   3   0  235.90    5.40   1
  -5  -3   0  230.10    7.20   1
   5   3   1   -0.60    1.20   1
  -5  -3  -1    2.50    1.10   1
   5   3   2   67.20    2.40   1
  -5  -3  -2   57.50    4.20   1
   5   3   3   18.10    1.20   1
  -5  -3  -3   16.50    2.90   1
   5   3   4   16.90    1.30   1
  -5  -3  -4   19.30    2.60   1
   5   3   5    0.80    1.00   1
  -5  -3  -5    0.30    0.40   1
   5   3   6  297.20    8.20   1
  -5  -3  -6  306.10    9.80   1
   5   3   7   25.70    2.20   1
  -5  -3  -7   25.90    2.00   1
   5   3   8   63.30    2.70   1
  -5  -3  -8   67.20    3.50   1
   5   3   9    0.70    0.90   1
  -5  -3  -9    3.50    1.50   1
   5   3  10    3.40    1.60   1
  -5  -3 -10    3.80    1.40   1
   5   3  11   -1.40    2.20   1
  -5  -3 -11    0.90    1.40   1
   5   3  12  281.10    9.30   1
  -5  -3 -12  282.60   10.80   1
   5   3  13   29.80    3.10   1
  -5  -3 -13   25.60    3.00   1
   5   3  14   13.60    2.80   1
  -5  -3 -14   16.50    3.80   1
   5   3  15   22.70    3.00   1
  -5  -3 -15   21.30    4.70   1
   5   3  16   64.40    4.80   1
  -5  -3 -16   69.20    8.20   1
   5   4 -16    9.20    3.10   1
  -5  -4  16    5.70    2.90   1
   5   4 -15   70.50    5.10   1
  -5  -4  15   65.60    5.60   1
   5   4 -14   26.80    3.50   1
  -5  -4  14   19.90    3.70   1
   5   4 -13   22.00    3.00   1
  -5  -4  13   21.50    2.90   1
   5   4 -12    5.80    2.20   1
  -5  -4  12    9.70    2.50   1
   5   4 -11   34.40    2.40   1
  -5  -4  11   37.20    3.40   1
   5   4 -10   94.80    3.80   1
  -5  -4  10   85.80    5.10   1
   5   4  -9  122.50    4.50   1
  -5  -4   9  118.70    6.10   1
   5   4  -8   74.70    3.20   1
  -5  -4   8   71.10    4.10   1
   5   4  -7    4.40    0.90   1
  -5  -4   7    5.60    1.40   1
   5   4  -6   58.80    2.30   1
  -5  -4   6   60.20    2.60   1
   5   4  -5    0.10    1.30   1
  -5  -4   5    1.10    1.00   1
   5   4  -4  326.80    9.20   1
  -5  -4   4  334.20   11.30   1
   5   4  -3  142.20    4.80   1
  -5  -4   3  144.50    5.90   1
   5   4  -2   15.20    1.10   1
  -5  -4   2   17.30    1.80   1
   5   4  -1  179.10    4.70   1
  -5  -4   1  182.20    6.40   1
   5   4   0   30.90    1.60   1
  -5  -4   0   26.50    1.80   1
   5   4   1    4.00    1.00   1
  -5  -4  -1    3.60    1.00   1
   5   4   2   10.30    1.00   1
  -5  -4  -2    9.80    1.20   1
   5   4   3   34.60    1.80   1
  -5  -4  -3   31.00    3.20   1
   5   4   4    6.20    1.10   1
  -5  -4  -4    8.20    2.10   1
   5   4   5   27.90    1.80   1
  -5  -4  -5   34.70    3.80   1
   5   4   6   69.40    2.60   1
  -5  -4  -6   68.50    3.10   1
   5   4   7  110.00    3.60   1
  -5  -4  -7  113.00    4.30   1
   5   4   8    4.40    1.60   1
  -5  -4  -8    6.00    1.30   1
   5   4   9  141.70    5.40   1
  -5  -4  -9  131.20    6.10   1
   5   4  10  106.40    4.50   1
  -5  -4 -10  105.40    5.10   1
   5   4  11    9.20    1.90   1
  -5  -4 -11   14.20    4.20   1
   5   4  12   54.60    3.60   1
  -5  -4 -12   45.70    6.00   1
   5   4  13    0.80    1.80   1
  -5  -4 -13    3.40    3.10   1
   5   4  14    6.50    2.20   1
  -5  -4 -14    6.10    3.30   1
   5   4  15   17.10    3.10   1
  -5  -4 -15   19.90    3.50   1
   5   4  16   28.30    3.90   1
  -5  -4 -16   20.10    4.10   1
   5   5 -16   -0.30    4.60   1
   5   5 -15   50.20    4.70   1
  -5  -5  15   61.20    9.80   1
   5   5 -14    9.70    3.10   1
  -5  -5  14    7.40    2.60   1
   5   5 -13  144.20    7.30   1
  -5  -5  13  135.20    7.50   1
   5   5 -12   -1.40    2.50   1
  -5  -5  12   -0.40    2.90   1
   5   5 -11   21.00    3.00   1
  -5  -5  11   15.60    2.50   1
   5   5 -10    0.60    2.10   1
  -5  -5  10    1.50    2.90   1
   5   5  -9   77.40    4.30   1
  -5  -5   9   77.30    4.70   1
   5   5  -8    0.60    2.00   1
  -5  -5   8   -0.50    1.70   1
   5   5  -7    4.10    2.00   1
  -5  -5   7    2.80    1.70   1
   5   5  -6   12.40    2.00   1
  -5  -5   6   16.50    1.50   1
   5   5  -5   -0.40    1.70   1
  -5  -5   5    2.30    1.20   1
   5   5  -4    8.40    1.70   1
  -5  -5   4    8.70    1.20   1
   5   5  -3   40.20    2.60   1
  -5  -5   3   34.80    2.00   1
   5   5  -2    2.40    1.30   1
  -5  -5   2    2.70    1.20   1
   5   5  -1    3.50    1.50   1
  -5  -5   1    3.00    1.40   1
   5   5   0   28.10    2.00   1
  -5  -5   0   30.80    2.20   1
   5   5   1  168.60    5.30   1
  -5  -5  -1  175.10    6.30   1
   5   5   2   91.90    3.70   1
  -5  -5  -2  100.30    4.10   1
   5   5   3  406.90   10.80   1
  -5  -5  -3  405.70   16.60   1
   5   5   4   -0.30    1.00   1
  -5  -5  -4   -1.00    1.70   1
   5   5   5  182.50    5.40   1
  -5  -5  -5  184.90   10.90   1
   5   5   6    9.30    1.40   1
  -5  -5  -6   11.90    2.40   1
   5   5   7   30.50    1.80   1
  -5  -5  -7   30.70    3.70   1
   5   5   8   77.90    3.20   1
  -5  -5  -8   82.40    6.20   1
   5   5   9    7.20    1.90   1
  -5  -5  -9    4.30    3.30   1
   5   5  10   18.20    2.20   1
  -5  -5 -10   13.20    3.00   1
   5   5  11    1.90    1.60   1
  -5  -5 -11    1.00    2.60   1
   5   5  12   -0.70    1.90   1
  -5  -5 -12    8.90    4.40   1
   5   5  13    1.70    2.40   1
  -5  -5 -13    1.50    3.20   1
   5   5  14    8.30    2.60   1
  -5  -5 -14   11.20    3.40   1
   5   5  15   94.80    6.00   1
  -5  -5 -15   82.90    7.20   1
   5   6 -15   14.50    4.10   1
  -5  -6  15   15.10    5.70   1
   5   6 -14   20.90    3.40   1
  -5  -6  14   26.20    6.30   1
   5   6 -13   14.70    3.60   1
  -5  -6  13    3.70    5.20   1
   5   6 -12   39.30    4.10   1
  -5  -6  12   46.40    4.40   1
   5   6 -11    0.30    2.40   1
  -5  -6  11    5.00    3.20   1
   5   6 -10    4.20    2.30   1
  -5  -6  10    6.20    2.70   1
   5   6  -9   22.30    2.90   1
  -5  -6   9   27.10    3.10   1
   5   6  -8    1.20    1.90   1
  -5  -6   8    1.80    1.80   1
   5   6  -7   62.70    3.80   1
  -5  -6   7   62.30    4.10   1
   5   6  -6  341.40   10.30   1
  -5  -6   6  312.40   12.20   1
   5   6  -5   44.60    2.70   1
  -5  -6   5   45.90    2.40   1
   5   6  -4   36.80    2.80   1
  -5  -6   4   36.10    2.20   1
   5   6  -3  169.60    6.10   1
  -5  -6   3  156.20    5.50   1
   5   6  -2   16.80    2.00   1
  -5  -6   2   14.50    1.60   1
   5   6  -1   13.80    2.00   1
  -5  -6   1   16.90    1.50   1
   5   6   0   15.50    2.00   1
  -5  -6   0   14.60    1.60   1
   5   6   1    2.40    1.30   1
  -5  -6  -1    0.40    1.00   1
   5   6   2   24.70    2.40   1
  -5  -6  -2   20.40    1.70   1
   5   6   3   26.60    2.10   1
  -5  -6  -3   27.50    2.60   1
   5   6   4    4.90    1.20   1
  -5  -6  -4    4.00    1.80   1
   5   6   5    5.40    1.30   1
  -5  -6  -5    3.50    1.60   1
   5   6   6    1.00    1.20   1
  -5  -6  -6    2.90    1.60   1
   5   6   7   86.40    3.40   1
  -5  -6  -7   89.60    4.90   1
   5   6   8    9.10    1.70   1
  -5  -6  -8   13.10    2.80   1
   5   6   9   48.40    3.10   1
  -5  -6  -9   43.90    3.70   1
   5   6  10   23.00    2.20   1
  -5  -6 -10   16.70    2.80   1
   5   6  11  126.70    5.90   1
  -5  -6 -11  133.00    7.40   1
   5   6  12   67.90    4.40   1
  -5  -6 -12   58.70    5.00   1
   5   6  13    3.20    2.40   1
  -5  -6 -13   -1.50    2.70   1
   5   6  14    2.90    4.30   1
  -5  -6 -14    8.10    4.40   1
   5   7 -14   19.70    4.30   1
  -5  -7  14   18.30    3.60   1
   5   7 -13   11.30    3.90   1
  -5  -7  13    7.70    3.10   1
   5   7 -12   93.60    6.30   1
  -5  -7  12   91.40    6.70   1
   5   7 -11    9.50    2.90   1
  -5  -7  11    1.70    2.40   1
   5   7 -10   59.00    4.50   1
  -5  -7  10   51.60    4.50   1
   5   7  -9  118.00    6.00   1
  -5  -7   9  102.30    6.20   1
   5   7  -8    1.40    2.10   1
  -5  -7   8    1.00    2.30   1
   5   7  -7   15.90    2.50   1
  -5  -7   7   17.70    2.70   1
   5   7  -6   23.70    2.20   1
  -5  -7   6   30.30    2.90   1
   5   7  -5   31.30    2.80   1
  -5  -7   5   29.50    2.10   1
   5   7  -4   14.00    2.20   1
  -5  -7   4    8.20    2.10   1
   5   7  -3  152.10    6.30   1
  -5  -7   3  155.20    5.40   1
   5   7  -2   23.40    2.20   1
  -5  -7   2   22.00    1.90   1
   5   7  -1    2.70    1.50   1
  -5  -7   1    5.50    1.30   1
   5   7   0  224.90    7.50   1
  -5  -7   0  233.90    7.40   1
   5   7   1   21.40    2.10   1
  -5  -7  -1   23.40    2.00   1
   5   7   2   47.00    2.70   1
  -5  -7  -2   44.00    2.60   1
   5   7   3   36.80    2.60   1
  -5  -7  -3   36.00    2.40   1
   5   7   4   41.70    2.50   1
  -5  -7  -4   44.40    3.50   1
   5   7   5   27.80    2.10   1
  -5  -7  -5   29.90    2.90   1
   5   7   6   39.50    2.40   1
  -5  -7  -6   38.00    3.30   1
   5   7   7    5.40    1.80   1
  -5  -7  -7    2.60    2.10   1
   5   7   8   49.10    3.10   1
  -5  -7  -8   43.60    3.60   1
   5   7   9   48.60    3.50   1
  -5  -7  -9   51.70    4.20   1
   5   7  10   33.40    2.90   1
  -5  -7 -10   26.00    3.10   1
   5   7  11   17.80    4.70   1
  -5  -7 -11    9.80    4.10   1
   5   7  12   27.60    6.20   1
  -5  -7 -12   35.60    5.90   1
   5   7  13   36.00    7.40   1
  -5  -7 -13   33.40    6.00   1
   5   8 -12    3.20    4.30   1
  -5  -8  12    1.00    4.00   1
   5   8 -11    1.90    2.50   1
  -5  -8  11    0.40    2.40   1
   5   8 -10   18.20    3.10   1
  -5  -8  10   18.40    3.30   1
   5   8  -9   16.20    2.80   1
  -5  -8   9   16.00    2.90   1
   5   8  -8   38.90    4.60   1
  -5  -8   8   46.40    4.40   1
   5   8  -7    0.10    1.60   1
  -5  -8   7    3.90    2.40   1
   5   8  -6   35.70    2.90   1
  -5  -8   6   32.00    3.20   1
   5   8  -5    0.60    2.00   1
  -5  -8   5   -2.60    2.40   1
   5   8  -4   28.20    2.90   1
  -5  -8   4   24.50    2.20   1
   5   8  -3    0.30    1.60   1
  -5  -8   3   -0.10    1.10   1
   5   8  -2   20.30    2.30   1
  -5  -8   2   17.70    1.80   1
   5   8  -1   26.00    2.30   1
  -5  -8   1   23.30    1.90   1
   5   8   0  147.40    6.30   1
  -5  -8   0  150.50    5.70   1
   5   8   1   27.60    2.40   1
  -5  -8  -1   32.10    2.40   1
   5   8   2   50.80    3.20   1
  -5  -8  -2   50.60    3.00   1
   5   8   3    4.60    1.50   1
  -5  -8  -3    4.20    1.40   1
   5   8   4   80.00    3.80   1
  -5  -8  -4   71.50    4.40   1
   5   8   5   12.90    1.90   1
  -5  -8  -5   12.80    2.70   1
   5   8   6  259.20    8.10   1
  -5  -8  -6  233.20   16.10   1
   5   8   7    7.30    2.00   1
  -5  -8  -7    4.90    3.30   1
   5   8   8   23.90    4.80   1
  -5  -8  -8   23.40    4.80   1
   5   8   9   82.40    9.10   1
  -5  -8  -9   70.00    8.60   1
   5   8  10    4.20    3.90   1
  -5  -8 -10    4.00    5.20   1
   5   8  11    5.90    4.50   1
  -5  -8 -11    3.70    4.20   1
   5   9 -11   12.70    4.10   1
  -5  -9  11   12.40    3.80   1
   5   9 -10    8.50    3.10   1
  -5  -9  10   16.00    3.80   1
   5   9  -9   28.10    3.50   1
  -5  -9   9   32.00    3.90   1
   5   9  -8    2.80    2.00   1
  -5  -9   8    1.40    2.80   1
   5   9  -7  168.20    7.20   1
  -5  -9   7  167.60    9.80   1
   5   9  -6    1.60    2.00   1
  -5  -9   6   -0.10    2.00   1
   5   9  -5   44.70    3.70   1
  -5  -9   5   43.80    3.90   1
   5   9  -4    1.60    2.00   1
  -5  -9   4    1.70    2.20   1
   5   9  -3   42.50    3.60   1
  -5  -9   3   40.90    3.00   1
   5   9  -2   19.00    2.80   1
  -5  -9   2   19.10    2.20   1
   5   9  -1   74.90    4.50   1
  -5  -9   1   68.60    3.60   1
   5   9   0   12.50    2.00   1
  -5  -9   0   14.00    1.80   1
   5   9   1    1.40    2.10   1
  -5  -9  -1    5.40    1.50   1
   5   9   2   67.50    3.90   1
  -5  -9  -2   69.40    3.90   1
   5   9   3   56.40    7.40   1
  -5  -9  -3   62.80    4.70   1
   5   9   4   10.20    3.30   1
  -5  -9  -4    7.90    3.80   1
   5   9   5    8.90    3.10   1
  -5  -9  -5    5.70    3.50   1
   5   9   6   31.20    5.20   1
  -5  -9  -6   26.20    5.20   1
   5   9   7   31.40    5.50   1
  -5  -9  -7   14.10    4.80   1
   5   9   8   -1.10    3.80   1
  -5  -9  -8    4.70    4.10   1
   5   9   9    0.80    4.00   1
  -5  -9  -9   -1.10    3.80   1
   5   9  10    5.60    4.10   1
  -5  -9 -10    4.60    4.00   1
   5  10  -8   12.20    2.60   1
  -5 -10   8   14.00    4.10   1
   5  10  -7   12.80    3.10   1
  -5 -10   7   23.70    4.40   1
   5  10  -6    0.00    2.20   1
  -5 -10   6    3.30    2.40   1
   5  10  -5   79.10    4.90   1
  -5 -10   5   75.90    5.60   1
   5  10  -4   49.00    3.80   1
  -5 -10   4   49.80    4.60   1
   5  10  -3   58.10    9.00   1
  -5 -10   3   77.90    7.70   1
   5  10  -2   12.50    7.40   1
  -5 -10   2    5.30    4.30   1
   5  10  -1   57.80    9.30   1
  -5 -10   1   61.30    4.80   1
   5  10   0    5.70    7.70   1
  -5 -10   0    3.80    2.10   1
   5  10   1   15.70    6.00   1
  -5 -10  -1   17.80    2.90   1
   5  10   2   32.20    8.50   1
  -5 -10  -2   39.30    4.10   1
   5  10   3   -3.20    2.80   1
  -5 -10  -3    1.30    2.90   1
   5  10   4   20.20    3.50   1
  -5 -10  -4   25.50    6.00   1
   5  10   5   10.30    4.00   1
  -5 -10  -5    5.40    3.90   1
   5  10   6    6.70    5.30   1
  -5 -10  -6    0.60    3.50   1
   5  10   7   16.40    5.30   1
  -5 -10  -7    9.00    5.70   1
  -5 -10  -8   -6.50    5.50   1
  -5 -11   5    0.50    3.70   1
   5  11  -4   -3.70    5.50   1
  -5 -11   4    1.80    3.90   1
   5  11  -3   -5.40    5.20   1
  -5 -11   3   -5.50    4.80   1
   5  11  -2    5.40    6.20   1
  -5 -11   2    4.30    3.90   1
   5  11  -1   -7.40    5.60   1
  -5 -11   1    2.20    5.20   1
   5  11   0   58.00   11.00   1
  -5 -11   0   51.10    5.00   1
   5  11   1   44.50    7.90   1
  -5 -11  -1   43.70    4.50   1
   5  11   2   14.20    8.20   1
  -5 -11  -2    1.70    3.60   1
   5  11   3  120.20    7.90   1
  -5 -11  -3  102.30    9.60   1
  -5 -11  -4   28.00    5.80   1
   6 -10  -4   60.40    7.20   1
   6 -10  -3   -3.10    4.00   1
  -6  10   3    0.60    4.10   1
   6 -10  -2   -0.50    3.90   1
   6 -10  -1    4.50    3.00   1
  -6  10   1    0.10    4.20   1
   6 -10   0   44.00    7.50   1
  -6  10   0   45.00    7.20   1
   6 -10   1   17.60    3.60   1
  -6  10  -1   16.30    5.10   1
   6 -10   2    2.40    2.80   1
  -6  10  -2   -4.40    4.30   1
   6 -10   3   -3.80    5.20   1
  -6  10  -3    7.50    5.10   1
   6  -9  -8   28.90    7.00   1
  -6   9   8   11.80    6.60   1
   6  -9  -7   11.30    4.30   1
  -6   9   7   15.00    3.50   1
   6  -9  -6    4.90    2.70   1
  -6   9   6    1.30    2.80   1
   6  -9  -5   14.70    3.10   1
  -6   9   5   18.00    3.40   1
   6  -9  -4   12.90    3.40   1
  -6   9   4   16.90    3.90   1
   6  -9  -3   -1.00    2.30   1
  -6   9   3   -4.30    3.80   1
   6  -9  -2    3.90    2.50   1
  -6   9   2    0.70    4.00   1
   6  -9  -1   70.80    5.70   1
  -6   9   1   56.90    7.40   1
   6  -9   0   73.20    5.80   1
   6  -9   1    9.40    2.90   1
  -6   9  -1    1.30    3.90   1
   6  -9   2   94.70    6.80   1
   6  -9   3   21.30    4.10   1
  -6   9  -3   35.60    6.30   1
   6  -9   4   15.00    3.40   1
  -6   9  -4   10.70    4.80   1
   6  -9   5    0.10    2.70   1
  -6   9  -5    2.50    4.40   1
   6  -9   6   10.20    3.00   1
  -6   9  -6   19.30    5.90   1
   6  -9   7   25.00    3.80   1
  -6   9  -7   16.10    6.00   1
   6  -8 -10   14.50    4.80   1
  -6   8  10   13.50    7.50   1
   6  -8  -9   10.70    4.40   1
  -6   8   9   11.80    3.50   1
   6  -8  -8   15.80    4.80   1
  -6   8   8   28.60    4.30   1
   6  -8  -7   63.20    8.60   1
  -6   8   7   64.70    5.50   1
   6  -8  -6    3.50    2.40   1
  -6   8   6    0.80    2.50   1
   6  -8  -5  126.40   10.60   1
  -6   8   5  126.80    8.20   1
   6  -8  -4   45.70    4.10   1
  -6   8   4   51.00    4.80   1
   6  -8  -3   78.30    5.60   1
  -6   8   3   98.70    8.70   1
   6  -8  -2   22.80    3.50   1
  -6   8   2   29.40    3.40   1
   6  -8  -1    6.90    2.40   1
  -6   8   1    6.50    2.40   1
   6  -8   0   30.20    3.50   1
  -6   8   0   28.90    5.00   1
   6  -8   1   51.50    4.30   1
  -6   8  -1   48.20    6.00   1
   6  -8   2    2.60    1.40   1
  -6   8  -2    3.50    1.90   1
   6  -8   3   10.40    1.80   1
  -6   8  -3   11.80    2.60   1
   6  -8   4   16.80    2.00   1
  -6   8  -4   13.80    3.20   1
   6  -8   5   -0.80    1.60   1
  -6   8  -5   -2.60    2.60   1
   6  -8   6   46.90    3.10   1
  -6   8  -6   43.90    4.80   1
   6  -8   7    2.30    1.70   1
  -6   8  -7    5.00    3.40   1
   6  -8   8    7.00    1.90   1
  -6   8  -8    8.10    3.20   1
   6  -8   9  152.60    7.20   1
  -6   8  -9  144.90   12.20   1
   6  -7 -12   36.70    4.90   1
   6  -7 -11   13.30    4.40   1
  -6   7  11   15.70    3.80   1
   6  -7 -10   10.30    5.30   1
  -6   7  10   -2.80    3.30   1
   6  -7  -9   55.30    6.40   1
  -6   7   9   55.40    5.00   1
   6  -7  -8    2.30    3.50   1
  -6   7   8    6.50    3.20   1
   6  -7  -7    9.70    3.90   1
  -6   7   7    9.60    2.80   1
   6  -7  -6    7.90    2.30   1
  -6   7   6   11.40    2.80   1
   6  -7  -5    5.60    2.50   1
  -6   7   5   -0.80    2.30   1
   6  -7  -4    6.70    2.20   1
  -6   7   4    2.30    2.10   1
   6  -7  -3   68.70    3.10   1
  -6   7   3   66.20    3.70   1
   6  -7  -2    9.90    1.40   1
  -6   7   2    8.10    1.70   1
   6  -7  -1   18.80    1.80   1
  -6   7   1   14.70    1.90   1
   6  -7   0   12.00    1.70   1
  -6   7   0    8.10    1.70   1
   6  -7   1   68.10    3.20   1
  -6   7  -1   64.60    3.60   1
   6  -7   2   56.40    2.80   1
  -6   7  -2   67.50    4.50   1
   6  -7   3   77.10    3.50   1
  -6   7  -3   78.90    4.90   1
   6  -7   4   63.40    3.20   1
  -6   7  -4   62.00    4.50   1
   6  -7   5   56.90    3.10   1
  -6   7  -5   52.90    4.50   1
   6  -7   6    8.60    1.70   1
  -6   7  -6    8.50    3.20   1
   6  -7   7    6.40    1.80   1
  -6   7  -7    7.70    2.50   1
   6  -7   8    7.30    1.90   1
  -6   7  -8    6.20    3.40   1
   6  -7   9    8.00    2.00   1
  -6   7  -9   10.80    5.50   1
   6  -7  10   31.10    2.90   1
  -6   7 -10   35.70    6.30   1
   6  -7  11    4.90    2.60   1
  -6   7 -11   -1.90    3.70   1
   6  -6 -13    1.10    3.00   1
  -6   6  13    0.50    4.00   1
   6  -6 -12   12.80    4.00   1
  -6   6  12    6.20    5.10   1
   6  -6 -11   10.30    3.10   1
  -6   6  11    9.30    3.70   1
   6  -6 -10   40.50    4.80   1
  -6   6  10   36.60    4.70   1
   6  -6  -9   53.80    6.30   1
  -6   6   9   82.00    5.80   1
   6  -6  -8    8.40    3.30   1
  -6   6   8    6.90    2.90   1
   6  -6  -7   -0.50    1.50   1
  -6   6   7    2.20    1.90   1
   6  -6  -6  134.90    4.90   1
  -6   6   6  132.70    5.80   1
   6  -6  -5    1.90    1.20   1
  -6   6   5    6.80    1.60   1
   6  -6  -4    4.80    1.20   1
  -6   6   4    2.70    1.40   1
   6  -6  -3   21.40    2.00   1
  -6   6   3   20.50    2.10   1
   6  -6  -2   74.10    3.10   1
  -6   6   2   72.70    3.80   1
   6  -6  -1   50.10    2.60   1
  -6   6   1   55.40    3.10   1
   6  -6   0    1.60    1.20   1
  -6   6   0    0.10    1.30   1
   6  -6   1    5.20    1.30   1
  -6   6  -1    6.10    1.60   1
   6  -6   2   27.70    2.00   1
  -6   6  -2   32.10    4.00   1
   6  -6   3   40.30    2.40   1
  -6   6  -3   45.50    3.60   1
   6  -6   4   75.20    3.40   1
  -6   6  -4   68.70    4.70   1
   6  -6   5   28.20    2.30   1
  -6   6  -5   29.40    3.20   1
   6  -6   6   28.80    2.30   1
  -6   6  -6   26.60    3.30   1
   6  -6   7   58.30    3.30   1
  -6   6  -7   54.80    6.30   1
   6  -6   8  121.20    4.70   1
  -6   6  -8  107.70    6.70   1
   6  -6   9    8.30    1.90   1
  -6   6  -9   11.20    5.00   1
   6  -6  10    1.30    1.70   1
  -6   6 -10    0.40    3.40   1
   6  -6  11    1.50    2.30   1
  -6   6 -11    4.90    3.90   1
   6  -6  12   33.20    3.90   1
  -6   6 -12   42.00    7.50   1
   6  -5 -14    2.60    2.80   1
  -6   5  14    6.80    4.70   1
   6  -5 -13   20.00    3.40   1
  -6   5  13   17.60    3.60   1
   6  -5 -12   65.50    5.60   1
  -6   5  12   60.60    5.80   1
   6  -5 -11   25.10    2.60   1
  -6   5  11   18.70    3.00   1
   6  -5 -10   56.60    3.10   1
  -6   5  10   55.10    3.80   1
   6  -5  -9    6.30    1.50   1
  -6   5   9    4.60    1.70   1
   6  -5  -8   27.80    2.50   1
  -6   5   8   24.20    2.50   1
   6  -5  -7   36.40    2.60   1
  -6   5   7   38.60    2.80   1
   6  -5  -6    8.10    1.30   1
  -6   5   6    7.90    1.90   1
   6  -5  -5   25.40    1.70   1
  -6   5   5   24.10    2.20   1
   6  -5  -4    8.50    1.60   1
  -6   5   4    9.50    1.70   1
   6  -5  -3   13.10    1.40   1
  -6   5   3   11.70    1.80   1
   6  -5  -2  102.20    3.80   1
  -6   5   2   87.00    6.70   1
   6  -5  -1   94.30    3.60   1
  -6   5   1   95.60    4.30   1
   6  -5   0  246.30    6.80   1
  -6   5   0  236.30    8.00   1
   6  -5   1   17.60    1.50   1
  -6   5  -1   19.00    1.90   1
   6  -5   2   22.60    1.70   1
  -6   5  -2   21.70    2.20   1
   6  -5   3    0.70    1.20   1
  -6   5  -3   -1.50    2.20   1
   6  -5   4   10.90    1.50   1
  -6   5  -4    7.50    2.10   1
   6  -5   5   27.30    2.00   1
  -6   5  -5   27.20    3.30   1
   6  -5   6   27.40    2.00   1
  -6   5  -6   29.00    3.10   1
   6  -5   7   52.00    2.80   1
  -6   5  -7   59.90    4.40   1
   6  -5   8  115.80    4.70   1
  -6   5  -8  115.70    9.50   1
   6  -5   9    0.90    1.70   1
  -6   5  -9    1.80    4.30   1
   6  -5  10   10.20    2.10   1
  -6   5 -10    4.10    3.30   1
   6  -5  11    2.20    3.00   1
  -6   5 -11   -1.70    3.30   1
   6  -5  12   74.70    6.40   1
  -6   5 -12   93.70   10.10   1
   6  -5  13   19.80    4.20   1
  -6   5 -13   22.50    5.00   1
   6  -4 -15   11.30    3.40   1
   6  -4 -14    7.00    3.00   1
  -6   4  14    7.80    3.60   1
   6  -4 -13    7.60    1.80   1
  -6   4  13    9.10    2.90   1
   6  -4 -12    0.70    1.80   1
  -6   4  12    4.60    2.50   1
   6  -4 -11   42.70    2.60   1
  -6   4  11   41.10    3.30   1
   6  -4 -10   -0.40    1.40   1
  -6   4  10    2.30    2.10   1
   6  -4  -9   40.80    2.50   1
  -6   4   9   40.40    3.70   1
   6  -4  -8   16.50    1.80   1
  -6   4   8   15.30    2.70   1
   6  -4  -7   20.30    2.00   1
  -6   4   7   23.00    2.30   1
   6  -4  -6  296.70    8.00   1
  -6   4   6  307.40    9.90   1
   6  -4  -5    3.10    1.00   1
  -6   4   5    2.60    1.70   1
   6  -4  -4  135.70    4.20   1
  -6   4   4  124.90    4.90   1
   6  -4  -3   20.60    1.60   1
  -6   4   3   18.90    1.90   1
   6  -4  -2    3.20    1.00   1
  -6   4   2    2.50    1.50   1
   6  -4  -1   90.80    3.20   1
  -6   4   1   88.10    3.70   1
   6  -4   0    4.10    1.30   1
  -6   4   0    2.50    1.70   1
   6  -4   1    0.60    1.10   1
  -6   4  -1   -0.20    1.20   1
   6  -4   2    5.80    1.30   1
  -6   4  -2    3.30    1.30   1
   6  -4   3    6.00    1.30   1
  -6   4  -3   10.40    2.00   1
   6  -4   4    1.50    1.20   1
  -6   4  -4    1.20    2.10   1
   6  -4   5  121.40    4.20   1
  -6   4  -5  123.50    6.10   1
   6  -4   6   50.40    2.70   1
  -6   4  -6   49.20    4.00   1
   6  -4   7   15.20    2.00   1
  -6   4  -7   15.80    3.20   1
   6  -4   8   27.10    2.60   1
  -6   4  -8   29.20    4.40   1
   6  -4   9   56.10    3.60   1
  -6   4  -9   59.90    5.90   1
   6  -4  10   40.20    3.10   1
  -6   4 -10   43.50    5.10   1
   6  -4  11    1.60    2.20   1
  -6   4 -11   11.10    3.90   1
   6  -4  12   46.10    5.10   1
  -6   4 -12   45.80    6.00   1
   6  -4  13    8.30    3.10   1
  -6   4 -13    6.10    3.80   1
   6  -4  14    8.30    3.70   1
  -6   4 -14    9.80    4.60   1
   6  -3 -15  140.90    6.00   1
  -6   3  15  143.80    7.80   1
   6  -3 -14   15.60    2.30   1
  -6   3  14   16.80    3.00   1
   6  -3 -13   30.10    2.60   1
  -6   3  13   29.80    3.40   1
   6  -3 -12   39.30    2.70   1
  -6   3  12   40.00    4.30   1
   6  -3 -11  137.80    5.30   1
  -6   3  11  135.70    6.40   1
   6  -3 -10    5.10    1.50   1
  -6   3  10    4.40    1.70   1
   6  -3  -9    0.80    1.30   1
  -6   3   9   -1.60    1.50   1
   6  -3  -8   13.30    1.60   1
  -6   3   8   11.70    1.90   1
   6  -3  -7   41.70    2.20   1
  -6   3   7   39.60    3.10   1
   6  -3  -6   -0.10    1.30   1
  -6   3   6    1.00    1.40   1
   6  -3  -5   79.30    3.00   1
  -6   3   5   78.40    4.70   1
   6  -3  -4    4.40    1.10   1
  -6   3   4    7.20    1.50   1
   6  -3  -3    6.70    1.20   1
  -6   3   3   10.70    2.10   1
   6  -3  -2    1.80    1.10   1
  -6   3   2    3.10    1.30   1
   6  -3  -1   90.40    3.00   1
  -6   3   1   87.60    3.60   1
   6  -3   0   29.70    1.70   1
  -6   3   0   33.00    2.20   1
   6  -3   1   27.30    1.80   1
  -6   3  -1   25.50    2.00   1
   6  -3   2   46.40    2.10   1
  -6   3  -2   44.80    3.00   1
   6  -3   3  594.40   13.50   1
  -6   3  -3  593.30   19.30   1
   6  -3   4   14.70    1.30   1
  -6   3  -4   18.20    2.70   1
   6  -3   5   21.50    1.60   1
  -6   3  -5   23.30    2.60   1
   6  -3   6    0.10    0.80   1
  -6   3  -6    0.00    1.90   1
   6  -3   7   -0.10    0.90   1
  -6   3  -7   -0.30    2.60   1
   6  -3   8    5.20    1.40   1
  -6   3  -8   17.80    4.70   1
   6  -3   9  152.60    5.00   1
  -6   3  -9  159.40   10.90   1
   6  -3  10    2.90    1.30   1
  -6   3 -10    7.00    3.30   1
   6  -3  11    0.20    1.80   1
  -6   3 -11   -7.60    4.10   1
   6  -3  12    1.10    1.80   1
  -6   3 -12    2.10    3.30   1
   6  -3  13   19.20    2.70   1
  -6   3 -13   21.20    5.90   1
   6  -3  14    7.00    3.20   1
  -6   3 -14   10.60    4.50   1
   6  -2 -15    5.70    1.90   1
  -6   2  15   -0.60    3.00   1
   6  -2 -14   22.90    2.40   1
  -6   2  14   21.10    3.30   1
   6  -2 -13   14.30    2.30   1
  -6   2  13   13.10    3.20   1
   6  -2 -12   30.70    2.80   1
  -6   2  12   25.40    2.90   1
   6  -2 -11    5.90    1.50   1
  -6   2  11    7.80    1.90   1
   6  -2 -10    2.30    1.40   1
  -6   2  10   -0.60    1.80   1
   6  -2  -9   33.30    2.20   1
  -6   2   9   35.50    2.70   1
   6  -2  -8    4.70    1.30   1
  -6   2   8    3.80    1.70   1
   6  -2  -7   44.60    2.30   1
  -6   2   7   44.50    3.20   1
   6  -2  -6  175.30    6.00   1
  -6   2   6  167.60    5.80   1
   6  -2  -5  102.10    3.30   1
  -6   2   5  105.50    4.20   1
   6  -2  -4   11.00    1.10   1
  -6   2   4   11.60    1.70   1
   6  -2  -3  122.20    3.80   1
  -6   2   3  120.00    5.10   1
   6  -2  -2   20.30    1.10   1
  -6   2   2   20.20    2.40   1
   6  -2  -1   26.10    1.30   1
  -6   2   1   26.20    1.90   1
   6  -2   0   93.10    2.70   1
  -6   2   0   88.90    3.30   1
   6  -2   1   47.50    1.80   1
  -6   2  -1   46.10    2.30   1
   6  -2   2    3.00    0.80   1
  -6   2  -2    5.00    1.70   1
   6  -2   3   16.50    1.40   1
  -6   2  -3   16.80    2.20   1
   6  -2   4    3.10    1.00   1
  -6   2  -4    2.70    1.60   1
   6  -2   5   16.40    1.50   1
  -6   2  -5   19.40    2.80   1
   6  -2   6   35.70    1.90   1
  -6   2  -6   38.50    3.40   1
   6  -2   7   14.70    1.50   1
  -6   2  -7   13.20    3.10   1
   6  -2   8   45.20    2.30   1
  -6   2  -8   46.70    4.90   1
   6  -2   9  298.10    8.30   1
  -6   2  -9  296.00   17.30   1
   6  -2  10   27.20    2.70   1
  -6   2 -10   21.20    5.00   1
   6  -2  11   65.60    4.10   1
  -6   2 -11   60.40    6.40   1
   6  -2  12   50.60    3.70   1
  -6   2 -12   55.90    6.30   1
   6  -2  13   16.60    2.70   1
  -6   2 -13   14.80    5.50   1
   6  -2  14    2.80    2.30   1
  -6   2 -14    5.60    4.10   1
   6  -2  15   34.50    3.90   1
  -6   2 -15   22.90    7.00   1
   6  -1 -16   11.80    3.50   1
  -6   1  16    7.50    3.80   1
   6  -1 -15   25.80    2.70   1
  -6   1  15   19.20    3.80   1
   6  -1 -14   19.10    2.40   1
  -6   1  14   18.20    2.80   1
   6  -1 -13    2.80    1.90   1
  -6   1  13    6.60    2.20   1
   6  -1 -12  148.30    5.20   1
  -6   1  12  147.30    6.90   1
   6  -1 -11    5.30    1.80   1
  -6   1  11    6.80    2.60   1
   6  -1 -10   24.60    2.50   1
  -6   1  10   26.50    2.50   1
   6  -1  -9   37.60    2.40   1
  -6   1   9   37.30    2.80   1
   6  -1  -8    1.00    1.30   1
  -6   1   8    0.90    2.30   1
   6  -1  -7  126.20    4.20   1
  -6   1   7  123.30    4.90   1
   6  -1  -6   -2.00    1.50   1
  -6   1   6   -0.60    1.30   1
   6  -1  -5   24.00    3.20   1
  -6   1   5   21.30    2.70   1
   6  -1  -4    0.90    0.60   1
  -6   1   4   -1.30    1.60   1
   6  -1  -3   82.00    2.90   1
  -6   1   3   87.00    4.50   1
   6  -1  -2   17.40    1.10   1
  -6   1   2   17.50    1.80   1
   6  -1  -1   95.10    2.80   1
  -6   1   1   95.40    3.60   1
   6  -1   0  234.10    5.00   1
  -6   1   0  231.10    6.60   1
   6  -1   1    4.50    0.90   1
  -6   1  -1    7.00    2.30   1
   6  -1   2   79.20    2.80   1
  -6   1  -2   78.10    5.50   1
   6  -1   3   25.20    1.60   1
  -6   1  -3   23.10    2.40   1
   6  -1   4   87.60    3.10   1
  -6   1  -4   91.50    4.60   1
   6  -1   5    5.80    1.10   1
  -6   1  -5    6.40    1.90   1
   6  -1   6    1.10    1.10   1
  -6   1  -6    3.70    2.40   1
   6  -1   7   31.60    1.90   1
  -6   1  -7   42.10    4.90   1
   6  -1   8   24.70    1.70   1
  -6   1  -8   23.10    4.00   1
   6  -1   9    1.30    1.20   1
  -6   1  -9    3.90    2.70   1
   6  -1  10   49.80    3.40   1
  -6   1 -10   48.10    6.10   1
   6  -1  11   -1.30    1.70   1
  -6   1 -11    3.30    3.00   1
   6  -1  12    8.90    2.00   1
  -6   1 -12   11.80    4.10   1
   6  -1  13   86.10    6.40   1
  -6   1 -13   76.00    8.80   1
   6  -1  14   39.10    3.70   1
  -6   1 -14   42.60    6.70   1
   6  -1  15   81.20    5.30   1
  -6   1 -15   81.80    9.10   1
   6   0 -16  152.90    7.90   1
  -6   0  16  165.50   10.60   1
   6   0 -15    3.60    2.80   1
  -6   0  15    1.90    3.00   1
   6   0 -14    7.10    2.50   1
  -6   0  14    8.00    2.20   1
   6   0 -13    1.30    1.80   1
  -6   0  13    4.30    2.60   1
   6   0 -12   -2.30    1.40   1
  -6   0  12   -3.50    1.70   1
   6   0 -11   -0.80    1.50   1
  -6   0  11    0.70    1.70   1
   6   0 -10  171.60    5.00   1
  -6   0  10  167.40    6.60   1
   6   0  -9    0.80    1.10   1
  -6   0   9   -0.90    1.40   1
   6   0  -8    9.30    1.40   1
  -6   0   8    8.50    1.60   1
   6   0  -7    2.40    1.40   1
  -6   0   7    1.80    1.20   1
   6   0  -6  372.10   12.50   1
  -6   0   6  376.10   10.40   1
   6   0  -5   -0.60    1.70   1
  -6   0   5    0.10    1.30   1
   6   0  -4    3.90    1.70   1
  -6   0   4    0.60    0.50   1
   6   0  -3    0.60    0.50   1
  -6   0   3    0.20    1.10   1
   6   0  -2  174.60    4.90   1
  -6   0   2  167.50    6.60   1
   6   0  -1    0.70    0.80   1
  -6   0   1   -0.30    1.20   1
   6   0   0   10.90    1.00   1
  -6   0   0   10.60    1.70   1
   6   0   1    0.80    0.80   1
  -6   0  -1    1.30    2.00   1
   6   0   2  168.90    4.70   1
  -6   0  -2  154.00    6.20   1
   6   0   3   -0.10    0.90   1
  -6   0  -3    0.90    1.50   1
   6   0   4  270.80    6.80   1
  -6   0  -4  266.90    9.80   1
   6   0   5   -0.50    1.00   1
  -6   0  -5    0.70    2.10   1
   6   0   6  250.60    6.90   1
  -6   0  -6  256.70   13.30   1
   6   0   7    0.60    1.00   1
  -6   0  -7   -2.70    2.40   1
   6   0   8  167.80    5.00   1
  -6   0  -8  172.00   11.10   1
   6   0   9   -0.70    1.10   1
  -6   0  -9    2.50    2.70   1
   6   0  10   14.70    2.30   1
  -6   0 -10   21.10    4.00   1
   6   0  11    2.50    2.00   1
  -6   0 -11   -1.40    4.10   1
   6   0  12   28.00    2.80   1
  -6   0 -12   29.40    4.70   1
   6   0  13    2.20    2.20   1
  -6   0 -13    1.70    3.30   1
   6   0  14   17.70    2.80   1
  -6   0 -14   16.80    4.30   1
   6   0  15    0.80    2.50   1
  -6   0 -15    0.20    3.90   1
   6   1 -16    7.40    3.20   1
  -6  -1  16    5.10    3.70   1
   6   1 -15   23.30    3.20   1
  -6  -1  15   29.40    4.40   1
   6   1 -14   16.70    2.70   1
  -6  -1  14   19.50    3.80   1
   6   1 -13    6.20    2.00   1
  -6  -1  13    6.00    2.20   1
   6   1 -12  139.80    6.90   1
  -6  -1  12  147.50    6.70   1
   6   1 -11    7.50    2.20   1
  -6  -1  11    7.80    1.70   1
   6   1 -10   22.90    2.00   1
  -6  -1  10   27.30    2.30   1
   6   1  -9   37.50    2.00   1
  -6  -1   9   31.60    2.30   1
   6   1  -8    2.00    1.10   1
  -6  -1   8   -3.60    1.90   1
   6   1  -7  123.60    4.20   1
  -6  -1   7  122.40    6.00   1
   6   1  -6    0.60    1.60   1
  -6  -1   6    0.70    1.80   1
   6   1  -5   23.50    2.20   1
  -6  -1   5   24.00    1.40   1
   6   1  -4   -2.70    1.60   1
  -6  -1   4    0.50    0.70   1
   6   1  -3   87.40    3.80   1
  -6  -1   3   83.40    2.90   1
   6   1  -2   17.00    1.00   1
  -6  -1   2   15.20    1.50   1
   6   1  -1  101.10    4.50   1
  -6  -1   1   89.20    4.30   1
   6   1   0  244.90    8.80   1
  -6  -1   0  225.20   11.60   1
   6   1   1    3.30    1.30   1
   6   1   2   78.00    3.20   1
  -6  -1  -2   79.90    4.10   1
   6   1   3   28.00    1.70   1
  -6  -1  -3   24.10    3.00   1
   6   1   4   89.60    3.30   1
  -6  -1  -4   84.30    6.30   1
   6   1   5    6.60    1.20   1
  -6  -1  -5    3.40    2.20   1
   6   1   6    0.90    1.10   1
  -6  -1  -6    2.50    2.00   1
   6   1   7   33.10    2.00   1
  -6  -1  -7   32.60    3.90   1
   6   1   8   25.80    1.80   1
  -6  -1  -8   20.70    3.70   1
   6   1   9    1.80    1.30   1
  -6  -1  -9    0.30    2.50   1
   6   1  10   45.00    3.20   1
  -6  -1 -10   51.20    5.50   1
   6   1  11    1.60    1.80   1
  -6  -1 -11   -3.30    2.60   1
   6   1  12   12.60    2.50   1
  -6  -1 -12   15.90    4.30   1
   6   1  13   89.10    5.40   1
  -6  -1 -13   94.30    9.90   1
   6   1  14   51.80    4.50   1
  -6  -1 -14   35.80    5.80   1
   6   1  15   80.90    5.30   1
  -6  -1 -15   88.40   10.40   1
   6   2 -15    4.40    2.90   1
  -6  -2  15    1.30    3.30   1
   6   2 -14   24.60    3.40   1
  -6  -2  14   18.30    3.40   1
   6   2 -13    8.70    2.90   1
  -6  -2  13   16.20    3.30   1
   6   2 -12   22.40    3.00   1
  -6  -2  12   26.90    3.90   1
   6   2 -11    4.80    2.20   1
  -6  -2  11    8.20    3.10   1
   6   2 -10    2.40    2.30   1
  -6  -2  10    2.20    1.40   1
   6   2  -9   33.00    2.50   1
  -6  -2   9   32.10    3.20   1
   6   2  -8    2.80    1.70   1
  -6  -2   8    2.70    2.20   1
   6   2  -7   49.80    3.20   1
  -6  -2   7   47.30    2.70   1
   6   2  -6  173.50    6.20   1
  -6  -2   6  168.80    5.70   1
   6   2  -5  111.90    4.30   1
  -6  -2   5  102.90    3.40   1
   6   2  -4   11.70    1.80   1
  -6  -2   4   11.80    1.30   1
   6   2  -3  137.00    4.90   1
  -6  -2   3  134.30    5.60   1
   6   2  -2   24.60    2.20   1
  -6  -2   2   22.30    1.40   1
   6   2  -1   26.00    1.50   1
  -6  -2   1   29.50    2.30   1
   6   2   0   90.70    3.60   1
  -6  -2   0   88.60    4.30   1
   6   2   1   51.60    2.40   1
  -6  -2  -1   43.60    4.20   1
   6   2   2    3.40    1.20   1
  -6  -2  -2    1.80    2.10   1
   6   2   3   15.00    1.60   1
  -6  -2  -3   17.60    3.00   1
   6   2   4    1.00    1.10   1
  -6  -2  -4    5.30    2.50   1
   6   2   5   15.90    1.70   1
  -6  -2  -5   19.00    4.10   1
   6   2   6   34.10    2.00   1
  -6  -2  -6   36.60    4.60   1
   6   2   7   13.30    1.50   1
  -6  -2  -7   14.10    4.20   1
   6   2   8   44.10    2.30   1
  -6  -2  -8   42.60    5.00   1
   6   2   9  297.80   10.10   1
  -6  -2  -9  312.80   17.00   1
   6   2  10   21.60    2.50   1
  -6  -2 -10   23.20    4.70   1
   6   2  11   65.20    4.00   1
  -6  -2 -11   56.10    6.90   1
   6   2  12   59.90    4.20   1
  -6  -2 -12   65.70    6.90   1
   6   2  13   13.80    2.70   1
  -6  -2 -13   18.80    4.40   1
   6   2  14    4.70    2.60   1
  -6  -2 -14    1.20    3.50   1
   6   2  15   31.00    3.50   1
  -6  -2 -15   34.30    6.30   1
   6   3 -15  127.50    7.60   1
  -6  -3  15  125.30    8.30   1
   6   3 -14   14.20    3.30   1
  -6  -3  14   19.10    3.80   1
   6   3 -13   22.80    3.30   1
  -6  -3  13   34.70    3.90   1
   6   3 -12   36.40    3.50   1
  -6  -3  12   36.00    4.10   1
   6   3 -11  131.00    6.50   1
  -6  -3  11  136.40    7.50   1
   6   3 -10    6.40    2.40   1
  -6  -3  10    6.50    3.10   1
   6   3  -9    0.20    2.00   1
  -6  -3   9    1.00    2.00   1
   6   3  -8   16.20    2.10   1
  -6  -3   8   11.60    1.80   1
   6   3  -7   35.60    2.90   1
  -6  -3   7   35.90    2.50   1
   6   3  -6   -3.30    1.80   1
  -6  -3   6    0.50    1.10   1
   6   3  -5   78.10    3.90   1
  -6  -3   5   79.10    4.30   1
   6   3  -4    2.50    2.00   1
  -6  -3   4    4.90    1.70   1
   6   3  -3    9.20    1.80   1
  -6  -3   3    9.00    1.50   1
   6   3  -2    3.20    1.70   1
  -6  -3   2    1.40    1.10   1
   6   3  -1   88.50    3.90   1
  -6  -3   1   87.90    4.40   1
   6   3   0   33.60    2.50   1
  -6  -3   0   42.20    4.50   1
   6   3   1   27.80    2.30   1
  -6  -3  -1   23.30    3.80   1
   6   3   2   48.40    2.30   1
  -6  -3  -2   40.10    4.40   1
   6   3   3  599.10   13.70   1
  -6  -3  -3  574.90   26.70   1
   6   3   4   14.90    1.40   1
  -6  -3  -4   18.70    2.90   1
   6   3   5   20.60    1.90   1
  -6  -3  -5   20.20    3.30   1
   6   3   6    0.10    1.30   1
  -6  -3  -6    3.00    2.30   1
   6   3   7    0.00    1.40   1
  -6  -3  -7    0.40    2.30   1
   6   3   8   10.00    1.50   1
  -6  -3  -8   11.00    4.20   1
   6   3   9  152.90    6.00   1
  -6  -3  -9  163.60    9.90   1
   6   3  10    0.50    2.40   1
  -6  -3 -10    4.30    4.00   1
   6   3  11    5.20    2.20   1
  -6  -3 -11    4.30    4.30   1
   6   3  12    2.60    2.50   1
  -6  -3 -12   13.20    4.90   1
   6   3  13   14.80    2.80   1
  -6  -3 -13   16.80    4.60   1
   6   3  14    4.20    2.30   1
  -6  -3 -14   10.50    4.30   1
   6   3  15   30.90    3.80   1
  -6  -3 -15   31.20    6.20   1
   6   4 -15    2.60    4.70   1
  -6  -4  15   10.20    4.40   1
   6   4 -14   11.70    3.00   1
  -6  -4  14   11.20    3.30   1
   6   4 -13    8.50    2.90   1
  -6  -4  13    6.40    2.80   1
   6   4 -12   -2.90    2.40   1
  -6  -4  12   -1.40    2.60   1
   6   4 -11   41.10    3.60   1
  -6  -4  11   40.50    4.20   1
   6   4 -10    0.30    2.40   1
  -6  -4  10    4.20    1.90   1
   6   4  -9   35.00    3.40   1
  -6  -4   9   39.30    2.80   1
   6   4  -8   18.50    2.20   1
  -6  -4   8   18.20    2.20   1
   6   4  -7   21.30    2.60   1
  -6  -4   7   18.70    2.40   1
   6   4  -6  289.20    9.60   1
  -6  -4   6  295.60   10.30   1
   6   4  -5   -0.90    1.80   1
  -6  -4   5    3.70    1.40   1
   6   4  -4  131.20    5.20   1
  -6  -4   4  135.00    6.20   1
   6   4  -3   21.50    2.30   1
  -6  -4   3   24.40    2.10   1
   6   4  -2    5.10    1.90   1
  -6  -4   2    4.10    1.30   1
   6   4  -1   88.50    4.30   1
  -6  -4   1   92.00    4.50   1
   6   4   0    2.30    1.70   1
  -6  -4   0    4.30    1.10   1
   6   4   1    4.20    1.70   1
  -6  -4  -1   -1.10    2.10   1
   6   4   2    2.80    1.80   1
  -6  -4  -2   12.00    3.40   1
   6   4   3    6.30    1.50   1
  -6  -4  -3    7.80    3.20   1
   6   4   4    1.00    1.00   1
  -6  -4  -4   -0.70    2.00   1
   6   4   5  119.90    4.20   1
  -6  -4  -5  109.60    8.50   1
   6   4   6   48.00    2.90   1
  -6  -4  -6   48.80    5.20   1
   6   4   7   12.50    2.30   1
  -6  -4  -7   20.00    3.30   1
   6   4   8   32.00    2.40   1
  -6  -4  -8   39.10    5.10   1
   6   4   9   74.80    4.20   1
  -6  -4  -9   64.00    6.50   1
   6   4  10   39.40    3.30   1
  -6  -4 -10   31.90    5.80   1
   6   4  11    4.70    2.20   1
  -6  -4 -11    3.70    4.20   1
   6   4  12   49.80    3.80   1
  -6  -4 -12   60.40    7.80   1
   6   4  13    6.50    2.80   1
  -6  -4 -13   11.30    5.50   1
   6   4  14    9.90    3.20   1
  -6  -4 -14    8.50    5.30   1
   6   5 -14   12.70    4.50   1
  -6  -5  14   25.30    7.60   1
   6   5 -13   22.30    3.70   1
  -6  -5  13   22.80    3.90   1
   6   5 -12   59.80    4.90   1
  -6  -5  12   61.70    5.10   1
   6   5 -11   18.20    3.60   1
  -6  -5  11   24.90    3.20   1
   6   5 -10   57.80    4.80   1
  -6  -5  10   60.10    4.60   1
   6   5  -9    4.10    2.10   1
  -6  -5   9   10.00    2.50   1
   6   5  -8   24.90    2.60   1
  -6  -5   8   27.50    3.00   1
   6   5  -7   31.60    3.10   1
  -6  -5   7   37.80    3.40   1
   6   5  -6    7.30    2.30   1
  -6  -5   6   11.50    2.60   1
   6   5  -5   24.90    2.60   1
  -6  -5   5   25.40    2.60   1
   6   5  -4    5.00    2.10   1
  -6  -5   4    8.70    1.30   1
   6   5  -3   13.20    2.00   1
  -6  -5   3   11.10    1.40   1
   6   5  -2   94.90    4.50   1
  -6  -5   2  101.30    5.20   1
   6   5  -1   97.40    4.40   1
  -6  -5   1   94.90    5.20   1
   6   5   0  259.40    8.70   1
  -6  -5   0  264.00    9.00   1
   6   5   1   17.00    2.30   1
  -6  -5  -1   19.20    2.50   1
   6   5   2   15.60    2.10   1
  -6  -5  -2   23.50    3.80   1
   6   5   3    0.30    1.20   1
  -6  -5  -3    0.40    2.10   1
   6   5   4   11.50    1.50   1
  -6  -5  -4   10.70    2.80   1
   6   5   5   26.30    2.00   1
  -6  -5  -5   29.30    4.00   1
   6   5   6   34.90    2.40   1
  -6  -5  -6   30.50    4.40   1
   6   5   7   66.60    3.90   1
  -6  -5  -7   68.20    6.20   1
   6   5   8  121.10    5.70   1
  -6  -5  -8  114.70    9.50   1
   6   5   9    2.60    1.80   1
  -6  -5  -9    0.30    2.60   1
   6   5  10    9.00    2.20   1
  -6  -5 -10    7.80    3.40   1
   6   5  11    1.50    1.90   1
  -6  -5 -11    2.60    3.20   1
   6   5  12   80.10    5.20   1
  -6  -5 -12   97.20    9.50   1
   6   5  13   18.80    3.20   1
  -6  -5 -13   19.00    3.50   1
   6   6 -13   -0.40    4.10   1
  -6  -6  13    3.70    2.80   1
   6   6 -12   -0.70    2.80   1
  -6  -6  12    3.30    2.60   1
   6   6 -11   14.20    3.00   1
  -6  -6  11   13.10    3.30   1
   6   6 -10   40.90    4.10   1
  -6  -6  10   49.30    4.60   1
   6   6  -9   69.00    4.10   1
  -6  -6   9   73.50    5.60   1
   6   6  -8    3.10    2.00   1
  -6  -6   8    0.90    2.00   1
   6   6  -7    1.70    2.20   1
  -6  -6   7    1.50    2.30   1
   6   6  -6  146.60    6.50   1
  -6  -6   6  143.30    7.20   1
   6   6  -5    3.30    2.10   1
  -6  -6   5    6.00    2.00   1
   6   6  -4    5.00    2.00   1
  -6  -6   4    7.20    1.50   1
   6   6  -3   22.50    2.80   1
  -6  -6   3   18.70    1.80   1
   6   6  -2   73.20    4.00   1
  -6  -6   2   71.40    3.40   1
   6   6  -1   58.20    3.50   1
  -6  -6   1   49.60    2.90   1
   6   6   0    1.30    1.70   1
  -6  -6   0    0.10    1.10   1
   6   6   1    3.50    1.60   1
  -6  -6  -1    5.60    1.60   1
   6   6   2   28.80    2.60   1
  -6  -6  -2   26.40    2.50   1
   6   6   3   41.50    2.40   1
  -6  -6  -3   32.50    2.90   1
   6   6   4   80.40    3.10   1
  -6  -6  -4   70.80    6.60   1
   6   6   5   23.60    2.20   1
  -6  -6  -5   27.40    4.30   1
   6   6   6   30.00    2.30   1
  -6  -6  -6   27.90    4.30   1
   6   6   7   60.70    3.70   1
  -6  -6  -7   53.30    4.10   1
   6   6   8  129.20    5.90   1
  -6  -6  -8  107.40    6.60   1
   6   6   9    9.00    2.50   1
  -6  -6  -9   11.00    3.00   1
   6   6  10    0.60    1.90   1
  -6  -6 -10    5.40    2.40   1
   6   6  11   -4.20    2.10   1
  -6  -6 -11    4.90    2.60   1
   6   6  12   23.10    3.30   1
  -6  -6 -12   28.70    4.10   1
  -6  -7  12   25.60    4.00   1
   6   7 -11    9.70    3.20   1
  -6  -7  11    7.50    2.90   1
   6   7 -10    3.70    2.80   1
  -6  -7  10    0.20    2.60   1
   6   7  -9   59.50    4.20   1
  -6  -7   9   63.80    5.00   1
   6   7  -8    2.70    2.80   1
  -6  -7   8   -0.20    2.10   1
   6   7  -7   17.70    3.10   1
  -6  -7   7   18.70    3.40   1
   6   7  -6    9.00    2.60   1
  -6  -7   6    4.90    2.30   1
   6   7  -5    5.60    2.10   1
  -6  -7   5    2.10    1.80   1
   6   7  -4    1.90    2.20   1
  -6  -7   4    3.80    1.90   1
   6   7  -3   69.40    4.30   1
  -6  -7   3   68.60    3.70   1
   6   7  -2   11.70    2.60   1
  -6  -7   2    7.90    1.60   1
   6   7  -1   18.70    2.50   1
  -6  -7   1   14.50    2.00   1
   6   7   0   11.20    2.40   1
  -6  -7   0    7.60    1.60   1
   6   7   1   58.90    4.70   1
  -6  -7  -1   64.80    3.50   1
   6   7   2   51.30    3.70   1
  -6  -7  -2   54.60    4.20   1
   6   7   3   79.40    3.80   1
  -6  -7  -3   76.90    5.10   1
   6   7   4   63.40    3.30   1
  -6  -7  -4   56.60    4.50   1
   6   7   5   60.90    3.30   1
  -6  -7  -5   56.60    4.60   1
   6   7   6   12.50    2.10   1
  -6  -7  -6    4.50    2.90   1
   6   7   7    6.90    2.00   1
  -6  -7  -7    0.10    2.30   1
   6   7   8    3.60    1.90   1
  -6  -7  -8    4.90    2.30   1
   6   7   9    3.90    2.60   1
  -6  -7  -9    6.50    2.90   1
   6   7  10   34.20    5.80   1
  -6  -7 -10   34.60    5.60   1
   6   7  11    5.50    4.20   1
  -6  -7 -11    3.70    4.30   1
   6   8 -10   14.10    3.30   1
  -6  -8  10   17.50    3.70   1
   6   8  -9   12.20    3.30   1
  -6  -8   9   11.40    2.70   1
   6   8  -8   23.60    3.60   1
  -6  -8   8   14.70    2.90   1
   6   8  -7   57.10    4.80   1
  -6  -8   7   52.90    4.50   1
   6   8  -6   -0.10    2.50   1
  -6  -8   6    1.20    2.50   1
   6   8  -5  132.30    7.20   1
  -6  -8   5  133.70    7.60   1
   6   8  -4   42.00    3.80   1
  -6  -8   4   40.70    3.80   1
   6   8  -3   78.90    4.90   1
  -6  -8   3   71.10    5.30   1
   6   8  -2   27.30    3.20   1
  -6  -8   2   34.90    2.70   1
   6   8  -1    8.60    2.60   1
  -6  -8   1    9.60    2.00   1
   6   8   0   38.80    3.60   1
  -6  -8   0   33.10    2.50   1
   6   8   1   43.80    3.60   1
  -6  -8  -1   56.90    3.40   1
   6   8   2    6.40    2.80   1
  -6  -8  -2    1.30    2.30   1
   6   8   3   11.70    1.70   1
  -6  -8  -3   11.00    2.50   1
   6   8   4   18.60    2.20   1
  -6  -8  -4   17.80    2.80   1
   6   8   5   -0.50    2.10   1
  -6  -8  -5    2.20    2.80   1
   6   8   6   56.00    4.60   1
  -6  -8  -6   43.40    4.10   1
   6   8   7    1.50    3.30   1
  -6  -8  -7    5.50    4.80   1
   6   8   8   15.40    4.80   1
  -6  -8  -8   21.30    6.00   1
   6   8   9  136.10   14.00   1
   6   9  -8   20.40    4.30   1
  -6  -9   8   24.00    3.70   1
   6   9  -7   21.90    3.50   1
  -6  -9   7   14.90    3.40   1
   6   9  -6    0.80    2.70   1
  -6  -9   6   -2.60    3.20   1
   6   9  -5   11.70    2.80   1
  -6  -9   5   10.20    2.60   1
   6   9  -4    9.20    3.00   1
  -6  -9   4   14.40    3.50   1
   6   9  -3   -0.50    2.00   1
  -6  -9   3    1.00    2.10   1
   6   9  -2   -1.90    1.80   1
  -6  -9   2    0.90    1.90   1
   6   9  -1   50.20    4.00   1
  -6  -9   1   59.90    3.90   1
   6   9   0   67.60    4.60   1
  -6  -9   0   64.70    5.20   1
   6   9   1    5.60    2.10   1
  -6  -9  -1    7.50    1.90   1
   6   9   2   90.20   11.40   1
  -6  -9  -2  100.70    9.60   1
   6   9   3   34.00    4.60   1
  -6  -9  -3   39.00    5.50   1
   6   9   4   16.40    3.80   1
  -6  -9  -4   12.50    4.40   1
   6   9   5    9.20    4.60   1
  -6  -9  -5   -4.60    4.90   1
   6   9   6   26.90    6.80   1
  -6  -9  -6   10.70    4.30   1
  -6  -9  -7   21.70    5.20   1
   6  10  -4   46.30    8.90   1
  -6 -10   4   50.10    6.60   1
   6  10  -3   -2.60    5.80   1
  -6 -10   3    7.20    5.20   1
   6  10  -2    6.40    6.20   1
  -6 -10   2    4.60    3.20   1
   6  10  -1   11.00    8.30   1
  -6 -10   1    9.90    4.00   1
   6  10   0   37.70    8.30   1
  -6 -10   0   32.80    6.30   1
   6  10   1   20.70    8.40   1
  -6 -10  -1   18.90    3.20   1
   6  10   2   -3.80    2.90   1
  -6 -10  -2    9.30    3.80   1
   6  10   3   -5.30    4.50   1
  -6 -10  -3    4.60    4.20   1
  -7   8   6   13.50    4.70   1
   7  -8  -5    6.10    4.70   1
  -7   8   5   18.50    5.20   1
   7  -8  -4   20.70    6.30   1
  -7   8   4   24.20    4.00   1
   7  -8  -3   12.10    2.90   1
  -7   8   3   16.90    3.60   1
   7  -8  -2    1.50    2.50   1
  -7   8   2    6.00    4.50   1
   7  -8  -1   -0.40    2.70   1
   7  -8   0   27.20    4.20   1
  -7   8   0   33.70    6.40   1
   7  -8   1   -2.30    2.60   1
  -7   8  -1   -4.20    4.10   1
   7  -8   2    1.10    2.50   1
  -7   8  -2    3.30    4.50   1
   7  -8   3   13.10    3.20   1
  -7   8  -3   10.10    5.10   1
   7  -8   4   45.90    5.10   1
  -7   8  -4   50.30    7.80   1
   7  -8   5    4.90    3.10   1
   7  -7  -8   -0.30    3.90   1
  -7   7   8    3.30    3.60   1
   7  -7  -7    4.70    5.70   1
  -7   7   7    0.60    2.90   1
   7  -7  -6    1.20    5.60   1
  -7   7   6    5.90    3.00   1
   7  -7  -5    1.50    3.80   1
  -7   7   5    1.00    2.70   1
   7  -7  -4    5.00    4.10   1
  -7   7   4    1.20    2.50   1
   7  -7  -3  116.60    7.30   1
  -7   7   3  124.70    8.50   1
   7  -7  -2   36.60    3.90   1
  -7   7   2   32.90    4.10   1
   7  -7  -1    5.00    1.80   1
  -7   7   1    2.90    1.80   1
   7  -7   0  107.10    5.00   1
  -7   7   0  115.00    7.20   1
   7  -7   1   24.70    2.20   1
  -7   7  -1   23.80    3.50   1
   7  -7   2   44.70    3.10   1
  -7   7  -2   35.30    5.60   1
   7  -7   3   37.00    2.80   1
  -7   7  -3   36.00    4.00   1
   7  -7   4    0.00    2.10   1
  -7   7  -4   -3.20    4.20   1
   7  -7   5   24.60    2.50   1
  -7   7  -5   19.20    3.30   1
   7  -7   6    8.60    2.20   1
  -7   7  -6   11.80    3.30   1
   7  -7   7    3.80    2.30   1
  -7   7  -7   -1.40    4.90   1
   7  -7   8    1.10    2.10   1
  -7   7  -8   -2.00    3.40   1
   7  -6 -10    5.90    6.00   1
  -7   6  10    4.20    4.70   1
   7  -6  -9   65.10    8.60   1
  -7   6   9   67.80    6.40   1
   7  -6  -8    2.10    3.70   1
  -7   6   8   -1.80    2.80   1
   7  -6  -7    6.60    3.90   1
  -7   6   7    6.30    3.50   1
   7  -6  -6  163.40   14.30   1
  -7   6   6  158.20    9.60   1
   7  -6  -5   60.90    3.90   1
  -7   6   5   55.40    4.60   1
   7  -6  -4   29.70    2.80   1
  -7   6   4   34.90    3.00   1
   7  -6  -3   22.20    2.20   1
  -7   6   3   22.30    2.60   1
   7  -6  -2    0.50    1.40   1
  -7   6   2   -2.20    1.80   1
   7  -6  -1   26.40    2.20   1
  -7   6   1   25.20    2.50   1
   7  -6   0   53.80    2.90   1
  -7   6   0   52.40    3.40   1
   7  -6   1   22.80    2.10   1
  -7   6  -1   22.10    2.30   1
   7  -6   2    2.80    1.70   1
  -7   6  -2    1.80    2.80   1
   7  -6   3   14.80    2.10   1
  -7   6  -3   16.30    3.00   1
   7  -6   4    5.80    1.80   1
  -7   6  -4    5.70    2.50   1
   7  -6   5   18.90    2.50   1
  -7   6  -5   16.50    3.80   1
   7  -6   6   -0.50    1.50   1
  -7   6  -6    0.90    2.50   1
   7  -6   7   28.70    2.70   1
  -7   6  -7   27.60    5.30   1
   7  -6   8   19.60    2.40   1
  -7   6  -8   22.10    5.80   1
   7  -6   9   49.60    4.50   1
  -7   6  -9   41.40    6.30   1
   7  -5 -11    3.50    3.80   1
  -7   5  11    6.40    3.20   1
   7  -5 -10    4.30    4.00   1
  -7   5  10   11.00    3.50   1
   7  -5  -9   24.60    3.30   1
  -7   5   9   17.40    2.50   1
   7  -5  -8   10.30    2.20   1
  -7   5   8   11.10    2.40   1
   7  -5  -7    1.40    1.80   1
  -7   5   7    2.60    1.90   1
   7  -5  -6    1.40    2.20   1
  -7   5   6    4.60    2.10   1
   7  -5  -5    1.70    1.60   1
  -7   5   5   -1.40    1.60   1
   7  -5  -4    1.70    1.80   1
  -7   5   4    2.50    2.00   1
   7  -5  -3   74.60    3.20   1
  -7   5   3   70.00    4.00   1
   7  -5  -2    8.30    1.60   1
  -7   5   2    8.70    2.00   1
   7  -5  -1   -0.10    1.40   1
  -7   5   1   -0.70    1.90   1
   7  -5   0   -0.20    1.30   1
  -7   5   0    0.10    1.70   1
   7  -5   1  101.20    4.30   1
  -7   5  -1  101.00    4.70   1
   7  -5   2    2.80    1.30   1
  -7   5  -2   -0.10    2.00   1
   7  -5   3  134.50    5.10   1
  -7   5  -3  112.40    6.90   1
   7  -5   4    9.00    1.80   1
  -7   5  -4    4.60    2.50   1
   7  -5   5  130.50    5.00   1
  -7   5  -5  129.90    8.00   1
   7  -5   6    0.30    1.50   1
  -7   5  -6   -3.50    2.40   1
   7  -5   7   58.10    3.40   1
  -7   5  -7   66.60    5.70   1
   7  -5   8   17.60    2.40   1
  -7   5  -8   13.10    5.30   1
   7  -5   9   35.30    3.50   1
  -7   5  -9   39.00    5.90   1
   7  -5  10    4.20    2.40   1
  -7   5 -10   -6.70    3.40   1
   7  -5  11   26.10    3.50   1
  -7   5 -11   25.90    5.50   1
   7  -4 -12   15.10    3.30   1
  -7   4  12    9.60    2.60   1
   7  -4 -11   18.50    2.90   1
  -7   4  11   18.80    2.90   1
   7  -4 -10   12.50    2.40   1
  -7   4  10   10.50    3.60   1
   7  -4  -9  111.20    5.80   1
  -7   4   9  115.60    7.90   1
   7  -4  -8   53.90    3.90   1
  -7   4   8   52.70    4.80   1
   7  -4  -7    8.20    2.30   1
  -7   4   7    1.70    2.70   1
   7  -4  -6   30.30    2.70   1
  -7   4   6   28.30    2.80   1
   7  -4  -5   -0.10    1.60   1
  -7   4   5   -0.20    1.70   1
   7  -4  -4  184.80    7.20   1
  -7   4   4  181.90    8.10   1
   7  -4  -3   26.50    2.40   1
  -7   4   3   27.30    2.50   1
   7  -4  -2   31.90    2.20   1
  -7   4   2   24.60    3.00   1
   7  -4  -1   77.90    3.40   1
  -7   4   1   75.30    4.10   1
   7  -4   0    2.30    1.60   1
  -7   4   0    5.50    1.90   1
   7  -4   1    0.10    1.30   1
  -7   4  -1    2.90    2.60   1
   7  -4   2   64.10    3.10   1
  -7   4  -2   60.60    4.20   1
   7  -4   3   59.50    3.00   1
  -7   4  -3   58.50    4.40   1
   7  -4   4    8.90    1.70   1
  -7   4  -4   14.30    4.70   1
   7  -4   5   41.30    2.70   1
  -7   4  -5   39.90    3.90   1
   7  -4   6   60.70    3.40   1
  -7   4  -6   54.90    4.50   1
   7  -4   7   36.10    2.80   1
  -7   4  -7   33.20    5.40   1
   7  -4   8    0.60    1.50   1
  -7   4  -8    4.30    3.20   1
   7  -4   9   37.20    4.50   1
  -7   4  -9   32.50    5.80   1
   7  -4  10   83.90    6.30   1
  -7   4 -10   85.70    9.10   1
   7  -4  11    0.00    3.30   1
  -7   4 -11    3.90    4.10   1
   7  -3 -13    2.40    3.30   1
  -7   3  13    0.20    3.00   1
   7  -3 -12    4.80    2.20   1
  -7   3  12    6.40    2.60   1
   7  -3 -11    0.70    2.30   1
  -7   3  11    1.60    3.60   1
   7  -3 -10  141.00    6.90   1
  -7   3  10  119.40    6.40   1
   7  -3  -9   17.80    2.50   1
  -7   3   9   14.50    2.40   1
   7  -3  -8   -0.30    1.90   1
  -7   3   8    0.30    2.10   1
   7  -3  -7   24.60    2.80   1
  -7   3   7   32.10    3.90   1
   7  -3  -6    5.30    2.20   1
  -7   3   6    5.60    2.10   1
   7  -3  -5    9.00    1.90   1
  -7   3   5    8.80    2.00   1
   7  -3  -4   58.80    3.40   1
  -7   3   4   61.10    3.60   1
   7  -3  -3   28.10    2.40   1
  -7   3   3   22.50    2.30   1
   7  -3  -2   94.90    3.70   1
  -7   3   2   90.20    4.10   1
   7  -3  -1   19.70    2.00   1
  -7   3   1   23.20    2.60   1
   7  -3   0  275.90    7.50   1
  -7   3   0  268.50   11.10   1
   7  -3   1    3.20    1.30   1
  -7   3  -1    6.70    2.20   1
   7  -3   2    9.30    1.70   1
  -7   3  -2   10.50    2.50   1
   7  -3   3    1.60    1.60   1
  -7   3  -3   -0.80    1.90   1
   7  -3   4    0.60    1.40   1
  -7   3  -4   -3.30    2.70   1
   7  -3   5    0.10    1.60   1
  -7   3  -5    3.70    2.60   1
   7  -3   6   17.50    2.30   1
  -7   3  -6   20.80    3.20   1
   7  -3   7    8.70    1.90   1
  -7   3  -7    9.30    3.80   1
   7  -3   8   34.10    3.10   1
  -7   3  -8   31.50    4.90   1
   7  -3   9   -0.20    2.30   1
  -7   3  -9   -1.90    3.30   1
   7  -3  10   -0.60    2.90   1
  -7   3 -10   -0.30    4.60   1
   7  -3  11    1.20    2.70   1
  -7   3 -11   -2.40    3.30   1
   7  -3  12  146.20    9.90   1
  -7   3 -12  144.70   12.70   1
   7  -2 -13    3.50    2.40   1
  -7   2  13    3.00    2.40   1
   7  -2 -12   52.60    4.10   1
  -7   2  12   52.10    4.20   1
   7  -2 -11    8.50    2.30   1
  -7   2  11    2.00    3.00   1
   7  -2 -10    3.60    2.40   1
  -7   2  10    2.10    3.30   1
   7  -2  -9   63.00    4.20   1
  -7   2   9   81.10    5.50   1
   7  -2  -8   80.10    4.60   1
  -7   2   8   90.70    4.70   1
   7  -2  -7    4.90    2.50   1
  -7   2   7    8.20    2.40   1
   7  -2  -6   50.10    3.30   1
  -7   2   6   46.90    3.10   1
   7  -2  -5    1.90    1.60   1
  -7   2   5   -0.60    1.60   1
   7  -2  -4  115.60    5.20   1
  -7   2   4  110.70    6.00   1
   7  -2  -3   -3.90    1.50   1
  -7   2   3   -1.80    1.50   1
   7  -2  -2    5.10    1.80   1
  -7   2   2    6.00    1.70   1
   7  -2  -1   65.80    2.70   1
  -7   2   1   61.30    4.20   1
   7  -2   0   76.80    3.10   1
  -7   2   0   80.10    6.60   1
   7  -2   1    6.90    1.40   1
  -7   2  -1    5.40    2.00   1
   7  -2   2   11.70    1.70   1
  -7   2  -2   10.00    2.30   1
   7  -2   3    6.50    1.70   1
  -7   2  -3    3.90    2.50   1
   7  -2   4   22.10    2.20   1
  -7   2  -4   19.10    2.70   1
   7  -2   5   57.70    3.40   1
  -7   2  -5   54.50    6.20   1
   7  -2   6  395.20   12.50   1
  -7   2  -6  372.30   22.00   1
   7  -2   7   37.90    3.00   1
  -7   2  -7   32.10    5.00   1
   7  -2   8    7.70    1.90   1
  -7   2  -8    5.10    3.80   1
   7  -2   9   -2.50    2.70   1
  -7   2  -9    5.50    4.60   1
   7  -2  10   36.50    4.50   1
  -7   2 -10   38.70    6.00   1
   7  -2  11    0.10    2.60   1
  -7   2 -11    0.10    3.20   1
   7  -2  12    4.00    3.20   1
  -7   2 -12   -7.30    3.70   1
   7  -1 -13   45.50    4.00   1
  -7   1  13   40.40    4.00   1
   7  -1 -12   40.50    3.70   1
  -7   1  12   36.90    3.60   1
   7  -1 -11    3.00    3.10   1
  -7   1  11    1.50    2.30   1
   7  -1 -10   26.90    2.90   1
  -7   1  10   29.10    2.90   1
   7  -1  -9   85.40    5.10   1
  -7   1   9   90.40    5.00   1
   7  -1  -8   39.20    3.30   1
  -7   1   8   38.30    3.20   1
   7  -1  -7    0.50    1.70   1
  -7   1   7    1.10    1.60   1
   7  -1  -6   12.10    2.10   1
  -7   1   6   13.40    2.10   1
   7  -1  -5   -0.30    1.80   1
  -7   1   5    3.30    1.80   1
   7  -1  -4   -0.80    1.60   1
  -7   1   4    0.60    1.90   1
   7  -1  -3  275.80    8.40   1
  -7   1   3  254.00    8.40   1
   7  -1  -2    7.40    1.80   1
  -7   1   2    8.60    1.70   1
   7  -1  -1    0.20    2.00   1
  -7   1   1   -0.40    1.50   1
   7  -1   0  101.80    3.70   1
  -7   1   0  106.30    5.30   1
   7  -1   1   92.80    3.60   1
  -7   1  -1  102.40    5.30   1
   7  -1   2  120.40    4.40   1
  -7   1  -2  127.70    6.20   1
   7  -1   3    1.70    1.90   1
  -7   1  -3    1.00    2.60   1
   7  -1   4   41.90    2.80   1
  -7   1  -4   40.30    3.50   1
   7  -1   5  110.60    4.30   1
  -7   1  -5  105.40    8.90   1
   7  -1   6   -0.10    1.20   1
  -7   1  -6    6.30    4.30   1
   7  -1   7   36.00    2.50   1
  -7   1  -7   28.50    4.60   1
   7  -1   8    6.70    1.70   1
  -7   1  -8    7.30    3.40   1
   7  -1   9    1.80    1.80   1
  -7   1  -9    5.10    4.50   1
   7  -1  10   28.30    3.00   1
  -7   1 -10   21.30    5.10   1
   7  -1  11   47.80    5.20   1
  -7   1 -11   56.50    7.50   1
   7  -1  12   26.20    4.30   1
  -7   1 -12   26.70    6.40   1
   7  -1  13    2.10    4.20   1
  -7   1 -13   -2.00    3.90   1
   7   0 -14   -1.00    2.50   1
  -7   0  14    3.70    4.80   1
   7   0 -13    0.20    2.30   1
  -7   0  13    2.00    3.10   1
   7   0 -12    2.50    2.50   1
  -7   0  12   -2.00    2.70   1
   7   0 -11   15.70    2.90   1
  -7   0  11   12.30    3.50   1
   7   0 -10    2.00    2.30   1
  -7   0  10    0.30    1.70   1
   7   0  -9  138.90    6.30   1
  -7   0   9  152.90    6.80   1
   7   0  -8    0.30    1.80   1
  -7   0   8   -0.90    2.10   1
   7   0  -7   30.50    2.90   1
  -7   0   7   27.00    2.70   1
   7   0  -6    2.70    1.90   1
  -7   0   6    1.40    2.20   1
   7   0  -5  176.90    6.80   1
  -7   0   5  160.00    6.30   1
   7   0  -4   -1.90    2.00   1
  -7   0   4   -1.60    1.50   1
   7   0  -3   63.50    2.90   1
  -7   0   3   54.90    3.00   1
   7   0  -2    1.40    1.40   1
  -7   0   2   -2.00    1.50   1
   7   0  -1   25.00    1.90   1
  -7   0   1   25.40    2.50   1
   7   0   0    0.70    1.30   1
  -7   0   0   -0.10    1.60   1
   7   0   1  138.40    3.90   1
  -7   0  -1  142.60    6.70   1
   7   0   2   -1.40    1.30   1
  -7   0  -2    0.20    1.60   1
   7   0   3   76.40    3.30   1
  -7   0  -3   76.40    5.00   1
   7   0   4    0.40    1.40   1
  -7   0  -4    0.20    2.40   1
   7   0   5   -0.40    1.10   1
  -7   0  -5    2.60    3.80   1
   7   0   6    1.20    1.40   1
  -7   0  -6   -5.30    3.50   1
   7   0   7    3.70    1.40   1
  -7   0  -7    9.30    3.30   1
   7   0   8   -0.80    1.30   1
  -7   0  -8   -1.40    2.60   1
   7   0   9  139.40    6.30   1
  -7   0  -9  143.20   11.60   1
   7   0  10   -0.10    2.40   1
  -7   0 -10    3.30    4.60   1
   7   0  11  140.20    7.50   1
  -7   0 -11  129.50   12.90   1
   7   0  12   -1.00    2.10   1
  -7   0 -12    1.10    3.70   1
   7   0  13    2.00    3.30   1
  -7   0 -13   -5.40    5.20   1
   7   1 -13   31.00    4.50   1
  -7  -1  13   46.00    5.60   1
   7   1 -12   42.80    3.70   1
  -7  -1  12   33.10    4.50   1
   7   1 -11   -0.80    2.60   1
  -7  -1  11   -2.20    2.90   1
   7   1 -10   28.90    3.20   1
  -7  -1  10   28.20    3.80   1
   7   1  -9   80.50    4.80   1
  -7  -1   9   82.00    5.80   1
   7   1  -8   46.30    3.50   1
  -7  -1   8   45.10    3.10   1
   7   1  -7    0.00    1.90   1
  -7  -1   7    1.10    1.60   1
   7   1  -6   10.30    2.30   1
  -7  -1   6    8.10    2.60   1
   7   1  -5    0.60    2.00   1
  -7  -1   5   -3.30    2.30   1
   7   1  -4    5.40    2.30   1
  -7  -1   4   -0.90    2.30   1
   7   1  -3  255.60   10.70   1
  -7  -1   3  242.40   14.00   1
   7   1  -2    9.70    2.70   1
  -7  -1   2    7.50    3.20   1
   7   1  -1    1.20    1.50   1
  -7  -1   1    1.00    1.60   1
   7   1   0  104.10    3.90   1
  -7  -1   0  100.90    5.20   1
   7   1   1   99.60    3.80   1
  -7  -1  -1   92.50    5.30   1
   7   1   2  113.70    4.20   1
  -7  -1  -2  123.30    8.80   1
   7   1   3    3.00    1.20   1
  -7  -1  -3    0.60    2.50   1
   7   1   4   44.20    2.40   1
  -7  -1  -4   45.50    5.30   1
   7   1   5  110.00    4.10   1
  -7  -1  -5  107.30    8.30   1
   7   1   6    3.30    1.50   1
  -7  -1  -6   -0.20    3.70   1
   7   1   7   34.00    2.40   1
  -7  -1  -7   35.40    5.00   1
   7   1   8    8.80    1.60   1
  -7  -1  -8    3.10    3.10   1
   7   1   9    0.80    1.80   1
  -7  -1  -9    2.90    3.10   1
   7   1  10   31.40    3.00   1
  -7  -1 -10   19.00    4.60   1
   7   1  11   52.10    4.10   1
  -7  -1 -11   49.50    7.40   1
   7   1  12   15.80    2.80   1
  -7  -1 -12   11.00    3.90   1
   7   1  13   -1.20    2.20   1
  -7  -1 -13   -0.50    3.50   1
   7   2 -13    0.70    2.30   1
  -7  -2  13    6.30    3.50   1
   7   2 -12   52.70    4.80   1
  -7  -2  12   50.80    5.10   1
   7   2 -11    6.00    2.50   1
  -7  -2  11    6.10    3.00   1
   7   2 -10    1.30    2.60   1
  -7  -2  10    3.80    2.90   1
   7   2  -9   60.30    4.30   1
  -7  -2   9   59.30    5.20   1
   7   2  -8   88.60    5.10   1
  -7  -2   8   92.70    6.10   1
   7   2  -7    7.10    2.40   1
  -7  -2   7   10.90    3.00   1
   7   2  -6   51.80    4.00   1
  -7  -2   6   50.20    4.50   1
   7   2  -5   -1.60    1.70   1
  -7  -2   5    2.10    2.10   1
   7   2  -4  101.30    4.90   1
  -7  -2   4   99.70    5.30   1
   7   2  -3    0.10    2.20   1
  -7  -2   3    9.70    4.10   1
   7   2  -2    2.70    1.80   1
  -7  -2   2    9.80    3.10   1
   7   2  -1   64.30    3.60   1
  -7  -2   1   65.40    6.60   1
   7   2   0   68.80    3.60   1
  -7  -2   0   75.00    6.60   1
   7   2   1    7.80    1.60   1
  -7  -2  -1   13.10    3.50   1
   7   2   2    8.20    1.70   1
  -7  -2  -2   10.40    3.20   1
   7   2   3    3.70    1.70   1
  -7  -2  -3    0.80    3.70   1
   7   2   4   17.10    2.00   1
  -7  -2  -4   13.70    4.50   1
   7   2   5   59.50    3.00   1
  -7  -2  -5   59.00    6.00   1
   7   2   6  389.30   11.40   1
  -7  -2  -6  393.20   22.30   1
   7   2   7   37.60    2.50   1
  -7  -2  -7   34.10    4.60   1
   7   2   8   15.60    2.20   1
  -7  -2  -8   14.80    4.10   1
   7   2   9    2.10    1.80   1
  -7  -2  -9   -1.80    3.00   1
   7   2  10   41.90    3.90   1
  -7  -2 -10   44.60    6.60   1
   7   2  11    1.20    2.20   1
  -7  -2 -11    1.80    3.30   1
   7   2  12    1.10    2.40   1
  -7  -2 -12    5.70    3.60   1
   7   2  13    1.40    2.40   1
  -7  -2 -13   -1.90    3.90   1
   7   3 -13   -2.60    5.40   1
  -7  -3  13   -5.40    3.50   1
   7   3 -12    4.80    2.90   1
  -7  -3  12    2.40    3.00   1
   7   3 -11    6.90    2.80   1
  -7  -3  11   -3.80    3.00   1
   7   3 -10  133.60    7.20   1
  -7  -3  10  121.20    7.80   1
   7   3  -9   11.30    2.60   1
  -7  -3   9   11.50    2.90   1
   7   3  -8   -1.10    2.10   1
  -7  -3   8   -0.10    2.30   1
   7   3  -7   29.20    3.10   1
  -7  -3   7   27.40    4.70   1
   7   3  -6    6.60    2.20   1
  -7  -3   6    0.40    2.80   1
   7   3  -5    7.90    2.30   1
  -7  -3   5   11.70    3.50   1
   7   3  -4   63.00    4.10   1
  -7  -3   4   56.70    6.40   1
   7   3  -3   26.40    2.70   1
  -7  -3   3   18.30    4.00   1
   7   3  -2   95.60    4.80   1
  -7  -3   2   98.20    7.90   1
   7   3  -1   21.60    2.60   1
  -7  -3   1   17.70    3.70   1
   7   3   0  261.30    9.20   1
  -7  -3   0  283.30   16.20   1
   7   3   1    7.90    1.80   1
  -7  -3  -1    4.30    4.00   1
   7   3   2   11.50    1.80   1
  -7  -3  -2   10.50    3.30   1
   7   3   3    2.80    1.70   1
  -7  -3  -3    0.30    2.40   1
   7   3   4    0.10    1.60   1
  -7  -3  -4   -1.60    2.50   1
   7   3   5    2.80    1.50   1
  -7  -3  -5    1.20    2.70   1
   7   3   6   21.30    2.20   1
  -7  -3  -6   22.80    3.90   1
   7   3   7    9.20    1.70   1
  -7  -3  -7   11.90    3.70   1
   7   3   8   39.40    3.50   1
  -7  -3  -8   35.30    6.00   1
   7   3   9   -1.10    2.20   1
  -7  -3  -9   10.90    5.00   1
   7   3  10    7.10    2.70   1
  -7  -3 -10    3.90    3.50   1
   7   3  11   -1.20    2.10   1
  -7  -3 -11   -4.90    3.40   1
   7   3  12  150.40    7.90   1
  -7  -3 -12  142.20   14.10   1
   7   4 -12   15.60    3.40   1
  -7  -4  12    8.90    4.90   1
   7   4 -11   17.60    3.40   1
  -7  -4  11   26.50    6.90   1
   7   4 -10   13.10    2.90   1
  -7  -4  10    6.30    4.30   1
   7   4  -9  132.40    7.10   1
  -7  -4   9  120.50   12.10   1
   7   4  -8   51.60    4.20   1
  -7  -4   8   53.30    7.20   1
   7   4  -7    9.10    2.50   1
  -7  -4   7    7.90    3.70   1
   7   4  -6   29.60    3.00   1
  -7  -4   6   42.10    5.90   1
   7   4  -5   -1.60    1.90   1
  -7  -4   5   -3.30    2.80   1
   7   4  -4  186.20    7.70   1
  -7  -4   4  187.60   13.20   1
   7   4  -3   30.90    3.10   1
  -7  -4   3   22.50    4.20   1
   7   4  -2   35.60    3.10   1
  -7  -4   2   32.00    4.60   1
   7   4  -1   83.40    4.30   1
  -7  -4   1   75.20    6.60   1
   7   4   0    2.80    2.00   1
  -7  -4   0    5.80    4.00   1
   7   4   1    1.30    1.60   1
  -7  -4  -1   -2.70    2.60   1
   7   4   2   64.90    3.20   1
  -7  -4  -2   65.80    6.00   1
   7   4   3   61.40    3.20   1
  -7  -4  -3   58.80    6.10   1
   7   4   4   11.20    1.80   1
  -7  -4  -4    6.50    3.10   1
   7   4   5   36.30    3.20   1
  -7  -4  -5   39.60    5.10   1
   7   4   6   65.20    3.90   1
  -7  -4  -6   65.80    7.30   1
   7   4   7   37.40    2.70   1
  -7  -4  -7   34.70    5.20   1
   7   4   8    0.90    2.10   1
  -7  -4  -8    7.50    4.40   1
   7   4   9   43.80    3.80   1
  -7  -4  -9   47.10    6.80   1
   7   4  10   92.70    5.50   1
  -7  -4 -10   73.30    7.80   1
   7   4  11    2.80    2.60   1
  -7  -4 -11    6.30    3.80   1
   7   5 -11    6.00    3.50   1
  -7  -5  11    8.60    6.20   1
   7   5 -10   -2.20    2.80   1
  -7  -5  10    8.30    4.40   1
   7   5  -9   17.40    3.20   1
  -7  -5   9   17.20    5.40   1
   7   5  -8   14.60    2.80   1
  -7  -5   8    8.80    4.10   1
   7   5  -7   -3.80    2.50   1
  -7  -5   7    1.00    3.30   1
   7   5  -6    2.00    2.30   1
  -7  -5   6    5.40    3.60   1
   7   5  -5   -0.20    2.20   1
  -7  -5   5    4.00    3.20   1
   7   5  -4    5.60    2.70   1
  -7  -5   4   13.10    4.90   1
   7   5  -3   67.80    4.20   1
  -7  -5   3   57.90    4.20   1
   7   5  -2   12.60    2.90   1
  -7  -5   2    4.30    3.10   1
   7   5  -1    1.70    2.10   1
  -7  -5   1   -4.50    3.00   1
   7   5   0    2.20    2.00   1
  -7  -5   0    0.50    2.50   1
   7   5   1  107.90    5.20   1
  -7  -5  -1  108.30    9.50   1
   7   5   2   -0.40    1.60   1
  -7  -5  -2    1.60    2.80   1
   7   5   3  126.20    5.00   1
  -7  -5  -3  114.90    9.50   1
   7   5   4    9.10    1.80   1
  -7  -5  -4    3.00    2.90   1
   7   5   5  140.30    5.70   1
  -7  -5  -5  133.20   11.50   1
   7   5   6    0.20    1.80   1
  -7  -5  -6   -0.80    2.60   1
   7   5   7   58.80    4.30   1
  -7  -5  -7   46.70    6.20   1
   7   5   8   16.30    2.60   1
  -7  -5  -8   17.20    4.60   1
   7   5   9   41.60    3.80   1
  -7  -5  -9   20.10    4.90   1
   7   5  10   -0.10    2.20   1
  -7  -5 -10   -5.40    3.10   1
   7   5  11   27.20    3.60   1
  -7  -5 -11   23.10    5.30   1
   7   6 -10    6.70    3.80   1
  -7  -6  10    3.80    5.80   1
   7   6  -9   73.70    5.60   1
  -7  -6   9   79.90    9.80   1
   7   6  -8    1.10    3.00   1
  -7  -6   8   -0.40    3.50   1
   7   6  -7   -1.80    2.50   1
  -7  -6   7    9.70    4.10   1
   7   6  -6  160.40    8.20   1
  -7  -6   6  149.90   14.20   1
   7   6  -5   61.10    4.60   1
  -7  -6   5   62.50    7.80   1
   7   6  -4   30.40    3.40   1
  -7  -6   4   38.20    5.80   1
   7   6  -3   24.10    3.50   1
  -7  -6   3   25.30    4.80   1
   7   6  -2    1.70    2.20   1
  -7  -6   2   -0.90    1.80   1
   7   6  -1   18.40    2.90   1
  -7  -6   1   23.50    2.90   1
   7   6   0   54.90    3.80   1
  -7  -6   0   50.20    4.10   1
   7   6   1   25.10    2.90   1
  -7  -6  -1   25.30    3.30   1
   7   6   2    0.10    1.80   1
  -7  -6  -2    1.30    2.30   1
   7   6   3   19.70    2.60   1
  -7  -6  -3   25.50    3.40   1
   7   6   4    7.80    2.40   1
  -7  -6  -4   12.40    4.60   1
   7   6   5   18.50    2.50   1
  -7  -6  -5   22.20    5.50   1
   7   6   6   -0.10    2.70   1
  -7  -6  -6  -10.90    4.30   1
   7   6   7   29.80    3.40   1
  -7  -6  -7   27.60    3.80   1
   7   6   8   21.00    3.30   1
  -7  -6  -8   26.30    4.10   1
   7   6   9   51.70    4.50   1
  -7  -6  -9   44.80    5.00   1
   7   7  -8    2.30    2.90   1
  -7  -7   8    1.40    4.10   1
   7   7  -7    0.10    2.50   1
  -7  -7   7    0.80    3.60   1
   7   7  -6    1.60    2.60   1
  -7  -7   6    2.10    3.70   1
   7   7  -5    3.20    2.50   1
  -7  -7   5   -0.10    3.50   1
   7   7  -4    2.00    2.70   1
  -7  -7   4    2.50    3.30   1
   7   7  -3  122.40    7.10   1
  -7  -7   3  117.40   11.30   1
   7   7  -2   38.40    3.90   1
  -7  -7   2   34.30    5.50   1
   7   7  -1    7.40    2.30   1
  -7  -7   1    4.70    2.60   1
   7   7   0  108.50    6.40   1
  -7  -7   0  118.60    7.70   1
   7   7   1   28.10    3.40   1
  -7  -7  -1   23.20    3.10   1
   7   7   2   41.20    3.20   1
  -7  -7  -2   39.70    4.10   1
   7   7   3   37.20    2.50   1
  -7  -7  -3   36.80    3.80   1
   7   7   4    2.50    1.70   1
  -7  -7  -4    0.50    2.50   1
   7   7   5   20.50    2.90   1
  -7  -7  -5   29.70    3.90   1
   7   7   6    6.00    2.30   1
  -7  -7  -6    7.10    2.70   1
   7   7   7    2.80    2.40   1
  -7  -7  -7    6.40    3.10   1
   7   7   8    2.10    2.30   1
  -7  -7  -8    5.40    3.60   1
   7   8  -6   15.10    3.70   1
  -7  -8   6   14.80    6.10   1
   7   8  -5    3.00    2.50   1
  -7  -8   5    7.80    3.90   1
   7   8  -4   24.60    3.80   1
  -7  -8   4   16.10    4.70   1
   7   8  -3    6.70    3.10   1
  -7  -8   3   12.00    5.50   1
   7   8  -2   -0.20    2.60   1
  -7  -8   2   -1.40    3.00   1
   7   8  -1    4.70    2.50   1
  -7  -8   1   -4.20    3.30   1
   7   8   0   36.00    3.90   1
  -7  -8   0   41.20    6.50   1
   7   8   1    2.10    2.60   1
  -7  -8  -1    0.10    2.20   1
   7   8   2    0.60    1.90   1
  -7  -8  -2   -0.60    2.60   1
   7   8   3    7.80    2.20   1
  -7  -8  -3    7.10    2.70   1
   7   8   4   48.20    3.80   1
  -7  -8  -4   47.30    5.10   1
   7   8   5   -1.90    2.70   1
  -7  -8  -5    5.10    4.10   1
  -8   6   5   -0.10    4.50   1
  -8   6   4    8.20    3.40   1
   8  -6  -3   -1.30    2.60   1
  -8   6   3    2.50    2.40   1
   8  -6  -2    4.30    2.10   1
  -8   6   2    2.60    2.20   1
   8  -6  -1   45.30    3.90   1
  -8   6   1   42.60    5.00   1
   8  -6   0    1.60    2.20   1
  -8   6   0    5.80    2.80   1
   8  -6   1    0.10    2.20   1
  -8   6  -1    2.50    3.30   1
   8  -6   2   -1.40    2.00   1
  -8   6  -2    1.20    3.60   1
   8  -6   3    8.50    2.20   1
  -8   6  -3    8.20    3.40   1
   8  -6   4   53.10    3.50   1
  -8   6  -4   51.50    8.50   1
  -8   5   7    0.30    3.40   1
   8  -5  -6    8.30    2.50   1
  -8   5   6   13.00    2.80   1
   8  -5  -5    4.50    1.80   1
  -8   5   5    8.10    3.00   1
   8  -5  -4   12.00    2.40   1
  -8   5   4   14.40    3.50   1
   8  -5  -3    5.60    2.40   1
  -8   5   3    4.30    2.10   1
   8  -5  -2  127.90    7.00   1
  -8   5   2  134.90    6.90   1
   8  -5  -1   29.80    3.30   1
  -8   5   1   26.70    3.70   1
   8  -5   0   98.70    5.70   1
  -8   5   0   99.00    7.20   1
   8  -5   1    5.50    2.60   1
  -8   5  -1    1.50    2.60   1
   8  -5   2   48.50    4.20   1
  -8   5  -2   45.50    5.00   1
   8  -5   3    1.40    1.80   1
  -8   5  -3   -3.20    2.70   1
   8  -5   4   13.10    2.20   1
  -8   5  -4   11.30    3.20   1
   8  -5   5   15.30    2.50   1
  -8   5  -5   22.10    6.00   1
   8  -5   6   -0.30    2.10   1
  -8   5  -6    4.10    3.00   1
   8  -4  -8    8.20    3.30   1
  -8   4   8    7.90    2.90   1
   8  -4  -7   51.50    4.10   1
  -8   4   7   49.60    4.30   1
   8  -4  -6   87.20    5.50   1
  -8   4   6   77.70    5.30   1
   8  -4  -5   19.70    3.10   1
  -8   4   5   22.30    3.90   1
   8  -4  -4   66.20    4.70   1
  -8   4   4   65.30    4.50   1
   8  -4  -3   14.90    2.10   1
  -8   4   3   18.50    2.60   1
   8  -4  -2    2.30    2.00   1
  -8   4   2    2.50    2.50   1
   8  -4  -1   -1.50    2.40   1
  -8   4   1    0.30    2.10   1
   8  -4   0   36.50    3.30   1
  -8   4   0   32.80    3.90   1
   8  -4   1   19.70    2.60   1
  -8   4  -1   26.90    3.60   1
   8  -4   2    3.50    2.10   1
  -8   4  -2    6.30    3.30   1
   8  -4   3   52.10    3.40   1
  -8   4  -3   58.90    5.50   1
   8  -4   4    5.20    1.90   1
  -8   4  -4    0.80    3.50   1
   8  -4   5   21.10    2.50   1
  -8   4  -5   23.70    3.90   1
   8  -4   6   44.90    3.30   1
  -8   4  -6   59.70    7.20   1
   8  -4   7   42.10    3.40   1
  -8   4  -7   45.50    8.10   1
   8  -4   8   30.30    3.40   1
  -8   4  -8   25.80    6.00   1
   8  -3  -9   -3.80    2.70   1
  -8   3   9    2.70    3.60   1
   8  -3  -8   19.00    3.00   1
  -8   3   8   27.40    4.30   1
   8  -3  -7   -6.00    2.30   1
  -8   3   7    4.70    2.80   1
   8  -3  -6    1.80    2.30   1
  -8   3   6    0.50    2.00   1
   8  -3  -5   22.20    3.30   1
  -8   3   5   17.10    2.90   1
   8  -3  -4    7.50    2.50   1
  -8   3   4    0.90    2.20   1
   8  -3  -3   11.90    2.30   1
  -8   3   3   11.90    2.30   1
   8  -3  -2    3.40    2.30   1
  -8   3   2    4.60    2.20   1
   8  -3  -1   53.70    4.00   1
  -8   3   1   57.10    7.30   1
   8  -3   0   13.80    2.30   1
  -8   3   0   18.60    3.10   1
   8  -3   1   13.00    2.80   1
  -8   3  -1   12.60    2.90   1
   8  -3   2   10.90    2.40   1
  -8   3  -2    8.80    2.80   1
   8  -3   3  168.10    7.80   1
  -8   3  -3  172.50    9.90   1
   8  -3   4    8.00    1.90   1
  -8   3  -4    8.60    4.90   1
   8  -3   5    9.10    2.10   1
  -8   3  -5    5.50    2.80   1
   8  -3   6    2.00    1.70   1
  -8   3  -6   -1.30    4.40   1
   8  -3   7    3.80    1.90   1
  -8   3  -7    3.70    4.00   1
   8  -3   8    3.80    2.60   1
  -8   3  -8    7.70    5.80   1
   8  -3   9  157.00   13.50   1
   8  -2 -10   -1.00    2.30   1
  -8   2  10    3.30    2.90   1
   8  -2  -9   21.40    3.10   1
  -8   2   9   23.90    3.10   1
   8  -2  -8    2.50    2.70   1
  -8   2   8    1.70    2.40   1
   8  -2  -7  112.50    6.50   1
  -8   2   7  126.90    6.80   1
   8  -2  -6   51.50    4.40   1
  -8   2   6   56.40    5.20   1
   8  -2  -5   12.10    2.30   1
  -8   2   5   16.20    2.30   1
   8  -2  -4   22.30    2.90   1
  -8   2   4   23.10    2.80   1
   8  -2  -3   79.10    4.90   1
  -8   2   3   70.00    5.50   1
   8  -2  -2    5.70    2.20   1
  -8   2   2    0.80    2.10   1
   8  -2  -1    3.70    2.20   1
  -8   2   1    3.60    3.00   1
   8  -2   0   46.10    3.10   1
  -8   2   0   48.10    4.20   1
   8  -2   1    1.70    2.00   1
  -8   2  -1    1.40    2.30   1
   8  -2   2    4.50    2.20   1
  -8   2  -2    0.30    3.20   1
   8  -2   3  119.60    6.20   1
  -8   2  -3  117.80    7.50   1
   8  -2   4    6.50    2.30   1
  -8   2  -4    7.50    3.70   1
   8  -2   5    3.10    1.60   1
  -8   2  -5    8.50    3.40   1
   8  -2   6    9.00    2.00   1
  -8   2  -6   12.70    4.30   1
   8  -2   7   27.80    3.00   1
  -8   2  -7   34.70    6.20   1
   8  -2   8   17.50    4.00   1
  -8   2  -8   22.40    5.50   1
   8  -2   9   34.20    4.50   1
  -8   2  -9   27.00    5.70   1
   8  -1 -10   -0.60    2.40   1
  -8   1  10    2.40    3.30   1
   8  -1  -9   15.70    3.30   1
  -8   1   9   16.80    4.10   1
   8  -1  -8    3.00    2.60   1
  -8   1   8    4.40    2.10   1
   8  -1  -7   35.40    3.70   1
  -8   1   7   33.30    3.20   1
   8  -1  -6   58.60    4.40   1
  -8   1   6   62.70    5.30   1
   8  -1  -5    2.70    2.30   1
  -8   1   5    3.40    2.00   1
   8  -1  -4    0.20    2.10   1
  -8   1   4   -0.40    2.00   1
   8  -1  -3   97.00    5.60   1
  -8   1   3  100.80    5.40   1
   8  -1  -2   47.50    3.50   1
  -8   1   2   51.60    5.60   1
   8  -1  -1   82.60    4.70   1
  -8   1   1   79.90    5.40   1
   8  -1   0   37.30    3.20   1
  -8   1   0   41.40    3.80   1
   8  -1   1    2.60    2.50   1
  -8   1  -1    0.10    2.50   1
   8  -1   2  123.90    6.00   1
  -8   1  -2  128.50    7.40   1
   8  -1   3    6.60    2.30   1
  -8   1  -3    0.30    4.80   1
   8  -1   4    2.00    2.00   1
  -8   1  -4   -0.80    3.10   1
   8  -1   5    3.70    2.40   1
  -8   1  -5   -2.40    4.70   1
   8  -1   6    0.80    1.90   1
  -8   1  -6    3.90    3.50   1
   8  -1   7    6.10    2.20   1
  -8   1  -7   -0.70    3.20   1
   8  -1   8    2.90    3.10   1
  -8   1  -8    5.80    3.90   1
   8  -1   9    6.10    3.10   1
  -8   1  -9    0.60    3.70   1
   8   0 -10   86.80    6.00   1
  -8   0  10   88.50    6.80   1
   8   0  -9    4.50    2.80   1
  -8   0   9   -1.10    3.30   1
   8   0  -8   23.30    3.20   1
  -8   0   8   13.90    3.40   1
   8   0  -7    1.20    2.40   1
  -8   0   7    1.10    2.60   1
   8   0  -6   47.50    4.00   1
  -8   0   6   52.00    4.80   1
   8   0  -5    2.50    2.60   1
  -8   0   5   -2.00    2.90   1
   8   0  -4   -1.10    2.50   1
  -8   0   4    3.30    2.40   1
   8   0  -3    0.40    2.10   1
  -8   0   3   -0.50    2.10   1
   8   0  -2    7.10    2.20   1
  -8   0   2    5.70    3.50   1
   8   0  -1    4.20    2.50   1
  -8   0   1   -0.60    2.10   1
   8   0   0    0.60    1.90   1
  -8   0   0    5.60    2.30   1
   8   0   1    1.90    2.20   1
  -8   0  -1    2.90    3.20   1
   8   0   2   18.80    2.60   1
  -8   0  -2   18.60    3.00   1
   8   0   3   -0.50    2.50   1
  -8   0  -3    8.20    4.80   1
   8   0   4  129.90    6.60   1
  -8   0  -4  112.90   11.60   1
   8   0   5   -1.00    2.00   1
  -8   0  -5   -2.30    4.60   1
   8   0   6  166.40    8.20   1
  -8   0  -6  170.70   14.10   1
   8   0   7   -1.70    2.50   1
  -8   0  -7    0.70    3.20   1
   8   0   8  158.60    9.50   1
  -8   0  -8  197.10   14.60   1
   8   0   9    0.10    2.70   1
  -8   0  -9   -3.00    3.70   1
   8   1 -10   -1.00    2.60   1
  -8  -1  10   -2.50    3.20   1
   8   1  -9   19.30    3.40   1
  -8  -1   9   17.30    3.90   1
   8   1  -8    7.20    3.40   1
  -8  -1   8    6.20    3.50   1
   8   1  -7   34.40    3.80   1
  -8  -1   7   37.30    4.40   1
   8   1  -6   69.60    4.80   1
  -8  -1   6   64.40    5.60   1
   8   1  -5    3.70    2.50   1
  -8  -1   5    2.60    3.50   1
   8   1  -4    2.60    2.60   1
  -8  -1   4   -1.80    4.60   1
   8   1  -3  107.80    5.70   1
  -8  -1   3  101.50    8.80   1
   8   1  -2   56.60    3.90   1
  -8  -1   2   57.50    6.50   1
   8   1  -1   88.90    5.20   1
  -8  -1   1   95.80    8.80   1
   8   1   0   37.80    3.30   1
  -8  -1   0   40.50    5.90   1
   8   1   1    8.90    2.50   1
  -8  -1  -1    5.30    4.70   1
   8   1   2  121.60    5.30   1
  -8  -1  -2  143.70   11.30   1
   8   1   3   -1.90    1.90   1
  -8  -1  -3    1.30    3.00   1
   8   1   4   -0.40    2.40   1
  -8  -1  -4    4.70    3.70   1
   8   1   5    3.30    2.00   1
  -8  -1  -5    2.40    3.40   1
   8   1   6    4.30    2.30   1
  -8  -1  -6    8.00    5.30   1
   8   1   7    3.00    2.70   1
  -8  -1  -7    4.50    3.70   1
   8   1   8    5.60    3.20   1
  -8  -1  -8    3.20    3.70   1
   8   1   9    6.70    3.50   1
  -8  -1  -9    6.70    5.40   1
   8   2 -10    7.20    4.90   1
  -8  -2  10    2.90    3.00   1
   8   2  -9   19.10    3.10   1
  -8  -2   9   25.50    4.00   1
   8   2  -8    0.00    2.90   1
  -8  -2   8    0.80    2.80   1
   8   2  -7  117.90    8.20   1
  -8  -2   7  125.80   11.80   1
   8   2  -6   49.70    5.10   1
  -8  -2   6   55.90    7.80   1
   8   2  -5   13.70    3.20   1
  -8  -2   5    9.20    4.30   1
   8   2  -4   22.20    3.60   1
  -8  -2   4   27.60    5.10   1
   8   2  -3   71.00    5.60   1
  -8  -2   3   92.90    8.80   1
   8   2  -2    6.00    2.50   1
  -8  -2   2    4.70    4.60   1
   8   2  -1   -0.10    2.10   1
  -8  -2   1    1.60    3.30   1
   8   2   0   49.90    4.10   1
  -8  -2   0   44.10    5.90   1
   8   2   1    2.30    1.60   1
  -8  -2  -1    0.90    3.20   1
   8   2   2    7.50    2.00   1
  -8  -2  -2   12.40    4.80   1
   8   2   3  112.40    5.10   1
  -8  -2  -3  109.40   11.40   1
   8   2   4    6.70    1.80   1
  -8  -2  -4    7.20    3.70   1
   8   2   5    2.00    2.10   1
  -8  -2  -5    5.90    4.90   1
   8   2   6    5.00    1.80   1
  -8  -2  -6    7.90    3.80   1
   8   2   7   25.80    3.00   1
  -8  -2  -7   26.30    5.60   1
   8   2   8   22.50    3.60   1
  -8  -2  -8   21.60    6.00   1
   8   2   9   26.40    3.50   1
  -8  -2  -9   23.80    5.20   1
   8   3  -9    0.20    3.10   1
  -8  -3   9   -1.40    5.50   1
   8   3  -8   23.10    3.70   1
  -8  -3   8   11.40    4.50   1
   8   3  -7   -3.40    2.70   1
  -8  -3   7   -0.80    3.90   1
   8   3  -6    7.40    3.00   1
  -8  -3   6    1.20    3.70   1
   8   3  -5   18.70    3.50   1
  -8  -3   5   18.40    5.10   1
   8   3  -4    1.10    2.80   1
  -8  -3   4    0.50    5.00   1
   8   3  -3    7.70    2.60   1
  -8  -3   3    8.20    4.10   1
   8   3  -2    5.80    2.30   1
  -8  -3   2   -0.50    3.40   1
   8   3  -1   44.60    3.70   1
  -8  -3   1   61.70    7.70   1
   8   3   0   14.10    2.30   1
  -8  -3   0   13.10    4.20   1
   8   3   1   11.30    2.30   1
  -8  -3  -1   11.10    4.90   1
   8   3   2   12.60    2.20   1
  -8  -3  -2    9.70    3.90   1
   8   3   3  157.60    6.60   1
  -8  -3  -3  152.90   14.00   1
   8   3   4    8.80    2.20   1
  -8  -3  -4   17.50    5.60   1
   8   3   5    6.40    2.00   1
  -8  -3  -5    2.10    3.60   1
   8   3   6    0.80    1.90   1
  -8  -3  -6    4.90    3.40   1
   8   3   7    3.60    2.50   1
  -8  -3  -7    2.20    5.00   1
   8   3   8    1.70    2.30   1
  -8  -3  -8    1.20    3.60   1
   8   3   9  144.50    7.90   1
  -8  -3  -9  144.40   14.80   1
   8   4  -8   14.10    4.00   1
  -8  -4   8   12.80    4.90   1
   8   4  -7   51.20    4.70   1
  -8  -4   7   49.90    7.70   1
   8   4  -6   91.70    5.90   1
  -8  -4   6   89.90   10.30   1
   8   4  -5   20.00    3.40   1
  -8  -4   5   18.40    5.10   1
   8   4  -4   63.50    5.20   1
  -8  -4   4   60.50    7.40   1
   8   4  -3    9.60    2.80   1
  -8  -4   3   16.90    4.40   1
   8   4  -2    6.30    2.60   1
  -8  -4   2   -3.00    3.30   1
   8   4  -1    1.60    1.90   1
  -8  -4   1   -2.40    3.30   1
   8   4   0   39.00    3.20   1
  -8  -4   0   41.70    5.90   1
   8   4   1   21.20    2.80   1
  -8  -4  -1   22.70    4.80   1
   8   4   2    8.40    2.20   1
  -8  -4  -2    1.90    2.90   1
   8   4   3   55.40    4.20   1
  -8  -4  -3   58.10    8.10   1
   8   4   4    7.40    2.20   1
  -8  -4  -4    2.60    3.40   1
   8   4   5   20.00    2.50   1
  -8  -4  -5    7.30    3.90   1
   8   4   6   49.50    4.10   1
  -8  -4  -6   56.00    6.90   1
   8   4   7   46.20    4.40   1
  -8  -4  -7   56.90    8.10   1
   8   4   8   32.80    4.00   1
  -8  -4  -8   29.20    6.40   1
   8   5  -7   -0.90    4.10   1
  -8  -5   7    7.00    4.40   1
   8   5  -6   10.50    3.20   1
  -8  -5   6   19.10    5.30   1
   8   5  -5    6.40    3.00   1
  -8  -5   5   10.30    4.60   1
   8   5  -4   12.40    3.20   1
  -8  -5   4   13.60    5.50   1
   8   5  -3    2.90    2.40   1
  -8  -5   3   -3.70    3.60   1
   8   5  -2  120.60    7.30   1
  -8  -5   2  122.30   12.60   1
   8   5  -1   23.80    3.60   1
  -8  -5   1   31.10    6.30   1
   8   5   0  101.10    5.30   1
  -8  -5   0  106.00   10.80   1
   8   5   1    9.00    2.60   1
  -8  -5  -1    3.70    5.20   1
   8   5   2   51.80    3.50   1
  -8  -5  -2   40.00    6.20   1
   8   5   3   -1.20    2.00   1
  -8  -5  -3    0.40    3.40   1
   8   5   4   14.20    3.10   1
  -8  -5  -4   16.30    5.70   1
   8   5   5   17.70    2.90   1
  -8  -5  -5   16.90    4.60   1
   8   5   6    0.70    2.40   1
  -8  -5  -6   -4.30    3.60   1
   8   6  -5    4.20    3.80   1
  -8  -6   5    9.60    6.00   1
   8   6  -4   11.90    3.00   1
  -8  -6   4    8.80    4.40   1
   8   6  -3    1.00    2.60   1
  -8  -6   3    3.60    3.70   1
   8   6  -2    8.60    3.10   1
  -8  -6   2    3.90    3.90   1
   8   6  -1   45.10    4.40   1
  -8  -6   1   43.50    6.50   1
   8   6   0    6.10    2.70   1
  -8  -6   0    3.50    3.30   1
   8   6   1   -0.10    2.10   1
  -8  -6  -1   -3.10    2.30   1
   8   6   2   -1.20    2.60   1
  -8  -6  -2   -1.40    3.40   1
   8   6   3    8.20    2.30   1
  -8  -6  -3    3.50    2.70   1
   8   6   4   53.70    4.60   1
  -8  -6  -4   54.40    5.50   1
   9  -3   0  120.70    8.60   1
  -9   3   0  139.80   12.40   1
   9  -2  -3    9.20    3.80   1
  -9   2   3    7.80    3.40   1
   9  -2  -2    3.20    2.20   1
  -9   2   2    6.50    4.50   1
   9  -2  -1   20.10    3.00   1
  -9   2   1   15.30    3.60   1
   9  -2   0    4.30    2.70   1
  -9   2   0    6.20    3.10   1
   9  -2   1    4.10    3.10   1
  -9   2  -1    0.10    5.70   1
   9  -2   2   13.80    3.00   1
  -9   2  -2   16.30    3.90   1
   9  -2   3   -0.80    3.00   1
  -9   2  -3    2.40    4.60   1
   9  -1  -4    5.40    3.60   1
  -9   1   4    5.80    4.30   1
   9  -1  -3   83.80    5.80   1
  -9   1   3   82.00    9.80   1
   9  -1  -2    4.10    2.80   1
  -9   1   2   17.00    6.60   1
   9  -1  -1   18.80    2.70   1
  -9   1   1   18.90    5.60   1
   9  -1   0   34.50    3.80   1
  -9   1   0   30.90    6.10   1
   9  -1   1   13.10    3.20   1
  -9   1  -1   19.60    3.60   1
   9  -1   2   29.40    4.60   1
  -9   1  -2   29.10    7.50   1
   9  -1   3    6.50    3.30   1
  -9   1  -3   -0.50    4.20   1
  -9   0   5   84.30   10.50   1
   9   0  -4   -1.20    3.00   1
  -9   0   4    0.90    3.90   1
   9   0  -3    5.00    3.00   1
  -9   0   3    2.90    3.90   1
   9   0  -2    2.20    3.30   1
  -9   0   2    7.80    5.80   1
   9   0  -1   13.20    2.90   1
  -9   0   1    7.70    4.50   1
   9   0   0    0.40    2.10   1
  -9   0   0    1.80    3.90   1
   9   0   1  108.60    6.70   1
  -9   0  -1   97.10   11.20   1
   9   0   2    3.90    2.50   1
  -9   0  -2    1.00    3.70   1
   9   0   3   31.80    4.20   1
  -9   0  -3   21.50    5.50   1
   9   0   4    6.60    4.40   1
   9   1  -4    0.90    4.40   1
  -9  -1   4    6.30    4.10   1
   9   1  -3   74.90    5.70   1
  -9  -1   3   97.70   10.20   1
   9   1  -2    5.90    2.90   1
  -9  -1   2    1.10    3.90   1
   9   1  -1   19.40    3.20   1
  -9  -1   1   27.20    6.00   1
   9   1   0   31.60    4.00   1
  -9  -1   0   27.10    5.30   1
   9   1   1   18.50    3.50   1
  -9  -1  -1   22.50    6.60   1
   9   1   2   29.40    3.50   1
  -9  -1  -2   27.70    6.40   1
   9   1   3    4.40    3.10   1
  -9  -1  -3    5.40    4.40   1
   9   2  -2    6.00    4.20   1
  -9  -2   2    1.60    3.90   1
   9   2  -1   23.30    4.20   1
  -9  -2   1   31.90    6.30   1
   9   2   0    7.90    3.70   1
  -9  -2   0    0.60    3.60   1
   9   2   1    0.20    2.50   1
  -9  -2  -1   11.90    4.30   1
   9   2   2   16.30    5.30   1
   9   2   3    1.80    4.20   1
   0   0   0
;
_shelx_hkl_checksum              84005
_shelx_res_file
;
TITL BaCuAs2O7 in P2(1)/n
CELL 0.71073   5.7343   8.4722  13.0708  90.000  91.125  90.000
ZERR    4.00   0.0011   0.0017   0.0026   0.000   0.030   0.000
LATT  1
SYMM 0.5-X, 0.5+Y, 0.5-Z
SFAC O Cu AS Ba
UNIT 28 4 8 4
ACTA
omit    1   0   3
L.S. 15
BOND
acta
FMAP 2
PLAN -20
SIZE 0.02 0.03 0.06
shel 100 .8
WGHT    0.021100    6.356000
EXTI    0.002872
FVAR       0.13406
MOLE   1
BA1   4    0.216405    0.651773    0.213731    11.00000    0.01166    0.00914 =
         0.01151    0.00043   -0.00038   -0.00027
AS1   3   -0.253025    0.466289    0.344754    11.00000    0.01032    0.00605 =
         0.00793   -0.00019   -0.00063    0.00029
AS2   3    0.671637    0.683318    0.007865    11.00000    0.01037    0.00819 =
         0.00689    0.00004   -0.00001   -0.00010
CU1   2    0.789892    0.358927    0.119613    11.00000    0.01442    0.00668 =
         0.00901    0.00056   -0.00218   -0.00075
O1    1    0.927821    0.376578    0.262988    11.00000    0.01210    0.01134 =
         0.01123   -0.00028    0.00168    0.00115
O2    1    0.469769    0.439899    0.311854    11.00000    0.01039    0.01607 =
         0.02427    0.00040   -0.00352    0.00118
O3    1    0.663229    0.152763    0.148756    11.00000    0.01885    0.00652 =
         0.01619    0.00160    0.00217    0.00129
O4    1   -0.204785    0.384938    0.465856    11.00000    0.02211    0.00670 =
         0.00888    0.00169   -0.00146    0.00173
O5    1    1.201988    0.340153    0.103427    11.00000    0.01562    0.01370 =
         0.01346    0.00060    0.00578    0.00258
O6    1    0.804080    0.592034    0.107717    11.00000    0.01641    0.00865 =
         0.01523   -0.00014   -0.00499   -0.00055
O7    1    0.619416    0.351601   -0.013169    11.00000    0.01043    0.01482 =
         0.01191    0.00049   -0.00028   -0.00293
HKLF 4
REM  BaCuAs2O7 in P2(1)/n
REM R1 =  0.0247 for   1232 Fo > 4sig(Fo)  and  0.0265 for all   1297 data
REM    101 parameters refined using      0 restraints
END
WGHT      0.0211      6.3561
REM Highest difference peak  2.279,  deepest hole -0.719,  1-sigma level  0.214
Q1    1   0.3729  0.6532  0.2145  11.00000  0.05    2.28
Q2    1   0.8390  0.6784  0.0042  11.00000  0.05    1.85
Q3    1   0.6285  0.3579  0.1189  11.00000  0.05    1.59
Q4    1  -0.0452  0.6752  0.0070  11.00000  0.05    1.48
Q5    1   0.0661  0.6453  0.2050  11.00000  0.05    0.95
Q6    1  -0.0952  0.4641  0.3401  11.00000  0.05    0.95
Q7    1  -0.0976  0.9464  0.1586  11.00000  0.05    0.82
Q8    1   0.6252  0.8417  0.2020  11.00000  0.05    0.65
Q9    1  -0.2857  0.6546  0.3553  11.00000  0.05    0.60
Q10   1  -0.0762  0.8820  0.2385  11.00000  0.05    0.54
Q11   1  -0.1307  0.4384  0.2861  11.00000  0.05    0.53
Q12   1   0.4194  0.6606  0.4260  11.00000  0.05    0.52
Q13   1   0.4935  0.6670  0.1373  11.00000  0.05    0.51
Q14   1  -0.1812  0.6838  0.2991  11.00000  0.05    0.51
Q15   1  -0.1436  0.5104  0.0868  11.00000  0.05    0.50
Q16   1   0.3843  0.5752  0.0672  11.00000  0.05    0.50
Q17   1   0.1135  0.3197  0.1824  11.00000  0.05    0.50
Q18   1   0.0408  0.3991  0.2965  11.00000  0.05    0.48
Q19   1   0.3017  0.9326  0.0732  11.00000  0.05    0.48
Q20   1   0.1940  0.6388  0.3568  11.00000  0.05    0.47
;
_shelx_res_checksum              58248
_shelxl_version_number           .2013
#END Tags that were not found in dictionaries
loop_
_space_group_symop_operation_xyz
'x, y, z'
'-x+1/2, y+1/2, -z+1/2'
'-x, -y, -z'
'x-1/2, -y-1/2, z-1/2'
loop_
_atom_site_type_symbol
_atom_site_label
_atom_site_fract_x
_atom_site_fract_y
_atom_site_fract_z
_atom_site_U_iso_or_equiv
_atom_site_adp_type
_atom_site_calc_flag
_atom_site_occupancy
Ba Ba1 0.21641(6) 0.65177(4) 0.21373(3) 0.01078(13) Uani d 1
As As1 -0.25303(10) 0.46629(7) 0.34475(4) 0.00811(16) Uani d 1
As As2 0.67164(10) 0.68332(7) 0.00787(4) 0.00849(16) Uani d 1
Cu Cu1 0.78989(13) 0.35893(8) 0.11961(6) 0.01007(18) Uani d 1
O O1 0.9278(7) 0.3766(5) 0.2630(3) 0.0115(8) Uani d 1
O O2 0.4698(7) 0.4399(5) 0.3119(4) 0.0170(9) Uani d 1
O O3 0.6632(8) 0.1528(5) 0.1488(3) 0.0138(9) Uani d 1
O O4 -0.2048(8) 0.3849(5) 0.4659(3) 0.0126(9) Uani d 1
O O5 1.2020(8) 0.3402(5) 0.1034(3) 0.0142(9) Uani d 1
O O6 0.8041(7) 0.5920(5) 0.1077(3) 0.0135(9) Uani d 1
O O7 0.6194(7) 0.3516(5) -0.0132(3) 0.0124(9) Uani d 1
loop_
_atom_site_aniso_label
_atom_site_aniso_U_11
_atom_site_aniso_U_22
_atom_site_aniso_U_33
_atom_site_aniso_U_12
_atom_site_aniso_U_13
_atom_site_aniso_U_23
Ba1 0.0117(2) 0.00914(19) 0.0115(2) -0.00027(13) -0.00038(13) 0.00043(13)
As1 0.0103(3) 0.0060(3) 0.0079(3) 0.0003(2) -0.0006(2) -0.0002(2)
As2 0.0104(3) 0.0082(3) 0.0069(3) -0.0001(2) 0.0000(2) 0.0000(2)
Cu1 0.0144(4) 0.0067(4) 0.0090(4) -0.0007(3) -0.0022(3) 0.0006(3)
O1 0.012(2) 0.011(2) 0.011(2) 0.0012(15) 0.0017(16) -0.0003(16)
O2 0.010(2) 0.016(2) 0.024(2) 0.0012(17) -0.0035(18) 0.0004(19)
O3 0.019(2) 0.007(2) 0.016(2) 0.0013(17) 0.0022(18) 0.0016(17)
O4 0.022(2) 0.0067(19) 0.009(2) 0.0017(17) -0.0015(17) 0.0017(16)
O5 0.016(2) 0.014(2) 0.013(2) 0.0026(17) 0.0058(17) 0.0006(17)
O6 0.016(2) 0.009(2) 0.015(2) -0.0005(16) -0.0050(17) -0.0001(17)
O7 0.010(2) 0.015(2) 0.012(2) -0.0029(16) -0.0003(17) 0.0005(16)
loop_
_atom_type_symbol
_atom_type_description
_atom_type_scat_dispersion_real
_atom_type_scat_dispersion_imag
_atom_type_scat_source
O O 0.0106 0.0060 'International Tables Vol C Tables 4.2.6.8 and 6.1.1.4'
Cu Cu 0.3201 1.2651 'International Tables Vol C Tables 4.2.6.8 and 6.1.1.4'
As As 0.0499 2.0058 'International Tables Vol C Tables 4.2.6.8 and 6.1.1.4'
Ba Ba -0.3244 2.2819 'International Tables Vol C Tables 4.2.6.8 and 6.1.1.4'
loop_
_geom_angle_atom_site_label_1
_geom_angle_atom_site_label_2
_geom_angle_atom_site_label_3
_geom_angle_site_symmetry_1
_geom_angle_site_symmetry_3
_geom_angle
_geom_angle_publ_flag
O2 Ba1 O2 . 2 153.81(10) yes
O2 Ba1 O6 . 1_455 125.38(13) yes
O2 Ba1 O6 2 1_455 76.68(13) yes
O2 Ba1 O7 . 3_665 104.89(14) yes
O2 Ba1 O7 2 3_665 91.88(14) yes
O6 Ba1 O7 1_455 3_665 80.15(13) yes
O2 Ba1 O1 . 2_655 90.97(13) yes
O2 Ba1 O1 2 2_655 71.47(13) yes
O6 Ba1 O1 1_455 2_655 142.42(13) yes
O7 Ba1 O1 3_665 2_655 81.45(12) yes
O2 Ba1 O3 . 2 96.66(13) yes
O2 Ba1 O3 2 2 76.64(13) yes
O6 Ba1 O3 1_455 2 70.14(13) yes
O7 Ba1 O3 3_665 2 149.83(13) yes
O1 Ba1 O3 2_655 2 119.53(12) yes
O2 Ba1 O5 . 2_655 83.98(14) yes
O2 Ba1 O5 2 2_655 70.11(13) yes
O6 Ba1 O5 1_455 2_655 129.47(13) yes
O7 Ba1 O5 3_665 2_655 136.35(12) yes
O1 Ba1 O5 2_655 2_655 55.40(12) yes
O3 Ba1 O5 2 2_655 65.93(12) yes
O2 Ba1 O1 . 1_455 70.08(13) yes
O2 Ba1 O1 2 1_455 121.67(12) yes
O6 Ba1 O1 1_455 1_455 58.97(12) yes
O7 Ba1 O1 3_665 1_455 113.44(12) yes
O1 Ba1 O1 2_655 1_455 158.02(6) yes
O3 Ba1 O1 2 1_455 54.80(12) yes
O5 Ba1 O1 2_655 1_455 109.76(12) yes
O2 Ba1 O5 . 1_455 69.15(13) yes
O2 Ba1 O5 2 1_455 137.03(13) yes
O6 Ba1 O5 1_455 1_455 65.41(12) yes
O7 Ba1 O5 3_665 1_455 63.22(12) yes
O1 Ba1 O5 2_655 1_455 131.40(12) yes
O3 Ba1 O5 2 1_455 106.90(12) yes
O5 Ba1 O5 2_655 1_455 151.54(11) yes
O1 Ba1 O5 1_455 1_455 53.01(11) yes
O2 Ba1 As1 . . 83.13(10) ?
O2 Ba1 As1 2 . 99.08(10) ?
O6 Ba1 As1 1_455 . 61.04(9) ?
O7 Ba1 As1 3_665 . 135.40(9) ?
O1 Ba1 As1 2_655 . 142.98(9) ?
O3 Ba1 As1 2 . 27.04(8) ?
O5 Ba1 As1 2_655 . 87.60(9) ?
O1 Ba1 As1 1_455 . 27.77(8) ?
O5 Ba1 As1 1_455 . 80.23(8) ?
O2 Ba1 Cu1 . 1_455 93.45(10) ?
O2 Ba1 Cu1 2 1_455 108.16(9) ?
O6 Ba1 Cu1 1_455 1_455 32.03(9) ?
O7 Ba1 Cu1 3_665 1_455 85.05(9) ?
O1 Ba1 Cu1 2_655 1_455 166.46(9) ?
O3 Ba1 Cu1 2 1_455 72.65(9) ?
O5 Ba1 Cu1 2_655 1_455 137.83(9) ?
O1 Ba1 Cu1 1_455 1_455 33.32(8) ?
O5 Ba1 Cu1 1_455 1_455 40.19(8) ?
As1 Ba1 Cu1 . 1_455 50.434(18) ?
O2 Ba1 As2 . . 90.73(10) ?
O2 Ba1 As2 2 . 97.19(10) ?
O6 Ba1 As2 1_455 . 104.54(9) ?
O7 Ba1 As2 3_665 . 24.39(9) ?
O1 Ba1 As2 2_655 . 61.30(9) ?
O3 Ba1 As2 2 . 172.51(9) ?
O5 Ba1 As2 2_655 . 116.28(8) ?
O1 Ba1 As2 1_455 . 127.56(8) ?
O5 Ba1 As2 1_455 . 74.62(8) ?
As1 Ba1 As2 . . 154.659(18) ?
Cu1 Ba1 As2 1_455 . 105.81(2) ?
O2 As1 O3 1_455 2 115.9(2) yes
O2 As1 O1 1_455 1_455 112.0(2) yes
O3 As1 O1 2 1_455 105.5(2) yes
O2 As1 O4 1_455 . 108.5(2) yes
O3 As1 O4 2 . 106.6(2) yes
O1 As1 O4 1_455 . 108.0(2) yes
O2 As1 Ba1 1_455 . 131.49(17) ?
O3 As1 Ba1 2 . 51.16(15) ?
O1 As1 Ba1 1_455 . 54.33(15) ?
O4 As1 Ba1 . . 120.01(15) ?
O2 As1 Ba1 1_455 1_455 35.13(16) ?
O3 As1 Ba1 2 1_455 82.79(16) ?
O1 As1 Ba1 1_455 1_455 113.44(15) ?
O4 As1 Ba1 . 1_455 133.13(14) ?
Ba1 As1 Ba1 . 1_455 101.86(2) ?
O2 As1 Ba1 1_455 2_445 36.33(16) ?
O3 As1 Ba1 2 2_445 152.13(16) ?
O1 As1 Ba1 1_455 2_445 89.59(15) ?
O4 As1 Ba1 . 2_445 90.19(15) ?
Ba1 As1 Ba1 . 2_445 137.295(19) ?
Ba1 As1 Ba1 1_455 2_445 69.617(19) ?
O5 As2 O6 3_765 . 115.4(2) yes
O5 As2 O7 3_765 3_665 117.7(2) yes
O6 As2 O7 . 3_665 108.5(2) yes
O5 As2 O4 3_765 2 104.0(2) yes
O6 As2 O4 . 2 104.5(2) yes
O7 As2 O4 3_665 2 105.4(2) yes
O5 As2 Ba1 3_765 . 159.52(16) ?
O6 As2 Ba1 . . 74.00(15) ?
O7 As2 Ba1 3_665 . 42.97(15) ?
O4 As2 Ba1 2 . 90.18(14) ?
O3 Cu1 O7 . . 87.90(19) yes
O3 Cu1 O6 . . 158.73(19) yes
O7 Cu1 O6 . . 89.01(18) yes
O3 Cu1 O1 . . 91.48(18) yes
O7 Cu1 O1 . . 172.97(17) yes
O6 Cu1 O1 . . 89.03(18) yes
O3 Cu1 O5 . . 109.54(17) yes
O7 Cu1 O5 . . 113.23(17) yes
O6 Cu1 O5 . . 90.99(17) yes
O1 Cu1 O5 . . 73.56(16) yes
O3 Cu1 Ba1 . 1_655 142.53(14) ?
O7 Cu1 Ba1 . 1_655 128.98(13) ?
O6 Cu1 Ba1 . 1_655 47.66(12) ?
O1 Cu1 Ba1 . 1_655 52.83(12) ?
O5 Cu1 Ba1 . 1_655 54.59(11) ?
O3 Cu1 Ba1 . 2_645 75.98(14) ?
O7 Cu1 Ba1 . 2_645 143.84(13) ?
O6 Cu1 Ba1 . 2_645 117.12(13) ?
O1 Cu1 Ba1 . 2_645 42.25(12) ?
O5 Cu1 Ba1 . 2_645 46.97(11) ?
Ba1 Cu1 Ba1 1_655 2_645 69.55(2) ?
As1 O1 Cu1 1_655 . 112.7(2) ?
As1 O1 Ba1 1_655 2_645 133.9(2) ?
Cu1 O1 Ba1 . 2_645 108.69(17) ?
As1 O1 Ba1 1_655 1_655 97.90(18) ?
Cu1 O1 Ba1 . 1_655 93.86(15) ?
Ba1 O1 Ba1 2_645 1_655 98.69(13) ?
As1 O2 Ba1 1_655 . 123.6(2) ?
As1 O2 Ba1 1_655 2_545 122.2(2) ?
Ba1 O2 Ba1 . 2_545 110.24(15) ?
As1 O3 Cu1 2_545 . 138.7(3) ?
As1 O3 Ba1 2_545 2_545 101.80(18) ?
Cu1 O3 Ba1 . 2_545 114.94(18) ?
As1 O4 As2 . 2_545 125.3(2) yes
As2 O5 Cu1 3_765 . 122.7(2) ?
As2 O5 Ba1 3_765 2_645 126.4(2) ?
Cu1 O5 Ba1 . 2_645 96.18(14) ?
As2 O5 Ba1 3_765 1_655 121.3(2) ?
Cu1 O5 Ba1 . 1_655 85.23(12) ?
Ba1 O5 Ba1 2_645 1_655 94.90(13) ?
As2 O6 Cu1 . . 120.0(2) ?
As2 O6 Ba1 . 1_655 132.3(2) ?
Cu1 O6 Ba1 . 1_655 100.32(17) ?
As2 O7 Cu1 3_665 . 116.1(2) ?
As2 O7 Ba1 3_665 3_665 112.6(2) ?
Cu1 O7 Ba1 . 3_665 130.72(19) ?
loop_
_geom_bond_atom_site_label_1
_geom_bond_atom_site_label_2
_geom_bond_site_symmetry_2
_geom_bond_distance
_geom_bond_publ_flag
Ba1 O2 . 2.628(4) yes
Ba1 O2 2 2.683(5) yes
Ba1 O6 1_455 2.764(4) yes
Ba1 O7 3_665 2.803(4) yes
Ba1 O1 2_655 2.803(4) yes
Ba1 O3 2 2.850(4) yes
Ba1 O5 2_655 2.904(4) yes
Ba1 O1 1_455 2.938(4) yes
Ba1 O5 1_455 3.008(4) yes
Ba1 As1 . 3.5818(10) ?
Ba1 Cu1 1_455 3.6787(10) ?
Ba1 As2 . 3.7950(13) ?
As1 O2 1_455 1.654(4) yes
As1 O3 2 1.663(4) yes
As1 O1 1_455 1.685(4) yes
As1 O4 . 1.744(4) yes
As1 Ba1 1_455 3.8019(11) ?
As1 Ba1 2_445 3.8295(9) ?
As2 O5 3_765 1.650(4) yes
As2 O6 . 1.685(4) yes
As2 O7 3_665 1.698(4) yes
As2 O4 2 1.752(4) yes
Cu1 O3 . 1.932(4) yes
Cu1 O7 . 1.976(4) yes
Cu1 O6 . 1.983(4) yes
Cu1 O1 . 2.025(4) yes
Cu1 O5 . 2.382(4) yes
Cu1 Ba1 1_655 3.6787(10) ?
Cu1 Ba1 2_645 3.9494(12) ?
O1 As1 1_655 1.685(4) ?
O1 Ba1 2_645 2.803(4) ?
O1 Ba1 1_655 2.938(4) ?
O2 As1 1_655 1.654(4) ?
O2 Ba1 2_545 2.683(5) ?
O3 As1 2_545 1.663(4) ?
O3 Ba1 2_545 2.850(4) ?
O4 As2 2_545 1.752(4) ?
O5 As2 3_765 1.650(4) ?
O5 Ba1 2_645 2.904(4) ?
O5 Ba1 1_655 3.008(4) ?
O6 Ba1 1_655 2.764(4) ?
O7 As2 3_665 1.698(4) ?
O7 Ba1 3_665 2.803(4) ?
