#------------------------------------------------------------------------------
#$Date: 2016-02-20 00:18:51 +0200 (Sat, 20 Feb 2016) $
#$Revision: 176760 $
#$URL: svn://www.crystallography.net/cod/cif/2/01/97/2019702.cif $
#------------------------------------------------------------------------------
#
# This file is available in the Crystallography Open Database (COD),
# http://www.crystallography.net/. The original data for this entry
# were provided by IUCr Journals, http://journals.iucr.org/.
#
# The file may be used within the scientific community so long as
# proper attribution is given to the journal article from which the
# data were obtained.
#
data_2019702
loop_
_publ_author_name
'Stoeckli-Evans, Helen'
'Sereda, Olha'
'Neels, Antonia'
'Oguey, Sebastien'
'Ionescu, Catherine'
'Jacquier, Yvan'
_publ_section_title
;
 <i>In situ</i> single-crystal to single-crystal (SCSC) transformation of
 the one-dimensional polymer
 <i>catena</i>-poly[[diaqua(sulfato)copper(II)]-\m~2~-glycine] into the
 two-dimensional polymer poly[\m~2~-glycine-\m~4~-sulfato-copper(II)]
;
_journal_coeditor_code           SK3562
_journal_issue                   11
_journal_name_full               'Acta Crystallographica Section C'
_journal_page_first              1057
_journal_page_last               1063
_journal_paper_doi               10.1107/S2053229614021123
_journal_volume                  70
_journal_year                    2014
_chemical_formula_iupac          '[Cu (S O4) (C2 H5 N O2)]'
_chemical_formula_moiety         'C2 H5 Cu N O6 S'
_chemical_formula_sum            'C2 H5 Cu N O6 S'
_chemical_formula_weight         234.67
_chemical_name_systematic
Poly[(\m~2~-glycine-\k^2^<i>O</i>:<i>O</i>')(\m~4~-sulfato-\k^4^<i>O</i>:<i>O</i>':<i>O</i>'':<i>O</i>'')copper(II)],
_space_group_crystal_system      monoclinic
_space_group_IT_number           4
_space_group_name_Hall           'P 2yb'
_space_group_name_H-M_alt        'P 1 21 1'
_symmetry_space_group_name_Hall  'P 2yb'
_symmetry_space_group_name_H-M   'P 1 21 1'
_atom_sites_solution_hydrogens   geom
_audit_creation_method           SHELXL-2014/6
_cell_angle_alpha                90
_cell_angle_beta                 107.729(12)
_cell_angle_gamma                90
_cell_formula_units_Z            2
_cell_length_a                   4.8131(8)
_cell_length_b                   7.7870(10)
_cell_length_c                   7.9262(11)
_cell_measurement_reflns_used    2571
_cell_measurement_temperature    173(2)
_cell_measurement_theta_max      25.91
_cell_measurement_theta_min      2.61
_cell_volume                     282.96(7)
_computing_cell_refinement
;
X-AREA (Stoe & Cie, 2009)
;
_computing_data_collection
;
X-AREA (Stoe & Cie, 2009)
;
_computing_data_reduction
;
X-RED32 (Stoe & Cie, 2009)
;
_computing_molecular_graphics
;
PLATON (Spek, 2009) and Mercury (Macrae <i>et al.</i>,  2008)
;
_computing_publication_material
;
SHELXL2013 (Sheldrick, 2008), PLATON (Spek, 2009) and publCIF
(Westrip, 2010)
;
_computing_structure_refinement
;
SHELXL2013 (Sheldrick, 2008)
;
_computing_structure_solution
;
SHELXS2013 (Sheldrick, 2008)
;
_diffrn_ambient_temperature      173(2)
_diffrn_measured_fraction_theta_full 1.000
_diffrn_measured_fraction_theta_max 1.000
_diffrn_measurement_device       '2-circle goniometer'
_diffrn_measurement_device_type  'Stoe IPDS 2'
_diffrn_measurement_method       '\f + \w scans'
_diffrn_radiation_monochromator  'plane graphite'
_diffrn_radiation_source         'fine-focus sealed tube'
_diffrn_radiation_type           MoK\a
_diffrn_radiation_wavelength     0.71073
_diffrn_reflns_av_R_equivalents  0.1097
_diffrn_reflns_limit_h_max       5
_diffrn_reflns_limit_h_min       -5
_diffrn_reflns_limit_k_max       9
_diffrn_reflns_limit_k_min       -9
_diffrn_reflns_limit_l_max       9
_diffrn_reflns_limit_l_min       -9
_diffrn_reflns_number            3296
_diffrn_reflns_theta_full        25.242
_diffrn_reflns_theta_max         25.645
_diffrn_reflns_theta_min         2.616
_exptl_absorpt_coefficient_mu    4.207
_exptl_absorpt_correction_T_max  1.0000
_exptl_absorpt_correction_T_min  0.6456
_exptl_absorpt_correction_type   multi-scan
_exptl_absorpt_process_details
;
(MULABS in PLATON; Spek, 2009)
;
_exptl_crystal_colour            'very pale blue'
_exptl_crystal_density_diffrn    2.754
_exptl_crystal_description       prism
_exptl_crystal_F_000             234
_exptl_crystal_size_max          0.42
_exptl_crystal_size_mid          0.30
_exptl_crystal_size_min          0.21
_refine_diff_density_max         0.820
_refine_diff_density_min         -0.712
_refine_ls_extinction_method     none
_refine_ls_goodness_of_fit_ref   0.975
_refine_ls_hydrogen_treatment    constr
_refine_ls_matrix_type           full
_refine_ls_number_parameters     104
_refine_ls_number_reflns         1065
_refine_ls_number_restraints     1
_refine_ls_restrained_S_all      0.975
_refine_ls_R_factor_all          0.0693
_refine_ls_R_factor_gt           0.0559
_refine_ls_shift/su_max          0.043
_refine_ls_shift/su_mean         0.006
_refine_ls_structure_factor_coef Fsqd
_refine_ls_weighting_details
'w = 1/[\s^2^(Fo^2^)+(0.0670P)^2^] where P=(Fo^2^+2Fc^2^)/3'
_refine_ls_weighting_scheme      calc
_refine_ls_wR_factor_gt          0.1263
_refine_ls_wR_factor_ref         0.1317
_reflns_number_gt                862
_reflns_number_total             1065
_reflns_threshold_expression     I>2\s(I)
_cod_data_source_file            sk3562sup1.cif
_cod_data_source_block           II
_cod_depositor_comments
'Adding full bibliography for 2019701--2019702.cif.'
_cod_database_code               2019702
_cod_database_fobs_code          2019702
#BEGIN Tags that were not found in dictionaries:
_shelx_space_group_comment
;
The symmetry employed for this shelxl refinement is uniquely defined
by the following loop, which should always be used as a source of
symmetry information in preference to the above space-group names.
They are only intended as comments.
;
_shelx_hkl_file
;
  -5  -4   0   97.66   60.49
  -5  -4   0  141.51   80.75
   5  -4   0   36.44   75.69
  -5  -3  -1   -8.13   79.13
  -5  -3  -1  -17.27   57.88
   5  -3   1   31.55   69.67
  -5  -3   0   44.02   40.52
  -5  -3   0   67.40   76.64
   5  -3   0   48.33   72.22
  -5  -2  -1  123.62   58.16
  -5  -2  -1  155.66   77.17
   5  -2   1  114.92   47.86
  -5  -2   0  177.44   56.51
   5  -2   0  140.15   69.68
  -5  -2   0  228.09   71.22
   5  -1   2   -6.56   70.55
  -5  -1  -2   34.87   77.01
  -5  -1  -2   58.44   63.98
  -5  -1  -1   56.07   59.20
   5  -1   1   22.08   64.52
  -5  -1  -1   58.81   71.41
   5  -1   1   13.64   65.97
  -5  -1   0   99.40   55.54
   5  -1   0   73.62   66.38
   5  -1   0   29.73   61.26
  -5  -1   0   62.14   65.40
  -5   0  -2  135.00   74.08
  -5   0  -2  136.45   65.66
  -5   0  -1  256.72   63.65
  -5   0  -1  325.56   68.88
  -5   0   0  310.73   58.81
  -5   0   0  403.99   63.75
  -5   0   1  385.31   56.61
  -5   0   1  388.00   60.48
  -5   0   2  132.74   54.49
  -5   0   2  112.85   55.08
  -5   0   3   59.18   37.40
  -5   0   3   56.58   55.99
  -5   0   4  164.52   77.52
  -5   0   4  175.93   38.34
  -5   0   5  228.12   56.39
  -5   0   5  125.33  104.50
  -5   0   6  505.36   62.78
  -5   0   7  199.39   47.55
  -5   1   1   15.94   56.74
   5   1  -1   99.09   68.23
  -5   1   1   77.21   59.98
   5   1  -1   85.32   54.56
  -5   1   2   67.83   55.68
   5   1  -2   52.64   85.51
  -5   1   2   39.43   56.76
   5   1  -2   75.06   51.12
   5   1  -3   45.91   51.36
  -5   1   3   45.81   54.82
  -5   1   3  -15.90   67.72
   5   1  -3   45.58   83.94
   5   1  -4   44.25   87.38
  -5   1   4   46.23   56.73
  -5   1   4   39.19   54.58
   5   1  -4   38.94   35.66
  -5   1   5   80.56   76.91
  -5   1   5  182.20   61.48
   5   1  -5  101.47   37.53
  -5   1   6   15.93  173.44
   5   1  -6   67.22   58.98
  -5   1   6   55.67   63.11
  -5   1   6   33.85  169.57
  -5   1   7   30.87   68.68
   5   1  -7   55.61   63.93
   5   2  -1  172.32   72.51
  -5   2   1  263.60   61.57
   5   2  -1  262.16   55.97
  -5   2   1  193.94   63.72
   5   2  -2  281.16   74.25
  -5   2   2  258.64   65.65
   5   2  -2  310.71   56.36
  -5   2   2  399.95   60.63
   5   2  -3  354.81   55.81
  -5   2   3  425.03   62.09
   5   2  -3  302.20   92.74
  -5   2   3  341.01   77.20
   5   2  -4  165.04   93.58
  -5   2   4  315.69   79.54
   5   2  -4  231.48   39.49
  -5   2   4  387.86   59.75
  -5   2   5  238.72   47.96
   5   2  -5  264.82   55.79
  -5   2   5  234.10   82.26
  -5   2   6  217.81   67.76
   5   2  -6   72.92   60.53
  -5   2   6  140.58   85.86
  -5   3   1   50.97   65.72
   5   3  -1  -25.67   57.19
  -5   3   1   35.12   60.98
   5   3  -1   31.44   72.92
  -5   3   2   84.28   67.44
   5   3  -2   99.74   92.77
   5   3  -2  127.49   59.60
  -5   3   2   97.40   60.04
   5   3  -3   63.34   58.61
   5   3  -3   79.06   94.39
  -5   3   3   94.65   59.35
  -5   3   3   94.30   67.60
   5   3  -4   22.54   59.42
   5   3  -4  -28.86  101.23
  -5   3   4   24.73   84.07
   5   3  -4   15.51  104.07
  -5   3   4   37.05   58.14
  -5   3   5  147.13   63.52
   5   3  -5  104.01   62.52
  -5   3   5   77.76   70.94
   5   3  -6   69.39   64.41
  -5   3   6   52.84   68.27
  -5   3   6    2.28   88.50
   5   4  -1  232.77   77.42
  -5   4   1  168.13   45.51
   5   4  -1  213.23   65.62
  -5   4   1  225.30   71.61
  -5   4   2   -4.27   60.53
  -5   4   2  120.95   71.78
   5   4  -2  184.00   64.70
   5   4  -2   76.64   93.21
  -5   4   3  154.78   71.97
  -5   4   3  134.54   59.99
   5   4  -3  174.07   86.49
   5   4  -3  129.72   65.15
   5   4  -3   77.28   97.86
   5   4  -4  116.14  103.77
   5   4  -4  105.21   99.04
  -5   4   4   90.95   75.87
   5   4  -4  136.17   47.25
  -5   4   4   83.97   58.84
  -5   4   5  139.34   62.19
  -5   4   5  106.76   77.21
   5   4  -5   42.69   48.79
  -4  -6  -1  261.43   79.71
   4  -6   1  224.38   79.03
  -4  -6   0  329.42   74.57
   4  -6   0  267.98   53.80
  -4  -5  -2  117.00   80.09
   4  -5   2   68.94   51.37
  -4  -5  -2   41.83   55.48
  -4  -5  -1   68.85   71.87
   4  -5   1   20.52   73.45
  -4  -5   0  124.23   66.78
   4  -5   0   25.74   51.03
  -4  -4  -3  232.88   44.09
   4  -4   3  262.95   68.16
  -4  -4  -3  263.03   84.15
   4  -4   2  223.83   67.33
  -4  -4  -2  395.03   56.98
  -4  -4  -2  339.16   77.15
  -4  -4  -1  229.31   53.51
   4  -4   1  246.20   67.90
  -4  -4  -1  253.83   71.25
  -4  -4   0  176.00   55.77
  -4  -4   0  246.01   67.24
   4  -4   0  121.04   66.78
  -4  -3  -4   76.68   67.05
  -4  -3  -4  118.65   80.64
   4  -3   4   31.40   49.02
  -4  -3  -3   45.47   75.96
   4  -3   3   68.13   65.57
  -4  -3  -3   45.17   58.33
  -4  -3  -2    0.16   72.10
   4  -3   2   47.35   45.41
  -4  -3  -2   35.14   38.54
   4  -3   1  115.99   45.72
  -4  -3  -1  123.18   67.68
  -4  -3  -1  150.99   51.70
  -4  -3   0   13.93   51.09
  -4  -3   0   36.51   60.86
   4  -3   0    1.71   64.01
  -4  -2  -4  132.96   80.92
  -4  -2  -4  146.66   47.80
   4  -2   4  102.46   65.78
   4  -2   3   56.48   63.59
  -4  -2  -3   73.47   92.03
  -4  -2  -3   74.17   61.63
  -4  -2  -2  259.24   57.32
   4  -2   2  269.94   62.53
  -4  -2  -2  304.68   71.86
  -4  -2  -1  574.38   69.43
   4  -2   1  351.05   64.16
  -4  -2  -1  389.09   53.79
   4  -2   0  877.44   70.70
  -4  -2   0  778.91   56.80
  -4  -2   0  924.70   50.84
  -4  -1  -4   93.80   77.13
   4  -1   4   87.05   66.04
  -4  -1  -4  153.29   66.79
  -4  -1  -3   79.05   70.44
  -4  -1  -3   90.52   61.45
   4  -1   3   87.05   64.90
  -4  -1  -2  134.42   65.68
   4  -1   2   78.29   59.98
  -4  -1  -2   67.54   39.79
   4  -1   2   58.78   58.44
   4  -1   1  156.73   59.66
   4  -1   1   54.93   51.89
  -4  -1  -1  117.26   58.50
  -4  -1  -1  116.85   51.74
   4  -1   0   57.61   50.28
  -4  -1   0  108.46   48.00
  -4  -1   0  159.01   59.05
   4  -1   0  127.19   58.26
  -4   0  -4  216.30   97.28
  -4   0  -4  205.99   69.74
  -4   0  -3  237.62   70.54
  -4   0  -3  230.02   63.60
  -4   0  -2  136.51   78.90
  -4   0  -2   96.39   58.44
  -4   0  -1  184.98   53.99
  -4   0  -1  180.74   58.14
  -4   0   0  476.16   55.31
  -4   0   0  303.35   51.18
  -4   0   1  489.40   50.72
  -4   0   1  599.80   41.24
  -4   0   2 1497.18   61.70
  -4   0   2 1101.53   59.60
  -4   0   3  437.81   52.17
  -4   0   3  536.20   37.66
  -4   0   4  451.96   77.88
  -4   0   4  448.52   50.45
  -4   0   5  221.47   50.86
  -4   0   6  153.82   53.57
  -4   0   7  252.41   60.41
  -4   0   8  262.03   68.60
  -4   1   1  168.60   36.76
  -4   1   1  193.24   54.38
   4   1  -1  186.73   46.76
   4   1  -1  188.64   61.14
   4   1  -2   68.64   63.31
  -4   1   2   86.62   48.21
   4   1  -2   74.70   45.17
  -4   1   2   62.68   52.20
  -4   1   3  106.68   48.51
  -4   1   3   87.56   54.02
   4   1  -3  104.85   45.71
   4   1  -3   83.03   78.14
   4   1  -4  108.76   96.78
   4   1  -4  193.80   47.22
  -4   1   4  165.70   67.01
  -4   1   4  181.49   50.77
   4   1  -5   64.41   36.04
  -4   1   5   89.73   80.68
  -4   1   5   64.89   37.49
  -4   1   6   96.11  120.78
  -4   1   6  197.07   58.45
   4   1  -6   69.20   38.10
  -4   1   6  114.77  145.81
   4   1  -7  125.27   61.00
  -4   1   7  206.76   64.28
  -4   1   8  124.03   70.31
   4   1  -8   36.78   69.21
  -4   2   1  749.62   57.63
   4   2  -1  769.30   66.77
  -4   2   1  763.06   64.57
   4   2  -1  695.22   55.87
  -4   2   2  188.13   59.43
   4   2  -2  144.08   49.99
   4   2  -2  164.26   64.64
  -4   2   2  169.82   36.05
   4   2  -3  504.85   53.22
   4   2  -3  480.03   86.89
  -4   2   3  467.75   66.32
  -4   2   3  600.00   54.23
   4   2  -4  794.92   54.63
   4   2  -4  806.97  123.50
  -4   2   4  739.31   72.84
  -4   2   4  816.39   57.72
   4   2  -4  560.93  116.90
   4   2  -5  466.32   55.01
  -4   2   5  477.29   80.72
  -4   2   5  484.00   45.83
  -4   2   6  549.13   65.68
  -4   2   6  321.79   98.47
   4   2  -6  351.23   57.82
  -4   2   6  390.29   84.47
  -4   2   7  123.43   68.59
  -4   2   7   91.57  103.63
   4   2  -7  111.76   60.38
  -4   2   7   91.02  105.94
   4   2  -8  118.30   69.22
  -4   2   8   72.91  133.66
  -4   2   8   75.26  134.46
  -4   2   8  167.91   74.68
  -4   3   1   40.41   60.43
  -4   3   1  100.84   36.80
   4   3  -1  106.53   55.06
   4   3  -1   75.47   60.26
  -4   3   2  138.56   61.95
   4   3  -2   68.82   61.22
  -4   3   2  113.22   47.68
   4   3  -2  117.35   53.27
   4   3  -3  175.75   68.05
   4   3  -3   95.59   65.42
  -4   3   3  128.51   61.71
   4   3  -3   56.76   54.74
  -4   3   3   76.81   50.23
   4   3  -4   14.55  107.20
   4   3  -4   10.96  103.97
  -4   3   4   10.49   76.89
   4   3  -4   41.69   55.79
  -4   3   4    1.33   50.70
  -4   3   5  216.52   56.27
  -4   3   5  120.08   78.41
   4   3  -5  170.96   58.07
   4   3  -6   58.93   60.32
  -4   3   6  103.32   60.02
  -4   3   6   29.89   63.34
  -4   3   7   45.40   68.83
   4   3  -7   59.12   64.17
  -4   3   7   32.15   67.39
  -4   3   7   12.38   92.02
  -4   3   8   67.55  104.36
   4   3  -8  145.83   68.92
  -4   3   8   67.13   88.68
  -4   3   8  105.70   77.44
  -4   4   1  378.53   65.04
  -4   4   1  325.08   39.47
   4   4  -1  483.25   62.78
   4   4  -1  355.84   62.69
  -4   4   2  769.20   59.70
  -4   4   2  815.68   71.85
   4   4  -2  944.11   70.25
   4   4  -2  563.04   64.95
   4   4  -2  637.84   45.25
   4   4  -3  604.50   82.10
   4   4  -3  702.26   83.28
  -4   4   3  514.81   39.42
  -4   4   3  556.85   68.20
   4   4  -3  610.53   61.70
   4   4  -4  380.18  101.04
  -4   4   4  354.62   66.21
   4   4  -4  419.39  110.01
  -4   4   4  315.38   50.77
   4   4  -4  375.39   63.50
  -4   4   5  141.11   38.49
  -4   4   5  172.86   66.05
   4   4  -5  213.18   65.12
   4   4  -6  210.19   67.23
  -4   4   6  232.32   71.24
  -4   4   6  262.53   59.94
  -4   4   7  294.22   67.68
  -4   4   7  146.88   74.14
   4   4  -7  271.56   72.84
  -4   4   7  138.72   98.59
  -4   5   1   46.22   65.07
   4   5  -1   38.24   58.48
   4   5  -1   36.63   61.45
   4   5  -1   59.80   61.23
  -4   5   1   55.55   37.75
   4   5  -2   36.28   61.66
  -4   5   2   71.90   63.69
   4   5  -2   91.56   59.06
   4   5  -2   54.31   41.64
  -4   5   2   77.18   51.83
   4   5  -3   69.12   78.91
  -4   5   3   58.16   48.23
   4   5  -3   37.21   60.04
   4   5  -3   48.84   76.53
  -4   5   3   89.89   64.08
  -4   5   4    9.29   64.67
   4   5  -4   49.47   66.36
   4   5  -4   25.47   95.87
  -4   5   4   69.67   36.09
   4   5  -4   30.40   82.04
   4   5  -5   29.95  113.23
   4   5  -5   23.74  130.98
   4   5  -5   32.62   66.51
  -4   5   5  -13.64   54.22
  -4   5   5   45.33   68.49
  -4   5   6   74.43   73.38
   4   5  -6   78.67   71.76
  -4   5   6    5.23   55.49
   4   6  -1  219.59   66.42
   4   6  -1  225.73   80.07
  -4   6   1  115.58   57.38
   4   6  -1  165.08   66.22
  -4   6   1  174.79   68.03
   4   6  -2   56.23   81.32
  -4   6   2   84.81   66.03
   4   6  -2   53.71   66.95
  -4   6   2    7.49   56.81
   4   6  -2   25.40   64.41
   4   6  -3  138.84   68.69
  -4   6   3  180.65   69.79
  -4   6   3  134.07   39.02
   4   6  -3  145.90   90.28
   4   6  -3  158.49   65.78
   4   6  -4  173.35   88.14
  -4   6   4  229.66   71.80
   4   6  -4  311.02   69.57
  -4   6   4  252.50   56.08
   4   6  -4  258.45   89.32
   4   6  -5  184.74  110.19
   4   6  -5  260.92   74.49
  -4   6   5  255.42   75.29
  -4   6   5  190.64   58.48
   4   6  -5  173.93  104.82
   3  -7   2   37.31   72.08
   3  -7   1    8.54   66.75
  -3  -7   0    8.11   70.82
   3  -7   0   -5.18   65.77
   3  -6   3  309.45   71.83
  -3  -6  -2  123.33   54.85
   3  -6   2  149.28   66.52
   3  -6   1   32.42   64.92
  -3  -6  -1   98.27   67.85
   3  -6   0  110.56   46.75
  -3  -6   0  148.03   63.59
   3  -5   4  132.77   67.78
  -3  -5  -4   75.82   56.38
  -3  -5  -3  108.76   55.57
  -3  -5  -3   89.01   77.50
   3  -5   3  119.16   63.71
   3  -5   2  153.87   62.80
  -3  -5  -2  117.06   70.12
   3  -5   1   23.40   61.44
  -3  -5  -1   18.02   62.31
   3  -5   0    0.31   58.08
  -3  -5   0   57.99   59.24
   3  -4   5   86.30   63.21
  -3  -4  -5   38.10   42.40
   3  -4   4   87.12   62.13
  -3  -4  -4   20.28   93.53
  -3  -4  -4   87.32   53.67
  -3  -4  -3  515.25   74.65
   3  -4   3  407.66   45.43
  -3  -4  -3  503.16   56.75
  -3  -4  -2  863.40   72.31
   3  -4   2  725.14   66.50
  -3  -4  -2  872.54   58.06
   3  -4   1  591.14   65.77
  -3  -4  -1  791.72   63.81
  -3  -4  -1  778.81   57.27
   3  -4   0  825.90   52.15
  -3  -4   0 1454.73   68.99
  -3  -4   0 1190.12   62.91
  -3  -3  -5  240.32   61.24
   3  -3   5   73.89   61.45
  -3  -3  -4  123.73   71.14
   3  -3   4   94.80   59.37
  -3  -3  -4  104.11   56.29
  -3  -3  -3  265.66   53.32
   3  -3   3  156.36   60.06
  -3  -3  -3  290.75   69.72
   3  -3   2  390.91   61.56
  -3  -3  -2  645.38   66.26
  -3  -3  -2  712.50   53.50
   3  -3   1   94.10   42.01
  -3  -3  -1  149.20   49.47
  -3  -3  -1  155.40   58.52
  -3  -3   0  605.64   59.50
  -3  -3   0  555.44   52.45
   3  -3   0  533.66   61.01
  -3  -2  -6  119.70   50.19
   3  -2   6  128.37   71.27
  -3  -2  -5  224.82   91.50
  -3  -2  -5  311.05   63.39
   3  -2   5  200.49   64.45
  -3  -2  -4  697.24   95.27
   3  -2   4  696.61   63.35
  -3  -2  -4  730.03   61.81
  -3  -2  -3  381.49   69.86
  -3  -2  -3  419.46   54.24
   3  -2   3  249.07   57.69
  -3  -2  -2  267.09   49.65
   3  -2   2  301.09   57.97
  -3  -2  -2  340.73   62.69
  -3  -2  -1  397.13   58.04
  -3  -2  -1  347.00   47.76
   3  -2   1  354.03   58.35
  -3  -2   0  605.26   58.73
   3  -2   0  521.77   61.99
  -3  -2   0  493.64   52.75
  -3  -1  -6  127.09   50.95
   3  -1   6  252.75   72.60
  -3  -1  -5  111.98   86.50
   3  -1   5   99.40   46.42
  -3  -1  -5  152.17   45.53
   3  -1   4  141.03   59.93
  -3  -1  -4  200.88   86.42
  -3  -1  -4  188.92   59.53
  -3  -1  -3   67.54   79.82
  -3  -1  -3  118.74   53.69
   3  -1   3   94.67   56.23
   3  -1   2   77.54   51.49
   3  -1   2  103.02   53.44
  -3  -1  -2   92.30   51.52
  -3  -1  -2  116.95   58.29
  -3  -1  -1   88.11   54.47
  -3  -1  -1  111.34   47.52
   3  -1   1  127.74   57.88
   3  -1   1  138.48   45.86
  -3  -1   0  101.55   49.02
   3  -1   0  110.10   44.90
   3  -1   0  158.32   58.55
  -3  -1   0  110.96   53.89
  -3   0  -6  187.67   75.05
  -3   0  -5  293.30   66.52
  -3   0  -5  231.39  102.00
  -3   0  -4  107.99   61.03
  -3   0  -4   35.88   83.92
  -3   0  -3  188.95   41.32
  -3   0  -3  285.23   76.05
  -3   0  -2  912.82   46.31
  -3   0  -2 1338.04   80.38
  -3   0  -1 2182.70   74.50
  -3   0  -1 1362.05   52.75
  -3   0   0 2458.72   78.72
  -3   0   0 2387.18   69.03
  -3   0   1  554.09   49.17
  -3   0   1  664.24   50.28
  -3   0   2  467.10   48.97
  -3   0   2  552.29   36.23
  -3   0   3 2718.71   77.89
  -3   0   3 1901.38   83.40
  -3   0   4 1346.82  106.40
  -3   0   4 1816.95   67.40
  -3   0   5 1283.57   63.89
  -3   0   6  143.91   53.12
  -3   0   7   66.47   55.68
  -3   0   8  351.43   78.52
  -3   0   9  178.95   70.79
  -3   1   1   12.50   53.66
  -3   1   1   12.33   43.63
   3   1  -1   45.07   45.75
   3   1  -1   32.59   53.00
  -3   1   2   23.81   64.26
   3   1  -2   -6.12   73.43
   3   1  -2   47.56   45.20
  -3   1   2   44.58   44.21
  -3   1   3  130.34   71.14
  -3   1   3  114.10   33.43
   3   1  -3   95.20   84.68
   3   1  -3   90.90   47.23
  -3   1   4  127.61   69.15
  -3   1   4   91.92   33.44
   3   1  -4  157.79   47.37
   3   1  -5   88.84   49.64
  -3   1   5   76.38   79.46
  -3   1   5   89.48   50.60
  -3   1   5   37.72   70.73
   3   1  -6  133.72   54.21
  -3   1   6  119.66   81.85
  -3   1   6  112.03   84.42
  -3   1   6  136.40   55.07
  -3   1   7  173.56   94.15
  -3   1   7  188.42   95.56
   3   1  -7  156.24   59.44
  -3   1   7  249.43   61.82
   3   1  -8  164.57   67.20
  -3   1   8  117.46  102.38
  -3   1   8  160.35  109.49
  -3   1   8  192.70   66.12
  -3   1   9  158.03  115.65
  -3   1   9  132.60  124.26
  -3   1   9  144.53   86.03
   3   1  -9  132.91   71.69
   3   2  -1 1027.37   59.75
   3   2  -1 1561.34   61.62
  -3   2   1 1330.00   57.30
  -3   2   1 1311.68   71.63
   3   2  -2 1455.96   80.21
   3   2  -2 1325.61   57.89
  -3   2   2 1466.23   58.69
  -3   2   2 1667.25   77.84
   3   2  -3  732.24   52.92
  -3   2   3  860.60   65.54
   3   2  -3  841.86   96.12
   3   2  -3  830.17   76.22
  -3   2   3  912.02   53.40
  -3   2   4  533.06   51.06
   3   2  -4  378.27   38.18
  -3   2   4  500.47   69.79
   3   2  -5  242.78   52.49
  -3   2   5  151.88   68.89
  -3   2   5  286.90   55.16
  -3   2   6  306.39   74.53
  -3   2   6  416.22   59.65
   3   2  -6  308.25   56.68
  -3   2   6  388.11   73.14
  -3   2   7  985.52   75.75
   3   2  -7  777.79   67.26
  -3   2   7  813.50   91.21
  -3   2   7  650.27   86.54
  -3   2   8  275.32   87.73
   3   2  -8  251.41   68.28
  -3   2   8  340.86   73.40
  -3   2   8  308.80   86.68
  -3   2   9  250.03   77.89
  -3   2   9  160.15   99.30
   3   2  -9  147.78   73.83
  -3   2   9  108.64   98.23
  -3   3   1  468.47   47.02
   3   3  -1  339.35   53.82
   3   3  -1  363.70   52.41
  -3   3   1  442.28   56.12
  -3   3   2  258.08   55.04
  -3   3   2  289.26   44.67
   3   3  -2  200.71   53.06
   3   3  -2  295.77   52.68
   3   3  -2  242.33   48.57
  -3   3   3  438.91   46.48
   3   3  -3  438.71   64.88
   3   3  -3  375.55   53.81
   3   3  -3  389.60   78.24
  -3   3   3  333.89   55.22
  -3   3   4  133.88   54.57
   3   3  -4  102.50  104.48
   3   3  -4  136.12   52.83
  -3   3   4  174.50   47.60
   3   3  -4  109.81  107.13
  -3   3   5  544.18   56.33
   3   3  -5  436.09   44.98
  -3   3   5  385.06   61.58
  -3   3   6  290.10   70.54
  -3   3   6  250.86   76.71
  -3   3   6  344.30   43.74
   3   3  -6  345.48   61.48
  -3   3   7   99.97   65.28
   3   3  -7  114.15   64.17
  -3   3   7  119.79   82.15
  -3   3   7  234.87   65.49
  -3   3   8  153.16   90.35
  -3   3   8  123.71   74.55
  -3   3   8  113.04   75.84
   3   3  -8  168.31   68.38
  -3   4   1  538.93   37.65
   3   4  -1  761.83   58.15
   3   4  -1  618.63   58.22
   3   4  -1  540.74   39.69
  -3   4   1  662.45   60.73
  -3   4   2  533.38   49.16
   3   4  -2  436.42   58.09
   3   4  -2  612.79   55.47
   3   4  -2  626.46   57.24
  -3   4   2  630.04   59.31
   3   4  -3 1126.06   84.61
   3   4  -3  992.67   61.86
   3   4  -3  755.74   64.03
  -3   4   3  943.89   63.71
  -3   4   3  792.92   42.66
   3   4  -4  650.28  101.06
  -3   4   4  756.96   55.39
  -3   4   4  640.34   61.53
   3   4  -4  620.24   88.03
   3   4  -4  695.26   62.13
  -3   4   5 1170.66   67.30
  -3   4   5 1005.62   70.52
   3   4  -5 1260.32   72.14
   3   4  -5  859.39  143.24
   3   4  -5  948.12  170.62
  -3   4   6  586.36   83.87
  -3   4   6  429.14   65.40
   3   4  -6  691.75   70.45
  -3   4   6  688.66   61.43
  -3   4   7   56.84   69.26
  -3   4   7   50.73   61.27
  -3   4   7   68.06   65.97
   3   4  -7   74.17   66.37
  -3   4   8   -2.99   75.03
   3   4  -8  103.56   88.50
  -3   4   8   47.74   91.65
  -3   4   8   47.93   69.99
   3   5  -1   90.69   51.11
  -3   5   1   43.81   33.71
   3   5  -1   39.36   54.30
   3   5  -1   37.78   38.20
  -3   5   1   57.52   55.65
   3   5  -2   57.25   54.26
  -3   5   2   68.27   54.87
  -3   5   2   89.39   46.60
   3   5  -2   41.59   62.67
   3   5  -2   65.82   55.31
   3   5  -3   30.21   71.04
   3   5  -3   14.74   71.38
  -3   5   3   46.87   32.38
  -3   5   3   14.37   54.92
   3   5  -3    7.56   54.45
  -3   5   4   60.83   46.84
  -3   5   4   46.25   58.00
   3   5  -4   77.93   58.64
   3   5  -4   41.31   80.92
   3   5  -4   58.71   73.24
  -3   5   5  186.90   49.34
  -3   5   5  143.46   62.95
   3   5  -5  113.02   77.84
   3   5  -5   94.41   78.47
   3   5  -5  127.23   63.91
   3   5  -6  112.16  127.45
  -3   5   6   97.65   65.91
   3   5  -6  116.36   67.69
   3   5  -6   68.48  130.06
  -3   5   6  118.69   52.40
  -3   5   6   83.64   63.12
  -3   5   7   61.35   73.10
  -3   5   7  107.98   58.00
   3   5  -7  141.23   73.40
  -3   5   7  126.84   85.60
   3   6  -1  682.57   62.44
  -3   6   1  561.67   64.19
   3   6  -1  466.66   46.75
   3   6  -1  676.31   65.26
  -3   6   1  500.86   64.98
   3   6  -2  763.25   66.34
  -3   6   2  721.17   60.37
   3   6  -2  708.28   63.77
   3   6  -2  516.84   61.61
  -3   6   2  616.31   66.32
  -3   6   3  140.14   58.67
   3   6  -3  198.08   61.20
   3   6  -3  257.85   76.94
  -3   6   3  120.17   38.18
   3   6  -3  169.37   64.44
   3   6  -4   89.80   65.44
  -3   6   4   87.96   60.74
   3   6  -4   58.64   87.52
   3   6  -4  118.24   63.09
  -3   6   4   73.07   53.14
  -3   6   5  151.25   63.88
  -3   6   5  166.54   53.99
   3   6  -5  166.31   65.36
   3   6  -5   85.44   85.43
   3   6  -5   50.31   86.74
  -3   6   6  286.60   59.67
   3   6  -6  136.59   91.20
  -3   6   6  284.97   70.57
  -3   6   6  219.41   68.81
   3   6  -6  330.27   72.71
   3   6  -6  218.28  106.74
   3   7  -1   77.80   66.62
   3   7  -1   15.04   58.76
  -3   7   1   63.53   64.31
   3   7  -1   65.20   63.68
  -3   7   1   22.24   62.78
  -3   7   2   22.96   61.75
   3   7  -2   66.29   60.57
  -3   7   2   21.85   61.43
   3   7  -2  -22.12   66.71
   3   7  -2   62.39   64.00
  -3   7   3   66.61   62.73
   3   7  -3  -25.53   66.09
   3   7  -3   45.39   64.60
  -3   7   3   47.81   62.98
   3   7  -3   -6.20   68.97
  -3   7   4    8.02   64.98
   3   7  -4   63.08   69.37
   3   7  -4    6.17   77.83
   3   7  -4    4.12   69.86
  -3   7   4   32.17   61.86
  -3   7   5   51.37   62.90
  -3   7   5   26.78   68.40
   3   7  -5   40.03   71.44
   3   7  -5   52.04   96.42
   3   7  -5   33.88   91.46
   3   8  -1   68.27   54.13
   3   8  -1   42.74   66.69
   3   8  -1   77.30   71.98
  -3   8   1   83.40   49.58
  -3   8   1   -0.85   75.84
   3   8  -2   91.93   75.15
   3   8  -2   35.01   68.58
   3   8  -2  105.18   74.90
  -3   8   2   79.18   53.32
  -3   8   2   82.56   69.04
  -3   8   3  326.40   72.18
   2  -8   2   29.94   47.11
   2  -8   1  173.10   65.11
   2  -8   0  241.19   61.37
   2  -7   4   32.32   49.44
   2  -7   3   83.55   66.33
   2  -7   2  124.83   62.90
   2  -7   1  -22.01   40.65
   2  -7   0   93.19   56.21
   2  -6   5  102.67   66.72
   2  -6   4  110.45   65.05
   2  -6   3  574.51   64.92
   2  -6   2  398.49   43.94
   2  -6   1  414.31   57.56
  -2  -6   0 1025.05   69.68
   2  -6   0  763.19   44.88
   2  -5   6   63.31   45.60
   2  -5   5  103.98   61.66
   2  -5   4  112.69   59.19
   2  -5   3  173.40   57.69
   2  -5   2  133.93   56.61
  -2  -5  -2  137.68   66.37
   2  -5   1   80.19   54.47
  -2  -5  -1   13.31   62.63
   2  -5   0  141.06   52.19
  -2  -5   0  178.77   57.37
  -2  -4  -6  141.83   41.84
   2  -4   6  122.01   42.99
   2  -4   5  600.71   62.96
  -2  -4  -5  877.73   58.17
   2  -4   4  886.75   65.60
  -2  -4  -4 1309.73   59.36
   2  -4   3   50.63   56.24
  -2  -4  -3   71.53   65.47
  -2  -4  -3   89.93   46.87
   2  -4   2  115.66   55.69
  -2  -4  -2  165.15   47.06
  -2  -4  -2  165.99   60.64
   2  -4   1  188.98   55.36
  -2  -4  -1  196.22   60.07
  -2  -4   0 1878.49   69.95
   2  -4   0 1363.66   66.74
   2  -3   7    8.14   64.58
  -2  -3  -7   31.33   65.53
   2  -3   6  135.95   60.86
  -2  -3  -6  136.48   58.07
  -2  -3  -5  200.05   53.51
   2  -3   5  196.50   41.45
   2  -3   4  226.32   56.99
  -2  -3  -4  351.51   51.22
  -2  -3  -3  347.90   66.20
  -2  -3  -3  332.54   48.04
   2  -3   3  323.18   41.44
  -2  -3  -2  367.79   49.31
  -2  -3  -2  305.91   59.70
   2  -3   2  262.65   58.52
  -2  -3  -1  399.43   56.81
  -2  -3  -1  360.81   49.08
   2  -3   1  298.69   40.42
  -2  -3   0  607.34   55.60
   2  -3   0  612.94   58.55
  -2  -3   0  616.09   52.05
  -2  -2  -7  178.37   68.23
   2  -2   7  166.37   69.10
  -2  -2  -6  356.67   64.47
   2  -2   6  151.22   60.89
   2  -2   5   69.17   58.64
  -2  -2  -5  111.42   54.09
  -2  -2  -4  123.59   50.99
   2  -2   4  132.92   57.55
  -2  -2  -4   91.46   78.18
  -2  -2  -3 1993.02   65.10
  -2  -2  -3 2084.16  101.19
   2  -2   3 1953.35   71.75
  -2  -2  -2 2302.77   67.21
  -2  -2  -2 2548.56   93.69
   2  -2   2 2274.78   74.65
  -2  -2  -1 3000.28   86.24
   2  -2   1 3147.47   87.74
  -2  -2  -1 2859.12   80.24
  -2  -2   0 1882.91   67.00
   2  -2   0 1846.06   78.47
  -2  -2   0 1815.19   69.68
  -2  -1  -7   86.31   49.71
   2  -1   7   66.65   69.18
  -2  -1  -6  194.88   63.27
   2  -1   6  236.44   64.34
  -2  -1  -5   95.21   39.65
   2  -1   5   78.63   56.64
  -2  -1  -4  161.37   79.31
   2  -1   4  165.60   54.73
  -2  -1  -4  188.68   53.72
   2  -1   3  327.87   57.44
  -2  -1  -3  360.02   52.94
  -2  -1  -3  298.69   74.82
  -2  -1  -2  759.90   52.90
  -2  -1  -2  841.88   71.77
   2  -1   2  789.24   59.79
   2  -1   1  130.41   59.83
  -2  -1  -1  164.82   50.09
  -2  -1  -1  169.60   48.93
   2  -1   1  116.38   41.72
  -2  -1   0  363.97   50.86
   2  -1   0  373.55   58.63
   2  -1   0  295.66   42.16
  -2  -1   0  213.31   34.41
  -2   0  -7  127.33   72.52
  -2   0  -6  108.70   48.11
  -2   0  -5  835.98   64.91
  -2   0  -4  926.16   91.43
  -2   0  -4  826.16   45.47
  -2   0  -3 1231.54   62.97
  -2   0  -3 1287.75   84.48
  -2   0  -2 2314.35   89.31
  -2   0  -2 1520.82   53.45
  -2   0  -1 2960.29   87.61
  -2   0  -1 2395.14   78.70
  -2   0   0  618.10   54.27
  -2   0   0  695.49   56.29
  -2   0   1 2132.43   71.55
  -2   0   1 1743.29   75.89
  -2   0   2  589.81   61.14
  -2   0   2 1036.24   53.27
  -2   0   3 3333.44  160.65
  -2   0   3 3512.41   95.12
  -2   0   4 1223.52  121.95
  -2   0   4 1502.48   66.85
  -2   0   4 1300.32  135.62
  -2   0   5  841.82   68.75
  -2   0   5  786.67   96.75
  -2   0   5  601.75   79.76
  -2   0   6  796.81   86.08
  -2   0   6  929.01   63.47
  -2   0   6  918.46   87.76
  -2   0   7 1005.26   67.80
  -2   0   7  904.47   88.40
  -2   0   7  827.99   81.41
  -2   0   8  159.83   61.47
  -2   0   8  186.30   79.47
  -2   0   8  159.70   74.23
  -2   0   9   92.76   77.96
  -2   0   9   87.83   81.08
  -2   0   9   81.17   87.27
  -2   1   1  198.48   54.71
   2   1  -1  128.63   33.71
   2   1  -1  118.60   49.50
  -2   1   1  123.71   29.64
  -2   1   2  323.11   68.58
  -2   1   2  315.19   44.14
   2   1  -2  318.23   83.35
   2   1  -2  287.42   49.53
  -2   1   3   92.73   43.18
   2   1  -3  137.82   46.36
  -2   1   3  109.35   60.25
  -2   1   4  580.59   69.86
  -2   1   4  621.14   50.91
   2   1  -4  596.65   54.67
  -2   1   4  476.61   57.85
   2   1  -5  187.95   53.68
  -2   1   5  199.57   50.61
  -2   1   5  206.97   65.50
  -2   1   5  220.34   66.96
  -2   1   6  205.94   67.21
  -2   1   6  206.55   67.66
  -2   1   6  253.20   54.76
   2   1  -6  187.56   55.26
   2   1  -7   81.45   70.26
  -2   1   7  115.59   70.03
  -2   1   7  154.61   69.69
  -2   1   7  118.92   58.29
  -2   1   8  195.30   76.08
  -2   1   8  200.78   80.29
  -2   1   8  200.94   75.53
   2   1  -8  204.45   62.13
  -2   1   9  128.54   91.95
  -2   1   9  108.64   83.98
  -2   1   9   86.96   77.67
  -2   2   1  367.04   46.06
   2   2  -1  328.29   50.95
   2   2  -1  285.44   36.44
  -2   2   1  278.75   37.03
  -2   2   2 2119.94   70.24
   2   2  -2 1727.99   80.36
   2   2  -2 1741.97   84.08
   2   2  -2 1861.74   65.35
  -2   2   2 1746.20   69.82
   2   2  -3 2844.76  146.77
  -2   2   3 2570.59   88.95
   2   2  -3 1902.10  114.00
  -2   2   3 2941.62   87.34
   2   2  -3 2795.60   78.99
   2   2  -4 2701.71   83.07
  -2   2   4 2885.13  100.72
  -2   2   4 2798.82   90.11
   2   2  -5 2549.65   86.22
  -2   2   5 2562.76   94.08
  -2   2   5 2582.19   92.05
  -2   2   5 2496.73   92.84
  -2   2   6  134.84   52.91
  -2   2   6  168.51   56.39
  -2   2   6  156.17   54.06
   2   2  -6  137.87   70.73
   2   2  -6  130.08  101.95
   2   2  -7   66.28   59.55
  -2   2   7   98.05   60.35
  -2   2   7   90.48   57.46
   2   2  -7   36.99   90.06
  -2   2   7   93.35   56.66
  -2   2   8  282.53   82.34
   2   2  -8  219.74   78.20
  -2   2   8  261.36   80.73
  -2   2   8  254.82   77.29
   2   2  -8  192.78   97.17
  -2   2   9  230.02   75.59
  -2   2   9  224.04   85.21
  -2   2   9  243.55   69.21
   2   2  -9  196.56   86.05
   2   3  -1   29.23   42.22
  -2   3   1   49.56   48.66
   2   3  -1   14.78   50.40
   2   3  -1   33.33   46.61
  -2   3   1   21.44   44.62
   2   3  -2  545.58   40.56
   2   3  -2  779.01   61.32
  -2   3   2  667.85   55.17
   2   3  -2  542.62   55.84
  -2   3   2  754.60   52.06
  -2   3   3  563.46   53.13
   2   3  -3  543.80   74.73
  -2   3   3  391.93   34.24
   2   3  -3  427.47   64.23
   2   3  -3  371.70   52.38
  -2   3   4  287.24   49.53
   2   3  -4  278.03   85.46
  -2   3   4  341.66   54.36
   2   3  -4  242.41   70.87
   2   3  -4  247.55   41.02
  -2   3   5  511.65   52.89
   2   3  -5  448.90   91.65
  -2   3   5  538.65   69.22
  -2   3   5  504.33   48.66
   2   3  -5  514.53   59.75
  -2   3   6  389.20   58.63
  -2   3   6  439.77   58.75
  -2   3   6  380.30   54.16
   2   3  -6  331.99   96.92
   2   3  -6  449.95   62.18
  -2   3   7  242.91   59.79
   2   3  -7  265.41   78.94
   2   3  -7  207.51   88.97
  -2   3   7  264.60   72.77
  -2   3   7  299.11   64.29
   2   3  -8  176.31   81.76
  -2   3   8  244.70   66.44
  -2   3   8  204.18   87.92
  -2   3   8  223.81   79.12
   2   3  -8  110.28   93.05
  -2   3   9  145.15   75.55
  -2   3   9  185.06   72.16
   2   3  -9  150.07   85.79
  -2   3   9  162.04   78.49
   2   3  -9   78.27  100.49
   2   4  -1 3328.26   84.01
  -2   4   1 2502.83   64.84
   2   4  -1 3284.87   94.92
   2   4  -1 2569.47   83.17
  -2   4   1 3324.56  110.46
   2   4  -2 1602.26   70.41
  -2   4   2 1655.37   63.02
   2   4  -2 1599.46   77.98
  -2   4   2 1205.15   52.98
   2   4  -2 1670.13   66.48
  -2   4   3  197.37   53.78
   2   4  -3  201.62   52.62
  -2   4   3  207.79   45.77
   2   4  -3  184.25   59.89
   2   4  -3  264.02   67.12
   2   4  -4  164.21   54.67
  -2   4   4  152.23   46.90
  -2   4   4  156.39   51.07
   2   4  -4  137.90   71.79
  -2   4   5   81.03   46.74
  -2   4   5   11.00   53.55
   2   4  -5   47.29   57.33
   2   4  -5   28.51   88.71
  -2   4   5   53.56   46.53
  -2   4   6 1215.14   79.14
   2   4  -6  913.11  107.47
  -2   4   6 1293.90   71.89
   2   4  -6 1404.39   80.49
  -2   4   6 1223.41   70.12
   2   4  -7  553.56  103.69
   2   4  -7  919.68   76.99
  -2   4   7  911.81   70.46
  -2   4   7  850.20   75.54
  -2   4   7  949.25   70.38
  -2   4   8  224.53   71.55
   2   4  -8  123.26   89.61
  -2   4   8  214.49   67.66
  -2   4   8  161.18   68.03
   2   4  -8  116.27  100.94
   2   5  -1   15.94   44.22
   2   5  -1   20.45   39.07
  -2   5   1    4.12   49.50
   2   5  -1   19.91   47.48
   2   5  -2  110.31   38.47
  -2   5   2  127.93   51.29
   2   5  -2  157.19   47.95
   2   5  -2  158.15   49.78
   2   5  -3   69.44   55.56
  -2   5   3  119.73   52.75
   2   5  -3  112.02   55.72
   2   5  -3   77.10   52.88
   2   5  -4   68.72   57.62
   2   5  -4  113.30   74.69
  -2   5   4  132.68   53.30
  -2   5   4   84.09   37.07
  -2   5   5  220.92   55.93
   2   5  -5  133.54   78.58
   2   5  -5  193.31   61.09
  -2   5   5  180.60   51.35
  -2   5   5  241.93   51.44
  -2   5   6  210.60   54.52
   2   5  -6   65.57   86.35
  -2   5   6  204.58   59.76
   2   5  -6  224.41   64.78
  -2   5   6  169.30   54.09
  -2   5   7  103.13   56.51
  -2   5   7  107.66   62.92
   2   5  -7   74.84   69.59
   2   5  -7   77.14   85.69
  -2   5   7   92.35   60.40
  -2   5   8  143.49   82.84
   2   5  -8   99.24   76.18
  -2   5   8   79.19   69.64
   2   5  -8   95.56  105.52
  -2   5   8    8.00   70.38
   2   6  -1  598.31   53.44
  -2   6   1  473.24   56.46
   2   6  -1  582.42   56.84
   2   6  -1  651.85   63.18
  -2   6   2  747.04   46.73
   2   6  -2 1015.41   64.08
   2   6  -2  909.60   66.03
   2   6  -2  998.67   64.97
   2   6  -3  530.89   65.57
  -2   6   3  562.43   59.45
   2   6  -3  578.66   72.46
   2   6  -3  503.41   62.84
   2   6  -4  603.50   65.31
   2   6  -4  410.19   72.66
  -2   6   4  560.13   46.42
  -2   6   4  560.26   60.08
   2   6  -5  638.73   53.03
  -2   6   5  508.69   47.57
  -2   6   5  529.04   60.93
   2   6  -5  510.87   90.62
  -2   6   5  828.02   67.55
  -2   6   6  195.48   58.52
   2   6  -6   64.93   86.49
   2   6  -6  112.47   66.88
  -2   6   6  115.87   61.26
  -2   6   6   82.76   41.92
  -2   6   7   28.03   58.91
   2   6  -7   44.44   90.53
   2   6  -7   61.34   72.74
  -2   6   7   46.55   66.40
  -2   6   7   23.13   65.25
   2   7  -1   37.56   51.48
   2   7  -1   58.91   64.94
  -2   7   1   74.32   55.21
   2   7  -1   47.66   56.40
   2   7  -2   88.98   64.42
   2   7  -2   55.89   54.00
   2   7  -2   54.11   57.52
  -2   7   2   64.70   61.27
   2   7  -3   60.24   60.42
  -2   7   3   52.23   57.36
   2   7  -3  -29.06   65.06
   2   7  -3   55.64   58.85
  -2   7   4  139.87   60.73
   2   7  -4  133.25   68.20
   2   7  -4  126.03   69.50
   2   7  -5   85.34   68.50
   2   7  -5   81.94   73.91
  -2   7   5   23.43   60.75
  -2   7   5   64.48   60.65
  -2   7   5   45.04   63.70
  -2   7   6   20.12   65.34
   2   7  -6    0.03   72.58
  -2   7   6    5.45   65.38
  -2   7   6    5.37   63.55
   2   7  -6    8.09   76.40
  -2   8   1  406.25   62.26
   2   8  -1  662.43   75.32
   2   8  -1  491.09   62.01
   2   8  -1  653.40   66.18
   2   8  -2  183.21   59.94
   2   8  -2  372.00   74.85
  -2   8   2  212.70   62.44
   2   8  -2  305.03   61.93
   2   8  -3  148.60   68.37
  -2   8   3  107.17   62.59
   2   8  -3  299.97   76.86
   2   8  -3  154.59   64.94
  -2   8   4   44.91   63.92
   2   8  -4  122.39   75.87
   2   8  -4   61.23   66.98
   2   8  -4   60.36   76.53
   1  -9   1   28.66   62.94
   1  -9   0    5.33   60.86
   1  -8   4  161.41   49.33
   1  -8   3  292.53   47.20
   1  -8   2  203.81   62.44
   1  -8   1  254.71   60.10
   1  -8   0   54.54   39.22
   1  -7   5   28.04   65.56
   1  -7   4  170.18   63.60
   1  -7   3   23.27   57.89
   1  -7   2  143.29   41.67
   1  -7   1  299.64   54.40
   1  -7   0  125.30   52.99
   1  -6   6  196.52   63.93
   1  -6   5  562.41   66.15
   1  -6   4  341.03   60.72
   1  -6   3  102.93   56.98
   1  -6   2  462.25   57.81
   1  -6   1  501.71   53.06
   1  -6   0 1365.94   61.64
   1  -5   7   74.86   61.49
   1  -5   6  198.88   59.89
   1  -5   5   52.41   56.09
   1  -5   4   98.39   39.33
   1  -5   3  107.70   53.98
   1  -5   2  102.16   50.68
   1  -5   1  191.41   49.70
   1  -5   0  344.62   50.73
   1  -4   7  212.93   58.42
   1  -4   6  171.52   54.53
  -1  -4  -6  288.72   39.86
   1  -4   5   14.22   52.80
   1  -4   4  355.60   55.90
   1  -4   3 1456.87   67.46
   1  -4   2 1955.22   72.65
   1  -4   1 2724.85   75.31
  -1  -4   0  146.11   59.67
   1  -4   0  189.18   50.50
   1  -3   8  100.23   62.93
  -1  -3  -8   26.95   62.96
   1  -3   7  147.15   58.40
  -1  -3  -7  179.72   39.96
  -1  -3  -6  245.72   50.66
   1  -3   6  174.46   54.90
   1  -3   5  175.79   37.67
  -1  -3  -5  223.64   47.85
   1  -3   4  196.26   53.13
  -1  -3  -4  266.93   46.61
   1  -3   3   62.75   52.81
  -1  -3  -3   62.64   47.54
   1  -3   2  517.15   55.24
  -1  -3  -2  303.52   61.29
  -1  -3  -2  494.44   48.38
  -1  -3  -1   22.87   53.48
   1  -3   1  -34.13   50.80
  -1  -3   0  749.29   60.82
   1  -3   0  914.59   56.57
  -1  -2  -8   31.74   63.06
   1  -2   8   37.14   43.85
  -1  -2  -7   85.48   55.58
   1  -2   7   87.03   59.06
  -1  -2  -6  384.70   40.37
   1  -2   6  243.20   55.12
   1  -2   5 1449.61   55.20
  -1  -2  -5 1736.98   51.31
  -1  -2  -4 1083.72   53.87
   1  -2   4 1079.31   59.56
  -1  -2  -3  854.22   53.88
   1  -2   3  739.13   58.70
  -1  -2  -2 1345.56   76.86
   1  -2   2 1751.89   72.37
  -1  -2  -2 1277.96   48.58
  -1  -2  -1 1021.50   66.55
   1  -2   1 1165.54   64.98
  -1  -2  -1 1172.47   58.56
   1  -2   0 7911.26  174.41
  -1  -2   0 8042.06  166.77
  -1  -1  -8  167.44   66.59
   1  -1   8  110.69   67.93
  -1  -1  -7  234.30   59.80
   1  -1   7  201.71   62.89
   1  -1   6  318.52   57.83
  -1  -1  -6  287.40   55.98
   1  -1   5  272.90   56.29
  -1  -1  -5  197.02   54.10
   1  -1   4  496.09   55.30
  -1  -1  -4  418.62   51.98
   1  -1   3  596.44   58.63
  -1  -1  -3  439.55   38.25
  -1  -1  -3  447.91   85.64
   1  -1   2 1250.72   67.41
  -1  -1  -2 1030.94   70.91
  -1  -1  -2 1153.99   60.13
  -1  -1  -1 2221.02   85.68
   1  -1   1 2007.13   70.82
  -1  -1  -1 2541.27   85.94
  -1  -1   0  719.93   63.07
   1  -1   0  687.85   69.55
  -1  -1   0  762.25   65.61
  -1   0  -8  213.46   69.27
  -1   0  -7  476.70   65.30
  -1   0  -6  102.52   57.84
  -1   0  -5  274.95   56.55
  -1   0  -4 1321.90   63.18
  -1   0  -3 3503.15   91.30
  -1   0  -3 3586.00  156.80
  -1   0  -2 1949.67   95.97
  -1   0  -2 1904.51   70.27
  -1   0  -1 5271.99  146.85
  -1   0  -1 4012.74  104.32
  -1   0   0  648.03   60.80
  -1   0   0  373.36   48.01
  -1   0   1  650.26   87.15
  -1   0   1  748.56   59.48
  -1   0   2 5448.65  151.23
  -1   0   2 4019.94  167.50
  -1   0   2 4098.21  173.60
  -1   0   3 1462.02   70.13
  -1   0   3 1116.45   81.07
  -1   0   4 4271.99  127.33
  -1   0   4 3805.58  123.15
  -1   0   5 1944.57   77.92
  -1   0   5 2398.15   95.30
  -1   0   6  583.29   71.98
  -1   0   6  499.18   54.64
  -1   0   7  171.72   70.28
  -1   0   7  197.94   90.58
  -1   0   8  277.90   79.64
  -1   0   9  261.17   88.44
  -1   1   1  437.12   41.56
  -1   1   1  471.00   59.36
   1   1  -1  481.90   70.25
   1   1  -1  610.82   57.38
  -1   1   2 3128.24  110.30
  -1   1   2 2981.53  101.82
   1   1  -2 2879.06   92.65
   1   1  -2 2943.42  175.01
  -1   1   3 1220.06   66.27
   1   1  -3 1235.59   66.26
   1   1  -3 1048.73   88.27
  -1   1   3 1297.51   71.30
  -1   1   3 1134.43   62.24
  -1   1   4  490.49   54.07
   1   1  -4  405.79   62.90
  -1   1   4  488.71   50.54
   1   1  -4  523.62   57.74
   1   1  -5  669.27   62.74
  -1   1   5  733.53   57.59
  -1   1   5  728.89   59.42
   1   1  -5  547.52   59.00
   1   1  -6  355.55   67.33
  -1   1   6  407.29   70.94
  -1   1   6  360.75   55.65
   1   1  -6  314.42   66.79
  -1   1   7  355.47   81.74
  -1   1   7  348.21   71.98
   1   1  -7  297.38   72.30
  -1   1   8  179.73   64.93
  -1   1   8  199.33  129.89
   1   1  -8  166.06   76.57
  -1   1   9  114.88   74.29
   1   1  -9   75.69   83.79
  -1   2   1 8241.24  172.74
   1   2  -1 5695.96  119.64
   1   2  -1 7883.02  189.96
   1   2  -1 6374.35  170.29
   1   2  -2 1179.09   80.48
   1   2  -2 1026.56   61.52
  -1   2   2 1153.88   60.13
   1   2  -3 1747.16   70.30
  -1   2   3 1738.72   65.39
   1   2  -3 1735.27   98.75
  -1   2   3 1264.77   55.50
  -1   2   3 1800.44   81.48
  -1   2   4  708.94   57.93
   1   2  -4  639.58   81.46
   1   2  -4  646.91   59.44
  -1   2   4  589.37   48.97
  -1   2   4  590.35   49.43
  -1   2   5 1110.52   77.34
   1   2  -5 1088.33   80.70
   1   2  -5  764.26   65.57
  -1   2   5  969.70   59.51
  -1   2   5  940.56   56.14
  -1   2   6 2271.13  102.61
   1   2  -6 2134.51  103.70
  -1   2   6 2144.09   81.99
  -1   2   6 2109.88   75.52
   1   2  -6 1737.90   89.10
  -1   2   7  506.90   79.63
  -1   2   7  521.04   59.00
   1   2  -7  402.24   84.22
   1   2  -7  387.28   63.77
  -1   2   7  435.96   55.02
  -1   2   8  120.89   86.27
  -1   2   8  115.78   58.33
   1   2  -8  126.33   82.22
  -1   2   8  167.46   63.47
   1   2  -8   98.57   86.14
  -1   2   9   54.08   72.64
  -1   2   9    6.64   78.37
   1   2  -9    5.93   89.29
  -1   3   1 1329.24   60.33
   1   3  -1  950.90   52.62
   1   3  -1  922.33   61.75
   1   3  -2   23.81   49.89
   1   3  -2   35.29   39.24
  -1   3   2   26.01   46.79
   1   3  -3  427.26   55.88
   1   3  -3  467.92   72.04
  -1   3   3  468.21   47.27
   1   3  -4  111.49   54.55
  -1   3   4  118.97   46.10
  -1   3   4  142.94   42.14
   1   3  -4  184.28   74.97
  -1   3   5  365.58   47.37
   1   3  -5  281.64   76.61
   1   3  -5  315.34   57.92
  -1   3   5  281.63   45.29
  -1   3   5  306.04   52.05
  -1   3   6  224.52   56.57
   1   3  -6  208.85   60.51
   1   3  -6  158.55   60.53
  -1   3   6  168.90   49.14
  -1   3   6  211.35   49.02
  -1   3   7  328.52   56.77
  -1   3   7  309.58   65.45
   1   3  -7  278.41   81.91
  -1   3   7  308.80   56.25
   1   3  -7  168.22   79.63
  -1   3   8  236.89   88.07
   1   3  -8  172.96   92.48
  -1   3   8  276.54   84.84
   1   3  -8  180.37   84.82
  -1   3   8  257.86   62.17
  -1   3   8  282.77   63.51
  -1   3   9  121.84   67.96
   1   3  -9   63.17   95.73
  -1   3   9  114.40  105.74
  -1   3   9  115.15   70.97
  -1   3   9  120.37  115.61
  -1   4   1  293.91   50.67
   1   4  -1  211.98   43.66
   1   4  -1  231.16   58.03
   1   4  -2 2904.58   93.71
   1   4  -2 2549.23   83.52
  -1   4   2 2627.07   66.55
  -1   4   3 2551.37   74.45
   1   4  -3 2219.86   83.12
   1   4  -3 2395.98   88.52
  -1   4   4 2021.35   69.44
   1   4  -4 1853.29   81.71
   1   4  -4 1794.31   93.83
  -1   4   4 1820.99   65.28
   1   4  -5  542.15   71.34
  -1   4   5  747.00   54.59
  -1   4   5  579.84   50.51
   1   4  -5  560.23   64.22
   1   4  -6   49.95   78.84
  -1   4   6   53.11   50.35
   1   4  -6   29.65   73.77
  -1   4   6   11.80   47.68
  -1   4   6   69.85   53.06
  -1   4   7  310.96   63.92
   1   4  -7  380.13   84.63
  -1   4   7  295.46   55.63
  -1   4   7  373.89   59.07
   1   4  -7  238.78   68.45
  -1   4   8  261.98   74.86
   1   4  -8  290.82   90.78
   1   4  -8  168.19   88.26
  -1   4   8  297.65   65.32
  -1   4   8  326.97   62.16
  -1   4   8  364.17   89.58
  -1   5   1  291.59   37.58
   1   5  -1  325.44   62.17
   1   5  -1  284.11   47.31
   1   5  -2  219.48   49.21
   1   5  -2  206.10   58.65
  -1   5   2  266.19   49.42
   1   5  -3  321.44   59.06
   1   5  -3  267.05   56.21
  -1   5   3  305.24   47.80
   1   5  -4   96.88   60.15
  -1   5   4  145.02   47.97
   1   5  -4   99.03   59.86
  -1   5   4  107.29   44.08
  -1   5   5  126.72   36.52
   1   5  -5  128.45   63.31
  -1   5   5  129.56   47.22
   1   5  -5  137.60   64.64
   1   5  -6   42.88   80.88
   1   5  -6   81.04   61.72
  -1   5   6   88.03   51.39
  -1   5   6  117.55   54.97
  -1   5   6  108.97   54.75
  -1   5   7  316.56   65.31
  -1   5   7  338.11   89.26
   1   5  -7  207.44   71.75
   1   5  -7  318.98   69.96
  -1   5   7  251.66   57.38
  -1   5   7  252.45   44.28
  -1   5   8  165.52   87.03
   1   5  -8  179.18   91.20
   1   5  -8   78.83   72.89
  -1   5   8  172.28   62.46
  -1   5   8  118.69   68.01
  -1   5   8  119.72   75.16
  -1   6   1 1601.05   53.26
   1   6  -1 2035.52   71.45
   1   6  -1 1722.89   75.23
   1   6  -2  639.07   56.47
   1   6  -2  670.34   62.75
  -1   6   2  677.49   53.67
   1   6  -3  444.60   49.33
   1   6  -3  517.59   61.78
  -1   6   3  635.15   55.26
   1   6  -4  158.27   62.31
   1   6  -4  153.51   63.54
  -1   6   4  136.45   49.56
  -1   6   4  104.07   50.17
   1   6  -5  392.26   66.80
   1   6  -5  430.93   70.01
  -1   6   5  357.68   57.53
  -1   6   5  377.89   53.74
   1   6  -6  588.03   77.45
  -1   6   6  880.65   79.43
  -1   6   6  773.09   64.90
   1   6  -6  837.62   83.22
  -1   6   6  757.94   62.72
  -1   6   7  268.96   68.26
   1   6  -7  153.21   75.22
  -1   6   7  327.05   75.56
   1   6  -7  295.98   70.47
  -1   6   7  300.19   64.02
  -1   6   7  385.33   67.71
  -1   7   1  133.40   52.20
   1   7  -1  254.26   63.05
   1   7  -1   79.79   49.04
   1   7  -2  407.95   55.87
   1   7  -2  379.19   47.80
  -1   7   2  459.98   55.12
   1   7  -3  245.17   68.62
   1   7  -3  229.76   60.68
  -1   7   3  217.31   40.86
  -1   7   4   36.73   54.24
  -1   7   4   26.72   65.86
   1   7  -4  121.20   67.78
   1   7  -4   78.36   66.57
  -1   7   4   63.18   54.82
  -1   7   5  300.51   72.18
   1   7  -5  263.69   72.12
   1   7  -5  233.15   90.61
  -1   7   5  209.90   59.94
  -1   7   5  238.78   43.32
   1   7  -6   68.54   94.79
   1   7  -6   73.21   72.65
  -1   7   6   55.41   64.68
  -1   7   6   65.62   76.91
  -1   7   6   61.47   43.43
   1   8  -1   62.91   52.97
   1   8  -1  178.64   66.91
  -1   8   1   80.17   55.00
  -1   8   1  123.38   62.18
  -1   8   2  252.36   56.88
   1   8  -2  240.44   58.61
   1   8  -2  558.84   74.10
  -1   8   2  354.73   64.77
   1   8  -3  495.14   75.11
   1   8  -3  303.43   65.43
  -1   8   3  345.56   68.95
  -1   8   3  282.28   58.79
   1   8  -4  539.85   76.14
  -1   8   4  367.84   52.51
  -1   8   4  405.03   64.11
  -1   8   4  312.21   65.11
   1   8  -4  379.74   75.22
   1   8  -5  169.65   76.43
  -1   8   5  126.75   64.74
  -1   8   5  149.65   76.70
   1   8  -5  169.64   82.21
  -1   8   5  196.81   67.04
   1   9  -1  -25.90   58.76
  -1   9   1   33.28   60.63
   1   9  -1   92.94   74.11
   1   9  -1   17.29   42.92
  -1   9   1   15.10   66.69
  -1   9   2   -3.51   61.20
   1   9  -2    5.75   43.94
  -1   9   2   55.14   71.13
   1   9  -2   55.81   74.55
   0  -9   2   38.80   61.72
   0  -9   1   19.65   58.09
   0  -9   0   28.23   59.10
   0  -8   4  154.09   65.87
   0  -8   3   37.31   59.84
   0  -8   2   59.53   40.59
   0  -8   1  268.89   57.03
   0  -8   0 1925.17   75.25
   0  -7   6   56.17   47.74
   0  -7   5  256.49   62.51
   0  -7   4   49.93   59.33
   0  -7   3  140.88   55.95
   0  -7   2  132.27   38.36
   0  -7   1   88.93   50.43
   0  -7  -1   99.70   33.52
   0  -7   0  -12.35   47.22
   0  -6   7  119.31   68.10
   0  -6   6    9.02   62.09
   0  -6   5   36.08   59.35
   0  -6   4  575.40   60.95
   0  -6   3 1743.57   76.93
   0  -6   2 1814.21   73.59
   0  -6  -1  357.62   47.14
   0  -6   1  225.48   36.90
   0  -6   0  381.48   47.56
   0  -5   7  197.01   63.66
   0  -5   6   72.22   59.25
   0  -5   5  145.06   56.19
   0  -5   4  253.09   55.02
   0  -5   3  146.46   52.23
   0  -5   2  464.27   51.87
   0  -5  -1  350.96   34.73
   0  -5   1  354.88   49.25
   0  -5   0  -18.43   32.64
   0  -4   8   59.18   62.44
   0  -4   7  137.06   58.93
   0  -4   6  407.93   57.39
   0  -4   5  733.72   62.01
   0  -4   4  284.45   52.99
   0  -4   3 2988.56   98.64
   0  -4   2 1199.86   51.78
   0  -4  -1 2301.84   66.56
   0  -4   1 2353.14   72.53
   0  -4   0 2703.06   77.32
   0  -3   8   99.47   58.35
   0  -3   7  225.74   55.82
   0  -3   6  367.47   54.71
   0  -3   5   59.17   62.15
   0  -3   4  257.40   53.43
   0  -3   3  214.27   49.69
   0  -3   2  138.02   46.53
   0  -3  -1  617.75   48.88
   0  -3   1  658.50   52.11
   0  -3   0   52.81   45.84
   0  -2   8  220.59   73.06
   0  -2  -8  314.52   60.38
   0  -2   7  314.48   56.98
   0  -2  -7  425.92   56.07
   0  -2   6  155.08   50.64
   0  -2  -6  252.64   49.90
   0  -2   5  298.89   52.58
   0  -2  -5  318.70   36.61
   0  -2   4 1936.29   79.05
   0  -2  -4 1831.99   63.34
   0  -2   3  974.40   61.10
   0  -2  -3  905.04   51.02
   0  -2   2 3446.51  111.48
   0  -2   1 2915.41   98.13
   0  -2  -1 2720.88   86.75
   0  -2   0  254.56   55.13
   0  -1  -9   84.51   66.67
   0  -1   9  127.90   71.61
   0  -1  -8  152.57   59.52
   0  -1   8  140.72   62.82
   0  -1   7  522.70   61.98
   0  -1  -7  573.20   57.98
   0  -1   6  237.37   55.41
   0  -1  -6  274.90   52.79
   0  -1   5  885.01   60.08
   0  -1  -5  921.55   56.97
   0  -1   4  112.82   50.66
   0  -1  -4  176.16   47.30
   0  -1   3  610.14   58.00
   0  -1  -3  595.78   50.49
   0  -1  -2 1252.78   66.96
   0  -1   2 1454.52   82.89
   0  -1   1  492.53   62.90
   0  -1   0   69.41   59.44
   0   0  -9   27.95   69.61
   0   0  -8   42.61   62.72
   0   0  -7  163.13   56.40
   0   0  -6 1768.55   70.99
   0   0  -5 2891.35   84.72
   0   0  -4  986.94   54.37
   0   0  -3   30.00   32.26
   0   0  -2  233.25   53.50
   0   0  -1 6672.52  189.12
   0   0   1 6935.04  196.42
   0   0   2  248.11   54.78
   0   0   3   33.89   47.00
   0   0   4 1018.74   56.98
   0   0   5 2986.30   96.45
   0   0   6 1776.04   77.15
   0   0   7   87.78   59.63
   0   0   8   90.69   64.19
   0   0   9   60.09   73.75
   0   1   0   52.38   41.22
   0   1  -1  494.92   66.33
   0   1   1  414.91   51.30
   0   1  -1  316.60   73.22
   0   1  -2 1436.24   84.34
   0   1  -2  896.76   76.54
   0   1   2  851.59   51.37
   0   1   3  626.33   52.64
   0   1  -3  551.87   58.31
   0   1  -3  553.38   72.60
   0   1   4  185.70   69.15
   0   1  -4  167.02   85.03
   0   1  -4  135.05   51.47
   0   1   4  185.89   92.96
   0   1   4  214.01   50.46
   0   1   5 1207.55  131.57
   0   1   5 1052.87   63.08
   0   1  -5  922.32   62.11
   0   1   5 1066.08  125.17
   0   1  -6  226.43   56.92
   0   1   6  287.13   56.07
   0   1   7  575.16   64.00
   0   1  -7  462.16   65.13
   0   1   8  143.60   68.39
   0   1  -8  157.22   67.47
   0   1   9  174.98   75.96
   0   1  -9  121.77   73.65
   0   2   0  280.56   54.81
   0   2   1 2995.22   91.58
   0   2  -1 3185.50  105.63
   0   2  -1 2121.50  102.02
   0   2  -2 2461.96  100.86
   0   2  -2 3672.41  114.17
   0   2   2 2190.42   65.84
   0   2  -3 1022.02   68.35
   0   2  -3  948.63   80.45
   0   2   3  957.61   53.82
   0   2  -4 1887.22   91.13
   0   2  -4 2100.39   87.01
   0   2   4 2195.74   70.68
   0   2   4 2055.37  105.23
   0   2   5  401.69   85.87
   0   2  -5  391.85   84.35
   0   2  -5  336.50   71.61
   0   2   5  405.15   53.01
   0   2   5  458.64   72.80
   0   2  -6  232.01  116.90
   0   2  -6  191.50   58.69
   0   2   6  292.60   53.46
   0   2   6  292.05   90.87
   0   2   6  274.78   80.92
   0   2   7  463.29   60.68
   0   2  -7  397.68   66.32
   0   2  -8  193.48   71.39
   0   2   8  291.10   48.27
   0   3   0   69.26   45.56
   0   3   0    9.76   42.51
   0   3  -1  648.38   64.01
   0   3  -1  663.60   42.73
   0   3   1  648.91   38.07
   0   3  -2  137.36   50.76
   0   3  -2  105.20   54.54
   0   3   2   86.66   29.91
   0   3   2   84.01   30.78
   0   3  -3  250.52   69.80
   0   3   3  260.54   43.75
   0   3   3  275.16   61.73
   0   3   3  268.45   44.83
   0   3  -3  259.80   57.41
   0   3  -4  281.81   63.33
   0   3   4  336.12   62.17
   0   3   4  220.67   33.22
   0   3  -4  286.92   72.40
   0   3  -5   53.39   58.25
   0   3  -5   78.04   69.66
   0   3   5   63.70   58.29
   0   3   5  101.25   47.43
   0   3  -6  530.17   91.97
   0   3  -6  420.51   65.47
   0   3   6  521.49   53.03
   0   3   6  626.17   78.02
   0   3   6  610.67   80.15
   0   3   7  413.82   96.53
   0   3  -7  342.30   68.03
   0   3   7  447.64   57.13
   0   3   7  463.63   88.26
   0   3  -7  348.40  121.20
   0   3   8  169.03   62.10
   0   3  -8  140.01   70.71
   0   4   0 2945.41  101.27
   0   4   0 3298.09   87.70
   0   4  -1 2124.87   63.40
   0   4   1 2194.63   57.28
   0   4  -1 2372.29   89.48
   0   4   1 2286.52   87.23
   0   4  -2 1596.07   77.21
   0   4  -2 1798.24   75.69
   0   4   2 1543.21   75.44
   0   4   2 1805.40   59.39
   0   4   2 1696.36   58.21
   0   4   3 3072.40   67.15
   0   4  -3 2985.84  106.06
   0   4   3 2929.94  102.01
   0   4  -3 3158.31   99.56
   0   4   3 3214.13   76.41
   0   4   4  394.82   46.75
   0   4  -4  368.98   74.38
   0   4   4  261.16   62.65
   0   4   4  356.10   45.61
   0   4  -4  369.97   61.17
   0   4   5 1086.18   57.42
   0   4  -5  893.85   73.35
   0   4   5 1286.30   87.95
   0   4   5 1136.95   56.12
   0   4  -5  960.89   76.45
   0   4   6  593.58   55.24
   0   4   6  670.88   85.24
   0   4  -6  407.42   68.34
   0   4   6  587.85   53.98
   0   4  -6  509.51   82.97
   0   4   7  272.70   54.96
   0   4   7  203.49   53.74
   0   4  -7  199.33   95.12
   0   4  -7  145.99   69.52
   0   4   7  234.78   66.26
   0   4   7  234.16   80.93
   0   4   8   87.47  105.50
   0   4  -8   77.40  155.94
   0   4  -8   -3.80   73.09
   0   4   8   83.66   94.96
   0   4   8   86.49   60.72
   0   4   8  139.95   63.45
   0   4  -8   81.20  147.38
   0   5   0   -2.40   59.75
   0   5   0   42.02   45.83
   0   5  -1  421.37   51.34
   0   5   1  432.82   59.16
   0   5   1  439.34   48.91
   0   5  -1  396.23   60.58
   0   5   2  565.08   60.52
   0   5   2  552.41   49.19
   0   5  -2  499.27   63.20
   0   5  -2  539.75   57.18
   0   5   2  386.80   35.59
   0   5  -3  148.97   58.48
   0   5   3  129.64   60.70
   0   5  -3  131.60   55.60
   0   5   3  154.02   45.08
   0   5   3  120.67   44.32
   0   5   4  254.82   47.29
   0   5   4  339.43   62.48
   0   5  -4  219.05   62.10
   0   5   4  215.45   33.54
   0   5  -4  260.90   63.34
   0   5   5  157.84   50.97
   0   5  -5  171.07   65.86
   0   5  -5  164.08   78.27
   0   5   5  151.36   35.16
   0   5   5  207.36   64.93
   0   5  -6  158.64   65.92
   0   5  -6   34.34   68.93
   0   5   6  185.48   81.09
   0   5   6  146.67   53.43
   0   5   6  161.68   55.19
   0   5  -7  192.92   71.36
   0   5  -7  319.65   87.16
   0   5   7  392.40   71.64
   0   5   7  326.23   57.68
   0   5   7  357.79   62.01
   0   5   7  344.46   83.64
   0   6   0  388.46   57.59
   0   6   0  329.89   35.29
   0   6  -1  317.10   50.74
   0   6  -1  361.34   56.95
   0   6   1  318.27   34.41
   0   6   1  434.65   58.70
   0   6  -2 2098.10   86.93
   0   6   2 2063.88   65.35
   0   6  -2 2054.84   76.61
   0   6   2 2004.49   80.48
   0   6   2 1292.37   46.24
   0   6  -3 2024.65   88.26
   0   6   3 2240.44   68.43
   0   6   3 1502.07   64.49
   0   6  -3 1725.31   78.52
   0   6   3 1400.07   48.58
   0   6  -4  713.01   72.22
   0   6   4  748.15   69.48
   0   6   4  796.98   55.14
   0   6  -4  651.67   69.81
   0   6   4  865.34   56.11
   0   6  -5   28.79   49.48
   0   6   5   56.21   54.93
   0   6  -5  114.56   67.42
   0   6   5   77.55   68.07
   0   6   5   65.31   53.06
   0   6  -6   28.30   73.36
   0   6   6   23.04   58.52
   0   6  -6   13.84   67.24
   0   6   6   42.22   67.82
   0   6   6  109.67   39.40
   0   6   7  220.06   60.21
   0   6  -7  144.38   75.23
   0   6  -7  188.71   73.73
   0   6   7  218.00   66.04
   0   6   7  251.71   75.30
   0   7   0   -9.97   33.55
   0   7   0   44.63   55.63
   0   7  -1  132.63   36.92
   0   7  -1  185.34   56.93
   0   7   1  136.98   56.86
   0   7   1   93.80   48.24
   0   7  -2  170.71   59.20
   0   7  -2  183.25   55.80
   0   7   2  172.86   50.45
   0   7   2  173.80   62.67
   0   7   2  184.18   50.39
   0   7   3  155.64   52.29
   0   7  -3  133.94   62.55
   0   7  -3  142.08   61.01
   0   7   3  102.60   65.96
   0   7   3   81.45   37.18
   0   7   4  109.55   55.05
   0   7   4   69.89   47.31
   0   7  -4  101.54   66.28
   0   7  -4   48.04   67.18
   0   7   4   81.39   54.38
   0   7   5  191.69   60.59
   0   7   5  258.16   69.68
   0   7  -5  208.52   72.11
   0   7   5  263.21   59.64
   0   7  -5  231.78   75.18
   0   7  -6   48.21   80.90
   0   7  -6  131.00   73.97
   0   7   6  162.80   91.52
   0   7   6  114.95   62.63
   0   7   6  153.22   64.58
   0   8   0 1328.87   68.44
   0   8   0 1661.15   67.63
   0   8  -1  520.89   48.67
   0   8  -1  612.07   58.46
   0   8   1  585.45   66.89
   0   8   1  377.44   42.84
   0   8  -2   84.13   57.99
   0   8  -2  237.52   63.13
   0   8   2  211.18   65.69
   0   8   2  182.06   54.58
   0   8   2   92.47   54.48
   0   8   3   37.04   56.05
   0   8   3   72.28   67.60
   0   8  -3  -22.34   63.47
   0   8  -3  132.98   67.63
   0   8   3   99.97   56.59
   0   8  -4  294.95   72.91
   0   8   4  234.56   62.48
   0   8   4  362.21   75.14
   0   8  -4  227.10   74.54
   0   8   4  205.16   62.76
   0   9   0   49.89   57.87
   0   9   0   19.42   45.92
   0   9   1   17.35   59.93
   0   9  -1   24.87   56.83
   0   9  -1   -4.89   66.89
   0   9   1  107.37   68.28
   0   9  -2   18.56   62.81
   0   9  -2   65.07   68.60
   0   9   2  -34.57   70.66
   0   9   2   39.62   61.91
   0   9   2  -17.41   60.84
   1  -9  -2   -1.09   61.47
   1  -9  -1  -69.44   58.85
  -1  -8   5  123.00   66.40
  -1  -8   4  288.83   64.85
  -1  -8   3  233.21   60.77
  -1  -8   2  203.87   58.07
   1  -8  -2  229.89   57.83
   1  -8  -1    6.37   55.36
  -1  -7   6   15.94   66.29
  -1  -7   5  140.02   62.14
  -1  -7   4   71.98   57.94
  -1  -7   3  190.40   55.40
   1  -7  -2  247.33   40.27
  -1  -7   2  320.79   54.29
   1  -7  -1  111.38   52.27
  -1  -7   1   98.23   50.80
  -1  -6   7  198.37   82.97
  -1  -6   6  566.04   68.02
  -1  -6   5  268.03   59.76
  -1  -6   4  100.00   53.27
   1  -6  -3  453.09   53.88
  -1  -6   3  395.20   55.02
  -1  -6   2  565.40   54.07
   1  -6  -2  579.23   52.96
  -1  -6   1 1775.75   68.02
   1  -6  -1 1449.98   62.75
  -1  -5   8  111.28   68.56
  -1  -5   7  234.77   78.62
  -1  -5   6   85.99   70.89
  -1  -5   5  169.21   54.96
  -1  -5   4   88.33   52.61
   1  -5  -3  217.55   45.69
  -1  -5   3  187.48   49.61
   1  -5  -2  210.98   34.90
  -1  -5   2  240.34   48.58
  -1  -5   1  212.72   34.18
   1  -5  -1  384.65   51.76
  -1  -4   8  179.28   65.41
  -1  -4   7  232.75   61.95
  -1  -4   6   27.02   57.10
  -1  -4   5  553.76   71.32
  -1  -4   4 1444.81   70.55
  -1  -4   4 1987.01   89.85
  -1  -4   3 1710.65   72.83
   1  -4  -3 2077.88   68.65
  -1  -4   3 2020.49   76.49
   1  -4  -2 2857.69   80.95
  -1  -4   2 2486.19   81.11
  -1  -4   2 2477.81   81.20
   1  -4  -1  195.94   36.87
  -1  -4   1  192.42   45.22
  -1  -4   1  138.35   42.41
  -1  -3   9   59.65   69.30
  -1  -3   8  134.69   62.92
  -1  -3   7  240.43   70.98
  -1  -3   6  169.02   66.96
  -1  -3   6  154.99   58.70
  -1  -3   5  265.08   54.07
  -1  -3   5  220.79   54.36
  -1  -3   4  106.84   54.46
  -1  -3   4   89.52   53.10
  -1  -3   3  395.34   52.80
  -1  -3   3  410.49   55.67
   1  -3  -2   31.38   32.81
  -1  -3   2   30.68   45.35
  -1  -3   2   40.81   52.22
  -1  -3   1  773.62   46.96
   1  -3  -1 1030.19   47.51
  -1  -3   1  796.75   52.13
  -1  -2   9   15.24   80.71
  -1  -2   8   52.90   71.39
  -1  -2   7  343.51   69.27
  -1  -2   6 1696.22   83.47
  -1  -2   6 1747.43   80.31
  -1  -2   5  778.78   64.84
  -1  -2   5  873.84   63.20
  -1  -2   4  550.47   58.85
  -1  -2   4  637.47   58.77
  -1  -2   3 1822.17   70.39
  -1  -2   3 1633.37   85.73
   1  -2  -2  976.54   55.63
  -1  -2   2 1109.14   62.61
  -1  -2   2  785.87   58.43
  -1  -2   1 8628.81  168.86
   1  -2  -1 6294.93  149.00
  -1  -1   9   99.33   69.12
  -1  -1   8  166.21   60.77
   1  -1  -8  209.38   59.16
  -1  -1   7  296.73   84.35
   1  -1  -7  271.39   55.44
  -1  -1   7  274.30   68.10
  -1  -1   6  390.93   69.21
   1  -1  -6  343.87   52.49
  -1  -1   6  270.45   62.00
  -1  -1   5  736.68   72.18
   1  -1  -5  567.06   50.32
  -1  -1   5  569.47   68.45
  -1  -1   4  523.73   55.86
  -1  -1   4  428.96   58.23
  -1  -1   3 1305.72   66.63
  -1  -1   3 1119.57   87.17
  -1  -1   2 2664.11   88.69
   1  -1  -2 2574.03   87.75
   1  -1  -2 2980.93  104.04
  -1  -1   2 2172.57  131.06
  -1  -1   1  598.11   57.88
  -1  -1   1  334.77   51.54
   1  -1  -1  418.77   41.17
   1  -1  -1  512.04   62.41
   1   0  -9  216.95   80.66
   1   0  -8  268.69   74.49
   1   0  -7  116.61   57.76
   1   0  -6  481.89   66.14
   1   0  -5 1885.29   71.83
   1   0  -5 2274.13   98.00
   1   0  -4 3904.43  127.54
   1   0  -4 3636.47  115.34
   1   0  -3 1290.99   67.97
   1   0  -3  998.28   68.71
   1   0  -2 4876.82  149.45
   1   0  -1  454.73   42.47
   1   0  -1  621.36   85.73
   1   0   0  463.59   67.67
   1   0   0  572.00   57.26
   1   0   1 4447.32  138.43
   1   0   1 3579.73   96.98
   1   0   2 1542.52   86.10
   1   0   2 1936.07   70.49
   1   0   3 2544.52   69.37
   1   0   4 1301.72   63.60
   1   0   5  280.90   57.43
   1   0   6  182.82   59.11
   1   0   7  521.53   67.29
   1   0   8  270.24   71.90
  -1   1   0  772.59   61.35
   1   1   0  735.65   63.68
   1   1   0  835.44   63.89
  -1   1   0  845.25   70.32
  -1   1  -1 2341.52   93.25
   1   1   1 2478.35   89.74
  -1   1  -1 2777.12   94.23
   1   1   1 2428.13   82.62
  -1   1  -2  937.54   63.10
  -1   1  -2 1186.56   67.06
   1   1   2 1281.53   75.38
   1   1   2 1195.06   60.60
  -1   1  -3  595.48   74.97
   1   1   3  705.93   76.56
  -1   1  -3  604.89   59.44
   1   1   3  619.30   53.38
   1   1   4  523.04   88.00
  -1   1  -4  469.00  137.59
   1   1   4  463.60   53.16
  -1   1  -4  431.13   57.31
  -1   1  -4  418.14  146.31
   1   1   5  272.16   40.42
  -1   1  -5  236.97   59.62
   1   1   6  331.14   59.39
  -1   1  -6  229.61   60.55
  -1   1  -7  231.64   66.25
   1   1   7  209.06   64.59
   1   1   8  153.49   73.11
  -1   1  -8  150.18   74.22
   1   2   0 5639.62  121.50
  -1   2   0 6600.12  144.40
   1   2   0 7927.93  171.57
   1   2   1 1128.08   63.80
   1   2   1 1180.67   58.20
  -1   2  -1 1219.66   66.05
  -1   2  -2 1865.52   75.11
   1   2   2 1759.25   74.05
   1   2   2 1828.47   65.92
  -1   2  -3  802.14   63.34
   1   2   3  819.66   41.77
   1   2   3  980.14   72.48
  -1   2  -3  852.78   74.16
  -1   2  -4 1112.44   85.09
  -1   2  -4 1073.62   67.35
   1   2   4 1253.85   75.02
   1   2   4 1175.59   55.86
  -1   2  -4  925.81  100.97
  -1   2  -5 2086.19  135.39
   1   2   5 2361.73  107.09
  -1   2  -5 1875.38   79.43
   1   2   5 2233.86   72.85
  -1   2  -5 2070.19  157.07
   1   2   6  489.79   58.93
  -1   2  -6  326.17   46.15
   1   2   7   82.52   60.60
  -1   2  -7   81.18   67.19
   1   2   8  101.58   68.57
  -1   2  -8   57.26   73.19
  -1   3   0 1004.03   57.42
   1   3   0  841.09   61.00
   1   3   0  869.13   50.81
   1   3   0  821.03   50.74
   1   3   1   -4.20   51.88
  -1   3  -1   11.55   52.04
   1   3   1    9.90   45.19
   1   3   2  561.94   57.94
   1   3   2  571.61   49.38
  -1   3  -2  455.83   43.71
  -1   3  -3   73.95   41.47
   1   3   3  103.24   51.71
   1   3   3   81.90   46.40
   1   3   4  324.47   48.17
  -1   3  -4  212.98   42.52
  -1   3  -4  208.45   60.57
   1   3   4  327.85   53.75
  -1   3  -5  177.33   61.57
   1   3   5  242.70   50.72
   1   3   5  270.36   64.91
  -1   3  -5  212.17   79.55
  -1   3  -5  220.61   75.67
  -1   3  -6  261.14   85.84
   1   3   6  334.43   77.24
  -1   3  -6  150.15   64.99
  -1   3  -6  274.35  115.06
   1   3   6  294.01   40.58
   1   3   7  245.22   59.27
  -1   3  -7  123.35   69.65
   1   3   8   93.29   65.64
  -1   3  -8   64.46   76.00
  -1   4   0  216.93   50.59
   1   4   0  186.54   58.99
   1   4   0  161.07   41.96
   1   4   0  198.35   44.72
  -1   4  -1 2886.94   78.39
   1   4   1 2721.37   88.73
   1   4   1 2982.60   76.30
   1   4   1 2816.10   71.78
   1   4   2 1804.19   77.37
   1   4   2 2176.29   66.31
   1   4   2 2274.63   65.65
  -1   4  -2 1889.69   62.11
   1   4   3 1770.94   78.56
   1   4   3 1646.10   58.95
  -1   4  -3 1505.27   73.16
  -1   4  -4  491.46   65.13
   1   4   4  631.77   74.84
  -1   4  -4  399.61   65.19
   1   4   4  429.63   50.98
  -1   4  -5   43.74   76.84
  -1   4  -5   72.41   63.76
   1   4   5   30.16   55.82
   1   4   5   11.35   47.57
  -1   4  -6  239.56   66.75
   1   4   6  420.42   72.38
  -1   4  -6  314.03   84.33
   1   4   6  395.09   55.10
  -1   4  -6  366.11   82.80
  -1   4  -7  215.77  107.95
  -1   4  -7  229.36  124.31
   1   4   7  282.29   74.13
  -1   4  -7  141.07   52.14
   1   4   7  240.27   58.87
   1   5   0  281.37   33.38
  -1   5   0  330.37   51.25
   1   5   0  343.51   46.69
   1   5   0  350.36   60.75
  -1   5  -1  189.20   38.07
   1   5   1  238.54   59.44
   1   5   1  249.36   45.29
   1   5   1  176.05   46.24
   1   5   2  245.98   46.90
   1   5   2  214.12   61.02
  -1   5  -2  224.06   52.93
   1   5   2  164.01   47.64
   1   5   3  111.63   35.03
   1   5   3  148.14   62.77
  -1   5  -3   81.00   58.21
   1   5   3   81.57   35.54
  -1   5  -3   81.99   59.79
  -1   5  -4  122.12   62.75
   1   5   4  156.41   35.55
  -1   5  -4  147.49   62.00
   1   5   4  168.24   61.89
   1   5   4  165.48   49.60
  -1   5  -5   70.29   67.01
   1   5   5  157.20   76.38
  -1   5  -5  122.48   65.63
   1   5   5  151.43   53.21
   1   5   5  138.76   38.01
  -1   5  -6  202.51   52.90
   1   5   6  416.90   79.19
  -1   5  -6  282.78   87.68
   1   5   6  428.35   57.01
   1   5   6  235.96   39.54
  -1   5  -7  183.48   89.87
  -1   5  -7  131.09   74.85
   1   5   7  168.96   81.13
  -1   5  -7   91.10   99.94
   1   5   7  139.94   59.80
   1   5   7  129.85   61.07
  -1   6   0 1490.63   52.03
   1   6   0 2204.52   70.43
   1   6   0 1931.30   68.95
   1   6   0 1823.09   76.16
   1   6   1  579.11   51.12
  -1   6  -1  609.17   56.87
   1   6   1  736.32   68.39
   1   6   1  672.76   53.42
   1   6   2  516.20   67.19
  -1   6  -2  474.70   61.67
  -1   6  -2  450.71   45.56
   1   6   2  565.67   52.91
   1   6   2  497.35   51.96
   1   6   3  297.99   50.75
   1   6   3  179.58   66.99
  -1   6  -3  135.41   58.76
   1   6   3  215.18   51.53
  -1   6  -3  159.26   63.37
   1   6   4  684.30   55.85
  -1   6  -4  417.93   67.73
   1   6   4  620.37   71.46
   1   6   4  503.69   55.47
  -1   6  -4  396.63   51.24
  -1   6  -5  743.38   79.27
   1   6   5  928.06   76.65
  -1   6  -5  679.73   82.03
   1   6   5  979.98   62.55
   1   6   5 1182.50   64.22
  -1   6  -6  278.52   76.55
  -1   6  -6  287.03   76.86
   1   6   6  387.02   73.91
   1   6   6  431.55   62.83
   1   6   6  214.12   42.11
  -1   7   0  147.64   57.18
  -1   7   0  182.02   53.05
   1   7   0  181.93   64.01
   1   7   0  221.09   49.28
   1   7   0  172.15   50.91
   1   7   1  430.44   52.92
  -1   7  -1  426.30   56.50
   1   7   1  455.56   67.15
  -1   7  -1  300.45   43.53
   1   7   1  471.12   54.08
  -1   7  -2  295.87   61.37
   1   7   2  198.29   57.01
   1   7   2  261.15   67.77
  -1   7  -2  133.75   43.36
   1   7   2  268.06   53.99
   1   7   3  208.64   70.86
  -1   7  -3  114.61   63.67
   1   7   3  139.86   55.84
  -1   7  -3   38.55   64.68
   1   7   3   87.78   54.85
   1   7   4  271.43   73.07
  -1   7  -4  203.24   67.33
   1   7   4  365.31   58.50
   1   7   4  271.36   58.77
  -1   7  -4  256.98   73.92
  -1   7  -5   50.28   77.78
   1   7   5  142.72   70.23
   1   7   5  143.43   62.00
  -1   7  -5   36.61   71.01
   1   7   5   20.04   45.22
  -1   8   0  109.65   55.50
   1   8   0   75.75   69.09
  -1   8   0  104.21   60.88
   1   8   0  112.94   54.53
   1   8   0   95.22   53.68
  -1   8  -1  312.43   59.58
   1   8   1  509.04   74.33
   1   8   1  390.62   57.01
  -1   8  -1  440.91   66.58
   1   8   1  279.66   58.72
  -1   8  -2  395.17   65.90
   1   8   2  403.18   62.38
   1   8   2  518.98   76.81
  -1   8  -2  438.27   66.66
   1   8   2  477.37   61.11
   1   8   3  522.71   67.16
   1   8   3  544.21   77.37
  -1   8  -3  463.29   71.73
   1   8   3  456.86   66.43
  -1   8  -3  277.46   50.94
   1   8   4  131.20   63.40
   1   8   4  233.15   77.97
  -1   8  -4  155.33   72.14
   1   8   4  228.64   65.84
  -1   8  -4   85.41   78.00
  -1   9   0   63.69   60.54
   1   9   0   47.87   73.02
  -1   9   0   33.24   48.34
   1   9   0  117.09   60.32
   1   9   0   50.45   60.02
  -1   9  -1   30.78   61.90
   1   9   1   88.40   75.42
  -1   9  -1   73.32   48.96
   1   9   1   85.54   44.97
   1   9   1   63.33   44.50
   2  -8  -3  144.03   64.56
   2  -8  -2  232.55   63.43
   2  -8  -1  325.21   62.61
  -2  -7   6    2.75   67.95
  -2  -7   5   68.99   63.35
   2  -7  -4  111.58   60.79
   2  -7  -3   -5.39   59.73
   2  -7  -2   44.91   58.45
   2  -7  -1   33.88   55.67
  -2  -6   7   11.89   82.65
  -2  -6   6   96.45   77.98
  -2  -6   5  568.25   66.98
  -2  -6   5  724.23   68.94
  -2  -6   4  651.53   66.88
   2  -6  -4  526.21   58.42
  -2  -6   3  547.46   64.20
   2  -6  -3  544.04   60.21
  -2  -6   2  923.67   66.47
   2  -6  -2  751.25   62.43
   2  -6  -1  441.95   56.98
  -2  -6   1  401.36   45.73
  -2  -5   8   56.15   86.51
  -2  -5   7   69.89   79.45
  -2  -5   7  116.59   66.30
  -2  -5   6  198.44   64.94
  -2  -5   6   90.92   77.40
  -2  -5   5  241.77   61.82
  -2  -5   5  194.99   71.79
  -2  -5   4  123.37   41.00
   2  -5  -4  127.77   51.46
  -2  -5   3   95.10   56.47
   2  -5  -3  130.20   53.21
   2  -5  -2  158.41   53.33
  -2  -5   2  159.90   54.83
   2  -5  -1   31.07   35.45
  -2  -5   1   18.93   54.91
  -2  -4   8  115.49   93.27
  -2  -4   8  185.97   85.12
  -2  -4   7  797.74   69.18
  -2  -4   7  687.80   98.72
  -2  -4   6  916.43   84.56
  -2  -4   6 1269.76   71.41
  -2  -4   5   28.20   66.66
  -2  -4   5   56.07   38.41
  -2  -4   4  133.31   55.14
   2  -4  -4  151.43   46.89
   2  -4  -3  204.65   52.03
  -2  -4   3  183.49   37.21
   2  -4  -2 1308.73   53.92
  -2  -4   2 1307.31   49.54
  -2  -4   1 2933.88   79.88
   2  -4  -1 2460.35   71.43
  -2  -3   9  121.81   91.18
  -2  -3   9   85.20   95.39
  -2  -3   8   93.72   90.43
  -2  -3   8  205.57   77.69
  -2  -3   7  205.48   88.47
  -2  -3   7  253.07   61.14
  -2  -3   6  441.88   60.31
  -2  -3   6  328.73   93.97
  -2  -3   5  529.24   58.29
  -2  -3   5  454.85   89.67
  -2  -3   4  334.44   57.01
   2  -3  -4  250.64   46.65
  -2  -3   3  518.13   52.89
   2  -3  -3  506.78   54.00
   2  -3  -2  718.59   60.79
  -2  -3   2  870.93   56.94
  -2  -3   1   14.95   35.89
   2  -3  -1   21.92   51.41
  -2  -2   9  140.06   92.79
  -2  -2   9  206.07   85.71
  -2  -2   8  149.06   87.15
  -2  -2   8  255.65   78.10
  -2  -2   7   48.30   72.31
  -2  -2   7   50.23   81.59
  -2  -2   6  148.16  106.45
  -2  -2   6  251.03   69.68
  -2  -2   5 2923.51   83.04
  -2  -2   4 3021.23   81.04
  -2  -2   3 2419.38   63.25
   2  -2  -3 2851.34   99.31
  -2  -2   2 1938.98   66.67
   2  -2  -2 2103.93   80.05
   2  -2  -1  389.17   53.03
  -2  -2   1  429.82   51.52
  -2  -2   1  354.21   60.36
  -2  -1   9   57.31   79.98
  -2  -1   9   78.20   78.49
  -2  -1   9   70.78   81.33
  -2  -1   8  230.20   76.68
  -2  -1   8  150.23   77.01
  -2  -1   8  176.70   74.91
  -2  -1   7   99.27   78.33
  -2  -1   7  110.71   58.87
  -2  -1   7   89.03   81.50
  -2  -1   6  158.55   94.19
  -2  -1   6  176.89   99.51
  -2  -1   6  229.45   55.77
  -2  -1   5  265.89   50.97
   2  -1  -5  231.20   52.97
  -2  -1   4  653.26   53.90
   2  -1  -4  531.09   50.93
   2  -1  -3  118.10   44.37
  -2  -1   3  130.98   44.94
   2  -1  -3  107.33   58.02
   2  -1  -2  303.54   44.79
   2  -1  -2  320.93   57.98
  -2  -1   2  318.17   49.49
  -2  -1   2  271.00   63.48
   2  -1  -1  146.91   39.51
  -2  -1   1  193.67   48.12
   2  -1  -1  161.06   54.66
  -2  -1   1  153.08   48.56
   2   0  -7  919.18   80.61
   2   0  -6  900.80   74.00
   2   0  -5  772.44   59.86
   2   0  -4 1393.59   64.64
   2   0  -3 3402.62   94.48
   2   0  -3 2802.47  130.77
   2   0  -2  673.98   39.31
   2   0  -2  832.35   69.53
   2   0  -1 1732.21   63.25
   2   0  -1 1492.14   80.77
   2   0   0  655.12   61.06
   2   0   0  659.00   50.09
   2   0   1 2416.39   79.90
   2   0   1 1846.44   60.18
   2   0   2 1500.26   71.99
   2   0   2 1435.15   52.51
   2   0   3 1324.33   81.45
   2   0   3 1097.63   61.99
   2   0   4 1012.28   60.63
   2   0   5  629.44   46.83
   2   0   6  141.03   61.54
   2   0   7  109.72   52.23
  -2   1   0  383.50   55.64
  -2   1   0  342.28   44.36
   2   1   0  411.90   48.86
   2   1   0  323.18   48.87
  -2   1  -1  116.82   43.22
  -2   1  -1  176.51   56.78
   2   1   1  106.47   46.27
   2   1   1  102.25   50.96
  -2   1  -2  803.71   59.58
   2   1   2  827.14   56.63
  -2   1  -2  665.27   44.08
   2   1   2  530.16   39.23
   2   1   3  364.18   63.15
  -2   1  -3  376.63   73.00
   2   1   3  269.14   52.05
  -2   1  -3  439.28   57.73
   2   1   4  209.98   69.86
   2   1   4  175.93   53.79
  -2   1  -4  177.91   84.88
  -2   1  -4  182.68   57.35
   2   1   5  115.91   56.72
  -2   1  -5  112.82  141.42
  -2   1  -5   67.21   60.36
   2   1   5  120.86  102.80
   2   1   6  216.94   64.29
  -2   1  -6  185.49   66.21
   2   1   7  133.46   73.10
  -2   1  -7   71.23   71.59
  -2   2   0 1475.16   53.15
   2   2   0 1976.89   67.20
   2   2   0 1816.33   65.94
  -2   2   0 1431.14   56.38
  -2   2  -1 3019.54   93.94
  -2   2  -1 2512.20   68.12
   2   2   1 2553.39   77.52
   2   2   1 2945.89   78.94
  -2   2  -2 2498.85   93.23
  -2   2  -2 1909.55   58.30
   2   2   2 2785.34   86.21
   2   2   2 1742.26   50.88
  -2   2  -3 2099.75   84.76
  -2   2  -3 1992.80   73.08
   2   2   3 2129.05   71.40
   2   2   3 2108.47   65.26
  -2   2  -4  102.38   67.94
   2   2   4  155.07   64.79
  -2   2  -4   87.19   56.84
   2   2   4  126.67   50.80
   2   2   5   71.67   76.36
  -2   2  -5   71.93   90.46
   2   2   5   34.87   55.02
  -2   2  -5   94.64   60.44
   2   2   6  246.19   64.46
  -2   2  -6  220.33   67.07
   2   2   7  272.85   70.26
  -2   2  -7  217.96   74.16
   2   3   0  513.12   39.91
   2   3   0  500.91   49.61
  -2   3   0  727.26   57.05
  -2   3   0  664.12   51.91
  -2   3  -1  342.65   48.12
   2   3   1  355.19   51.54
   2   3   1  343.69   48.04
  -2   3  -1  356.99   55.45
  -2   3  -2  331.99   50.32
  -2   3  -2  304.85   57.40
   2   3   2  371.18   51.25
   2   3   2  328.81   48.47
  -2   3  -3  410.34   52.00
  -2   3  -3  369.14   58.05
   2   3   3  358.20   51.36
   2   3   3  364.30   48.55
  -2   3  -4  281.77   52.45
  -2   3  -4  339.03   61.44
   2   3   4  329.69   65.92
   2   3   4  267.86   36.67
  -2   3  -5  248.19   71.24
   2   3   5  254.29   59.78
  -2   3  -5  137.71   64.46
   2   3   5  209.92   53.99
  -2   3  -5  180.49   92.88
   2   3   6  195.00   85.09
  -2   3  -6  131.87  125.72
   2   3   6  150.14   60.63
  -2   3  -6   60.98   67.18
  -2   3  -6  112.35  122.42
   2   3   7  116.63   67.34
  -2   3  -7   26.16   73.98
   2   4   0 1235.53   48.74
  -2   4   0 1777.02   66.07
   2   4   0 1421.40   61.43
   2   4   0 2029.08   70.10
  -2   4   0 1395.36   57.81
   2   4   1  165.09   54.56
   2   4   1  264.94   49.79
  -2   4  -1  244.29   55.40
  -2   4  -1  220.31   51.89
   2   4   2  118.13   51.19
   2   4   2  141.95   46.62
  -2   4  -2  172.22   62.44
  -2   4  -2  111.55   57.06
  -2   4  -3   72.05   58.94
   2   4   3   79.18   62.02
   2   4   3  109.79   48.87
  -2   4  -3   87.50   52.14
  -2   4  -4 1359.71   74.52
  -2   4  -4 1288.15   73.12
   2   4   4 1662.20   80.22
   2   4   4 1540.10   61.07
  -2   4  -5  866.84   76.44
  -2   4  -5  688.94   70.13
   2   4   5 1075.21   76.32
   2   4   5  961.60   59.52
  -2   4  -5  557.73   79.44
  -2   4  -6  163.45   89.42
   2   4   6  212.58   75.71
  -2   4  -6   64.95   49.44
   2   4   6  204.96   58.72
  -2   4  -6  106.66   88.44
   2   5   0  205.29   48.33
   2   5   0  188.19   55.48
  -2   5   0  204.01   52.09
   2   5   0  155.05   50.30
   2   5   1  111.86   50.93
   2   5   1  133.62   56.36
   2   5   1   78.08   49.08
  -2   5  -1   95.52   55.39
   2   5   2  180.42   57.59
   2   5   2  157.60   50.04
  -2   5  -2  155.93   58.55
   2   5   2  173.03   50.98
  -2   5  -3  189.93   62.46
   2   5   3  265.94   56.31
   2   5   3  197.98   49.79
  -2   5  -3  156.91   57.49
  -2   5  -4  105.91   66.32
   2   5   4  210.87   57.57
   2   5   4  183.24   51.88
  -2   5  -4  191.63   72.07
  -2   5  -5  126.53   58.40
  -2   5  -5   77.91   70.90
   2   5   5   77.46   60.60
   2   5   5  124.33   54.10
  -2   5  -5  104.63   70.18
  -2   5  -6   75.47   75.22
  -2   5  -6  135.16   73.74
   2   5   6   72.30   62.19
   2   5   6   89.67   61.25
  -2   5  -6   55.97   76.18
   2   6   0  841.69   49.93
  -2   6   0  855.27   61.42
   2   6   0 1336.10   65.41
   2   6   0 1532.56   65.08
   2   6   1  895.07   59.69
   2   6   1  658.84   50.07
  -2   6  -1  706.81   60.51
   2   6   1  895.63   59.36
   2   6   2  648.67   66.07
   2   6   2  631.46   58.58
   2   6   2  677.10   59.00
  -2   6  -2  503.46   46.73
   2   6   3  700.98   60.66
   2   6   3  604.37   69.28
   2   6   3  711.07   60.13
  -2   6  -3  506.25   69.89
  -2   6  -4  119.36   72.23
   2   6   4  208.02   54.71
   2   6   4  139.15   63.66
   2   6   4  125.22   56.84
  -2   6  -4  123.21   68.37
  -2   6  -4   62.92   63.45
  -2   6  -5  105.16   75.78
   2   6   5   54.87   77.90
   2   6   5   68.41   58.22
  -2   6  -5  -18.37   73.11
   2   6   5   42.90   58.61
  -2   6  -5   16.63   78.30
   2   7   0  160.63   53.60
   2   7   0  181.68   65.11
  -2   7   0   78.16   56.75
   2   7   0  151.33   57.70
   2   7   1   44.36   40.62
   2   7   1   68.24   68.29
  -2   7  -1   37.88   58.94
   2   7   1   56.36   57.62
   2   7   2  176.39   50.62
   2   7   2  226.72   60.07
   2   7   2  168.42   42.44
  -2   7  -2  133.88   47.84
   2   7   3   95.64   43.78
   2   7   3  158.99   70.34
  -2   7  -3   67.29   69.51
   2   7   3   95.50   43.46
  -2   7  -3  101.12   72.00
  -2   7  -4   16.84   77.50
   2   7   4    5.42   64.00
   2   7   4   42.41   49.71
   2   7   4   37.08   63.26
  -2   7  -4    1.23   73.73
   2   8   0  276.97   74.40
   2   8   0  227.91   60.00
  -2   8   0  258.99   61.81
   2   8   0  223.03   63.14
   2   8   1  160.02   44.42
   2   8   1  189.65   76.48
  -2   8  -1  181.02   64.98
   2   8   1  172.12   63.70
   2   8   2  150.48   67.79
   2   8   2   81.24   76.37
  -2   8  -2  105.43   77.68
   2   8   2   57.31   65.34
  -2   8  -2   54.86   70.99
   3  -8  -2   56.35   49.47
   3  -8  -1   71.68   70.30
  -3  -7   5   31.50   51.94
   3  -7  -5   -4.51   67.35
   3  -7  -4   64.58   63.72
  -3  -7   4   48.51   71.22
   3  -7  -3   14.99   63.42
  -3  -7   3    1.49   65.65
   3  -7  -2  -43.79   63.04
  -3  -7   2   45.09   64.03
   3  -7  -1   21.59   62.74
  -3  -7   1   97.35   67.49
  -3  -6   6  271.45   51.86
   3  -6  -5   96.87   62.71
  -3  -6   5  135.92   65.80
   3  -6  -4  100.89   60.60
  -3  -6   4   92.30   44.34
  -3  -6   3  139.31   60.56
   3  -6  -3   36.24   59.85
   3  -6  -2  418.18   68.67
  -3  -6   2  733.58   63.24
   3  -6  -1  568.07   68.16
  -3  -6   1  516.59   47.74
  -3  -5   7   82.94   70.85
  -3  -5   6  123.43   66.80
   3  -5  -5   86.09   59.75
  -3  -5   5  162.93   45.31
   3  -5  -4  107.36   56.10
  -3  -5   4   32.73   58.06
   3  -5  -3    2.05   57.85
  -3  -5   3   61.19   39.17
   3  -5  -2   28.83   57.18
  -3  -5   2   26.89   54.98
  -3  -5   1   48.77   55.28
   3  -5  -1   29.18   40.00
  -3  -4   8   69.89   71.61
  -3  -4   7   43.06   65.47
  -3  -4   6  823.82   68.13
  -3  -4   5 1202.69   68.40
   3  -4  -5  744.83   69.45
  -3  -4   4  752.79   62.82
   3  -4  -4  579.76   62.50
   3  -4  -3  946.01   67.39
  -3  -4   3 1003.08   61.67
  -3  -4   2  563.98   42.07
   3  -4  -2  609.95   62.56
   3  -4  -1  612.96   63.63
  -3  -4   1  640.37   57.00
  -3  -3   8  158.79   69.82
  -3  -3   7  191.85   65.77
  -3  -3   6  416.79   59.44
   3  -3  -5  367.52   58.96
  -3  -3   5  437.65   61.36
  -3  -3   4  130.03   52.44
   3  -3  -4  151.03   56.20
   3  -3  -3  353.90   57.66
  -3  -3   3  412.15   53.10
  -3  -3   2  274.47   53.29
   3  -3  -2  277.56   57.31
   3  -3  -1  385.57   59.45
  -3  -3   1  462.10   55.28
  -3  -3   1  479.64   52.94
  -3  -2   9  229.92   90.08
  -3  -2   8  366.02   85.58
  -3  -2   7  880.37   70.41
  -3  -2   6  388.95   56.86
  -3  -2   5  259.14   53.61
  -3  -2   4  415.68   37.97
   3  -2  -4  456.35   69.62
   3  -2  -4  423.87   36.96
  -3  -2   3  945.84   53.91
   3  -2  -3  808.75   75.85
   3  -2  -3  676.66   39.25
   3  -2  -2 1288.06   74.37
  -3  -2   2 1691.21   62.20
  -3  -2   2 1272.96   68.54
   3  -2  -2 1527.43   58.42
  -3  -2   1 1482.50   62.65
   3  -2  -1 1380.85   72.84
  -3  -2   1 1458.74   76.68
   3  -2  -1 1252.83   55.98
  -3  -1   9  145.65   86.92
  -3  -1   8  178.75   66.24
  -3  -1   7  259.72   60.00
  -3  -1   6  143.06   53.24
   3  -1  -6  179.04   58.54
   3  -1  -5   59.90   53.11
  -3  -1   5   96.18   49.26
   3  -1  -4  113.94   48.41
  -3  -1   4  144.65   46.03
   3  -1  -4  100.77   64.87
   3  -1  -3  100.22   47.12
  -3  -1   3   75.61   32.73
  -3  -1   3  101.55   74.45
   3  -1  -3  106.53   57.64
   3  -1  -2    6.39   44.84
  -3  -1   2   -6.32   34.55
   3  -1  -2   16.07   55.37
  -3  -1   2   12.68   47.44
   3  -1  -1    6.34   41.21
  -3  -1   1   56.69   48.87
  -3  -1   1   32.67   55.10
   3  -1  -1   15.00   58.46
   3   0  -8  215.03   69.47
   3   0  -7   45.20   60.89
   3   0  -6  160.35   54.74
   3   0  -5 1454.04   66.17
   3   0  -4 1712.48   64.44
   3   0  -4 1543.00  115.86
   3   0  -3 2113.14   60.37
   3   0  -3 2440.70  121.83
   3   0  -2  591.03   47.93
   3   0  -2  681.86   79.33
   3   0  -1  574.49   46.32
   3   0  -1  633.52   61.61
   3   0   0 2473.88   84.31
   3   0   0 2243.88   69.58
   3   0   1 1586.39   68.04
   3   0   1 1408.27   61.81
   3   0   2 1197.20   72.62
   3   0   2 1020.71   61.10
   3   0   3  199.78   54.20
   3   0   3  129.38   57.43
   3   0   4   74.18   60.40
   3   0   5  309.45   67.10
   3   0   6  186.06   74.65
   3   1   0   87.76   56.28
   3   1   0   85.53   49.62
  -3   1   0   96.63   48.00
  -3   1   0   86.50   54.47
   3   1   1  140.97   48.34
   3   1   1  125.55   53.73
  -3   1  -1  128.18   36.26
  -3   1  -1  173.58   53.71
   3   1   2   83.53   48.58
   3   1   2  108.62   53.92
  -3   1  -2  148.72   55.40
  -3   1  -2   99.16   52.39
   3   1   3   92.17   62.76
   3   1   3   54.25   55.07
  -3   1  -3  123.11   72.58
  -3   1  -3   82.56   56.06
   3   1   4  156.17   55.35
   3   1   4  212.40   59.76
  -3   1  -4  195.70   66.12
  -3   1  -4  181.36   60.21
   3   1   5   93.64   45.72
  -3   1  -5  100.61  100.22
  -3   1  -5  124.26   66.28
   3   1   5  133.77   83.79
   3   1   6  239.87   75.32
  -3   1  -6   63.14   74.37
  -3   2   0  470.02   42.92
  -3   2   0  578.36   51.46
   3   2   0  533.22   40.15
   3   2   0  534.83   54.90
  -3   2  -1  429.42   49.88
  -3   2  -1  373.97   54.38
   3   2   1  409.62   51.78
   3   2   1  437.95   54.49
  -3   2  -2  347.93   54.69
   3   2   2  333.66   53.44
  -3   2  -2  263.42   57.29
   3   2   2  339.90   53.56
   3   2   3  427.87   57.75
  -3   2  -3  463.84   60.59
   3   2   3  480.56   56.41
  -3   2  -3  332.06   56.93
   3   2   4  845.96   76.79
   3   2   4  843.63   62.83
  -3   2  -4  814.83   83.98
  -3   2  -4  531.52   46.73
   3   2   5  285.00   73.87
   3   2   5  259.81   45.10
  -3   2  -5  236.78   87.52
  -3   2  -5  237.44   67.10
   3   2   6  161.55   73.00
  -3   2  -6  108.35   74.54
  -3   3   0  573.05   59.28
  -3   3   0  408.75   49.15
   3   3   0  539.85   54.02
   3   3   0  371.86   51.65
  -3   3  -1  157.21   57.28
  -3   3  -1  141.86   49.42
   3   3   1  158.89   52.61
   3   3   1  156.00   51.43
  -3   3  -2  588.47   56.02
  -3   3  -2  502.66   60.65
   3   3   2  858.53   58.16
   3   3   2  766.93   56.03
  -3   3  -3  318.36   67.64
   3   3   3  317.78   57.19
  -3   3  -3  177.54   60.13
   3   3   3  299.55   55.12
  -3   3  -4  134.20   72.12
   3   3   4  126.45   56.54
   3   3   4  144.66   57.19
  -3   3  -4   59.46   43.60
   3   3   5  197.83   72.13
  -3   3  -5  187.16   84.52
   3   3   5  192.98   61.49
  -3   3  -5  146.50   67.23
  -3   4   0 1500.25   71.33
   3   4   0 1214.58   61.97
   3   4   0  963.12   59.17
  -3   4   0  940.52   50.25
  -3   4  -1  769.92   60.86
  -3   4  -1  763.49   56.61
   3   4   1  948.60   58.91
   3   4   1  492.78   41.52
  -3   4  -2  979.45   63.97
  -3   4  -2  853.29   65.48
   3   4   2  943.34   61.03
   3   4   2  630.61   41.64
  -3   4  -3  483.15   58.36
  -3   4  -3  399.33   46.39
   3   4   3  602.97   59.20
   3   4   3  372.67   41.26
  -3   4  -4    8.79   54.68
  -3   4  -4   32.11   65.90
   3   4   4   72.98   58.37
   3   4   4   63.88   54.70
  -3   4  -5   38.91   79.85
   3   4   5   48.79   75.72
  -3   4  -5   79.58   69.70
   3   4   5  120.39   65.20
  -3   5   0   91.25   53.08
   3   5   0   69.36   52.16
   3   5   0   39.98   39.50
   3   5   0   51.81   53.17
  -3   5   0   27.19   55.46
  -3   5  -1   48.48   54.13
   3   5   1   84.56   55.21
   3   5   1   39.55   53.23
  -3   5  -1  117.76   59.56
   3   5   1   50.61   37.33
  -3   5  -2  154.26   54.83
  -3   5  -2  193.21   62.24
   3   5   2  213.22   56.95
   3   5   2  199.59   53.52
  -3   5  -3  161.01   57.06
  -3   5  -3  126.50   64.84
   3   5   3  115.78   58.21
   3   5   3  105.86   56.94
  -3   5  -4   72.66   58.05
  -3   5  -4   75.48   70.47
   3   5   4   64.94   58.67
   3   5   4   26.00   59.02
   3   6   0  161.71   57.09
   3   6   0  115.81   42.41
   3   6   0  143.04   58.55
  -3   6   0  153.51   63.08
  -3   6   0  144.98   57.45
  -3   6  -1   91.57   40.50
   3   6   1  110.04   61.91
   3   6   1   67.45   57.64
   3   6   1  142.98   57.70
  -3   6  -1   99.77   63.56
  -3   6  -2  206.26   61.45
  -3   6  -2  159.06   66.13
   3   6   2  228.50   58.65
   3   6   2  240.43   62.06
   3   6   2  223.53   57.98
  -3   6  -3  327.10   63.62
  -3   6  -3  193.98   72.53
   3   6   3  308.73   61.45
   3   6   3  334.84   63.23
   3   6   3  247.06   45.25
   3   7   0   39.50   66.85
   3   7   0   30.90   62.50
  -3   7   0   21.24   64.29
   3   7   0  -10.45   59.73
  -3   7   0   74.87   65.75
   3   7   1   51.99   48.72
   3   7   1   28.10   44.34
   3   7   1   27.98   63.22
  -3   7  -1  -34.15   66.51
  -3   7  -1   10.00   66.40
  -3   7  -2   -6.94   50.71
   3   7   2    4.21   64.70
   3   7   2  -18.35   47.45
   3   7   2  -10.29   46.01
  -3   7  -2  -11.70   68.17
  -4  -6   5  264.87   53.39
   4  -6  -5  203.73   71.73
  -4  -6   4  264.20   70.38
   4  -6  -4  189.54   69.34
   4  -6  -3  109.05   67.92
  -4  -6   3  209.93   66.02
   4  -6  -2    4.38   68.85
  -4  -6   2   67.21   65.05
  -4  -6   1  140.33   68.90
   4  -6  -1  195.25   71.51
  -4  -5   6   55.14   68.15
  -4  -5   5   32.47   65.63
   4  -5  -5   36.30   65.69
  -4  -5   4   32.60   46.52
   4  -5  -4   36.68   62.96
   4  -5  -3   15.72   64.57
  -4  -5   3   42.65   43.27
  -4  -5   2  140.10   62.48
   4  -5  -2   75.29   62.85
  -4  -5   1   13.38   65.06
   4  -5  -1   73.67   68.58
  -4  -4   7  323.91   73.78
  -4  -4   6  295.76   67.06
   4  -4  -5  163.53   65.34
  -4  -4   5  215.98   63.15
   4  -4  -4  207.90   65.40
  -4  -4   4  325.19   44.90
  -4  -4   3  540.55   44.71
   4  -4  -3  349.90   66.76
  -4  -4   2  890.56   64.56
   4  -4  -2  510.41   53.47
   4  -4  -1  336.25   67.63
  -4  -4   1  412.51   65.69
  -4  -3   8   66.49   73.97
  -4  -3   7   96.99   67.47
  -4  -3   6   71.61   60.69
   4  -3  -5   79.49   63.87
  -4  -3   5  223.44   59.50
   4  -3  -4  -16.60   59.97
  -4  -3   4  -44.16   53.97
  -4  -3   3  209.01   54.02
   4  -3  -3   93.01   59.47
   4  -3  -2  114.59   62.48
  -4  -3   2  100.52   55.75
  -4  -3   2  103.24   55.46
   4  -3  -1   73.75   63.64
  -4  -3   1  121.97   60.67
  -4  -3   1  128.03   53.32
  -4  -2   8  111.11   72.12
  -4  -2   7  141.92   61.86
  -4  -2   6  398.22   43.07
   4  -2  -5  358.91   82.48
  -4  -2   5  484.72   54.87
   4  -2  -5  501.74   60.32
   4  -2  -4  703.40   85.25
  -4  -2   4  659.38   40.38
   4  -2  -4  754.16   57.02
  -4  -2   3  507.21   52.96
  -4  -2   3  499.84   73.22
   4  -2  -3  462.84   53.15
   4  -2  -3  441.97   65.23
   4  -2  -2  164.01   62.02
  -4  -2   2  193.65   52.44
  -4  -2   2  141.14   54.14
   4  -2  -2  108.61   48.58
  -4  -2   1  879.06   64.53
   4  -2  -1  458.38   69.08
  -4  -2   1  704.91   58.10
   4  -2  -1  499.98   40.85
  -4  -1   8   88.01   65.47
  -4  -1   7  230.46   59.41
   4  -1  -7  207.25   66.79
  -4  -1   6  151.27   52.56
   4  -1  -6  124.95   60.17
   4  -1  -5  108.85   38.50
  -4  -1   5  101.54   33.82
   4  -1  -5   64.91   90.00
   4  -1  -4  120.36   35.97
  -4  -1   4  169.05   46.37
   4  -1  -4  122.55   75.88
  -4  -1   4  126.21   82.48
   4  -1  -3  125.28   47.91
   4  -1  -3  116.97   72.41
  -4  -1   3   87.29   33.34
  -4  -1   3  108.42   54.50
   4  -1  -2   69.16   47.00
  -4  -1   2   24.45   46.41
   4  -1  -2   54.87   74.46
  -4  -1   2   65.54   48.52
   4  -1  -1  214.86   48.71
  -4  -1   1  198.93   52.98
  -4  -1   1  159.58   47.35
   4  -1  -1  164.98   63.15
   4   0  -8  257.11   74.89
   4   0  -7  331.77   64.72
   4   0  -6  141.58   56.58
   4   0  -5  173.25   50.16
   4   0  -4  407.64   49.98
   4   0  -4  335.34   90.10
   4   0  -3  604.18   50.22
   4   0  -3  478.84   78.10
   4   0  -2 1214.04   55.93
   4   0  -2 1193.09   80.44
   4   0  -1  665.34   51.28
   4   0  -1  478.20   65.71
   4   0   0  383.01   51.52
   4   0   0  260.01   44.92
   4   0   1  174.72   52.30
   4   0   1  187.46   60.50
   4   0   2  149.01   56.15
   4   0   2  153.57   62.56
   4   0   3  151.48   47.97
   4   0   3  323.60   75.84
   4   0   4  223.91   72.59
   4   1   0   96.92   43.34
   4   1   0  139.86   49.79
  -4   1   0  153.99   53.46
  -4   1   0  145.27   53.61
   4   1   1  105.27   59.54
   4   1   1   86.24   50.19
  -4   1  -1  123.74   56.88
  -4   1  -1   96.80   55.83
   4   1   2   87.63   53.29
   4   1   2  130.42   63.89
  -4   1  -2  108.76   60.43
  -4   1  -2   55.53   61.58
   4   1   3  124.77   57.16
   4   1   3  119.60   65.43
  -4   1  -3  155.09   64.61
  -4   1  -3  122.75   62.06
   4   1   4   85.49   79.38
   4   1   4   87.41   69.37
  -4   1  -4   53.38   89.44
  -4   1  -4   87.80   66.79
   4   2   0 1029.33   67.77
   4   2   0  984.16   45.98
  -4   2   0 1124.98   64.74
  -4   2   0  829.40   64.77
   4   2   1  519.00   55.50
   4   2   1  475.01   63.93
  -4   2  -1  508.08   61.03
  -4   2  -1  452.96   60.79
   4   2   2  343.74   57.23
   4   2   2  227.89   47.06
  -4   2  -2  309.64   62.61
  -4   2  -2  286.52   61.29
   4   2   3   91.38   55.80
   4   2   3   80.28   66.29
  -4   2  -3   97.72   64.83
  -4   2  -3   86.07   62.21
   4   2   4  157.97   74.84
   4   2   4  210.86   71.31
  -4   2  -4  140.85   71.41
  -4   2  -4   92.93   65.60
  -4   3   0   10.71   37.16
  -4   3   0   40.22   59.15
   4   3   0   54.60   53.68
   4   3   0   29.33   59.87
  -4   3  -1  168.55   56.54
   4   3   1  143.03   55.16
  -4   3  -1  120.74   62.04
   4   3   1  154.62   61.10
   4   3   2   63.01   55.77
  -4   3  -2   71.63   58.90
   4   3   2  -21.39   42.28
  -4   3  -2   97.47   61.12
   4   3   3    7.63   58.01
  -4   3  -3  100.57   63.31
   4   3   3   38.01   47.03
  -4   3  -3   82.83   64.11
   4   3   4   85.09   73.01
   4   3   4   78.16   69.99
  -4   3  -4   43.07   70.25
  -4   3  -4   18.78   46.24
  -4   4   0  291.34   66.91
  -4   4   0  201.67   38.51
   4   4   0  246.00   59.00
   4   4   0  238.26   61.64
  -4   4  -1  250.51   59.06
  -4   4  -1  288.48   64.87
   4   4   1  278.48   59.94
   4   4   1  280.02   60.76
  -4   4  -2  410.29   62.73
  -4   4  -2  265.07   46.19
   4   4   2  334.85   61.01
   4   4   2  526.88   66.00
  -4   4  -3  210.77   67.60
   4   4   3  337.19   64.55
  -4   4  -3  264.54   50.04
   4   4   3  373.56   67.88
  -4   5   0   99.67   65.92
   4   5   0   38.40   59.43
  -4   5   0   49.96   54.34
   4   5   0  103.86   60.36
   4   5   0   52.14   61.76
  -4   5  -1   68.82   57.36
  -4   5  -1  -32.15   68.05
   4   5   1  100.19   60.61
   4   5   1   89.60   61.70
  -4   5  -2   62.40   61.14
  -4   5  -2   92.31   68.73
   4   5   2   74.35   62.55
   4   5   2   56.65   64.91
  -4   6   0  247.84   52.47
  -4   6   0  441.52   63.42
   4   6   0  276.40   48.47
   4   6   0  329.05   68.51
   4   6   0  472.20   69.44
  -4   6  -1  256.98   74.65
  -4   6  -1  276.65   64.31
   4   6   1  376.41   68.86
   4   6   1  365.99   67.39
   4   6   1  319.43   66.47
  -5  -4   5  170.45   66.67
   5  -4  -5   92.65   71.73
   5  -4  -4  142.67   68.00
  -5  -4   4   81.41   65.07
  -5  -4   3  165.32   66.97
   5  -4  -3  107.76   71.49
  -5  -4   2  139.54   50.61
   5  -4  -2   84.87   74.60
   5  -4  -1   90.77   76.66
  -5  -4   1  245.63   77.36
  -5  -4   1  231.26   78.31
  -5  -3   6    4.59   62.86
   5  -3  -6    3.01   96.78
  -5  -3   5   52.50   60.67
   5  -3  -5   80.23   85.07
  -5  -3   4   48.35   59.04
   5  -3  -4    7.66   64.93
  -5  -3   3   88.07   61.19
   5  -3  -3   92.04   83.64
   5  -3  -2  120.86   72.24
  -5  -3   2  116.73   65.19
  -5  -3   2   60.23   76.26
   5  -3  -1   41.71   72.27
  -5  -3   1   23.20   67.96
  -5  -3   1  -27.89   59.43
   5  -2  -6   26.36   99.15
  -5  -2   6   99.59   60.67
  -5  -2   5  250.57   39.55
   5  -2  -5  185.52   87.20
   5  -2  -5  217.18   63.90
  -5  -2   4  274.30   54.93
   5  -2  -4  221.78   81.44
   5  -2  -4  128.94   42.77
   5  -2  -3  225.73   69.01
  -5  -2   3  355.43   58.55
  -5  -2   3  354.30   80.97
   5  -2  -3  185.51   42.72
   5  -2  -2  212.68   71.67
  -5  -2   2  359.22   63.94
  -5  -2   2  332.06   62.19
   5  -2  -2  304.76   60.65
  -5  -2   1  224.49   65.94
   5  -2  -1  167.45   72.28
  -5  -2   1  171.33   57.78
  -5  -1   7  120.90   64.13
   5  -1  -7   80.03   70.82
  -5  -1   6   23.98   57.30
   5  -1  -6   45.17   64.84
   5  -1  -5   37.28   44.00
   5  -1  -5   77.11   86.48
  -5  -1   5  109.51   53.78
   5  -1  -4   36.33   54.72
  -5  -1   4   57.73   50.76
  -5  -1   4   40.05   94.07
   5  -1  -4   49.92   63.29
   5  -1  -3   33.31   39.29
   5  -1  -3   40.50   65.29
  -5  -1   3   64.80   52.15
  -5  -1   3   23.42   59.82
   5  -1  -2   42.51   55.24
  -5  -1   2   88.63   56.05
   5  -1  -2   11.90   67.11
  -5  -1   2   13.20   55.25
   5  -1  -1   61.34   41.05
  -5  -1   1  113.47   59.18
   5  -1  -1   36.68   70.02
  -5  -1   1   31.40   54.23
   5   0  -7  201.00   69.52
   5   0  -6  438.50   64.25
   5   0  -5  179.53   57.54
   5   0  -5  184.24  125.08
   5   0  -4  187.36   79.57
   5   0  -4  253.30   53.35
   5   0  -3  109.11   51.60
   5   0  -3   87.07   67.03
   5   0  -2  202.90   53.45
   5   0  -2   75.21   71.11
   5   0  -1  318.63   40.90
   5   0  -1  280.83   69.64
   5   0   0  346.47   59.41
   5   0   0  266.52   69.53
   5   0   1  282.72   64.25
   5   0   1  259.45   70.90
   5   0   2  162.03   71.56
   5   0   2  146.92   68.11
   5   1   0   78.00   56.06
  -5   1   0   49.78   61.58
  -5   1   0   90.55   58.81
   5   1   0   93.78   68.87
   5   1   1   67.18   59.95
  -5   1  -1   83.47   65.54
  -5   1  -1   29.05   63.10
   5   1   1  112.08   71.55
   5   1   2   55.77   63.88
  -5   1  -2   50.61   68.48
  -5   1  -2   43.53   66.30
   5   1   2   11.33   74.62
   5   2   0  134.90   71.80
   5   2   0  197.75   58.25
  -5   2   0  258.91   65.33
  -5   2   0  181.30   65.09
   5   2   1  113.76   73.02
   5   2   1  199.27   59.36
  -5   2  -1  161.63   67.28
  -5   2  -1  101.73   65.59
   5   3   0   73.82   73.17
   5   3   0   28.81   58.96
  -5   3   0  103.83   66.15
  -5   3   0   49.41   68.20
   5   3   1   92.87   74.38
   5   3   1   12.94   60.33
  -5   3  -1   84.09   67.00
  -5   3  -1   23.34   46.36
   5   4   0  130.23   66.09
  -5   4   0  166.40   67.17
   5   4   0  177.12   76.62
  -5   4   0  118.57   71.92
;
_shelx_hkl_checksum              66462
_shelx_res_file
;
TITL CUGLYIII-5 IPDS2  -100DEGC (CRYSTAL 5 HEATED TO 162DEGC)
CELL  0.71073  4.81310  7.78700  7.92620 90.00000 107.72900 90.00000
ZERR 2  0.00080  0.00100  0.00110  0.00000  0.01200  0.00000
LATT -1
SYMM -X, Y+ 0.50000, -Z
SFAC C H N O S CU
UNIT 4 10 2 12 2 2
TEMP -100
PLAN 10
FMAP 2
L.S. 9
BOND $H
HTAB
EQIV $1 -X+1, Y-1/2, -Z+2
HTAB N1 O1_$1
EQIV $2 X, Y, Z+1
HTAB N1 O12_$2
EQIV $3 X+1, Y, Z+1
HTAB N1 O12_$3
HTAB N1 O13_$3
EQIV $4 -X+1, Y-1/2, -Z+1
HTAB N1 O11_$4
HTAB N1 O12_$4
EQIV $5 X+1, Y, Z
HTAB C2 O1_$5
EQIV $6 -X+1, Y+1/2, -Z+1
HTAB C2 O13_$6
CONF
ACTA
TWIN -1 0 0 0 -1 0 1 0 1 -4
WGHT    0.067000
BASF   0.20187   0.30116   0.19949
FVAR       1.06988
CU1   6   -0.004369    0.784078    0.485491    11.00000    0.02960    0.02125 =
         0.02120    0.00407    0.00840    0.00427
S1    5    0.373901    0.527779    0.323973    11.00000    0.03260    0.01870 =
         0.02096    0.00361    0.00852    0.00129
O1    4    0.256073    0.679507    0.699050    11.00000    0.02699    0.03031 =
         0.02879   -0.00415   -0.00823    0.02307
O2    4    0.274167    0.388474    0.727495    11.00000    0.04796    0.02283 =
         0.03205   -0.00277    0.01088    0.01450
O11   4    0.198596    0.693239    0.328578    11.00000    0.04656    0.02402 =
         0.02501   -0.00037    0.01645    0.00762
O14   4    0.659522    0.533164    0.449813    11.00000    0.03038    0.02788 =
         0.02562    0.00171    0.00640   -0.00805
O12   4    0.376888    0.515931    0.141070    11.00000    0.04992    0.02833 =
         0.01668   -0.00611    0.01884   -0.00339
O13   4    0.208022    0.379271    0.358396    11.00000    0.03366    0.02688 =
         0.03888    0.00439    0.01660   -0.00555
N1    3    0.778674    0.395793    0.980258    11.00000    0.05014    0.01927 =
         0.03498   -0.00271    0.01227   -0.00441
AFIX 137
H1N   2    0.647791    0.363620    1.036375    11.00000   -1.50000
H2N   2    0.956576    0.411748    1.061604    11.00000   -1.50000
H3N   2    0.791555    0.312284    0.902672    11.00000   -1.50000
AFIX   0
C1    1    0.384676    0.535143    0.762364    11.00000    0.03525    0.02164 =
         0.01529    0.00117    0.01273    0.01563
C2    1    0.681574    0.557456    0.883192    11.00000    0.03318    0.01447 =
         0.02987    0.00972    0.00648    0.00199
AFIX  23
H2A   2    0.815542    0.588705    0.814939    11.00000   -1.20000
H2B   2    0.684291    0.651274    0.967973    11.00000   -1.20000
AFIX   0
HKLF 4
REM  CUGLYIII-5 IPDS2  -100DEGC (CRYSTAL 5 HEATED TO 162DEGC)
REM R1 =  0.0559 for     862 Fo > 4sig(Fo)  and  0.0693 for all    1065 data
REM    104 parameters refined using      1 restraints
END
WGHT      0.0670      0.0000
REM Instructions for potential hydrogen bonds
HTAB N1 O1_$1
HTAB N1 O12_$2
HTAB N1 S1_$3
HTAB N1 O12_$3
HTAB N1 O13_$3
HTAB N1 S1_$4
HTAB N1 O11_$4
HTAB N1 O12_$4
HTAB C2 O1_$5
HTAB C2 O13_$6
REM Highest difference peak  0.820,  deepest hole -0.712,  1-sigma level  0.172
Q1    1   0.2243  0.5333  0.4521  11.00000  0.05    0.82
Q2    1  -0.0112  0.3668  0.6723  11.00000  0.05    0.81
Q3    1  -0.0191  0.6865  0.6625  11.00000  0.05    0.76
Q4    1   0.6339  0.6979  0.3432  11.00000  0.05    0.70
Q5    1   0.1953  0.8552  0.5736  11.00000  0.05    0.66
Q6    1  -0.1863  0.7135  0.4058  11.00000  0.05    0.64
Q7    1   0.2231  0.5287  0.5410  11.00000  0.05    0.61
Q8    1   0.2123  0.2895  0.4414  11.00000  0.05    0.59
Q9    1  -0.1906  0.7954  0.4436  11.00000  0.05    0.56
Q10   1  -0.0870  0.8115  0.4587  11.00000  0.05    0.55
;
_shelx_res_checksum              79007
_shelxl_version_number           2014/6
#END Tags that were not found in dictionaries
loop_
_space_group_symop_operation_xyz
'x, y, z'
'-x, y+1/2, -z'
loop_
_atom_site_type_symbol
_atom_site_label
_atom_site_fract_x
_atom_site_fract_y
_atom_site_fract_z
_atom_site_U_iso_or_equiv
_atom_site_adp_type
_atom_site_calc_flag
_atom_site_occupancy
Cu Cu1 -0.0044(16) 0.7841(9) 0.4855(3) 0.0239(6) Uani d 1
S S1 0.3739(11) 0.5278(11) 0.3240(6) 0.0240(12) Uani d 1
O O1 0.256(5) 0.680(3) 0.699(3) 0.032(5) Uani d 1
O O2 0.274(5) 0.388(3) 0.727(3) 0.035(6) Uani d 1
O O11 0.199(6) 0.693(3) 0.329(3) 0.031(5) Uani d 1
O O14 0.660(3) 0.533(3) 0.4498(16) 0.028(3) Uani d 1
O O12 0.377(4) 0.516(4) 0.1411(19) 0.030(5) Uani d 1
O O13 0.208(5) 0.379(3) 0.358(3) 0.032(5) Uani d 1
N N1 0.779(6) 0.396(2) 0.980(3) 0.035(5) Uani d 1
H H1N 0.6478 0.3636 1.0364 0.052 Uiso calc 1
H H2N 0.9566 0.4117 1.0616 0.052 Uiso calc 1
H H3N 0.7916 0.3123 0.9027 0.052 Uiso calc 1
C C1 0.385(4) 0.535(5) 0.762(2) 0.023(4) Uani d 1
C C2 0.682(7) 0.557(4) 0.883(3) 0.027(6) Uani d 1
H H2A 0.8155 0.5887 0.8149 0.032 Uiso calc 1
H H2B 0.6843 0.6513 0.9680 0.032 Uiso calc 1
loop_
_atom_site_aniso_label
_atom_site_aniso_U_11
_atom_site_aniso_U_22
_atom_site_aniso_U_33
_atom_site_aniso_U_12
_atom_site_aniso_U_13
_atom_site_aniso_U_23
Cu1 0.0296(14) 0.0212(8) 0.0212(11) 0.0043(13) 0.008(2) 0.0041(16)
S1 0.033(3) 0.0187(19) 0.021(2) 0.001(6) 0.009(2) 0.004(2)
O1 0.027(12) 0.030(12) 0.029(10) 0.023(9) -0.008(9) -0.004(9)
O2 0.048(14) 0.023(12) 0.032(11) 0.015(11) 0.011(9) -0.003(9)
O11 0.047(14) 0.024(11) 0.025(9) 0.008(11) 0.016(9) 0.000(8)
O14 0.030(6) 0.028(7) 0.026(9) -0.008(13) 0.006(6) 0.002(13)
O12 0.050(10) 0.028(12) 0.017(6) -0.003(12) 0.019(7) -0.006(8)
O13 0.034(13) 0.027(10) 0.039(11) -0.006(11) 0.017(10) 0.004(9)
N1 0.050(15) 0.019(8) 0.035(10) -0.004(12) 0.012(12) -0.003(7)
C1 0.035(11) 0.022(10) 0.015(9) 0.016(18) 0.013(8) 0.001(12)
C2 0.033(12) 0.014(16) 0.030(10) 0.002(16) 0.006(14) 0.010(10)
loop_
_atom_type_symbol
_atom_type_description
_atom_type_scat_dispersion_real
_atom_type_scat_dispersion_imag
_atom_type_scat_source
C C 0.0033 0.0016 'International Tables Vol C Tables 4.2.6.8 and 6.1.1.4'
H H 0.0000 0.0000 'International Tables Vol C Tables 4.2.6.8 and 6.1.1.4'
N N 0.0061 0.0033 'International Tables Vol C Tables 4.2.6.8 and 6.1.1.4'
O O 0.0106 0.0060 'International Tables Vol C Tables 4.2.6.8 and 6.1.1.4'
S S 0.1246 0.1234 'International Tables Vol C Tables 4.2.6.8 and 6.1.1.4'
Cu Cu 0.3201 1.2651 'International Tables Vol C Tables 4.2.6.8 and 6.1.1.4'
loop_
_geom_angle_atom_site_label_1
_geom_angle_atom_site_label_2
_geom_angle_atom_site_label_3
_geom_angle_site_symmetry_1
_geom_angle_site_symmetry_3
_geom_angle
O11 Cu1 O13 . 2_556 179.0(14)
O11 Cu1 O1 . . 95.1(10)
O13 Cu1 O1 2_556 . 85.5(10)
O11 Cu1 O2 . 2_556 86.0(10)
O13 Cu1 O2 2_556 2_556 93.4(10)
O1 Cu1 O2 . 2_556 178.7(13)
O14 S1 O12 . . 113.4(9)
O14 S1 O13 . . 110.6(13)
O12 S1 O13 . . 107.7(14)
O14 S1 O11 . . 112.0(15)
O12 S1 O11 . . 104.3(13)
O13 S1 O11 . . 108.6(8)
C1 O1 Cu1 . . 142.7(17)
C1 O2 Cu1 . 2_546 133.7(16)
S1 O11 Cu1 . . 134.9(13)
S1 O13 Cu1 . 2_546 145.3(16)
C2 N1 H1N . . 109.5
C2 N1 H2N . . 109.5
H1N N1 H2N . . 109.5
C2 N1 H3N . . 109.5
H1N N1 H3N . . 109.5
H2N N1 H3N . . 109.5
O2 C1 O1 . . 125.4(18)
O2 C1 C2 . . 121(3)
O1 C1 C2 . . 114(3)
N1 C2 C1 . . 109(3)
N1 C2 H2A . . 109.8
C1 C2 H2A . . 109.8
N1 C2 H2B . . 109.8
C1 C2 H2B . . 109.9
H2A C2 H2B . . 108.3
loop_
_geom_bond_atom_site_label_1
_geom_bond_atom_site_label_2
_geom_bond_site_symmetry_2
_geom_bond_distance
_geom_bond_publ_flag
Cu1 O1 . 1.95(2) y
Cu1 O2 2_556 1.97(2) y
Cu1 O11 . 1.93(2) y
Cu1 O13 2_556 1.94(2) y
Cu1 O14 1_455 2.50(2) y
Cu1 O14 2_656 2.50(2) y
O2 Cu1 2_546 1.97(2) ?
O13 Cu1 2_546 1.94(2) ?
S1 O14 . 1.432(13) ?
S1 O12 . 1.457(15) ?
S1 O13 . 1.48(2) ?
S1 O11 . 1.55(2) ?
O1 C1 . 1.31(4) ?
O2 C1 . 1.25(4) ?
N1 C2 . 1.48(3) ?
N1 H1N . 0.9100 ?
N1 H2N . 0.9100 ?
N1 H3N . 0.9100 ?
C1 C2 . 1.47(3) ?
C2 H2A . 0.9900 ?
C2 H2B . 0.9900 ?
loop_
_geom_hbond_atom_site_label_D
_geom_hbond_atom_site_label_H
_geom_hbond_atom_site_label_A
_geom_hbond_site_symmetry_A
_geom_hbond_distance_DH
_geom_hbond_distance_HA
_geom_hbond_distance_DA
_geom_hbond_angle_DHA
N1 H1N O1 2_647 0.91 2.47 3.10(3) 127
N1 H1N O12 1_556 0.91 2.11 2.78(3) 130
N1 H2N O12 1_656 0.91 2.09 2.92(3) 152
N1 H2N O13 1_656 0.91 2.31 3.08(3) 143
N1 H3N O11 2_646 0.91 2.07 2.94(3) 161
N1 H3N O12 2_646 0.91 2.44 3.13(3) 133
C2 H2A O1 1_655 0.99 2.65 3.62(4) 168
C2 H2A O13 2_656 0.99 2.63 3.29(4) 124
loop_
_geom_torsion_atom_site_label_1
_geom_torsion_atom_site_label_2
_geom_torsion_atom_site_label_3
_geom_torsion_atom_site_label_4
_geom_torsion_site_symmetry_1
_geom_torsion_site_symmetry_4
_geom_torsion
O14 S1 O11 Cu1 . . -76(2)
O12 S1 O11 Cu1 . . 161(2)
O13 S1 O11 Cu1 . . 46(2)
O14 S1 O13 Cu1 . 2_546 73(3)
O12 S1 O13 Cu1 . 2_546 -163(2)
O11 S1 O13 Cu1 . 2_546 -51(3)
Cu1 O2 C1 O1 2_546 . 35(3)
Cu1 O2 C1 C2 2_546 . -146(2)
Cu1 O1 C1 O2 . . -38(4)
Cu1 O1 C1 C2 . . 142(3)
O2 C1 C2 N1 . . -14(3)
O1 C1 C2 N1 . . 166(2)
