#------------------------------------------------------------------------------
#$Date: 2016-02-20 00:18:51 +0200 (Sat, 20 Feb 2016) $
#$Revision: 176760 $
#$URL: svn://www.crystallography.net/cod/cif/2/01/95/2019591.cif $
#------------------------------------------------------------------------------
#
# This file is available in the Crystallography Open Database (COD),
# http://www.crystallography.net/. The original data for this entry
# were provided by IUCr Journals, http://journals.iucr.org/.
#
# The file may be used within the scientific community so long as
# proper attribution is given to the journal article from which the
# data were obtained.
#
data_2019591
loop_
_publ_author_name
'Geiger, David K.'
'Parsons, Dylan E.'
_publ_section_title
;
 Hydrogen bonding in 4-nitrobenzene-1,2-diamine and two hydrohalide salts
;
_journal_coeditor_code           SK3544
_journal_issue                   7
_journal_name_full               'Acta Crystallographica Section C'
_journal_page_first              681
_journal_page_last               688
_journal_paper_doi               10.1107/S2053229614013485
_journal_volume                  70
_journal_year                    2014
_chemical_formula_iupac          'C6 H7 N3 O2'
_chemical_formula_moiety         'C6 H7 N3 O2'
_chemical_formula_sum            'C6 H7 N3 O2'
_chemical_formula_weight         153.15
_chemical_name_common            4-nitro-o-phenylenediamine
_chemical_name_systematic
;
4-Nitrobenzene-1,2-diamine
;
_space_group_crystal_system      orthorhombic
_space_group_IT_number           19
_space_group_name_Hall           'P 2ac 2ab'
_space_group_name_H-M_alt        'P 21 21 21'
_symmetry_space_group_name_Hall  'P 2ac 2ab'
_symmetry_space_group_name_H-M   'P 21 21 21'
_atom_sites_solution_hydrogens   mixed
_atom_sites_solution_primary     direct
_atom_sites_solution_secondary   difmap
_cell_angle_alpha                90
_cell_angle_beta                 90
_cell_angle_gamma                90
_cell_formula_units_Z            4
_cell_length_a                   3.7492(6)
_cell_length_b                   10.2864(19)
_cell_length_c                   17.238(3)
_cell_measurement_reflns_used    99
_cell_measurement_temperature    199.(2)
_cell_measurement_theta_max      21.5303
_cell_measurement_theta_min      4.5948
_cell_volume                     664.8(2)
_computing_cell_refinement       'APEX2  (Bruker, 2013)'
_computing_data_collection       '<i>APEX2</i> (Bruker, 2013)'
_computing_data_reduction        'SAINT (Bruker, 2013)'
_computing_molecular_graphics    'PLATON (Spek, 2009)'
_computing_publication_material  'publCIF (Westrip, 2010)'
_computing_structure_refinement  'SHELXL2013 (Sheldrick, 2008)'
_computing_structure_solution    'SHELXS97 (Sheldrick, 2008)'
_diffrn_ambient_temperature      199.(2)
_diffrn_detector_area_resol_mean 8.3330
_diffrn_measured_fraction_theta_full 0.993
_diffrn_measured_fraction_theta_max 0.993
_diffrn_measurement_device_type  'Bruker SMART X2S benchtop'
_diffrn_measurement_method       '\w scans'
_diffrn_radiation_monochromator  'doubly curved silicon crystal'
_diffrn_radiation_type           'Mo Ka'
_diffrn_radiation_wavelength     0.71073
_diffrn_reflns_av_R_equivalents  0.0661
_diffrn_reflns_limit_h_max       4
_diffrn_reflns_limit_h_min       -4
_diffrn_reflns_limit_k_max       12
_diffrn_reflns_limit_k_min       -12
_diffrn_reflns_limit_l_max       20
_diffrn_reflns_limit_l_min       -20
_diffrn_reflns_number            7773
_diffrn_reflns_theta_full        25.02
_diffrn_reflns_theta_max         25.02
_diffrn_reflns_theta_min         3.08
_exptl_absorpt_coefficient_mu    0.119
_exptl_absorpt_correction_T_max  0.99
_exptl_absorpt_correction_T_min  0.46
_exptl_absorpt_correction_type   multi-scan
_exptl_absorpt_process_details   '(SADABS; Bruker, 2013)'
_exptl_crystal_colour
;
clear orange
;
_exptl_crystal_density_diffrn    1.530
_exptl_crystal_density_method    'not measured'
_exptl_crystal_description       plate
_exptl_crystal_F_000             320
_exptl_crystal_size_max          0.650
_exptl_crystal_size_mid          0.500
_exptl_crystal_size_min          0.050
_refine_diff_density_max         0.119
_refine_diff_density_min         -0.147
_refine_ls_abs_structure_details
;
Flack <i>x</i> determined using 354 quotients [(I+)-(I-)]/[(I+)+(I-)]
(Parsons <i>et al.</i>, 2013)
;
_refine_ls_abs_structure_Flack   -0.8(10)
_refine_ls_extinction_method     none
_refine_ls_goodness_of_fit_ref   1.042
_refine_ls_hydrogen_treatment    mixed
_refine_ls_matrix_type           full
_refine_ls_number_parameters     116
_refine_ls_number_reflns         1170
_refine_ls_number_restraints     0
_refine_ls_restrained_S_all      1.042
_refine_ls_R_factor_all          0.0374
_refine_ls_R_factor_gt           0.0301
_refine_ls_shift/su_max          0.000
_refine_ls_shift/su_mean         0.000
_refine_ls_structure_factor_coef Fsqd
_refine_ls_weighting_details
'w=1/[\s^2^(Fo^2^)+(0.03917P)^2^] where P=(Fo^2^+2Fc^2^)/3'
_refine_ls_weighting_scheme      calc
_refine_ls_wR_factor_gt          0.0684
_refine_ls_wR_factor_ref         0.0721
_reflns_number_gt                1010
_reflns_number_total             1170
_reflns_threshold_expression     I>2\s(I)
_cod_data_source_file            sk3544sup1.cif
_cod_data_source_block           I
_cod_depositor_comments
'Adding full bibliography for 2019591--2019593.cif.'
_cod_database_code               2019591
_cod_database_fobs_code          2019591
#BEGIN Tags that were not found in dictionaries:
_shelx_hkl_checksum              3286
_shelx_hkl_file
;
  -1   0   0    0.40    0.80
  -1   0   0    0.30    1.00
  -1   0   0   -1.20    2.00
  -1   0   0   -0.20    1.10
  -1   0   0    0.40    0.50
   1   0   0   -0.10    0.80
   1   0   0    0.70    1.10
   1   0   0   -0.30    0.60
  -2   0   0   45.00    5.00
  -2   0   0   44.60    3.00
  -2   0   0   50.29    6.30
  -2   0   0   42.10    3.10
  -2   0   0   43.00    3.90
  -2   0   0   45.00    3.80
   2   0   0   39.90    3.20
   2   0   0   41.60    4.10
  -3   0   0   -0.10    1.60
  -3   0   0   -0.90    1.60
   3   0   0    0.30    1.90
  -3   1   0   -0.10    2.70
  -3   1   0    0.00    2.20
  -3   1   0    2.90    2.20
  -3   1   0    2.60    3.20
   2  -1   0   72.49    9.50
  -2   1   0   83.59    7.90
  -2   1   0   84.09    5.30
  -2   1   0   92.79    5.40
  -2   1   0   82.99    6.80
   1  -1   0 9735.13  465.75
   1  -1   0 9601.34  429.56
  -1   1   0 9999.00  465.45
  -1   1   0 9638.04  429.46
  -1   1   0 9255.47  606.14
  -1   1   0 9640.63  486.45
   0  -1   0  -14.00    1.00
   0  -1   0  -13.60    0.50
   0  -1   0  -13.60    0.40
   0  -1   0  -13.80    0.60
   0   1   0  -14.20    0.90
   0   1   0  -13.40    0.70
   0   1   0  -13.70    0.30
   0   1   0  -13.80    0.60
  -1  -1   0 8642.44  524.25
  -1  -1   0 8462.55  400.86
  -1  -1   0 8426.26  419.86
   1   1   0 8713.93  523.95
   1   1   0 7886.51  400.86
   1   1   0 7820.32  419.66
  -2  -1   0   81.29    4.60
  -2  -1   0  102.19    5.30
  -2  -1   0   79.49    5.70
  -2  -1   0   92.19    9.50
  -2  -1   0   80.19    8.30
  -2  -1   0   88.69    4.40
   2   1   0   84.79    5.20
   2   1   0   85.19    7.20
  -3  -1   0    1.20    1.80
  -3  -1   0   -0.40    1.00
   3   1   0   -0.10    1.20
   3   1   0    1.80    2.10
  -3   2   0   37.00    5.20
  -3   2   0   41.20    5.30
  -3   2   0   19.20    5.50
   2  -2   0   17.20    5.60
   2  -2   0   14.80    2.80
  -2   2   0   17.50    2.30
  -2   2   0   22.20    4.70
  -2   2   0   11.40    4.00
  -2   2   0   18.10    2.70
   1  -2   0 7449.46  335.47
   1  -2   0 7713.03  364.06
  -1   2   0 6812.12  335.27
  -1   2   0 8110.09  363.96
   0  -2   0 8868.31  413.16
   0  -2   0 9098.29  447.56
   0   2   0 9557.14  584.94
   0   2   0 9447.75  447.46
   0   2   0 9414.16  413.16
  -1  -2   0 6785.42  358.16
  -1  -2   0 6771.62  447.26
  -1  -2   0 7289.97  341.97
   1   2   0 7161.38  357.86
   1   2   0 7040.90  446.86
   1   2   0 7188.28  341.77
   1   2   0 7371.46  315.07
  -2  -2   0   16.40    2.70
  -2  -2   0   16.70    2.30
   2   2   0   15.80    2.80
   2   2   0   15.70    1.80
   2   2   0   17.80    3.50
  -3  -2   0   33.70    4.30
   3   2   0   33.40    5.10
   3   2   0   38.70    3.20
   4   2   0    1.70    2.80
   3  -3   0  187.08   17.10
  -3   3   0  124.59   10.10
  -3   3   0  118.29   12.40
   2  -3   0   70.19    8.90
   2  -3   0   61.29    5.30
  -2   3   0   55.89    8.20
   1  -3   0   33.20    3.40
   1  -3   0   17.80    5.20
   1  -3   0   34.00    5.10
  -1   3   0   34.50    3.40
  -1   3   0   29.30    5.60
  -1   3   0   31.90    4.90
   0  -3   0   -1.70    2.10
   0  -3   0    0.00    3.90
   0  -3   0   -4.00    2.00
   0  -3   0   -0.30    1.30
   0   3   0   -1.50    2.20
   0   3   0    1.50    1.20
   0   3   0    0.40    3.40
   0   3   0    0.50    2.00
  -1  -3   0   28.30    3.70
  -1  -3   0   30.40    5.50
  -1  -3   0   31.20    2.30
  -1  -3   0   27.00    3.70
   1   3   0   29.90    2.10
   1   3   0   26.00    4.80
   1   3   0   37.50    3.50
   1   3   0   30.50    3.60
  -2  -3   0   77.09    6.30
  -2  -3   0   73.29    6.20
   2   3   0   77.69    5.90
   2   3   0   78.19    7.90
   2   3   0   82.79    4.90
  -3  -3   0  144.49   10.90
   3   3   0  186.58   13.80
   3   3   0  168.78    9.60
   4   3   0    4.50    3.60
   3  -4   0  182.88   17.20
  -3   4   0  115.29   13.00
  -3   4   0  143.59   11.20
   2  -4   0    1.60    2.40
   2  -4   0    1.40    3.70
   2  -4   0    2.30    3.10
  -2   4   0   -1.10    3.50
  -2   4   0    0.30    3.70
   1  -4   0   92.19    8.50
   1  -4   0   97.39    6.50
  -1   4   0   71.29   11.20
  -1   4   0   94.49   10.50
   0  -4   0 2467.55  123.39
   0  -4   0 2529.85  112.69
   0   4   0 2556.54  122.99
   0   4   0 2521.85  112.49
   0   4   0 2404.26  129.69
  -1  -4   0   82.69    7.80
  -1  -4   0   85.59    5.10
  -1  -4   0   92.99    7.10
   1   4   0   86.19    7.00
   1   4   0   91.19    7.00
   1   4   0   86.29    4.90
   1   4   0   87.99    9.50
  -2  -4   0    2.30    2.50
  -2  -4   0   -0.80    2.40
   2   4   0    3.00    3.20
  -3  -4   0  154.68   11.80
   3   4   0  173.58   10.00
   3   4   0  190.88   14.80
   4   4   0   29.40    6.10
  -4   5   0   99.09   10.40
   3  -5   0   69.69   11.70
  -3   5   0   43.20    8.80
  -3   5   0   36.10    6.40
   2  -5   0   65.19    9.30
   2  -5   0   53.49    5.40
  -2   5   0   48.40    9.00
   1  -5   0   85.29    6.20
   1  -5   0   77.89    8.60
  -1   5   0   76.89   10.30
  -1   5   0   69.79   11.90
   0  -5   0    1.60    3.30
   0  -5   0   -1.60    1.70
   0   5   0    1.50    4.60
   0   5   0    0.30    3.40
  -1  -5   0   74.99    5.00
  -1  -5   0   69.49    7.30
   1   5   0   75.59    6.90
   1   5   0   78.39    9.50
   1   5   0   78.59    4.80
  -2  -5   0   64.09    6.90
   2   5   0   59.79    8.00
   2   5   0   59.99    4.80
   2   5   0   56.39    3.30
  -3  -5   0   53.29    7.40
   3   5   0   75.29    8.80
   3   5   0   64.69    4.70
   4   5   0  138.09   13.30
   3  -6   0   40.50   10.10
  -3   6   0   35.00    8.60
  -3   6   0   52.59    8.10
   2  -6   0   -2.80    4.00
   2  -6   0   -0.40    2.30
  -2   6   0   -1.70    3.80
  -2   6   0   -0.30    5.60
   1  -6   0  345.87   22.70
   1  -6   0  298.47   17.90
  -1   6   0  380.76   29.70
  -1   6   0  354.56   24.90
   0  -6   0   18.50    5.10
   0  -6   0    9.60    2.70
   0   6   0   16.90    5.30
   0   6   0   15.90    6.50
  -1  -6   0  295.57   16.10
  -1  -6   0  327.57   20.40
   1   6   0  344.17   20.50
   1   6   0  327.27   25.60
  -2  -6   0   -1.30    3.00
   2   6   0    1.90    1.90
   2   6   0    2.10    1.90
   2   6   0    0.90    3.60
  -3  -6   0   60.59    8.30
   3   6   0   55.29    8.40
   3  -7   0   -0.40    6.00
  -3   7   0    3.80    4.10
  -3   7   0   -3.60    3.80
   2  -7   0   30.40    8.00
   2  -7   0   26.50    4.70
  -2   7   0   21.70    7.40
  -2   7   0   29.20   10.30
   1  -7   0    2.90    4.50
   1  -7   0   -0.60    2.30
  -1   7   0    3.70    5.20
  -1   7   0    2.60    7.20
   0  -7   0    4.90    3.80
   0  -7   0   -0.80    2.10
   0   7   0   -0.70    3.90
   0   7   0   -0.20    5.40
  -1  -7   0    3.90    3.90
  -1  -7   0    2.60    1.90
   1   7   0   -3.80    4.60
   1   7   0    0.50    3.00
  -2  -7   0   28.60    6.40
   2   7   0   31.40    7.60
   2   7   0   38.10    4.60
   2   7   0   33.00    4.80
  -3  -7   0   -1.90    4.40
   3   7   0    0.10    4.20
   3  -8   0    0.90    6.70
  -3   8   0   -6.30    4.50
  -3   8   0    2.00    4.50
   2  -8   0   53.29   10.60
   2  -8   0   43.10    6.40
  -2   8   0   59.29   13.20
  -2   8   0   62.39   11.70
   1  -8   0   -3.20    2.20
   1  -8   0    0.00    4.70
  -1   8   0   -3.00    4.40
  -1   8   0   -4.50    6.90
   0  -8   0   39.00    7.60
   0  -8   0   35.20    4.90
   0   8   0   66.49   12.20
   0   8   0   56.19    9.70
  -1  -8   0    3.20    2.40
  -1  -8   0   -0.60    3.70
   1   8   0    0.60    4.80
   1   8   0   -2.50    3.20
  -2  -8   0   46.00    8.70
   2   8   0   64.09    7.10
   2   8   0   56.89   10.30
  -3  -8   0   -0.70    5.30
   3   8   0    2.10    4.80
   3  -9   0   12.50    9.10
  -3   9   0    1.70    6.20
  -3   9   0    7.50    5.40
   2  -9   0    3.00    5.80
   2  -9   0    1.20    3.00
  -2   9   0   -1.30    5.20
  -2   9   0   -0.80    7.70
   1  -9   0   52.39   10.30
   1  -9   0   50.19    6.60
  -1   9   0   76.99   14.70
  -1   9   0   50.29   11.10
   0  -9   0   -0.70    2.70
   0  -9   0    1.20    4.40
   0   9   0   -1.10    4.20
   0   9   0   -0.60    7.20
  -1  -9   0   61.19   10.40
   1   9   0   74.49   13.00
   1   9   0   79.09   10.20
   1   9   0   66.29   10.10
  -2  -9   0    5.20    5.40
   2   9   0   12.40    6.30
   2   9   0    7.60    3.80
   3   9   0    9.20    6.20
   2 -10   0   21.30    9.30
  -2  10   0   18.00    7.10
  -2  10   0   26.90    9.00
  -2  10   0   16.90   10.20
   1 -10   0    6.40    3.60
   1 -10   0    7.60    6.50
  -1  10   0    4.50    9.30
  -1  10   0    7.10    7.00
   0 -10   0  112.69   15.00
   0 -10   0  124.19   10.00
   0  10   0  142.09   15.90
  -1 -10   0    9.20    6.10
   1  10   0   10.40    6.10
   1  10   0   10.90    5.70
   1  10   0   13.10    8.00
  -2 -10   0   26.10    8.30
   2  10   0   26.20    5.90
   2  10   0   18.10    7.80
   1 -11   0   14.20    8.50
  -1  11   0   21.80    9.20
  -1  11   0   19.10   10.90
   0 -11   0    1.90    6.10
   0  11   0    0.50    8.40
   0  11   0    4.20    6.50
   0  11   0    6.60    6.30
  -1 -11   0   12.80    7.40
   1  11   0   22.50    9.90
   1  11   0   18.40    7.40
   1  11   0   18.30    7.20
   0 -12   0    6.50    7.00
   0  12   0   14.70    8.20
   0  12   0    6.10    7.40
   0  12   0    5.80    9.40
   0  12  -1   -1.10    6.40
   0  12  -1    0.60    9.50
   0 -12   1    3.00    6.70
   1  11  -1    6.00    6.30
   1  11  -1    6.50    8.40
   1  11  -1    3.80    6.00
  -1 -11   1    0.50    6.00
   0  11  -1    7.00    9.60
   0  11  -1    4.40    6.90
   0 -11   1   11.80    7.10
   0 -11   1    8.80    4.00
  -1  11  -1    1.00    9.70
  -1  11  -1    4.80    7.40
   1 -11   1    3.70    6.70
   1 -11   1   -2.20    2.80
   2  10  -1   19.30    7.80
   2  10  -1   17.00    5.50
  -2 -10   1   16.20    7.10
   1  10  -1   13.30    8.50
   1  10  -1   13.50    6.10
  -1 -10   1    6.10    5.80
  -1 -10   1   14.60    3.80
   0  10  -1   17.00   10.00
   0  10  -1    5.30    6.20
   0 -10   1    5.50    6.00
   0 -10   1    1.90    3.00
  -1  10  -1   13.00   10.60
  -1  10  -1   14.00    7.70
   1 -10   1    7.40    3.90
   1 -10   1    8.80    6.60
  -2  10  -1   24.00   12.70
  -2  10  -1   22.90    8.90
   2 -10   1    9.20    4.10
   2 -10   1   20.70    9.00
   3   9  -1   47.00   10.40
  -3  -9   1   39.30    9.50
   2   9  -1    8.50    4.00
   2   9  -1   11.90    6.80
  -2  -9   1   11.10    5.80
   1   9  -1    3.60    4.50
   1   9  -1    6.00    6.70
  -1  -9   1    2.50    2.70
  -1  -9   1    5.80    4.70
   0   9  -1   -0.80    4.70
   0   9  -1    3.60    7.50
   0  -9   1    3.50    4.90
   0  -9   1    0.10    2.60
  -1   9  -1    5.80    9.10
  -1   9  -1   -0.70    5.10
   1  -9   1    3.70    5.50
   1  -9   1    4.40    3.20
  -2   9  -1    3.90    9.70
  -2   9  -1    1.30    5.80
   2  -9   1   10.70    7.10
   2  -9   1    8.00    3.90
  -3   9  -1   36.70    8.60
  -3   9  -1   38.90   10.60
   3  -9   1   47.80   12.20
   3   8  -1   14.00    6.30
  -3  -8   1   16.20    6.60
   2   8  -1   54.89   10.60
   2   8  -1   67.99    7.40
  -2  -8   1   64.19    9.40
   1   8  -1   65.19   11.60
   1   8  -1   66.79    9.20
  -1  -8   1   54.69    5.40
  -1  -8   1   67.29    9.40
   0   8  -1   30.50    9.80
   0   8  -1   24.20    7.20
   0  -8   1   16.80    3.90
   0  -8   1   20.10    6.30
  -1   8  -1   51.19   10.40
  -1   8  -1   76.49   15.10
   1  -8   1   57.89    9.70
   1  -8   1   59.89    6.30
  -2   8  -1   44.40   10.20
  -2   8  -1   66.79   14.30
   2  -8   1   60.89   10.90
   2  -8   1   49.20    6.70
  -3   8  -1   16.90    7.70
   3  -8   1   12.50    8.10
   3   7  -1   12.20    5.70
  -3  -7   1   22.40    6.50
   2   7  -1   80.99    6.70
   2   7  -1   67.29    9.90
   2   7  -1   77.19    7.30
  -2  -7   1   74.59    9.60
   1   7  -1   17.40    4.60
   1   7  -1   18.00    7.00
  -1  -7   1   13.90    2.80
  -1  -7   1   11.80    4.60
   0   7  -1  103.89   11.70
   0   7  -1  101.09   14.20
   0  -7   1   71.99    6.40
   0  -7   1   89.19    9.80
  -1   7  -1   19.70    6.90
  -1   7  -1   21.10    9.30
   1  -7   1   13.60    5.50
   1  -7   1   17.50    3.80
  -2   7  -1   62.49   11.30
  -2   7  -1   48.10   12.40
   2  -7   1   66.49   10.60
   2  -7   1   65.09    6.50
  -3   7  -1   11.40    6.40
   3  -7   1    9.50    7.20
   3   6  -1   36.10    7.30
  -3  -6   1   31.40    6.40
   2   6  -1   10.50    5.10
   2   6  -1   12.40    2.80
   2   6  -1   11.60    2.80
  -2  -6   1    7.60    3.90
   1   6  -1  168.48   15.50
   1   6  -1  161.78   12.10
  -1  -6   1  135.99   11.40
  -1  -6   1  139.79    8.60
   0   6  -1  155.28   16.30
   0   6  -1  120.99   12.60
   0  -6   1  124.09   10.90
   0  -6   1  132.49    8.50
  -1   6  -1  143.59   17.50
  -1   6  -1  155.38   14.90
   1  -6   1  154.48   12.80
   1  -6   1  136.59    9.40
  -2   6  -1    9.60    5.40
  -2   6  -1    4.10    6.10
   2  -6   1    8.80    3.20
   2  -6   1   13.70    5.60
  -3   6  -1   34.30    8.30
   3  -6   1   26.70    8.50
   3  -6   1   23.40    4.60
   4   5  -1    6.30    4.40
   3   5  -1  199.98   16.30
  -3  -5   1  164.68   13.10
   2   5  -1   28.70    3.40
   2   5  -1   22.30    5.70
   2   5  -1   31.00    3.00
  -2  -5   1   28.20    5.10
   1   5  -1    4.80    2.60
   1   5  -1    2.90    1.30
   1   5  -1    2.10    4.20
  -1  -5   1    5.30    1.70
  -1  -5   1    2.20    2.70
   0   5  -1   19.60    7.00
   0   5  -1   15.00    4.80
   0  -5   1   12.90    4.00
   0  -5   1   13.20    2.70
  -1   5  -1   12.50    6.70
  -1   5  -1    4.30    4.30
   1  -5   1    1.90    3.40
   1  -5   1    5.40    2.40
  -2   5  -1    6.00    5.30
  -2   5  -1   21.20    6.20
   2  -5   1   21.70    5.90
   2  -5   1   20.80    3.80
  -3   5  -1  129.49   14.40
   3  -5   1  172.98   16.60
   3  -5   1  174.38   11.00
  -4   5  -1    4.80    4.50
   4   4  -1   44.10    7.30
   3   4  -1  119.99    7.20
   3   4  -1  122.69   11.40
  -3  -4   1  125.09    9.80
   2   4  -1  751.32   50.89
   2   4  -1  760.22   39.00
  -2  -4   1  697.63   40.70
  -2  -4   1  799.62   39.60
   1   4  -1  502.85   35.60
   1   4  -1  525.25   28.00
   1   4  -1  494.85   23.20
  -1  -4   1  492.35   27.20
  -1  -4   1  501.85   23.50
   0   4  -1    1.50    3.10
   0   4  -1    6.70    2.50
   0   4  -1    5.80    5.00
   0   4  -1    4.60    1.60
   0  -4   1    2.60    4.90
   0  -4   1    5.80    2.80
   0  -4   1    1.20    2.90
   0  -4   1    2.70    1.50
  -1   4  -1  454.85   30.50
   1  -4   1  500.95   27.70
   1  -4   1  499.95   24.00
  -2   4  -1  578.94   40.80
   2  -4   1  743.53   39.20
   2  -4   1  747.73   33.90
  -3   4  -1   76.39   11.40
   3  -4   1  138.69   14.30
   4   3  -1    2.80    3.40
   3   3  -1  229.98   12.50
   3   3  -1  239.48   17.60
  -3  -3   1  220.68   14.30
   2   3  -1 1074.19   54.09
   2   3  -1 1036.20   69.39
  -2  -3   1 1080.89   53.59
  -2  -3   1 1048.60   55.49
   1   3  -1  433.96   22.90
   1   3  -1  444.96   22.20
   1   3  -1  407.26   29.40
   1   3  -1  433.86   19.20
  -1  -3   1  393.36   30.30
  -1  -3   1  428.66   19.40
  -1  -3   1  415.16   22.40
  -1  -3   1  392.06   23.40
   0   3  -1  193.08    9.10
   0   3  -1  173.58   10.80
   0   3  -1  169.28   12.50
   0   3  -1  178.08   15.90
   0  -3   1  167.28    9.00
   0  -3   1  168.08   10.80
  -1   3  -1  419.16   20.10
  -1   3  -1  466.65   23.30
  -1   3  -1  328.77   25.10
   1  -3   1  404.86   20.10
   1  -3   1  444.06   23.40
  -2   3  -1 1106.79   69.79
   2  -3   1 1093.19   57.29
   2  -3   1 1066.99   50.79
  -3   3  -1  132.79   12.90
   3   2  -1   11.40    1.70
   3   2  -1   15.10    3.50
  -3  -2   1   13.70    3.10
   2   2  -1 1061.49   68.79
   2   2  -1 1061.09   53.29
   2   2  -1 1095.99   54.09
  -2  -2   1 1055.19   53.09
  -2  -2   1 1034.00   54.69
   1   2  -1 3034.80  199.78
   1   2  -1 3181.18  159.48
   1   2  -1 3266.47  152.78
   1   2  -1 3388.06  140.19
  -1  -2   1 3150.08  152.88
  -1  -2   1 3068.49  159.98
  -1  -2   1 3169.48  140.29
  -1  -2   1 2929.91  200.28
   0   2  -1  419.66   34.00
   0   2  -1  571.34   22.70
   0   2  -1  526.95   25.20
   0  -2   1  523.85   22.70
   0  -2   1  409.96   27.20
   0  -2   1  464.55   25.10
  -1   2  -1 3324.87  166.88
  -1   2  -1 3486.85  160.58
  -1   2  -1 3239.38  147.49
   1  -2   1 3078.09  147.49
   1  -2   1 3331.77  160.58
  -2   2  -1 1059.19   71.09
  -2   2  -1 1222.78   57.29
   2  -2   1 1115.19   58.19
   2  -2   1 1070.69   51.29
  -3   2  -1    2.40    3.50
  -3   2  -1    0.50    3.20
  -3   2  -1    7.80    3.10
  -3  -1   1    3.00    2.00
  -3  -1   1    0.20    0.90
   2   1  -1  761.72   49.99
   2   1  -1  799.12   39.50
  -2  -1   1  799.22   39.60
  -2  -1   1  755.72   38.90
  -2  -1   1  751.62   51.09
  -2  -1   1  750.32   43.30
  -2  -1   1  741.63   35.00
  -2  -1   1  805.72   35.00
   1   1  -1 3987.00  178.98
   1   1  -1 3780.42  253.47
   1   1  -1 4125.39  202.58
   1   1  -1 4085.69  194.28
  -1  -1   1 4065.99  194.18
  -1  -1   1 4224.48  178.78
  -1  -1   1 3956.60  253.87
  -1  -1   1 3908.41  202.78
   0   1  -1   28.80    4.00
  -1   1  -1 4155.78  185.18
  -1   1  -1 4515.65  200.98
  -1   1  -1 4078.49  209.58
  -1   1  -1 4060.99  261.17
   1  -1   1 4065.59  185.18
   1  -1   1 4045.30  209.68
   1  -1   1 4112.39  200.98
  -2   1  -1  775.02   51.49
  -2   1  -1  831.92   41.40
  -2   1  -1  816.22   36.90
  -2   1  -1  860.31   41.60
   2  -1   1  781.22   41.50
   2  -1   1  743.23   43.00
   2  -1   1  782.12   37.00
  -3   1  -1   -0.70    1.80
  -3   1  -1   -1.10    2.50
  -3   1  -1    1.60    2.70
  -3   1  -1    2.20    2.40
   3   0  -1   47.20    4.80
  -3   0   1   37.50    3.90
  -3   0   1   48.60    4.80
  -3   0   1   26.70    4.90
   2   0  -1   55.39    4.90
  -2   0   1   54.09    5.90
  -2   0   1   59.99    3.60
  -2   0   1   55.89    4.20
  -2   0   1   54.99    4.70
  -2   0   1   77.19    8.90
  -2   0   1   58.99    3.90
   1   0  -1  270.17   17.80
  -1   0   1  294.97   12.90
  -1   0   1  283.37   16.70
  -1   0   1  279.77   14.10
  -1   0   1  260.07   18.10
  -1   0   1  269.67   14.50
  -1   0   1  261.77   13.10
   0   0  -1   -0.10    0.20
   0   0  -1   -0.30    0.30
   0   0  -1    0.00    0.10
   0   0  -1    0.10    0.10
   0   0   1    0.00    0.10
   0   0   1    0.40    0.50
   0   0   1    0.10    0.10
   0   0   1    0.10    0.10
  -1   0  -1  285.87   13.00
  -1   0  -1  274.17   18.40
  -1   0  -1  279.97   14.60
  -1   0  -1  287.27   14.80
  -1   0  -1  265.87   14.10
   1   0   1  282.37   13.00
   1   0   1  292.47   14.70
   1   0   1  272.97   18.40
  -2   0  -1   54.59    5.80
  -2   0  -1   56.39    4.30
  -2   0  -1   64.49    4.00
  -2   0  -1   58.79    5.80
  -2   0  -1   63.09    3.70
   2   0   1   56.89    5.30
   2   0   1   53.89    3.80
   2   0   1   56.79    4.10
  -3   0  -1   43.20    4.20
  -3   0  -1   44.40    4.20
   3   0   1   41.20    5.10
   3   0   1   45.10    4.00
  -3   1   1    0.40    2.00
  -3   1   1    0.70    2.20
  -3   1   1    0.70    2.80
  -3   1   1    2.60    2.90
  -2   1   1  802.32   52.19
  -2   1   1  765.62   38.40
  -2   1   1  830.72   43.20
  -2   1   1  827.92   37.60
  -2   1   1  827.02   41.70
   1  -1  -1 4229.48  197.68
  -1   1   1 3532.75  205.78
  -1   1   1 4091.09  196.88
  -1   1   1 3977.30  181.48
  -1   1   1 4181.38  254.47
  -1   1   1 4261.27  180.88
  -1  -1  -1 4239.08  178.98
  -1  -1  -1 3963.50  203.38
  -1  -1  -1 3911.11  254.07
  -1  -1  -1 3962.10  194.08
   1   1   1 3975.20  203.28
   1   1   1 4039.80  194.08
   1   1   1 4004.20  253.87
   1   1   1 4108.39  179.08
  -2  -1  -1  857.41   42.50
  -2  -1  -1  820.22   41.00
  -2  -1  -1  754.12   36.20
  -2  -1  -1  785.62   39.50
  -2  -1  -1  803.42   35.80
   2   1   1  782.22   41.00
   2   1   1  784.12   51.59
  -3  -1  -1   -1.20    1.60
  -3  -1  -1    0.00    1.10
   3   1   1    1.10    2.20
   3   1   1    2.00    1.40
   4   1   1    2.80    2.80
  -3   2   1   10.50    3.50
  -3   2   1   11.90    3.60
  -3   2   1    2.10    3.20
  -3   2   1   10.40    4.10
   2  -2  -1 1071.89   58.89
  -2   2   1 1100.09   69.79
  -2   2   1 1024.90   51.79
  -2   2   1 1173.08   56.59
   1  -2  -1 3292.87  160.98
   1  -2  -1 3198.48  147.19
  -1   2   1 3216.48  168.58
  -1   2   1 3431.66  160.78
  -1   2   1 3274.97  147.29
   0  -2  -1  582.84   27.00
   0  -2  -1  632.54   38.70
   0  -2  -1  553.34   30.00
   0   2   1  557.64   31.20
   0   2   1  648.34   38.50
   0   2   1  541.15   29.90
   0   2   1  589.24   27.00
  -1  -2  -1 2972.80  200.18
  -1  -2  -1 3016.90  160.18
  -1  -2  -1 3237.08  153.08
   1   2   1 3250.17  152.88
   1   2   1 3256.07  159.88
   1   2   1 3104.79  140.59
   1   2   1 3236.38  140.59
   1   2   1 3188.08  199.98
  -2  -2  -1 1093.29   53.29
  -2  -2  -1 1043.30   55.29
   2   2   1 1076.89   54.89
   2   2   1 1066.49   53.19
   2   2   1 1085.09   69.49
  -3  -2  -1   10.00    2.70
   3   2   1    9.50    1.80
   3   2   1    9.80    3.20
   4   2   1    2.10    3.40
   3  -3  -1  227.38   20.40
  -3   3   1  206.98   13.50
  -3   3   1  175.18   15.40
   2  -3  -1 1057.29   55.89
  -2   3   1  958.80   56.99
  -2   3   1 1083.89   65.49
  -2   3   1  996.60   49.60
   1  -3  -1  436.26   24.90
   1  -3  -1  428.76   21.20
  -1   3   1  439.16   21.30
  -1   3   1  433.96   26.40
  -1   3   1  445.36   24.70
   0  -3  -1  147.79   12.20
   0  -3  -1  189.08    9.80
   0  -3  -1  216.18   15.50
   0  -3  -1  188.48   11.90
   0   3   1  185.18    9.70
   0   3   1  224.58   14.90
   0   3   1  176.18   12.20
   0   3   1  200.68   12.00
  -1  -3  -1  395.86   23.10
  -1  -3  -1  422.46   22.30
  -1  -3  -1  394.46   29.20
   1   3   1  427.26   19.70
   1   3   1  446.66   22.70
   1   3   1  409.36   28.70
   1   3   1  421.86   19.20
   1   3   1  424.26   21.90
  -2  -3  -1 1106.79   54.09
  -2  -3  -1 1036.90   56.19
   2   3   1 1080.99   70.29
   2   3   1 1092.89   55.19
   2   3   1 1062.79   53.49
  -3  -3  -1  234.78   14.40
   3   3   1  246.08   18.20
   3   3   1  234.28   13.30
   4   3   1    2.00    3.30
   3  -4  -1  127.19   16.50
  -3   4   1   92.19    9.10
  -3   4   1   95.59   11.20
   2  -4  -1  739.03   42.30
  -2   4   1  752.42   44.10
   1  -4  -1  509.35   29.30
   1  -4  -1  470.65   24.70
  -1   4   1  537.75   31.20
  -1   4   1  526.95   36.80
   0  -4  -1    5.60    2.90
   0  -4  -1   -0.10    3.80
   0  -4  -1    3.40    1.70
   0  -4  -1    2.70    3.00
   0   4   1    2.90    2.80
   0   4   1    4.90    3.70
   0   4   1   -1.10    1.50
   0   4   1    5.40    3.00
  -1  -4  -1  472.25   28.30
  -1  -4  -1  515.25   27.30
   1   4   1  491.65   26.60
   1   4   1  511.65   23.40
   1   4   1  502.65   24.30
   1   4   1  495.55   34.80
   1   4   1  529.65   27.70
  -2  -4  -1  784.62   41.00
   2   4   1  770.62   52.79
   2   4   1  805.42   41.00
  -3  -4  -1  119.79    9.90
   3   4   1  148.39   12.30
   3   4   1  130.89    8.00
   4   4   1   45.80    7.60
  -4   5   1    7.40    4.80
   3  -5  -1  191.98   18.40
  -3   5   1  159.78   12.90
  -3   5   1  169.38   15.70
   2  -5  -1   19.60    6.20
  -2   5   1   28.10    7.30
  -2   5   1   28.30    6.70
   1  -5  -1    0.70    4.60
   1  -5  -1    3.60    2.30
   1  -5  -1    1.50    3.50
  -1   5   1    5.00    5.20
  -1   5   1    4.20    3.80
   0  -5  -1   13.30    4.40
   0  -5  -1   16.40    2.70
   0   5   1   13.10    4.20
   0   5   1   22.20    5.80
  -1  -5  -1    6.00    3.20
   1   5   1    4.10    2.60
   1   5   1    8.30    4.20
   1   5   1    4.50    1.60
   1   5   1    3.80    2.40
  -2  -5  -1   36.60    5.40
   2   5   1   23.70    5.60
   2   5   1   32.20    3.40
  -3  -5  -1  187.58   13.40
   3   5   1  183.18   10.80
   3   5   1  185.88   15.90
   4   5   1    7.20    4.40
   3  -6  -1   26.10    9.20
  -3   6   1   32.80    6.50
  -3   6   1   21.00    7.10
   2  -6  -1    7.80    5.30
  -2   6   1   10.10    5.90
  -2   6   1    6.00    6.30
   1  -6  -1  135.79    9.70
   1  -6  -1  149.49   13.40
  -1   6   1  180.08   15.30
  -1   6   1  174.88   16.90
   0  -6  -1  129.49   11.60
   0  -6  -1  131.89    8.40
   0   6   1  142.79   12.30
  -1  -6  -1  139.29   11.70
   1   6   1  173.08   10.80
   1   6   1  152.48   11.50
   1   6   1  144.09   14.10
  -2  -6  -1   11.00    4.30
   2   6   1   11.70    2.20
   2   6   1   11.30    2.70
   2   6   1   10.00    4.80
  -3  -6  -1   41.40    7.20
   3   6   1   39.20    7.50
   3   6   1   38.90    3.80
   3  -7  -1   12.10    7.80
  -3   7   1   11.60    6.50
  -3   7   1   12.60    5.20
   2  -7  -1   66.29   11.40
  -2   7   1   68.69   11.40
  -2   7   1   75.29   12.60
   1  -7  -1   18.00    6.10
   1  -7  -1   14.00    3.40
  -1   7   1   15.90    6.20
  -1   7   1   21.10    8.00
   0  -7  -1   87.19    6.90
   0  -7  -1   86.29    9.70
   0   7   1   91.49   10.50
  -1  -7  -1   24.50    5.90
   1   7   1   13.10    4.10
   1   7   1   20.00    6.50
   1   7   1   16.00    4.40
  -2  -7  -1   71.09    9.40
   2   7   1   71.69    5.80
   2   7   1   66.69    9.50
   2   7   1   75.79    6.80
  -3  -7  -1   15.10    5.90
   3   7   1   18.70    6.10
   3  -8  -1    3.90    7.70
  -3   8   1   10.80    5.40
  -3   8   1   10.30    6.90
   2  -8  -1   61.59   11.10
  -2   8   1   63.09   12.20
  -2   8   1   56.49   11.00
  -2   8   1   45.00    8.30
   1  -8  -1   53.19    9.90
   1  -8  -1   60.79    6.40
  -1   8   1   70.29   13.10
  -1   8   1   82.29   12.40
   0  -8  -1   22.00    4.00
   0  -8  -1   25.20    6.60
   0   8   1   17.70    6.20
   0   8   1   30.30    8.60
  -1  -8  -1   64.29    9.70
   1   8   1   66.79   11.20
   1   8   1   72.59    9.00
   1   8   1   70.59    8.60
  -2  -8  -1   69.79   10.10
   2   8   1   68.49   10.50
   2   8   1   66.79    6.90
   3   8   1   10.70    5.70
   3  -9  -1   28.80   10.80
  -3   9   1   28.40    7.80
  -3   9   1   46.80   10.90
   2  -9  -1    5.00    6.20
  -2   9   1    5.00    4.90
  -2   9   1    2.60    6.10
  -2   9   1    5.20    7.70
   1  -9  -1    0.00    5.00
  -1   9   1    7.00    8.10
  -1   9   1    7.00    5.80
   0  -9  -1    0.90    4.60
   0   9   1    4.40    6.90
   0   9   1   -3.80    4.30
  -1  -9  -1   -3.40    4.20
   1   9   1    6.40    4.80
   1   9   1    7.70    6.70
   1   9   1    9.00    5.00
  -2  -9  -1   11.30    5.80
   2   9   1    7.20    3.80
   2   9   1    4.60    6.00
   3   9   1   52.49   10.70
   2 -10  -1   15.60    8.90
  -2  10   1   22.80    7.30
  -2  10   1   19.90    8.40
   1 -10  -1    3.70    6.00
  -1  10   1    6.60    8.60
  -1  10   1    7.10    6.10
  -1  10   1    9.00    7.00
   0 -10  -1    8.20    6.30
   0  10   1    6.70    6.30
   0  10   1    8.30    8.00
   0  10   1   10.70    6.30
  -1 -10  -1    7.20    5.80
   1  10   1   10.10    5.90
   1  10   1   11.10    7.70
   1  10   1    8.60    5.50
  -2 -10  -1   14.40    7.40
   2  10   1   18.00    5.30
   2  10   1   17.30    7.50
   1 -11  -1    2.80    7.00
  -1  11   1    0.90    6.20
  -1  11   1   -1.40    6.10
  -1  11   1    0.50    8.60
   0 -11  -1    6.50    6.40
   0  11   1   17.70    9.60
   0  11   1   11.40    7.10
   0  11   1   18.80    8.00
  -1 -11  -1    1.50    6.20
   1  11   1    4.80    5.80
   1  11   1    5.70    6.20
   1  11   1   -1.10    6.80
   0 -12  -1   11.50    7.90
   0  12   1    7.60    8.90
   0  12   1    3.80    6.70
   0  12   1   -0.10    7.30
   0  12  -2    9.60    7.90
   0  12  -2   18.00   11.80
   0 -12   2   14.50    8.10
   0 -12   2   11.00    4.70
   1  11  -2   39.60   12.80
   1  11  -2   54.79   10.90
  -1 -11   2   38.10    5.90
  -1 -11   2   35.80    9.50
   0  11  -2    5.50    7.20
   0  11  -2   22.50   11.40
   0 -11   2    6.90    4.10
   0 -11   2    4.60    5.90
  -1  11  -2   57.29   15.40
  -1  11  -2   57.19   13.60
   1 -11   2   42.90    7.10
   1 -11   2   48.50   11.70
   2  10  -2    4.60    7.20
   2  10  -2    6.90    4.60
  -2 -10   2    4.50    6.20
   1  10  -2   24.20   10.60
   1  10  -2   18.00    7.20
  -1 -10   2   21.90    6.80
  -1 -10   2   22.60    4.50
   0  10  -2   25.80    9.30
   0  10  -2   25.80   11.30
   0 -10   2   12.10    6.30
   0 -10   2   17.50    4.50
  -1  10  -2   35.40   13.40
  -1  10  -2   17.20    8.40
   1 -10   2   20.30    4.90
   1 -10   2   17.00    7.50
  -2  10  -2   -2.40    5.90
  -2  10  -2    3.40   10.90
   2 -10   2    5.20    3.90
   2 -10   2   -0.60    6.20
   2   9  -2   29.20    9.20
   2   9  -2   23.80    5.40
  -2  -9   2   30.60    7.80
   1   9  -2    1.70    4.30
   1   9  -2   -4.20    6.20
  -1  -9   2   -1.60    2.40
  -1  -9   2    1.00    4.70
   0   9  -2    0.10    7.80
   0   9  -2    1.80    5.00
   0  -9   2    4.40    3.00
   0  -9   2    6.20    5.20
  -1   9  -2   -4.10    5.50
  -1   9  -2    2.80    9.70
   1  -9   2    0.40    2.70
   1  -9   2    3.20    5.60
  -2   9  -2   21.50   11.90
  -2   9  -2   22.70    8.70
   2  -9   2   22.60    4.90
   2  -9   2   26.10    8.30
   3   8  -2   10.60    6.30
  -3  -8   2   11.20    6.10
   2   8  -2   31.40    8.50
   2   8  -2   31.40    5.50
  -2  -8   2   26.80    6.60
   1   8  -2   59.89   12.00
   1   8  -2   53.19    8.60
  -1  -8   2   45.70    4.90
  -1  -8   2   39.90    7.70
   0   8  -2   47.90    9.50
   0   8  -2   64.69   13.80
   0  -8   2   40.30    5.40
   0  -8   2   31.80    7.20
  -1   8  -2   41.80   10.10
  -1   8  -2   71.49   15.10
   1  -8   2   55.39    9.70
   1  -8   2   45.30    5.90
  -2   8  -2   23.60    8.00
  -2   8  -2   21.70   10.90
   2  -8   2   17.60    7.30
   2  -8   2   27.70    5.00
  -3   8  -2   13.80    7.60
   3  -8   2    7.70    7.40
   3  -8   2    9.60    4.00
   3   7  -2   21.20    6.80
  -3  -7   2   14.80    5.60
   2   7  -2  100.79    8.30
   2   7  -2  111.29   12.90
  -2  -7   2   90.89    6.10
  -2  -7   2   90.29    9.60
   1   7  -2   41.80    6.90
   1   7  -2   41.30    9.80
  -1  -7   2   39.40    4.20
  -1  -7   2   27.10    5.90
   0   7  -2  167.78   15.40
   0   7  -2  202.68   20.10
   0  -7   2  140.39   12.50
   0  -7   2  132.89    9.50
  -1   7  -2   44.80   12.00
  -1   7  -2   41.00    9.30
   1  -7   2   29.60    6.90
   1  -7   2   37.60    5.00
  -2   7  -2   74.49   12.40
  -2   7  -2   51.99   12.90
   2  -7   2  105.39   13.00
   2  -7   2   85.59    7.40
  -3   7  -2   14.00    6.70
   3  -7   2   11.60    3.90
   3  -7   2   13.90    7.60
   3   6  -2   10.50    5.10
  -3  -6   2    4.20    4.10
   2   6  -2   64.89    5.80
   2   6  -2   74.49    9.80
  -2  -6   2   51.39    4.00
  -2  -6   2   61.89    7.90
   1   6  -2  356.26   22.20
   1   6  -2  378.16   28.80
  -1  -6   2  331.97   21.10
  -1  -6   2  330.47   17.40
   0   6  -2  246.08   22.00
   0   6  -2  219.78   17.20
   0  -6   2  179.68   11.30
   0  -6   2  191.88   14.40
  -1   6  -2  368.16   31.30
  -1   6  -2  338.57   25.20
   1  -6   2  335.67   18.30
   1  -6   2  335.27   22.10
  -2   6  -2   24.90    8.80
  -2   6  -2   43.00    9.40
   2  -6   2   55.39    5.60
   2  -6   2   66.99    9.50
  -3   6  -2    0.40    4.50
  -3   6  -2    3.00    5.70
   3  -6   2    5.70    6.10
   3  -6   2    4.70    3.10
   4   5  -2    6.50    4.70
   3   5  -2  212.78   17.40
  -3  -5   2  185.68   14.10
   2   5  -2    7.70    2.00
   2   5  -2    7.10    1.00
   2   5  -2    6.90    4.20
  -2  -5   2    5.80    1.40
  -2  -5   2    6.20    3.10
   1   5  -2  222.18   15.20
   1   5  -2  261.27   20.60
   1   5  -2  228.68   11.50
  -1  -5   2  226.78   11.90
  -1  -5   2  223.68   14.90
   0   5  -2  946.01   50.59
   0   5  -2  923.71   62.79
   0  -5   2  804.02   46.00
   0  -5   2  840.42   40.90
  -1   5  -2  219.68   18.00
   1  -5   2  215.18   12.50
   1  -5   2  234.08   15.70
  -2   5  -2    4.80    4.40
  -2   5  -2    3.00    4.70
   2  -5   2    7.10    2.80
   2  -5   2    9.70    4.40
  -3   5  -2  140.29   15.50
   3  -5   2  203.58   17.50
   3  -5   2  204.48   12.30
  -4   5  -2    4.70    4.40
   4   4  -2   68.79    8.50
  -3  -4   2    6.20    3.40
   2   4  -2   78.79    9.00
   2   4  -2   66.89    3.80
   2   4  -2   68.79    4.70
  -2  -4   2   72.09    6.70
  -2  -4   2   66.39    7.00
  -2  -4   2   75.39    3.90
   1   4  -2  213.28   13.20
   1   4  -2  210.18   10.00
   1   4  -2  203.28   17.60
  -1  -4   2  174.68   13.80
  -1  -4   2  215.58   13.10
  -1  -4   2  205.28   10.30
   0   4  -2  302.87   13.60
   0   4  -2  247.08   22.80
   0   4  -2  272.17   18.60
   0   4  -2  254.87   15.60
   0  -4   2  257.67   15.90
   0  -4   2  257.97   13.50
  -1   4  -2  172.68   15.40
   1  -4   2  205.18   11.10
   1  -4   2  210.58   13.70
  -2   4  -2   42.60    8.20
   2  -4   2   65.29    8.10
  -3   4  -2    3.00    4.70
  -3   4  -2   -1.70    3.30
   3  -4   2   11.70    6.50
   3  -4   2    4.40    2.70
   4   3  -2   24.10    5.20
   3   3  -2  132.09   11.30
  -3  -3   2  121.19    9.40
   2   3  -2  824.82   54.29
   2   3  -2  837.92   41.60
  -2  -3   2  759.52   43.00
  -2  -3   2  825.22   42.10
  -2  -3   2  826.92   36.60
   1   3  -2  504.45   21.00
   1   3  -2  453.95   32.40
   1   3  -2  496.25   24.20
   1   3  -2  464.35   25.00
  -1  -3   2  468.85   24.50
  -1  -3   2  380.46   25.50
  -1  -3   2  461.05   21.20
  -1  -3   2  422.66   33.70
   0   3  -2  752.12   48.50
   0   3  -2  954.70   45.10
   0  -3   2  917.41   45.20
   0  -3   2  929.61   40.90
  -1   3  -2  463.55   22.70
  -1   3  -2  490.05   25.70
  -1   3  -2  474.15   25.30
   1  -3   2  440.66   22.70
   1  -3   2  501.75   26.00
  -2   3  -2  430.06   27.40
  -3   3  -2   80.79   11.10
   3  -3   2  135.89   13.90
   3   2  -2   62.19    6.50
  -3  -2   2   53.19    5.50
   2   2  -2   14.70    3.40
   2   2  -2   13.00    1.30
  -2  -2   2   16.10    1.20
  -2  -2   2   11.40    2.60
  -2  -2   2   11.80    2.10
   1   2  -2  382.86   27.70
   1   2  -2  414.96   21.20
   1   2  -2  421.16   21.00
   1   2  -2  431.76   18.20
  -1  -2   2  362.26   21.70
  -1  -2   2  417.36   18.40
  -1  -2   2  359.96   28.80
  -1  -2   2  405.86   21.10
   0   2  -2  461.15   24.00
   0   2  -2  515.55   21.70
   0  -2   2  454.75   21.60
   0  -2   2  436.06   24.00
  -1   2  -2  445.16   22.50
  -1   2  -2  423.56   22.40
  -1   2  -2  411.66   20.00
   1  -2   2  434.96   22.60
   1  -2   2  396.96   20.00
  -2   2  -2   20.20    4.00
   2  -2   2   15.80    2.60
   2  -2   2    8.10    3.80
  -3   2  -2   34.00    6.80
   3  -2   2   52.39    4.80
   3   1  -2   63.99    5.70
  -3  -1   2   57.39    3.50
  -3  -1   2   57.09    5.50
  -3  -1   2   39.00    4.80
   2   1  -2  276.87   18.70
  -2  -1   2  275.17   20.60
  -2  -1   2  272.47   14.30
  -2  -1   2  290.57   13.10
  -2  -1   2  272.27   20.50
  -2  -1   2  261.67   12.90
  -2  -1   2  263.17   15.20
   1   1  -2  775.62   37.70
   1   1  -2  715.23   34.00
   1   1  -2  717.53   48.60
  -1  -1   2  734.83   37.40
  -1  -1   2  796.62   33.70
  -1  -1   2  758.62   49.60
   0   1  -2  399.16   20.10
   0   1  -2  398.36   17.80
   0   1  -2  387.16   19.50
   0  -1   2  394.96   17.80
   0  -1   2  378.76   19.50
   0  -1   2  374.16   20.10
  -1   1  -2  756.22   39.60
  -1   1  -2  747.43   49.30
  -1   1  -2  815.52   38.30
  -1   1  -2  790.72   35.10
   1  -1   2  770.62   38.40
   1  -1   2  751.72   35.20
   1  -1   2  758.62   39.70
  -2   1  -2  290.67   19.70
  -2   1  -2  330.07   16.70
  -2   1  -2  300.37   14.20
  -2   1  -2  295.17   15.80
   2  -1   2  269.47   15.90
   2  -1   2  272.57   14.30
   2  -1   2  268.67   17.90
  -3   1  -2   63.09    5.40
   3  -1   2   64.29    5.20
   3   0  -2   78.49    6.50
  -3   0   2   76.99    5.30
  -3   0   2   54.89    6.40
  -3   0   2   76.49    6.50
   2   0  -2  117.49    8.60
  -2   0   2   99.69    8.00
  -2   0   2  117.89    7.00
  -2   0   2  128.59    6.80
  -2   0   2  127.89    6.60
  -2   0   2  133.19   11.90
  -2   0   2  121.79   10.00
  -2   0   2  119.89    8.20
   1   0  -2    0.40    1.20
   1   0  -2    0.20    1.10
  -1   0   2    0.10    0.40
  -1   0   2    1.10    1.00
  -1   0   2   -2.90    3.50
  -1   0   2    1.50    1.90
  -1   0   2   -1.10    1.30
  -1   0   2   -1.50    0.80
  -1   0  -2   -0.10    1.10
  -1   0  -2   -0.70    0.70
  -1   0  -2    0.40    0.70
  -1   0  -2    0.60    1.00
   1   0   2    0.10    1.20
   1   0   2   -1.40    0.70
   1   0   2    0.00    0.80
  -2   0  -2  129.29    6.50
  -2   0  -2  125.69    7.10
  -2   0  -2  126.49    7.30
  -2   0  -2  129.39    8.30
   2   0   2  117.19    9.50
   2   0   2  123.09    6.70
   2   0   2  119.39    7.50
  -3   0  -2   71.29    5.70
  -3   0  -2   78.29    5.50
   3   0   2   74.79    5.60
   3   0   2   77.19    7.30
  -4   0  -2    4.30    5.20
  -3   1   2   51.59    6.00
  -3   1   2   58.89    6.60
  -3   1   2   56.39    5.40
  -2   1   2  288.37   14.00
  -2   1   2  279.27   18.70
  -2   1   2  285.87   14.60
  -2   1   2  260.57   14.50
  -2   1   2  264.17   15.90
  -2   1   2  253.77   16.60
   1  -1  -2  693.73   39.10
   1  -1  -2  711.13   34.40
  -1   1   2  775.42   38.70
  -1   1   2  730.73   34.40
  -1   1   2  758.22   38.70
   0  -1  -2  403.96   20.50
   0  -1  -2  375.86   20.60
   0  -1  -2  359.76   18.30
   0  -1  -2  445.36   25.40
   0   1   2  381.16   20.50
   0   1   2  395.16   20.40
   0   1   2  407.26   25.30
   0   1   2  385.16   18.30
  -1  -1  -2  802.12   33.90
  -1  -1  -2  706.43   48.70
  -1  -1  -2  751.72   36.90
   1   1   2  754.02   34.00
   1   1   2  770.02   36.80
   1   1   2  727.73   48.60
   1   1   2  781.32   38.80
  -2  -1  -2  293.97   13.40
  -2  -1  -2  323.97   17.10
  -2  -1  -2  333.47   15.90
  -2  -1  -2  271.47   15.00
   2   1   2  282.77   13.60
   2   1   2  264.87   20.00
   2   1   2  285.97   15.80
  -3  -1  -2   59.19    5.00
  -3  -1  -2   62.29    4.20
   3   1   2   64.99    6.70
   3   1   2   62.89    4.80
   4   1   2   37.00    6.10
  -3   2   2   55.19    6.80
  -3   2   2   52.49    7.10
  -3   2   2   54.89    6.30
   2  -2  -2    8.90    5.60
  -2   2   2   12.70    3.70
  -2   2   2   12.90    2.00
  -2   2   2   13.40    2.00
  -2   2   2   13.70    3.40
   1  -2  -2  416.66   24.00
  -1   2   2  408.16   20.90
  -1   2   2  415.16   23.60
  -1   2   2  426.16   23.40
  -1   2   2  413.46   20.00
  -1   2   2  415.96   27.30
   0  -2  -2  504.05   31.10
   0  -2  -2  459.95   25.00
   0  -2  -2  482.35   25.50
   0  -2  -2  427.06   22.50
   0   2   2  486.95   31.00
   0   2   2  479.35   22.70
  -1  -2  -2  373.36   26.80
  -1  -2  -2  390.36   21.30
  -1  -2  -2  417.36   20.70
  -1  -2  -2  366.36   18.40
   1   2   2  426.36   21.00
   1   2   2  415.56   18.10
   1   2   2  411.36   20.30
   1   2   2  392.96   26.70
  -2  -2  -2   12.90    2.30
   2   2   2   14.50    2.30
   2   2   2   11.40    3.00
   2   2   2   14.40    1.90
  -3  -2  -2   59.09    5.10
   3   2   2   59.09    6.50
   3   2   2   57.79    4.50
   4   2   2   14.40    4.30
   3  -3  -2  120.69   16.60
  -3   3   2  111.99   10.90
  -3   3   2  106.49    9.30
   2  -3  -2  820.22   46.40
  -2   3   2  848.52   51.89
  -2   3   2  772.02   40.10
  -2   3   2  806.82   45.90
   1  -3  -2  496.25   27.30
  -1   3   2  490.05   24.40
  -1   3   2  495.55   27.70
  -1   3   2  506.55   32.00
  -1   3   2  386.66   22.60
  -1   3   2  481.65   26.70
   0  -3  -2 1016.80   53.89
   0  -3  -2 1229.38   69.19
   0   3   2 1089.89   68.59
   0   3   2 1089.49   48.60
   0   3   2  969.60   55.69
   0   3   2  970.90   49.30
  -1  -3  -2  439.76   25.80
  -1  -3  -2  504.85   25.20
   1   3   2  461.65   21.80
   1   3   2  458.25   24.50
   1   3   2  484.85   22.10
   1   3   2  486.55   32.10
   1   3   2  482.35   25.30
  -2  -3  -2  862.61   42.80
   2   3   2  863.21   43.60
   2   3   2  833.82   42.10
   2   3   2  812.22   55.49
  -3  -3  -2  132.39    9.30
   3   3   2  144.99    8.50
   3   3   2  134.09   11.80
   4   3   2   29.20    5.90
  -4   4   2   72.99    9.80
  -4   4   2   76.89    9.30
   3  -4  -2   22.20    8.50
  -3   4   2    1.60    4.10
  -3   4   2    3.10    3.50
   2  -4  -2   70.29   10.10
  -2   4   2   75.49    8.90
  -2   4   2   58.99    7.30
  -2   4   2   62.19    8.70
   1  -4  -2  228.48   15.80
  -1   4   2  230.78   17.50
  -1   4   2  229.98   16.00
  -1   4   2  201.18   13.60
   0  -4  -2  305.57   18.50
   0  -4  -2  250.17   18.20
   0  -4  -2  353.46   22.90
   0   4   2  291.17   15.00
   0   4   2  280.37   16.30
   0   4   2  322.87   21.90
   0   4   2  295.07   18.40
  -1  -4  -2  205.18   13.40
   1   4   2  212.08   12.80
   1   4   2  196.68   16.30
   1   4   2  220.88   13.10
   1   4   2  220.98   10.80
   1   4   2  229.68   11.50
  -2  -4  -2   75.29    6.80
   2   4   2   74.09    5.80
   2   4   2   78.79    5.30
   2   4   2   75.19    7.90
  -3  -4  -2    9.50    3.50
   3   4   2   12.50    4.00
   4   4   2   76.89    9.50
  -4   5   2    3.40    4.40
   3  -5  -2  186.68   19.20
  -3   5   2  179.98   16.00
  -3   5   2  178.18   13.80
   2  -5  -2    2.30    3.10
   2  -5  -2   10.40    5.70
  -2   5   2    9.50    4.10
  -2   5   2   13.80    5.20
  -2   5   2   12.80    5.60
   1  -5  -2  235.88   17.50
  -1   5   2  244.98   19.90
  -1   5   2  241.18   15.60
  -1   5   2  279.97   18.90
   0  -5  -2  976.80   51.29
   0   5   2 1095.79   64.79
   0   5   2  851.01   46.50
   0   5   2  930.11   52.79
  -1  -5  -2  223.18   15.10
   1   5   2  239.98   13.00
   1   5   2  228.28   11.80
   1   5   2  251.57   14.80
   1   5   2  218.28   18.20
  -2  -5  -2    7.30    3.50
   2   5   2    8.50    2.10
   2   5   2    7.80    0.90
   2   5   2    9.80    4.10
  -3  -5  -2  225.88   15.40
   3   5   2  228.18   13.20
   3   5   2  231.88   18.80
   4   5   2   11.50    5.10
   3  -6  -2    8.60    7.70
  -3   6   2   -1.20    3.70
  -3   6   2    7.50    5.30
   2  -6  -2   52.99    9.70
  -2   6   2   65.49    9.80
  -2   6   2   41.10    7.10
  -2   6   2   69.19   10.20
   1  -6  -2  382.56   25.10
  -1   6   2  379.96   25.80
  -1   6   2  386.66   28.90
  -1   6   2  363.66   22.30
   0  -6  -2  198.48   15.50
   0   6   2  222.28   16.00
   0   6   2  194.38   13.90
   0   6   2  244.58   18.80
  -1  -6  -2  368.56   22.40
   1   6   2  355.56   21.80
   1   6   2  348.67   27.00
   1   6   2  363.26   19.50
  -2  -6  -2   54.99    7.80
   2   6   2   62.89    5.50
   2   6   2   61.29    4.20
   2   6   2   63.99    8.70
  -3  -6  -2    6.90    5.00
   3   6   2    7.70    4.50
   3   6   2    6.30    2.00
   3  -7  -2   23.50   10.00
  -3   7   2   12.20    5.10
  -3   7   2   17.30    7.00
   2  -7  -2  103.09   13.80
  -2   7   2   71.19    9.90
  -2   7   2  124.79   13.70
  -2   7   2   91.99   12.70
   1  -7  -2   35.00    8.10
  -1   7   2   36.70    8.50
  -1   7   2   28.20    7.30
  -1   7   2   27.60    6.30
   0  -7  -2  149.59   14.00
   0   7   2  174.98   14.80
   0   7   2  195.28   17.00
   0   7   2  168.78   13.30
  -1  -7  -2   30.60    6.50
   1   7   2   38.70    6.00
   1   7   2   37.90    7.90
   1   7   2   37.30    5.70
  -2  -7  -2   97.49   10.30
   2   7   2  103.49    8.30
   2   7   2  118.69   12.40
   2   7   2  101.59    6.90
   3   7   2   17.40    5.90
   3   7   2   18.40    3.00
   3  -8  -2    4.30    8.60
  -3   8   2    7.90    6.50
  -3   8   2    8.30    5.30
   2  -8  -2   18.80    8.10
  -2   8   2   24.50    6.70
  -2   8   2   33.60    8.60
  -2   8   2   22.20    7.40
   1  -8  -2   53.09   10.00
  -1   8   2   59.49    9.20
  -1   8   2   71.39   11.90
  -1   8   2   56.69   10.60
   0  -8  -2   43.80    8.60
   0   8   2   49.10    8.80
   0   8   2   51.19    8.30
   0   8   2   61.49   10.60
  -1  -8  -2   46.70    8.50
   1   8   2   52.79    7.60
   1   8   2   47.30    9.40
   1   8   2   48.50    7.50
  -2  -8  -2   22.90    6.90
   2   8   2   20.30    6.50
   2   8   2   26.70    4.90
   3   8   2    8.90    5.70
   2  -9  -2   29.20    9.70
  -2   9   2   29.20    7.30
  -2   9   2   16.20    7.70
   1  -9  -2   -2.20    5.10
  -1   9   2    1.30    4.70
  -1   9   2   -3.00    5.00
  -1   9   2    0.70    6.50
   0  -9  -2    1.50    5.20
   0   9   2   -2.00    5.80
   0   9   2    1.40    4.40
   0   9   2    0.40    4.50
  -1  -9  -2    0.70    5.00
   1   9   2    0.10    4.00
   1   9   2    0.20    5.50
   1   9   2   -1.70    3.30
  -2  -9  -2   24.50    7.40
   2   9   2   25.00    5.30
   2   9   2   17.50    7.20
   2 -10  -2    9.70    8.90
  -2  10   2    8.40    5.80
  -2  10   2   14.70    7.70
   1 -10  -2   25.60    9.40
  -1  10   2   30.10    8.30
  -1  10   2   25.70    8.50
  -1  10   2   17.00    8.80
   0 -10  -2   23.10    8.40
   0  10   2   37.90   10.30
   0  10   2   29.90    8.20
   0  10   2   17.30    6.90
  -1 -10  -2   19.80    7.40
   1  10   2   24.40    6.70
   1  10   2   30.20    9.20
   1  10   2   24.80    6.70
  -2 -10  -2    4.60    6.60
   2  10   2    7.90    4.30
   2  10   2    5.20    5.80
   1 -11  -2   47.30   11.60
  -1  11   2   48.80   12.70
  -1  11   2   38.70   11.00
  -1  11   2   59.29   11.30
   0 -11  -2    8.50    7.10
   0  11   2   13.10    7.00
   0  11   2   16.80    9.10
   0  11   2   15.30    7.60
  -1 -11  -2   46.20   10.90
   1  11   2   46.90   11.50
   1  11   2   53.19   10.30
   1  11   2   44.80    9.80
   0 -12  -2   11.30    8.10
   0  12   2   19.20   11.10
   0  12   2    5.80    7.50
   0  12   2    5.20    6.80
   0  12  -3  122.29   22.20
   0  12  -3  133.19   19.20
   0 -12   3   89.29   15.40
   0 -12   3   89.49    9.70
   1  11  -3   19.80    8.20
   1  11  -3   10.70    9.60
  -1 -11   3   15.80    7.40
  -1 -11   3   13.50    4.30
   0  11  -3   -5.90    8.30
   0  11  -3    3.70    7.30
   0 -11   3    1.70    3.20
   0 -11   3    1.40    5.40
  -1  11  -3    9.70   11.80
  -1  11  -3    7.90    8.10
   1 -11   3   17.40    5.20
   1 -11   3   10.40    7.10
   2  10  -3    8.30    4.60
   2  10  -3    7.50    7.80
  -2 -10   3    6.20    6.00
   1  10  -3   11.30    6.30
   1  10  -3   10.60    8.00
  -1 -10   3   11.10    6.50
  -1 -10   3    9.90    3.70
   0  10  -3   61.19   15.90
   0  10  -3   59.69   12.20
   0 -10   3   58.49    7.30
   0 -10   3   63.79   11.40
  -1  10  -3   19.30   12.30
  -1  10  -3   10.00    7.50
   1 -10   3    6.40    6.40
   1 -10   3   10.80    4.00
  -2  10  -3   13.90    7.60
  -2  10  -3   10.50   11.70
   2 -10   3    2.90    3.80
   2 -10   3   15.80    8.40
   2   9  -3   14.30    4.80
   2   9  -3   12.50    7.50
  -2  -9   3   14.70    6.30
   1   9  -3  302.07   21.90
   1   9  -3  274.47   27.00
  -1  -9   3  262.77   20.50
  -1  -9   3  258.17   15.50
   0   9  -3    6.70    9.10
   0   9  -3    2.50    5.40
   0  -9   3    4.80    3.10
   0  -9   3   10.40    5.70
  -1   9  -3  255.37   23.00
   1  -9   3  232.18   15.00
   1  -9   3  232.98   19.70
  -2   9  -3   11.60    7.30
  -2   9  -3    4.60   10.30
   2  -9   3    9.40    3.90
   2  -9   3   11.20    7.40
   3   8  -3    6.40    5.70
  -3  -8   3    3.30    5.10
   2   8  -3  153.38   16.50
   2   8  -3  125.89   10.70
  -2  -8   3  101.19   11.40
   1   8  -3   65.49    9.80
   1   8  -3   76.09   13.80
  -1  -8   3   65.99    9.90
  -1  -8   3   83.29    6.50
   0   8  -3  531.45   42.00
   0   8  -3  529.65   34.30
   0  -8   3  444.96   29.70
   0  -8   3  446.86   24.70
  -1   8  -3   97.39   17.40
  -1   8  -3   71.49   12.60
   1  -8   3   78.49    7.30
   1  -8   3   92.99   12.20
  -2   8  -3  102.69   15.50
  -2   8  -3  105.09   18.60
   2  -8   3  114.79    9.40
   2  -8   3  122.09   15.00
  -3   8  -3    6.40    6.20
   3  -8   3    5.80    3.60
   3  -8   3    8.70    6.90
   3   7  -3   22.70    7.00
  -3  -7   3   22.00    6.40
   2   7  -3  125.29   13.90
   2   7  -3  108.99    9.10
  -2  -7   3   97.29   10.40
  -2  -7   3  100.79    6.70
   1   7  -3  258.17   18.30
   1   7  -3  236.98   23.30
  -1  -7   3  250.07   13.40
  -1  -7   3  217.48   16.60
   0   7  -3  118.49   17.10
   0   7  -3  141.69   14.20
   0  -7   3  111.39    8.00
   0  -7   3   93.79   10.40
  -1   7  -3  253.07   25.90
  -1   7  -3  236.68   20.50
   1  -7   3  212.68   13.70
   1  -7   3  248.28   17.90
  -2   7  -3   49.40   12.60
  -2   7  -3   84.59   12.80
   2  -7   3   90.39   11.90
   2  -7   3   96.39    7.90
  -3   7  -3    7.00    8.20
  -3   7  -3    6.30    6.10
   3  -7   3   25.50    8.30
   3  -7   3   25.50    5.10
   3   6  -3   45.20    8.40
  -3  -6   3   50.09    7.70
   2   6  -3  163.08   10.90
   2   6  -3  166.78   16.20
  -2  -6   3  156.88    8.80
  -2  -6   3  163.68   12.80
   1   6  -3   89.69    9.40
   1   6  -3   93.79   12.90
  -1  -6   3   83.49    5.90
  -1  -6   3   83.39    8.60
   0   6  -3  363.96   30.80
   0   6  -3  353.06   24.50
   0  -6   3  307.47   17.10
   0  -6   3  320.97   20.80
  -1   6  -3   51.19   12.50
  -1   6  -3   69.09   11.20
   1  -6   3  100.49    9.40
   1  -6   3   79.59    6.40
  -2   6  -3  105.59   13.60
   2  -6   3  166.08   13.50
   2  -6   3  150.58   10.00
  -3   6  -3    9.20    7.40
  -3   6  -3   25.90    7.90
   3  -6   3   47.00    5.90
   3  -6   3   44.60    9.20
   4   5  -3   33.80    6.90
   3   5  -3   86.39   10.20
  -3  -5   3   93.39    9.10
   2   5  -3   73.39    5.60
   2   5  -3   72.39    3.90
   2   5  -3   72.69    9.60
  -2  -5   3   66.99    7.30
  -2  -5   3   75.39    4.50
  -2  -5   3   53.99    7.60
   1   5  -3  254.27   16.40
   1   5  -3  251.47   21.60
   1   5  -3  250.57   12.00
  -1  -5   3  211.18   14.90
  -1  -5   3  230.78   12.30
   0   5  -3  709.03   53.19
   0   5  -3  713.53   42.30
   0  -5   3  691.83   33.60
   0  -5   3  724.23   38.20
  -1   5  -3  170.98   16.40
   1  -5   3  206.78   11.90
   1  -5   3  244.78   15.20
  -2   5  -3   43.90    8.80
   2  -5   3   70.59    8.90
   2  -5   3   63.49    5.90
  -3   5  -3   48.80    9.40
   3  -5   3   81.59   11.40
  -4   5  -3   22.40    6.00
  -4   5  -3   21.00    7.80
   4   4  -3   46.20    7.40
   3   4  -3  137.19   12.30
  -3  -4   3  118.69   10.00
   2   4  -3   23.70    5.30
   2   4  -3   20.50    2.30
   2   4  -3   21.30    2.00
  -2  -4   3   18.30    4.00
  -2  -4   3   18.30    4.00
  -2  -4   3   20.20    2.00
   1   4  -3  550.94   31.10
   1   4  -3  604.94   25.70
   1   4  -3  555.44   40.10
  -1  -4   3  523.75   25.90
  -1  -4   3  534.65   29.80
   0   4  -3 1095.99   86.69
   0   4  -3 1345.67   70.09
   0  -4   3 1338.97   58.39
   0  -4   3 1309.67   64.49
   1  -4   3  551.64   29.60
   1  -4   3  518.45   25.80
  -2   4  -3   12.60    4.90
   2  -4   3   20.20    3.40
   2  -4   3   26.20    5.40
  -3   4  -3   67.19   10.40
  -4   4  -3   25.80    7.90
   3   3  -3    6.50    3.20
  -3  -3   3    6.40    3.00
   2   3  -3  152.28    8.00
   2   3  -3  145.39    7.70
   2   3  -3  155.98   13.00
  -2  -3   3  143.79    7.30
  -2  -3   3  155.78   10.30
   1   3  -3  209.18   17.10
   1   3  -3  211.48    9.60
   1   3  -3  205.28   12.40
   1   3  -3  194.98   11.80
  -1  -3   3  190.48    9.80
  -1  -3   3  190.68   12.00
   0   3  -3   22.20    5.00
   0   3  -3   24.40    7.40
   0   3  -3   33.70    2.70
   0   3  -3   38.20    4.00
   0  -3   3   33.20    2.80
   0  -3   3   40.30    4.10
  -1   3  -3   85.69    8.80
  -2   3  -3  162.28   11.00
   2  -3   3  144.19    9.00
   2  -3   3  139.19   10.90
  -3   3  -3    2.70    3.70
  -3   3  -3   -0.60    3.30
   3  -3   3    6.10    2.60
   3  -3   3   10.90    6.40
   3   2  -3   54.79    6.00
  -3  -2   3   52.99    5.80
   2   2  -3    3.70    2.40
   2   2  -3    4.20    1.70
  -2  -2   3    2.10    0.70
  -2  -2   3    3.30    2.00
   1   2  -3  838.82   40.20
   1   2  -3  851.51   35.90
   1   2  -3  782.82   53.09
   1   2  -3  810.02   41.30
  -1  -2   3  775.92   40.10
  -1  -2   3  657.03   53.89
  -1  -2   3  830.72   36.00
   0   2  -3  552.94   27.50
   0   2  -3  521.15   26.80
   0   2  -3  534.95   24.30
   0  -2   3  509.75   26.90
   0  -2   3  512.15   24.30
  -1   2  -3  833.72   41.30
  -1   2  -3  863.61   42.70
  -1   2  -3  862.31   37.90
   1  -2   3  801.62   42.70
   1  -2   3  848.62   41.70
   1  -2   3  731.23   37.80
  -2   2  -3   -0.30    2.70
  -2   2  -3    3.40    2.60
   2  -2   3    1.30    1.60
   2  -2   3    2.10    1.50
   2  -2   3    3.50    3.00
  -3   2  -3   25.70    5.80
   3   1  -3   64.09    6.00
  -3  -1   3   53.79    5.70
  -3  -1   3   63.09    3.80
   2   1  -3  179.28   13.10
   2   1  -3  181.38   10.00
  -2  -1   3  185.18    9.00
  -2  -1   3  179.98   11.20
  -2  -1   3  185.88   15.70
   1   1  -3   40.50    5.10
   1   1  -3   47.30    4.40
   1   1  -3   34.40    2.80
  -1  -1   3   26.60    6.20
  -1  -1   3   48.90    2.50
  -1  -1   3   36.80    3.70
   0   1  -3  111.49    5.80
   0   1  -3  115.99    6.70
   0   1  -3  127.29    6.50
   0  -1   3  112.89    6.50
   0  -1   3  114.69    6.70
   0  -1   3  107.79    5.80
  -1   1  -3   40.00    3.30
  -1   1  -3   38.10    3.10
  -1   1  -3   42.40    4.00
  -1   1  -3   44.30    3.00
   1  -1   3   36.80    2.80
   1  -1   3   42.90    3.60
   1  -1   3   42.00    3.30
  -2   1  -3  202.88   10.10
  -2   1  -3  209.78   11.60
   2  -1   3  185.68   10.30
   2  -1   3  187.28   11.40
   2  -1   3  204.98   13.10
  -3   1  -3   56.99    4.80
   3  -1   3   59.59    5.20
   3  -1   3   60.69    4.90
  -4   1  -3    0.80    5.40
  -3   0   3    3.20    1.90
  -3   0   3    4.70    2.60
  -3   0   3    1.00    1.70
   2   0  -3   16.30    2.30
  -2   0   3   10.60    3.60
  -2   0   3   11.00    2.80
  -2   0   3   11.40    1.10
  -2   0   3   12.60    2.10
  -2   0   3    9.70    1.70
  -2   0   3   11.00    2.00
   1   0  -3   59.89    4.00
   1   0  -3   61.49    4.20
   1   0  -3   60.39    5.20
  -1   0   3   60.39    3.90
  -1   0   3   62.59    3.30
  -1   0   3   59.39    5.00
  -1   0   3   70.49    8.90
   0   0  -3   -1.30    1.10
   0   0  -3   -0.50    0.60
   0   0  -3   -2.60    1.70
   0   0  -3   -0.90    0.70
   0   0   3   -1.90    1.10
   0   0   3   -0.30    0.70
   0   0   3   -2.40    0.60
   0   0   3   -2.80    1.70
  -1   0  -3   70.39    4.20
  -1   0  -3   61.59    5.30
  -1   0  -3   68.49    3.60
   1   0   3   62.79    5.40
   1   0   3   68.39    3.70
   1   0   3   62.19    4.20
  -2   0  -3    9.30    1.40
  -2   0  -3   12.70    2.20
  -2   0  -3   12.30    1.50
   2   0   3   10.70    1.70
   2   0   3    9.70    1.80
   2   0   3    9.40    2.60
  -3   0  -3    4.10    1.60
   3   0   3    4.80    2.00
   3   0   3    5.30    1.90
   3   0   3    2.50    2.60
  -4   0  -3    5.60    5.70
  -4   1   3   26.90    5.60
  -3   1   3   62.19    6.30
  -3   1   3   66.09    6.70
  -3   1   3   58.19    5.60
   2  -1  -3  188.28   12.60
  -2   1   3  191.58   12.20
  -2   1   3  193.48   11.90
  -2   1   3  185.38   13.70
  -2   1   3  199.48   10.60
  -2   1   3  195.08   10.40
  -2   1   3  180.58   10.80
   1  -1  -3   36.00    3.80
   1  -1  -3   35.90    4.20
   1  -1  -3   38.00    6.50
  -1   1   3   40.30    3.40
  -1   1   3   46.00    3.90
  -1   1   3   33.80    5.80
   0  -1  -3  113.69    6.70
   0  -1  -3   95.79    6.10
   0  -1  -3  122.89    8.30
   0  -1  -3  128.09    8.00
   0   1   3  110.19    6.10
   0   1   3  108.89    7.80
   0   1   3  118.09    6.60
   0   1   3  113.99    7.90
  -1  -1  -3   42.90    2.40
  -1  -1  -3   39.10    2.90
  -1  -1  -3   35.80    3.90
   1   1   3   41.30    2.30
   1   1   3   41.20    3.00
   1   1   3   39.00    3.80
  -2  -1  -3  201.58    9.10
  -2  -1  -3  188.18   10.00
  -2  -1  -3  209.58   10.70
   2   1   3  187.58   14.00
   2   1   3  180.88    9.40
   2   1   3  188.78   10.90
  -3  -1  -3   51.49    4.20
  -3  -1  -3   64.69    4.50
   3   1   3   61.89    4.90
   3   1   3   60.29    6.70
   4   1   3   22.50    5.00
  -4   2   3   29.70    6.00
  -3   2   3   55.29    6.40
  -3   2   3   53.19    6.60
  -3   2   3   53.59    6.90
   2  -2  -3   -0.50    5.10
  -2   2   3    1.40    1.20
  -2   2   3    2.20    2.30
  -2   2   3    0.20    2.20
   1  -2  -3  851.01   43.30
   1  -2  -3  734.13   42.60
   1  -2  -3  754.62   37.80
  -1   2   3  816.02   38.00
  -1   2   3  820.72   42.20
  -1   2   3  819.22   42.40
   0  -2  -3  494.15   28.50
   0  -2  -3  544.05   28.50
   0  -2  -3  614.94   35.00
   0  -2  -3  485.15   25.30
   0   2   3  542.05   34.70
   0   2   3  543.55   28.20
   0   2   3  534.65   28.40
   0   2   3  523.35   25.40
  -1  -2  -3  775.02   52.49
  -1  -2  -3  896.91   40.50
  -1  -2  -3  767.12   41.90
  -1  -2  -3  743.73   36.70
   1   2   3  787.32   39.90
   1   2   3  814.32   52.29
   1   2   3  859.31   36.40
   1   2   3  824.72   41.60
  -2  -2  -3    3.00    1.50
  -2  -2  -3    1.60    0.80
   2   2   3    2.00    0.70
   2   2   3    1.70    1.20
   2   2   3    2.10    2.10
   2   2   3    2.70    1.20
  -3  -2  -3   61.39    4.90
   3   2   3   59.39    6.90
   3   2   3   59.49    4.70
   4   2   3   30.40    6.20
  -4   3   3   49.80    7.90
   3  -3  -3    0.10    6.80
  -3   3   3    6.80    4.00
  -3   3   3    5.80    3.40
   2  -3  -3   93.49   11.50
   2  -3  -3  101.39   12.30
  -2   3   3  146.49   10.00
  -2   3   3  162.68   11.20
   1  -3  -3  167.18   13.10
   1  -3  -3  202.88   14.10
  -1   3   3  187.38   13.10
  -1   3   3  200.28   12.90
  -1   3   3  194.98   11.80
   0  -3  -3   39.00    4.80
   0  -3  -3   33.00    5.10
   0  -3  -3   40.50    4.60
   0  -3  -3   33.50    3.90
   0   3   3   41.20    4.30
   0   3   3   48.40    4.70
   0   3   3   33.40    4.80
   0   3   3   38.50    4.30
  -1  -3  -3  172.98   10.10
  -1  -3  -3  181.88   11.70
  -1  -3  -3  208.38   12.00
   1   3   3  194.48   14.50
   1   3   3  208.88   11.30
   1   3   3  192.98   11.20
   1   3   3  203.38    9.80
  -2  -3  -3  149.39    9.70
   2   3   3  150.98   12.40
   2   3   3  165.58    9.10
   2   3   3  150.98    8.80
   3   3   3    8.60    3.50
   4   3   3   49.30    7.50
  -4   4   3   33.20    7.00
  -4   4   3   37.50    6.90
   3  -4  -3  127.19   17.90
  -3   4   3  130.29   12.00
  -3   4   3  118.39   10.50
   2  -4  -3   23.10    6.90
  -2   4   3   21.70    2.40
  -2   4   3   22.20    4.70
  -2   4   3   18.40    4.80
  -2   4   3   23.60    3.90
   1  -4  -3  571.54   32.50
  -1   4   3  543.05   28.80
  -1   4   3  577.04   32.60
  -1   4   3  546.85   37.10
   0  -4  -3 1554.44   74.39
   0   4   3 1334.47   67.39
   0   4   3 1433.06   66.39
   0   4   3 1541.15   93.79
   0   4   3 1412.46   73.29
   0   4   3 1450.45   76.29
  -1  -4  -3  558.24   29.80
   1   4   3  542.95   29.00
   1   4   3  572.04   29.90
   1   4   3  543.95   25.80
   1   4   3  544.25   37.40
   1   4   3  548.55   26.30
  -2  -4  -3   22.50    4.10
   2   4   3   16.90    4.30
   2   4   3   21.10    2.90
   2   4   3   22.20    2.50
   3   4   3  127.39    8.30
   3   4   3  135.59   12.30
   4   4   3   54.79    8.30
  -4   5   3   29.80    6.80
   3  -5  -3   94.59   15.10
  -3   5   3   88.39   10.50
  -3   5   3   87.59    9.50
   2  -5  -3   68.79   10.80
  -2   5   3   71.09    9.70
  -2   5   3   51.09    7.40
  -2   5   3   77.19    7.90
   1  -5  -3  226.18   17.50
  -1   5   3  262.77   17.90
  -1   5   3  252.97   18.60
  -1   5   3  226.38   15.30
   0  -5  -3  809.62   44.20
   0   5   3  768.82   39.90
   0   5   3  845.32   45.00
   0   5   3  820.52   54.19
  -1  -5  -3  243.58   15.70
   1   5   3  225.68   18.40
   1   5   3  252.27   15.00
   1   5   3  224.08   12.10
   1   5   3  246.78   13.20
  -2  -5  -3   87.29    7.90
   2   5   3   72.79    8.60
   2   5   3   76.79    4.00
   2   5   3   80.39    5.90
   3   5   3  113.79   11.60
   3   5   3  115.59    7.60
   4   5   3   32.40    7.20
   3  -6  -3   57.99   12.70
  -3   6   3   40.90    8.70
  -3   6   3   45.80    7.60
   2  -6  -3  174.38   16.90
  -2   6   3  186.58   15.90
  -2   6   3  177.68   15.00
  -2   6   3  179.98   14.10
   1  -6  -3   83.19   11.30
  -1   6   3   94.59    9.30
  -1   6   3  101.19   11.00
  -1   6   3  103.69   10.50
   0  -6  -3  343.07   23.10
   0   6   3  348.77   20.60
   0   6   3  397.76   27.30
   0   6   3  349.87   22.90
  -1  -6  -3   75.49    8.80
   1   6   3   90.79   10.10
   1   6   3   93.29    7.60
   1   6   3   95.39    8.10
  -2  -6  -3  185.38   13.70
   2   6   3  178.18    9.20
   2   6   3  187.38   16.10
   2   6   3  174.68   11.40
   3   6   3   53.49    4.80
   3   6   3   56.69    8.30
   3  -7  -3   18.00    9.00
  -3   7   3   20.90    6.00
  -3   7   3   13.20    6.80
   2  -7  -3  110.49   15.00
  -2   7   3  108.99   11.80
  -2   7   3  117.49   13.10
  -2   7   3  100.79   10.70
   1  -7  -3  269.07   20.70
  -1   7   3  244.48   20.00
  -1   7   3  275.77   21.90
   0  -7  -3  102.29   11.60
   0   7   3  127.29   11.80
   0   7   3  131.29   11.10
   0   7   3  138.89   13.30
  -1  -7  -3  219.38   17.60
   1   7   3  250.07   20.90
   1   7   3  266.87   17.20
   1   7   3  261.97   15.60
  -2  -7  -3  118.29   11.70
   2   7   3  113.09    7.30
   2   7   3  123.39   12.80
   2   7   3  114.99    9.00
   3   7   3   24.40    6.50
   3   7   3   25.20    3.60
   3  -8  -3    4.20    8.90
  -3   8   3    1.00    5.60
  -3   8   3    8.30    5.70
   2  -8  -3  125.49   16.90
  -2   8   3  154.28   14.50
  -2   8   3  132.59   15.00
  -2   8   3  124.49   13.00
   1  -8  -3   68.89   11.60
  -1   8   3   87.69   11.90
  -1   8   3   83.69   10.80
  -1   8   3   78.39   11.70
   0  -8  -3  510.85   34.40
   0   8   3  513.35   34.60
   0   8   3  635.54   41.80
   0   8   3  560.24   31.50
  -1  -8  -3   88.19   11.60
   1   8   3   89.69   11.80
   1   8   3   92.79    9.20
   1   8   3   90.19    9.80
  -2  -8  -3  154.38   13.90
   2   8   3  142.49   15.10
   2   8   3  148.99   11.20
   3   8   3    8.20    5.40
   3   8   3    7.70    2.70
   2  -9  -3    6.90    7.30
  -2   9   3    8.60    6.70
  -2   9   3    8.80    5.20
   1  -9  -3  302.77   24.70
  -1   9   3  285.97   21.50
  -1   9   3  292.47   25.70
  -1   9   3  327.07   25.00
   0  -9  -3    0.10    4.50
   0   9   3    5.70    4.90
   0   9   3   11.10    7.10
   0   9   3    1.20    4.30
  -1  -9  -3  238.48   20.60
   1   9   3  300.57   20.40
   1   9   3  270.07   18.30
   1   9   3  290.67   24.70
  -2  -9  -3    4.30    5.40
   2   9   3    7.50    5.40
   2   9   3   10.60    4.00
   2 -10  -3   11.60    8.50
  -2  10   3    7.70    7.20
  -2  10   3   11.00    6.60
   1 -10  -3   26.30    8.90
  -1  10   3   13.30    7.70
  -1  10   3    6.60    5.80
  -1  10   3   13.30    7.30
   0 -10  -3   66.89   12.10
   0  10   3   90.59   13.20
   0  10   3   54.49   10.40
   0  10   3   62.49   10.70
  -1 -10  -3    9.10    6.30
   1  10   3    5.10    5.10
   1  10   3    8.50    5.40
   1  10   3   13.70    7.30
  -2 -10  -3    9.50    7.10
   2  10   3    8.90    4.10
   2  10   3   12.10    6.50
   1 -11  -3    1.10    7.40
  -1  11   3   15.80    7.80
  -1  11   3    7.40    6.90
  -1  11   3   14.00    8.50
   0 -11  -3   -2.30    6.20
   0  11   3    2.20    5.80
   0  11   3    4.30    7.20
   0  11   3    2.40    5.90
  -1 -11  -3   13.40    8.20
   1  11   3   13.30    7.90
   1  11   3   11.20    6.40
   1  11   3   16.70    7.00
   0 -12  -3   96.99   17.10
   0  12   3  108.59   15.60
   0  12   3  149.59   18.80
   0  12   3  115.59   16.90
   0 -12   4   15.60    4.90
   0 -12   4    8.60    7.70
   1  11  -4   57.99   15.30
   1  11  -4   49.80   11.10
  -1 -11   4   44.80    6.60
  -1 -11   4   42.40   10.10
   0  11  -4  180.98   24.40
   0  11  -4  185.08   20.40
   0 -11   4  178.68   17.90
   0 -11   4  164.38   12.50
  -1  11  -4   41.60   11.70
  -1  11  -4   67.09   17.60
   1 -11   4   50.49    7.50
   1 -11   4   54.19   12.40
   2  10  -4    5.40    7.70
   2  10  -4    3.70    4.50
  -2 -10   4    1.10    5.20
   1  10  -4  220.08   19.50
   1  10  -4  209.88   24.50
  -1 -10   4  202.68   13.30
  -1 -10   4  204.78   18.70
   0  10  -4  634.74   49.00
   0  10  -4  638.74   40.60
   0 -10   4  490.95   28.60
   0 -10   4  474.55   34.80
  -1  10  -4  276.67   29.00
  -1  10  -4  231.28   22.40
   1 -10   4  203.88   19.30
   1 -10   4  188.28   14.10
  -2  10  -4    7.00    6.90
  -2  10  -4    9.90   11.90
   2 -10   4   11.50    4.40
   2 -10   4   15.00    8.00
   2   9  -4   12.20    4.70
   2   9  -4   12.30    7.80
  -2  -9   4    6.50    5.10
   1   9  -4  154.28   14.80
   1   9  -4  144.99   19.40
  -1  -9   4  119.99    9.20
  -1  -9   4  131.69   13.70
   0   9  -4  254.67   26.90
   0   9  -4  230.78   21.20
   0  -9   4  202.78   17.50
   0  -9   4  190.68   13.10
  -1   9  -4  152.18   21.00
  -1   9  -4   97.89   15.40
   1  -9   4  128.79   13.70
   1  -9   4  112.09    9.60
  -2   9  -4   -0.60    5.30
  -2   9  -4    2.70   10.90
   2  -9   4   10.60    3.90
   2  -9   4    8.80    6.80
   3   8  -4   23.80    7.80
  -3  -8   4   18.20    6.40
   2   8  -4   -0.50    3.00
   2   8  -4    1.00    5.70
  -2  -8   4    1.70    4.20
   1   8  -4  269.67   19.90
   1   8  -4  216.48   23.80
  -1  -8   4  225.28   13.50
  -1  -8   4  241.98   18.10
   0   8  -4  336.87   25.30
   0   8  -4  327.17   30.80
   0  -8   4  288.07   20.90
   0  -8   4  263.67   16.40
  -1   8  -4  201.58   20.00
  -1   8  -4  261.27   26.90
   1  -8   4  215.18   13.70
   1  -8   4  208.58   17.70
  -2   8  -4   -1.80    7.30
  -2   8  -4   -1.80    4.50
   2  -8   4    1.80    5.20
   2  -8   4   -1.70    2.70
  -3   8  -4    7.20    6.60
   3  -8   4   19.00    5.10
   3  -8   4   17.90    8.20
   3   7  -4   54.39   10.10
  -3  -7   4   51.69    8.50
   2   7  -4  124.19   15.20
   2   7  -4  138.09   10.50
  -2  -7   4  129.39   12.00
  -2  -7   4  130.49    8.00
   1   7  -4   68.49    9.70
   1   7  -4   68.19   13.30
  -1  -7   4   66.29    5.60
  -1  -7   4   81.99    8.70
   0   7  -4   13.10    9.00
   0   7  -4   15.20    6.20
   0  -7   4   16.90    3.40
   0  -7   4   15.70    5.20
  -1   7  -4   43.30   12.40
  -1   7  -4   57.29   10.90
   1  -7   4   87.09   10.80
   1  -7   4   65.99    6.10
  -2   7  -4   98.19   14.50
   2  -7   4  130.49    9.70
   2  -7   4  150.08   13.90
  -3   7  -4   25.20    8.40
  -3   7  -4    6.40    8.50
   3  -7   4   43.70    9.80
   3  -7   4   49.70    6.40
   3   6  -4   56.29    9.60
  -3  -6   4   62.59    8.80
   2   6  -4  269.37   22.70
   2   6  -4  254.47   15.80
  -2  -6   4  250.57   17.40
  -2  -6   4  257.37   13.20
   1   6  -4  406.26   25.00
   1   6  -4  400.46   32.30
  -1  -6   4  375.26   23.20
  -1  -6   4  361.86   19.10
   0   6  -4   23.50    6.50
   0   6  -4   16.20    8.40
   0  -6   4   12.60    4.30
   0  -6   4   20.50    3.20
  -1   6  -4  283.87   24.00
   1  -6   4  338.87   18.20
   1  -6   4  396.86   22.60
  -2   6  -4  155.48   17.00
   2  -6   4  218.38   13.00
   2  -6   4  235.38   16.70
  -3   6  -4   42.30    9.50
   3  -6   4   59.29   10.10
   3  -6   4   49.70    6.40
   3   5  -4  123.09   12.60
  -3  -5   4  114.69   10.40
   2   5  -4   70.49    9.40
   2   5  -4   60.89    3.70
   2   5  -4   63.79    5.20
  -2  -5   4   57.49    4.10
  -2  -5   4   58.89    6.90
  -2  -5   4   44.80    7.10
   1   5  -4   34.80    8.50
   1   5  -4   30.60    5.60
  -1  -5   4   34.20    5.40
  -1  -5   4   33.90    3.30
   0   5  -4   14.40    7.60
   0   5  -4   37.10    7.40
   0  -5   4   22.80    3.10
   0  -5   4   24.70    4.60
  -1   5  -4   18.30    5.70
   1  -5   4   26.90    5.30
   1  -5   4   27.90    3.80
  -2   5  -4   40.20    8.40
   2  -5   4   64.99    8.60
   2  -5   4   56.49    5.50
  -3   5  -4   90.49   13.40
   3  -5   4  122.19    9.20
   3  -5   4  141.49   13.40
   3   4  -4   64.69    8.10
  -3  -4   4   53.49    7.10
   2   4  -4  143.19    7.50
   2   4  -4  143.29    8.40
   2   4  -4  157.88   13.80
  -2  -4   4  142.99    7.50
  -2  -4   4  147.29   10.70
   1   4  -4  118.59    9.90
   1   4  -4  131.79   14.20
   1   4  -4  131.89    6.50
  -1  -4   4  117.39    6.70
  -1  -4   4  108.19    8.90
   0   4  -4  143.39   12.90
   0   4  -4  105.79   15.90
   0  -4   4  165.18   10.60
   0  -4   4  161.38    8.50
  -1   4  -4   57.59    8.50
  -2   4  -4   81.39   10.70
  -3   4  -4   28.80    7.30
   3  -4   4   67.49    9.90
  -4   4  -4   21.10    7.70
   3   3  -4    3.40    2.90
  -3  -3   4    4.70    3.10
   2   3  -4   54.59    4.10
   2   3  -4   63.19    3.60
   2   3  -4   62.19    3.50
   2   3  -4   64.59    7.80
  -2  -3   4   57.59    5.70
  -2  -3   4   64.39    3.60
   1   3  -4   11.90    3.20
   1   3  -4   15.40    1.90
   1   3  -4   15.10    5.80
   1   3  -4   17.60    1.70
  -1  -3   4   10.70    6.40
  -1  -3   4   18.10    3.30
  -1  -3   4   15.10    1.80
   0   3  -4   15.10    2.70
   0   3  -4    5.80    5.70
   0   3  -4   14.30    1.90
   0   3  -4   12.90    2.00
   0   3  -4    7.30    3.40
   0  -3   4    0.40    5.40
   0  -3   4   13.70    1.90
   0  -3   4   17.00    3.00
  -1   3  -4   18.00    3.20
  -1   3  -4    1.90    3.80
   1  -3   4   17.70    3.50
   1  -3   4    9.90    2.10
   1  -3   4    4.00    5.70
  -2   3  -4   65.59    6.20
   2  -3   4   54.59    4.90
   2  -3   4   61.29    6.60
  -3   3  -4   -0.80    3.40
  -3   3  -4    0.90    4.30
   3  -3   4    4.70    6.20
   3  -3   4    6.40    2.70
  -4   3  -4    9.90    5.70
  -4  -2   4   40.00    6.30
   3   2  -4   21.30    4.00
  -3  -2   4   14.00    3.70
  -3  -2   4   20.10    1.80
   2   2  -4  315.67   15.50
   2   2  -4  306.47   22.20
  -2  -2   4  297.87   17.60
  -2  -2   4  322.57   14.60
   1   2  -4   68.69    5.80
   1   2  -4   66.79    4.00
   1   2  -4   65.09    5.70
   1   2  -4   64.39    8.50
   1   2  -4   72.29    3.90
  -1  -2   4   66.39    5.40
  -1  -2   4   72.49    3.90
   0   2  -4  172.98    9.90
   0   2  -4  183.38    9.60
   0  -2   4  166.38    8.60
   0  -2   4  161.18    9.90
   0  -2   4  166.98    9.60
  -1   2  -4   63.99    4.60
  -1   2  -4   67.19    4.40
  -1   2  -4   71.89    5.00
   1  -2   4   69.29    5.50
   1  -2   4   62.79    4.80
   1  -2   4   60.59    4.30
  -2   2  -4  315.97   17.00
   2  -2   4  291.77   17.30
   2  -2   4  305.77   15.60
   2  -2   4  314.17   17.70
   3  -2   4   16.10    3.10
   3  -2   4   17.30    3.20
  -4   2  -4    0.80    5.80
  -4   2  -4   18.00    6.30
  -4  -1   4   32.70    5.60
   3   1  -4   79.49    7.00
  -3  -1   4   82.69    4.80
  -3  -1   4   84.39    7.30
   2   1  -4   23.70    3.20
   2   1  -4   20.50    3.40
  -2  -1   4   16.80    3.20
  -2  -1   4   22.90    6.60
  -2  -1   4   23.70    2.10
   1   1  -4  280.07   15.10
   1   1  -4  269.17   13.60
   1   1  -4  252.37   12.80
   1   1  -4  255.77   19.70
  -1  -1   4  278.47   12.50
  -1  -1   4  258.37   14.70
   0   1  -4 1429.36   70.99
   0   1  -4 1692.03   77.49
   0  -1   4 1632.74   71.19
   0  -1   4 1555.64   80.49
   0  -1   4 1614.04   77.39
  -1   1  -4  269.27   18.40
  -1   1  -4  279.57   14.70
  -1   1  -4  287.87   13.10
  -1   1  -4  261.17   13.90
   1  -1   4  259.67   13.10
   1  -1   4  259.27   14.70
   1  -1   4  278.57   14.30
  -2   1  -4   22.20    2.60
  -2   1  -4   21.40    2.40
   2  -1   4   22.70    4.00
   2  -1   4   16.10    2.50
   2  -1   4   19.90    2.60
  -3   1  -4   80.69    5.40
   3  -1   4   80.39    6.30
   3  -1   4   82.19    5.90
  -4   1  -4    0.90    5.60
  -4   0   4   34.10    6.00
   3   0  -4  185.28   12.80
  -3   0   4  171.58    9.90
  -3   0   4  187.58   12.50
   2   0  -4  138.89    9.00
   2   0  -4  138.19    9.80
  -2   0   4  150.48    8.00
  -2   0   4  142.89    9.80
  -2   0   4  130.99   13.10
   1   0  -4 1744.63   79.69
   1   0  -4 1717.83   89.29
   1   0  -4 1616.14  112.19
  -1   0   4 1929.11   88.99
  -1   0   4 1690.93   90.69
  -1   0   4 1830.12   86.79
  -1   0   4 1777.62   79.39
   0   0  -4  664.73   33.80
   0   0  -4  705.53   34.60
   0   0  -4  667.93   30.80
   0   0   4  681.83   30.70
   0   0   4  672.73   33.70
   0   0   4  661.93   34.60
  -1   0  -4 1983.80   83.19
  -1   0  -4 1813.02   89.49
  -1   0  -4 1822.62  117.69
   1   0   4 1838.82   83.19
   1   0   4 1882.71   89.49
   1   0   4 1862.71   94.39
   1   0   4 1777.02  117.79
  -2   0  -4  157.18    7.70
   2   0   4  150.88    9.10
   2   0   4  151.58   11.60
   2   0   4  145.19    8.00
   3   0   4  168.78   10.90
   3   0   4  183.18    9.60
  -4   0  -4    2.20    5.50
  -4   1   4   26.40    5.70
  -3   1   4   78.89    6.30
  -3   1   4   89.09    7.90
  -3   1   4   73.69    5.90
   2  -1  -4   24.00    2.00
  -2   1   4   22.10    2.10
  -2   1   4   22.70    4.10
  -2   1   4   11.10    3.70
  -2   1   4   19.20    3.10
  -2   1   4   21.60    2.70
   1  -1  -4  258.67   14.70
   1  -1  -4  239.88   18.10
   1  -1  -4  256.77   13.70
  -1   1   4  256.07   17.40
  -1   1   4  268.77   14.10
  -1   1   4  270.57   13.40
   0  -1  -4 1502.75   73.89
   0  -1  -4 1838.72   82.39
   0  -1  -4 1748.72  103.69
   0  -1  -4 1546.75   83.29
   0   1   4 1659.93   81.49
   0   1   4 1630.64   83.19
   0   1   4 1569.94  103.69
   0   1   4 1631.74   73.79
  -1  -1  -4  250.47   18.40
  -1  -1  -4  286.67   14.70
  -1  -1  -4  286.97   12.80
   1   1   4  272.27   12.70
   1   1   4  273.87   14.60
   1   1   4  259.97   18.50
  -2  -1  -4   22.60    1.70
   2   1   4   18.20    3.50
   2   1   4   20.70    2.00
   2   1   4   21.20    2.50
   3   1   4   83.29    4.90
   3   1   4   83.49    6.10
   3   1   4   80.89    8.20
  -4   2   4   38.60    6.90
  -3   2   4   23.20    4.40
  -3   2   4   19.10    3.90
  -3   2   4   14.60    4.30
   2  -2  -4  286.37   23.00
  -2   2   4  311.67   17.10
  -2   2   4  321.27   18.30
   1  -2  -4   62.99    8.60
   1  -2  -4   66.89    6.00
   1  -2  -4   54.99    5.90
  -1   2   4   71.39    7.50
  -1   2   4   73.39    5.60
  -1   2   4   68.39    5.50
   0  -2  -4  160.98    9.40
   0  -2  -4  201.58   12.20
   0  -2  -4  157.78   10.20
   0  -2  -4  168.48   11.70
   0   2   4  177.38   10.10
   0   2   4  179.38   11.40
   0   2   4  169.88    9.30
   0   2   4  167.48   11.90
  -1  -2  -4   57.69    4.60
  -1  -2  -4   54.89    6.10
  -1  -2  -4   65.89    4.10
  -1  -2  -4   70.19    5.30
   1   2   4   69.59    3.60
   1   2   4   66.09    4.40
   1   2   4   69.89    6.00
   1   2   4   66.69    4.60
  -2  -2  -4  300.37   14.60
   2   2   4  316.37   21.90
   2   2   4  308.37   14.50
   2   2   4  321.77   17.00
   3   2   4   17.10    4.30
   3   2   4   19.90    2.90
   4   2   4   39.70    6.90
  -4   3   4    8.30    4.40
  -3   3   4    6.30    3.70
  -3   3   4    6.20    3.50
   2  -3  -4   45.10    7.70
   2  -3  -4   55.99   10.20
  -2   3   4   70.69    6.60
  -2   3   4   77.09    7.20
   1  -3  -4   11.50    4.70
   1  -3  -4    7.90    2.90
   1  -3  -4   14.50    3.60
  -1   3   4   15.20    2.10
  -1   3   4   16.20    3.50
  -1   3   4   14.10    3.20
   0  -3  -4   13.70    2.80
   0  -3  -4   16.30    3.10
   0  -3  -4   13.30    3.90
   0  -3  -4   12.70    2.70
   0   3   4   13.30    2.70
   0   3   4   15.80    2.80
   0   3   4   17.50    3.90
   0   3   4   18.80    2.90
  -1  -3  -4   13.40    3.30
  -1  -3  -4   15.90    2.40
   1   3   4   15.70    3.30
   1   3   4   12.40    2.50
   1   3   4   18.10    2.00
   1   3   4   15.10    2.20
  -2  -3  -4   55.79    3.90
  -2  -3  -4   67.99    5.40
   2   3   4   62.09    3.30
   2   3   4   66.89    4.60
   2   3   4   65.29    6.80
   2   3   4   59.79    4.20
   3   3   4    4.60    1.70
   3   3   4    3.30    3.10
   4   3   4   12.80    4.90
  -4   4   4   31.00    6.50
  -4   4   4   41.60    7.70
   3  -4  -4   63.09   13.50
  -3   4   4   68.59    8.30
  -3   4   4   62.09    8.30
   2  -4  -4  134.29   14.80
  -2   4   4  126.59   10.30
  -2   4   4  154.48   11.90
   1  -4  -4  122.89   11.40
  -1   4   4  113.99    9.10
  -1   4   4  130.19    9.90
  -1   4   4  124.19    9.50
   0  -4  -4  204.28   14.80
   0  -4  -4  172.18   13.20
   0   4   4  178.38   12.20
   0   4   4  185.88   11.30
   0   4   4  188.28   14.00
  -1  -4  -4  117.39    7.70
  -1  -4  -4  131.19    9.50
   1   4   4  119.29    8.50
   1   4   4  119.29   10.30
   1   4   4  117.39    8.10
   1   4   4  126.99    7.30
  -2  -4  -4  164.38   10.70
   2   4   4  155.08    7.30
   2   4   4  145.19   12.80
   2   4   4  150.88    9.30
   2   4   4  165.78    9.50
   2   4   4  148.29    7.60
   3   4   4   67.79    5.40
   3   4   4   75.19    8.50
   4   4   4   45.30    8.00
   3  -5  -4  110.29   17.70
  -3   5   4  122.99   11.10
  -3   5   4  114.69   11.80
   2  -5  -4   59.49   10.60
  -2   5   4   69.49    9.00
  -2   5   4   66.19    5.60
  -2   5   4   48.40    7.20
   1  -5  -4   29.60    6.70
   1  -5  -4   14.10    5.50
  -1   5   4   31.10    4.60
  -1   5   4   34.20    5.50
  -1   5   4   32.10    5.80
   0  -5  -4   19.20    5.30
   0   5   4   24.60    4.50
   0   5   4   32.30    5.20
   0   5   4   36.80    5.40
  -1  -5  -4   41.10    6.20
   1   5   4   36.00    5.30
   1   5   4   29.30    3.80
   1   5   4   31.00    3.30
   1   5   4   27.50    4.10
  -2  -5  -4   68.99    7.40
   2   5   4   62.39    4.00
   2   5   4   69.99    8.10
   2   5   4   67.29    3.60
   2   5   4   69.29    5.40
   3   5   4  133.99    8.80
   3   5   4  136.99   13.00
   3  -6  -4   56.99   13.70
  -3   6   4   53.89    8.50
  -3   6   4   50.99    8.80
   2  -6  -4  262.97   21.80
  -2   6   4  253.77   18.20
  -2   6   4  237.68   17.10
  -2   6   4  270.57   19.80
   1  -6  -4  415.96   27.00
  -1   6   4  391.06   23.30
  -1   6   4  407.76   26.10
  -1   6   4  395.96   28.40
   0  -6  -4   24.50    6.10
   0   6   4   15.90    4.20
   0   6   4   18.50    4.90
   0   6   4   21.90    5.00
  -1  -6  -4  393.06   24.60
   1   6   4  405.26   21.00
   1   6   4  375.16   29.00
   1   6   4  421.16   23.80
  -2  -6  -4  276.57   18.10
   2   6   4  270.47   16.00
   2   6   4  270.57   13.10
   2   6   4  252.97   21.10
   3   6   4   69.19    5.60
   3   6   4   65.19    9.00
   3  -7  -4   60.29   13.90
  -3   7   4   40.50    8.80
  -3   7   4   38.40    7.80
   2  -7  -4  134.99   15.70
  -2   7   4  119.89   11.80
  -2   7   4  159.98   14.40
  -2   7   4  122.39   11.50
   1  -7  -4   85.79   11.90
  -1   7   4   72.69    9.20
  -1   7   4   54.59    8.20
  -1   7   4   67.69    9.80
   0  -7  -4   18.30    6.00
   0   7   4   12.60    4.60
   0   7   4   16.70    5.30
   0   7   4   12.70    4.60
  -1  -7  -4   73.39   10.10
   1   7   4   86.29    7.70
   1   7   4   79.29    8.30
   1   7   4   81.99   10.20
  -2  -7  -4  133.99   12.60
   2   7   4  149.09   10.60
   2   7   4  143.79   14.10
   2   7   4  153.08    8.60
   3   7   4   51.49    9.00
   3   7   4   50.79    5.10
   3  -8  -4   21.10   11.30
  -3   8   4   18.30    7.30
  -3   8   4   11.40    5.70
   2  -8  -4    1.30    5.60
  -2   8   4    0.10    4.10
  -2   8   4   -3.90    4.30
   1  -8  -4  207.58   19.90
  -1   8   4  243.08   17.80
  -1   8   4  241.18   20.10
  -1   8   4  251.07   19.90
   0  -8  -4  327.07   24.40
   0   8   4  334.87   21.60
   0   8   4  355.76   27.50
   0   8   4  352.56   24.10
  -1  -8  -4  235.98   19.00
   1   8   4  244.98   17.50
   1   8   4  272.57   16.30
   1   8   4  236.78   21.20
  -2  -8  -4    4.40    4.90
   2   8   4   -1.70    2.40
   2   8   4    2.50    4.50
   3   8   4   24.80    7.20
   3   8   4   18.90    3.80
   2  -9  -4   13.40    8.00
  -2   9   4   12.00    6.50
  -2   9   4    6.70    5.40
   1  -9  -4  138.89   15.90
  -1   9   4  147.89   15.50
  -1   9   4  154.88   16.10
  -1   9   4  131.29   13.70
   0  -9  -4  226.58   20.10
   0   9   4  264.37   22.20
   0   9   4  246.98   19.80
   0   9   4  224.38   18.10
  -1  -9  -4  129.99   14.60
   1   9   4  159.18   12.60
   1   9   4  146.19   13.10
   1   9   4  152.28   16.20
  -2  -9  -4   14.90    7.20
   2   9   4   13.20    6.20
   2   9   4   10.10    4.00
   2 -10  -4    5.10    7.70
  -2  10   4    3.40    5.50
  -2  10   4   11.70    7.90
   1 -10  -4  231.08   22.40
  -1  10   4  226.18   21.60
  -1  10   4  273.77   23.60
  -1  10   4  270.67   20.70
   0 -10  -4  602.34   41.60
   0  10   4  586.74   37.10
   0  10   4  757.62   49.30
   0  10   4  618.44   41.10
  -1 -10  -4  225.98   20.30
   1  10   4  228.88   18.20
   1  10   4  227.88   22.10
   1  10   4  234.78   17.20
  -2 -10  -4    8.50    7.40
   2  10   4    5.10    3.90
   2  10   4    7.00    6.10
   1 -11  -4   44.20   12.00
  -1  11   4   61.99   12.80
  -1  11   4   58.19   11.50
  -1  11   4   65.19   12.40
   0 -11  -4  177.98   20.40
   0  11   4  181.38   18.20
   0  11   4  261.47   23.40
   0  11   4  242.88   21.10
  -1 -11  -4   59.49   12.60
   1  11   4   59.59   10.10
   1  11   4   51.89    9.70
   1  11   4   64.49   12.70
   0 -12  -4   24.00   10.40
   0  12   4   27.50    9.70
   1  11  -5  111.69   20.00
   1  11  -5   85.39   14.60
  -1 -11   5   81.39   13.70
  -1 -11   5   73.99    8.00
   0  11  -5   -2.10    6.20
   0  11  -5   -4.50    7.90
   0 -11   5   -1.30    2.90
   0 -11   5    2.20    6.10
  -1  11  -5   91.49   20.80
  -1  11  -5   84.69   16.00
   1 -11   5   76.19    9.20
   1 -11   5   81.69   14.50
   2  10  -5   22.20   10.20
  -2 -10   5   22.10    8.00
   1  10  -5   70.29   15.70
   1  10  -5   68.29   11.90
  -1 -10   5   63.99    6.90
  -1 -10   5   72.99   11.90
   0  10  -5   99.89   16.00
   0  10  -5   96.89   20.10
   0 -10   5  100.29    8.90
   0 -10   5   88.39   13.10
  -1  10  -5   50.89   12.10
  -1  10  -5   73.29   18.10
   1 -10   5   63.19   12.00
   1 -10   5   55.69    7.40
  -2  10  -5   17.80   13.60
  -2  10  -5   21.40    9.40
   2 -10   5   26.90    9.10
   2 -10   5   25.20    5.60
   2   9  -5   54.69    7.90
   2   9  -5   48.70   12.00
  -2  -9   5   32.80    7.90
   1   9  -5  195.48   18.00
   1   9  -5  182.28   22.20
  -1  -9   5  171.68   11.50
  -1  -9   5  166.38   15.70
   0   9  -5  121.89   16.80
   0   9  -5  119.89   21.00
   0  -9   5  104.49    8.80
   0  -9   5  130.29   13.30
  -1   9  -5  144.19   17.40
  -1   9  -5  150.18   22.50
   1  -9   5  179.68   16.20
   1  -9   5  166.58   11.90
  -2   9  -5   29.30    9.20
  -2   9  -5   12.30   10.00
   2  -9   5   51.49    7.00
   2  -9   5   37.20    9.80
   3   8  -5   -0.30    5.40
  -3  -8   5    2.90    5.40
   2   8  -5   86.49   14.50
   2   8  -5   84.69    9.00
  -2  -8   5   82.39   11.00
   1   8  -5  104.79   17.90
   1   8  -5  109.39   13.10
  -1  -8   5   98.89    7.50
  -1  -8   5   90.59   10.60
   0   8  -5  134.89   16.00
   0   8  -5  150.08   20.70
   0  -8   5  141.59    9.60
   0  -8   5  119.99   12.40
  -1   8  -5   75.79   12.90
  -1   8  -5   70.99   16.50
   1  -8   5   95.99    7.90
   1  -8   5  100.89   11.40
  -2   8  -5   40.30   12.70
  -2   8  -5   57.59   11.40
   2  -8   5   76.29    7.30
   2  -8   5   79.79   11.80
  -3   8  -5    5.60    5.70
  -3   8  -5   -0.90    8.80
   3  -8   5    0.20    3.30
   3  -8   5    3.70    6.30
   3   7  -5   26.50    7.70
  -3  -7   5   23.90    6.80
   2   7  -5   87.69   13.30
   2   7  -5  108.19    9.00
  -2  -7   5   86.19   10.00
  -2  -7   5   98.29    6.60
   1   7  -5  196.78   16.30
   1   7  -5  185.88   21.10
  -1  -7   5  163.08   10.30
  -1  -7   5  175.88   13.90
   0   7  -5   71.59   11.60
   0   7  -5   77.29   16.00
   0  -7   5   75.99    9.80
   0  -7   5   77.89    6.30
  -1   7  -5  134.49   15.30
   1  -7   5  175.18   14.10
   1  -7   5  161.78   10.70
  -2   7  -5   55.79   11.20
   2  -7   5   82.49    7.50
   2  -7   5  118.89   12.00
  -3   7  -5    6.90    8.30
  -3   7  -5   14.60    6.70
   3  -7   5   21.70    5.00
   3  -7   5   32.90    8.80
   3   6  -5   11.10    5.40
  -3  -6   5    4.60    4.10
   2   6  -5  113.79    8.50
   2   6  -5  100.59   13.30
  -2  -6   5  111.59    6.80
  -2  -6   5  101.39    9.80
   1   6  -5    8.20    6.70
   1   6  -5    2.10    3.90
  -1  -6   5    0.70    3.10
  -1  -6   5    0.60    1.70
   0   6  -5   31.60   11.20
   0   6  -5   31.60    7.70
   0  -6   5   52.69    7.10
   0  -6   5   50.09    4.60
  -1   6  -5    0.20    5.40
  -1   6  -5   -0.60    3.80
   1  -6   5    1.90    2.00
   1  -6   5    5.30    3.70
  -2   6  -5   69.59   11.70
   2  -6   5  105.29   10.60
   2  -6   5  104.79    7.90
  -3   6  -5    2.00    6.70
  -3   6  -5    0.40    4.30
   3  -6   5    5.80    5.70
   3  -6   5    0.40    3.00
   3   5  -5   46.60    8.10
  -3  -5   5   45.70    7.10
   2   5  -5    6.20    4.90
   2   5  -5    5.90    2.20
   2   5  -5    3.10    1.30
  -2  -5   5    5.60    3.30
  -2  -5   5    5.00    1.70
   1   5  -5  101.89   14.10
   1   5  -5  101.49   10.00
  -1  -5   5   96.89    6.10
  -1  -5   5   94.19    8.50
   0   5  -5   23.80    6.50
   0   5  -5   23.50    9.40
   0  -5   5   24.90    4.80
   0  -5   5   23.00    3.20
  -1   5  -5   53.59    8.90
  -2   5  -5    2.10    3.80
  -2   5  -5    3.20    5.20
   2  -5   5    4.50    2.50
   2  -5   5    4.10    3.80
  -3   5  -5    4.50    5.90
  -3   5  -5   19.60    6.50
   3  -5   5   48.30    8.60
   3  -5   5   41.10    5.50
   3   4  -5    4.30    3.70
  -3  -4   5    2.40    3.20
   2   4  -5    9.90    1.80
   2   4  -5    9.40    4.70
   2   4  -5    9.80    1.80
   2   4  -5   10.30    1.50
  -2  -4   5    9.00    3.40
  -2  -4   5    7.70    1.60
   1   4  -5  102.89   13.60
   1   4  -5  108.39    5.70
   1   4  -5  107.79    9.40
   1   4  -5   99.99    6.40
  -1  -4   5   93.59    8.00
  -1  -4   5   98.69    6.00
   0   4  -5  199.98   16.90
   0  -4   5  268.07   15.20
   0  -4   5  252.67   12.70
  -1   4  -5   46.90    7.70
  -2   4  -5    1.70    3.30
  -2   4  -5   -0.50    3.60
   2  -4   5    9.90    2.70
   2  -4   5   12.20    4.00
  -3   4  -5   -0.80    4.50
  -3   4  -5    4.10    3.90
   3  -4   5    3.30    5.00
   3  -4   5    4.20    2.70
  -4   4  -5    5.20    5.30
  -4  -3   5   12.40    4.90
   3   3  -5    5.10    3.20
  -3  -3   5    5.80    3.20
   2   3  -5   56.49    4.30
   2   3  -5   58.79    7.80
  -2  -3   5   51.69    5.60
  -2  -3   5   56.19    3.50
   1   3  -5   52.19    3.20
   1   3  -5   46.60    9.00
   1   3  -5   52.59    3.60
   1   3  -5   43.80    5.80
  -1  -3   5   49.80    5.10
  -1  -3   5   44.70    3.30
   0   3  -5  409.96   18.70
   0   3  -5  441.26   21.20
   0   3  -5  370.26   21.00
   0  -3   5  353.66   21.10
   0  -3   5  368.76   18.80
  -1   3  -5   44.30    4.80
   1  -3   5   45.40    4.10
   1  -3   5   42.30    3.80
   1  -3   5   47.20    5.30
  -2   3  -5   56.79    5.60
   2  -3   5   63.19    6.20
   2  -3   5   51.89    4.70
   2  -3   5   47.60    4.70
  -3   3  -5    0.30    4.20
  -3   3  -5    2.80    3.50
   3  -3   5   11.90    5.70
   3  -3   5    7.80    2.80
  -4   3  -5    5.70    5.40
  -4  -2   5    1.40    3.60
   3   2  -5   40.00    5.40
  -3  -2   5   45.40    3.00
  -3  -2   5   35.10    5.30
   2   2  -5   45.00    4.30
   2   2  -5   57.09    6.70
  -2  -2   5   59.19    3.40
  -2  -2   5   58.89    5.70
   1   2  -5  338.77   15.70
   1   2  -5  342.37   17.30
   1   2  -5  318.27   25.90
  -1  -2   5  316.77   18.20
  -1  -2   5  334.37   15.70
   0   2  -5  980.20   47.00
   0  -2   5  927.31   47.10
   0  -2   5  924.81   42.80
   0  -2   5  927.51   48.40
  -1   2  -5  327.17   17.40
   1  -2   5  328.57   17.80
   1  -2   5  316.67   16.00
   1  -2   5  336.57   18.00
  -2   2  -5   57.69    4.90
   2  -2   5   54.29    4.80
   2  -2   5   46.30    5.20
   2  -2   5   55.79    4.50
   3  -2   5   43.80    4.60
   3  -2   5   41.10    4.50
  -4   2  -5   -0.70    4.10
  -4   2  -5    0.00    6.20
  -4  -1   5   15.70    4.60
   3   1  -5    1.80    2.00
  -3  -1   5   -0.40    2.30
  -3  -1   5    2.90    1.30
   2   1  -5  113.29    7.70
   2   1  -5  115.89    9.70
  -2  -1   5  131.69    6.50
  -2  -1   5  117.89    8.80
   1   1  -5   62.99    8.60
   1   1  -5   83.19    6.70
   1   1  -5   75.99    4.10
   1   1  -5   70.39    4.60
  -1  -1   5   78.49    4.20
  -1  -1   5   67.39    5.70
  -1  -1   5   74.99    4.20
   0   1  -5   20.90    2.70
   0   1  -5   23.60    2.00
   0   1  -5   31.10    2.40
   0  -1   5   24.20    2.00
   0  -1   5   25.50    2.80
   0  -1   5   21.10    2.10
  -1   1  -5   83.79    6.80
  -1   1  -5   81.39    5.20
  -1   1  -5   78.69    4.90
  -1   1  -5   82.29    4.70
   1  -1   5   73.19    4.70
   1  -1   5   74.49    5.20
   1  -1   5   78.39    5.20
  -2   1  -5  128.89    7.00
   2  -1   5  120.89    8.00
   2  -1   5  132.49    8.30
   2  -1   5  116.59    7.20
  -3   1  -5    0.80    3.80
   3  -1   5   -0.40    1.80
   3  -1   5    0.40    1.80
  -4   1  -5    0.60    5.70
   4  -1   5   10.90    3.10
  -4   0   5   12.40    4.50
   3   0  -5   90.59    7.00
  -3   0   5   93.99    6.10
  -3   0   5   89.39    8.10
   2   0  -5    0.80    1.30
   2   0  -5   -0.10    2.00
  -2   0   5   -1.80    1.70
  -2   0   5    0.50    3.90
  -2   0   5    0.10    1.20
   1   0  -5  369.86   19.10
   1   0  -5  378.66   20.50
  -1   0   5  401.16   21.40
  -1   0   5  408.36   18.80
  -1   0   5  413.26   20.30
  -1   0   5  388.06   25.90
   0   0  -5    0.10    0.70
   0   0  -5   -1.40    1.30
   0   0  -5    0.20    2.40
   0   0  -5    0.10    0.80
   0   0   5    0.20    0.70
   0   0   5   -0.30    0.70
   0   0   5    0.30    1.30
   0   0   5   -0.60    2.60
  -1   0  -5  406.16   20.40
  -1   0  -5  436.76   21.80
  -1   0  -5  426.76   19.10
  -1   0  -5  411.46   27.30
   1   0   5  399.66   19.20
   1   0   5  402.26   20.40
   1   0   5  396.96   21.80
  -2   0  -5    0.70    0.90
   2   0   5   -1.00    1.10
   2   0   5    2.30    2.20
   2   0   5    0.80    1.30
   3   0   5   95.29    6.90
   3   0   5   89.19    6.00
  -4   0  -5    6.60    6.10
  -4   1   5   19.30    5.40
  -3   1   5    0.70    2.70
  -3   1   5    4.50    2.40
  -2   1   5  127.59    7.40
  -2   1   5  117.19    7.90
  -2   1   5  128.09    9.50
   1  -1  -5   66.49    5.20
   1  -1  -5   71.49    5.40
   1  -1  -5   73.79    5.00
  -1   1   5   87.49    9.50
  -1   1   5   78.69    4.70
  -1   1   5   65.79    5.00
   0  -1  -5   19.10    2.30
   0  -1  -5   22.40    2.60
   0  -1  -5   22.00    5.10
   0  -1  -5   23.00    2.40
   0   1   5   24.20    2.30
   0   1   5   22.80    2.00
   0   1   5   23.00    4.60
   0   1   5   20.90    2.60
  -1  -1  -5   79.89    4.40
  -1  -1  -5   84.59    5.10
   1   1   5   73.39    4.50
   1   1   5   79.19    6.70
   1   1   5   76.99    5.00
   1   1   5   72.69    4.20
   1   1   5   78.69    4.90
  -2  -1  -5  131.59    6.40
   2   1   5  120.89    6.60
   2   1   5  124.39    7.80
   2   1   5  119.69   10.10
   3   1   5    1.00    1.40
   3   1   5    2.10    2.80
   3   1   5    1.50    1.50
  -4   2   5    1.30    3.90
  -3   2   5   47.70    5.10
  -3   2   5   45.70    5.80
  -3   2   5   43.90    6.80
   2  -2  -5   34.20    6.10
   2  -2  -5   41.40    9.90
  -2   2   5   57.59    4.90
  -2   2   5   54.69    5.30
   1  -2  -5  301.17   18.80
   1  -2  -5  300.27   21.70
  -1   2   5  355.96   17.30
  -1   2   5  345.57   18.30
   0  -2  -5  901.81   50.79
   0  -2  -5  927.81   45.30
   0  -2  -5  959.50   51.09
   0  -2  -5 1078.09   62.69
   0   2   5  979.10   62.59
   0   2   5  986.90   50.29
   0   2   5 1023.00   45.30
  -1  -2  -5  334.77   18.40
  -1  -2  -5  310.97   16.10
   1   2   5  326.17   22.80
   1   2   5  337.87   17.60
   1   2   5  346.57   18.10
   1   2   5  355.36   15.70
  -2  -2  -5   51.99    3.70
   2   2   5   59.79    6.30
   2   2   5   56.69    3.40
   2   2   5   62.19    4.50
   3   2   5   45.90    4.40
   3   2   5   52.69    6.80
   4   2   5   -1.10    3.40
  -4   3   5   12.80    5.30
  -3   3   5    9.90    3.40
  -3   3   5    6.20    3.80
  -3   3   5    6.50    3.50
   2  -3  -5   47.10    7.30
   2  -3  -5   45.60    9.90
  -2   3   5   46.00    5.90
  -2   3   5   53.99    5.80
   1  -3  -5   49.10    8.30
   1  -3  -5   39.30    4.80
   1  -3  -5   43.80    5.70
  -1   3   5   59.99    5.20
  -1   3   5   52.59    5.40
  -1   3   5   48.60    3.80
   0  -3  -5  334.37   19.00
   0  -3  -5  334.97   21.20
   0  -3  -5  399.96   25.50
   0  -3  -5  414.46   22.90
   0   3   5  382.76   21.10
   0   3   5  393.56   19.20
   0   3   5  384.06   25.20
   0   3   5  383.46   21.90
  -1  -3  -5   54.29    5.70
  -1  -3  -5   43.80    4.10
   1   3   5   53.49    4.20
   1   3   5   50.79    5.40
   1   3   5   49.80    4.80
   1   3   5   49.60    3.60
  -2  -3  -5   52.99    4.10
  -2  -3  -5   69.19    5.30
   2   3   5   55.99    3.30
   2   3   5   61.49    6.60
   2   3   5   58.89    4.40
   2   3   5   54.79    3.80
   3   3   5    6.40    2.00
   3   3   5   10.50    3.90
   4   3   5   13.60    5.10
  -4   4   5    1.80    4.00
  -4   4   5    1.30    4.40
   3  -4  -5   -3.30    7.60
  -3   4   5    3.40    3.50
  -3   4   5    3.70    3.60
   2  -4  -5   15.20    7.30
  -2   4   5   12.90    3.90
  -2   4   5   10.20    3.60
   1  -4  -5   77.69    9.30
   1  -4  -5  104.59   11.10
  -1   4   5  116.99    9.00
  -1   4   5  111.59    7.80
  -1   4   5  107.19    8.40
   0  -4  -5  303.87   21.00
   0  -4  -5  304.87   19.30
   0   4   5  277.67   20.40
   0   4   5  320.37   16.40
   0   4   5  270.57   17.40
  -1  -4  -5  117.29    9.20
  -1  -4  -5   90.89    6.90
   1   4   5   99.99    7.80
   1   4   5  115.29    9.50
   1   4   5  107.49    6.50
   1   4   5  101.69    7.30
  -2  -4  -5   12.50    3.70
   2   4   5   10.70    1.20
   2   4   5    7.40    1.90
   2   4   5    8.90    2.10
   2   4   5   12.60    3.90
   3   4   5    4.80    1.90
   3   4   5    2.40    3.50
   4   4   5   -0.70    4.20
   3  -5  -5   47.60   12.90
  -3   5   5   50.29    7.70
  -3   5   5   45.60    7.60
   2  -5  -5    6.50    6.20
  -2   5   5    8.50    3.80
  -2   5   5    0.50    3.10
   1  -5  -5  107.29   11.60
  -1   5   5  106.79    8.90
  -1   5   5  109.69    9.60
  -1   5   5  112.99    9.50
   0  -5  -5   25.40    5.80
   0   5   5   23.20    4.20
   0   5   5   20.10    4.30
   0   5   5   22.70    4.20
  -1  -5  -5  102.69    9.70
   1   5   5  113.19    7.30
   1   5   5  105.29    8.00
   1   5   5  106.49    9.80
  -2  -5  -5    2.90    3.50
   2   5   5    4.20    1.00
   2   5   5    4.90    3.40
   2   5   5    6.70    2.10
   2   5   5    4.10    1.60
   2   5   5    4.10    2.30
   3   5   5   50.19    4.70
   3   5   5   53.19    7.70
   3  -6  -5    9.50    9.30
  -3   6   5    0.00    4.10
  -3   6   5    3.60    4.80
   2  -6  -5  133.19   16.80
  -2   6   5  123.99   11.90
  -2   6   5  112.99    8.70
  -2   6   5  100.49   10.30
   1  -6  -5    1.30    4.40
   1  -6  -5   -5.60    4.30
  -1   6   5    3.70    3.00
  -1   6   5    1.70    3.20
  -1   6   5    2.20    3.40
   0  -6  -5   57.69    9.00
   0   6   5   57.09    7.10
   0   6   5   57.59    6.90
   0   6   5   60.49    7.30
  -1  -6  -5    3.60    3.90
   1   6   5    1.90    2.40
   1   6   5    1.10    2.90
   1   6   5    0.90    2.50
  -2  -6  -5  128.29   11.30
   2   6   5  121.59    7.00
   2   6   5  131.29    9.10
   2   6   5  135.89   12.60
   3   6   5    9.90    4.80
   3   6   5    5.50    2.20
   3  -7  -5   30.40   12.50
  -3   7   5   19.10    6.50
  -3   7   5   22.40    6.70
   2  -7  -5  115.39   16.10
  -2   7   5   89.99   11.00
  -2   7   5  111.89   11.90
   1  -7  -5  199.38   17.40
  -1   7   5  178.28   15.20
  -1   7   5  181.08   15.20
   0  -7  -5   86.79   11.60
   0   7   5   78.39    8.90
   0   7   5   85.39    9.70
   0   7   5   93.19    9.20
  -1  -7  -5  191.08   15.80
   1   7   5  197.88   12.80
   1   7   5  182.28   16.80
   1   7   5  213.08   14.30
  -2  -7  -5  108.69   11.50
   2   7   5  118.59    8.90
   2   7   5  110.69   12.00
   2   7   5  108.89    7.00
   3   7   5   34.80    4.50
   3   7   5   26.70    7.10
   3  -8  -5   -3.80    8.30
  -3   8   5   -2.40    4.00
  -3   8   5   -5.60    4.70
   2  -8  -5   82.39   14.10
  -2   8   5   67.09   10.80
  -2   8   5   62.29    9.70
   1  -8  -5   99.99   14.70
  -1   8   5  118.39   12.60
  -1   8   5  122.99   11.90
  -1   8   5  111.89   12.00
   0  -8  -5  138.49   14.60
   0   8   5  136.79   12.30
   0   8   5  169.88   15.00
   0   8   5  141.29   13.30
  -1  -8  -5  112.49   12.40
   1   8   5  131.29   11.20
   1   8   5  113.99    9.80
   1   8   5  110.09   12.70
  -2  -8  -5  112.09   12.20
   2   8   5   80.89   11.10
   2   8   5   97.39    8.50
   3   8   5    1.90    4.70
   3   8   5   -0.30    2.10
   2  -9  -5   39.80   11.30
  -2   9   5   47.50   10.10
  -2   9   5   35.60    8.20
   1  -9  -5  169.68   18.40
  -1   9   5  199.78   18.10
  -1   9   5  191.38   16.70
  -1   9   5  193.98   17.40
   0  -9  -5  127.19   14.80
   0   9   5  142.09   13.20
   0   9   5  134.89   14.60
   0   9   5  135.89   13.60
  -1  -9  -5  168.58   16.90
   1   9   5  197.78   18.10
   1   9   5  164.78   13.40
   1   9   5  181.98   14.70
  -2  -9  -5   48.70   10.20
   2   9   5   48.60    9.20
   2   9   5   44.20    6.40
   2 -10  -5   33.20   11.50
  -2  10   5   22.90    7.70
  -2  10   5   33.90    9.50
   1 -10  -5   75.69   13.90
  -1  10   5   64.59   11.20
  -1  10   5   67.69   11.50
  -1  10   5   83.29   12.80
   0 -10  -5  106.69   15.50
   0  10   5  120.39   14.40
   0  10   5  127.89   15.20
   0  10   5  122.79   13.80
  -1 -10  -5   52.79   11.60
   1  10   5   76.39   10.50
   1  10   5   77.29   12.80
   1  10   5   75.39   10.20
  -2 -10  -5   19.90    8.50
   2  10   5   25.70    8.00
   2  10   5   24.00    5.40
   1 -11  -5   88.79   16.10
  -1  11   5  110.39   14.80
  -1  11   5  109.19   16.00
  -1  11   5  100.99   14.70
   0 -11  -5    1.60    6.10
   0  11   5    1.90    6.80
   0  11   5    0.80    5.20
   0  11   5   -1.00    5.60
  -1 -11  -5   74.59   14.10
   1  11   5   92.39   12.40
   1  11   5   81.69   11.50
   1  11   5  106.89   14.40
   1  11  -6   40.40   14.30
   1  11  -6   46.00   11.30
  -1 -11   6   40.50    6.40
  -1 -11   6   58.79   11.80
   0  11  -6    9.60   11.00
   0  11  -6   11.00    8.60
   0 -11   6   21.10    8.30
   0 -11   6   12.50    4.70
  -1  11  -6   54.59   17.40
  -1  11  -6   45.30   12.60
   1 -11   6   43.70   11.40
   1 -11   6   41.10    6.90
   2  10  -6    3.50    8.60
  -2 -10   6   15.50    7.40
   1  10  -6    3.30    8.70
   1  10  -6   11.00    6.70
  -1 -10   6    6.00    3.60
  -1 -10   6   10.30    6.20
   0  10  -6   29.80   10.10
   0  10  -6   23.90   12.10
   0 -10   6   36.50    8.80
   0 -10   6   31.30    5.50
  -1  10  -6    9.50    7.40
  -1  10  -6    8.40   10.50
   1 -10   6    9.80    4.10
   1 -10   6   12.60    6.90
  -2  10  -6    0.10    6.20
  -2  10  -6    0.20   10.90
   2 -10   6   12.20    7.70
   2 -10   6   13.30    4.80
   2   9  -6   -0.80    7.00
  -2  -9   6   -2.20    3.90
   1   9  -6   31.70    8.30
   1   9  -6   24.20   10.40
  -1  -9   6   20.00    4.10
  -1  -9   6   15.30    6.00
   0   9  -6  164.38   23.20
   0   9  -6  195.38   19.10
   0  -9   6  151.38   11.30
   0  -9   6  176.48   16.10
  -1   9  -6   20.60   12.40
  -1   9  -6    9.10    6.90
   1  -9   6   16.60    6.90
   1  -9   6   19.30    4.40
  -2   9  -6   -6.60    6.80
  -2   9  -6    0.80    5.10
   2  -9   6   -0.40    5.90
   2  -9   6    0.00    3.00
   3   8  -6    0.20    5.60
  -3  -8   6   -0.30    4.70
   2   8  -6   54.89   12.30
   2   8  -6   60.79    8.00
  -2  -8   6   46.20    8.50
  -2  -8   6   60.49    5.50
   1   8  -6   91.79   16.80
   1   8  -6  102.19   13.50
  -1  -8   6   87.39    7.10
  -1  -8   6   91.59   11.50
   0   8  -6    4.00    5.70
   0   8  -6    8.50    9.40
   0  -8   6   -0.20    3.80
   0  -8   6    6.90    2.80
  -1   8  -6   53.49   14.80
  -1   8  -6   47.90   10.60
   1  -8   6   78.69    7.10
   1  -8   6   95.79   10.80
  -2   8  -6   20.40   10.10
  -2   8  -6   31.00    8.90
   2  -8   6   46.30    6.30
   2  -8   6   66.69   11.00
  -3   8  -6    2.20    8.30
  -3   8  -6    6.40    6.70
   3  -8   6    2.50    3.70
   3  -8   6    8.70    6.90
   3   7  -6   14.80    6.70
  -3  -7   6   10.20    5.40
   2   7  -6   63.69    7.20
   2   7  -6   60.89   12.10
  -2  -7   6   46.20    8.00
  -2  -7   6   57.79    5.10
   1   7  -6   -2.60    3.90
   1   7  -6   -0.10    7.00
  -1  -7   6    1.20    3.20
  -1  -7   6    0.90    2.10
   0   7  -6   96.19   18.80
   0   7  -6  135.09   14.50
   0  -7   6  129.49    8.60
   0  -7   6  126.19   11.40
  -1   7  -6   -1.10    6.30
  -1   7  -6   -1.40    4.00
   1  -7   6    1.90    4.20
   1  -7   6    2.70    2.40
  -2   7  -6    6.90    7.20
  -2   7  -6   29.10    8.00
   2  -7   6   58.39    9.30
  -3   7  -6   10.50    6.60
  -3   7  -6    3.00    7.40
   3  -7   6   14.30    7.10
   3  -7   6   13.10    4.10
   3   6  -6   25.30    7.20
  -3  -6   6   22.20    6.10
   2   6  -6    1.90    5.30
   2   6  -6    6.00    2.90
  -2  -6   6    6.50    4.10
  -2  -6   6    4.80    2.00
   1   6  -6  167.48   14.40
   1   6  -6  155.68   18.90
  -1  -6   6  137.89    8.80
  -1  -6   6  145.39   12.00
   0   6  -6    0.90    4.30
   0   6  -6    1.80    7.00
   0  -6   6    1.40    1.90
   0  -6   6    2.80    3.10
  -1   6  -6   68.69   10.70
  -2   6  -6    7.90    5.00
  -2   6  -6   -0.70    5.00
   2  -6   6    6.70    4.50
   2  -6   6    4.60    2.70
  -3   6  -6    1.60    6.30
  -3   6  -6   11.70    6.10
   3  -6   6   11.20    6.00
   3  -6   6   16.40    4.20
   3   5  -6    8.50    5.00
  -3  -5   6    8.50    4.40
   2   5  -6   58.69    5.20
   2   5  -6   59.79   10.20
  -2  -5   6   46.90    4.00
  -2  -5   6   45.80    6.60
   1   5  -6  173.58   18.50
   1   5  -6  159.08   13.30
  -1  -5   6  149.09   11.10
  -1  -5   6  126.09    8.10
   0   5  -6   79.49   11.30
   0  -5   6  130.09    9.80
   0  -5   6  125.39    7.60
  -1   5  -6   57.99    9.10
  -2   5  -6   30.20    7.30
   2  -5   6   60.59    7.90
   2  -5   6   52.49    5.20
  -3   5  -6    2.00    5.50
  -3   5  -6    5.10    4.40
   3  -5   6    9.90    3.50
   3  -5   6   12.50    5.80
  -4  -4   6    5.70    4.70
   3   4  -6   10.40    4.50
  -3  -4   6    7.20    3.70
   2   4  -6    9.80    5.20
   2   4  -6   14.20    2.10
   2   4  -6   13.70    1.60
   2   4  -6   12.10    2.00
  -2  -4   6    9.80    1.80
  -2  -4   6   10.80    3.50
   1   4  -6  341.07   17.50
   1   4  -6  312.47   20.90
   1   4  -6  297.97   27.50
  -1  -4   6  316.47   19.00
  -1  -4   6  319.77   15.80
   0   4  -6  495.55   30.30
  -1   4  -6  108.19   10.80
  -2   4  -6    2.00    4.00
  -2   4  -6   -0.50    2.80
   2  -4   6   15.20    4.20
   2  -4   6   12.30    2.80
  -3   4  -6    2.40    3.60
  -3   4  -6   -2.10    4.10
   3  -4   6    4.90    2.90
  -4   4  -6    1.40    4.80
  -4  -3   6    0.40    4.00
   3   3  -6    4.30    3.20
  -3  -3   6    0.50    2.60
   2   3  -6  155.88   14.40
   2   3  -6  158.38    9.00
  -2  -3   6  167.08    8.40
  -2  -3   6  158.48   11.10
   1   3  -6  905.21   38.30
   1   3  -6  882.81   43.10
   1   3  -6  731.13   58.79
  -1  -3   6  848.92   38.50
  -1  -3   6  777.62   43.10
   0   3  -6  150.08    8.20
   0  -3   6  131.29    9.10
   0  -3   6  121.99    7.30
   0  -3   6  121.69    8.00
  -1   3  -6  837.62   41.20
   1  -3   6  852.01   41.80
   1  -3   6  785.02   37.80
   1  -3   6  760.72   42.50
  -2   3  -6  161.58   10.30
   2  -3   6  157.68    9.60
   2  -3   6  165.98   11.10
   2  -3   6  155.08   10.40
  -3   3  -6   -1.40    4.20
   3  -3   6    3.60    2.40
   3  -3   6    2.10    2.20
  -4   3  -6    2.50    6.50
  -4   3  -6    2.50    4.60
  -4  -2   6    9.00    4.40
   3   2  -6    5.60    2.70
  -3  -2   6    6.40    3.20
  -3  -2   6    6.70    1.50
   2   2  -6  210.58   11.80
   2   2  -6  216.18   17.10
  -2  -2   6  216.48   13.80
  -2  -2   6  230.88   10.80
   1   2  -6   94.09   13.40
   1   2  -6  134.09    7.00
   1   2  -6  135.59    7.30
  -1  -2   6  139.79    9.00
  -1  -2   6  139.29    7.00
   0   2  -6  158.58    9.70
   0   2  -6  182.28    9.40
   0  -2   6  147.99    9.80
   0  -2   6  154.68    9.30
   0  -2   6  162.58    8.50
  -1   2  -6  135.89    7.80
   1  -2   6  116.49    7.00
   1  -2   6  116.59    7.70
   1  -2   6  118.39    8.00
  -2   2  -6  245.08   12.70
   2  -2   6  216.38   12.20
   2  -2   6  231.58   13.50
   2  -2   6  215.88   13.60
  -3   2  -6   -0.40    4.20
   3  -2   6    8.10    2.60
   3  -2   6    8.80    2.60
  -4   2  -6    3.70    6.60
  -4   2  -6    2.40    4.50
  -4  -1   6    2.90    3.50
   3   1  -6   56.89    5.80
  -3  -1   6   69.39    4.30
  -3  -1   6   61.89    6.80
   2   1  -6  148.89   12.00
  -2  -1   6  151.18   10.70
  -2  -1   6  161.38    8.10
   1   1  -6  364.66   18.40
   1   1  -6  324.77   17.10
  -1  -1   6  357.46   19.60
  -1  -1   6  348.17   18.50
  -1  -1   6  379.36   16.80
   0   1  -6 1581.44   76.09
   0   1  -6 1656.13   69.49
   0  -1   6 1491.15   69.49
   0  -1   6 1465.15   78.59
   0  -1   6 1522.45   75.79
  -1   1  -6  394.76   17.30
  -1   1  -6  358.26   18.60
   1  -1   6  350.16   17.40
   1  -1   6  355.66   19.70
   1  -1   6  353.76   18.80
  -2   1  -6  159.28    8.30
   2  -1   6  168.18    9.10
   2  -1   6  148.39    8.70
   2  -1   6  153.48    9.80
   3  -1   6   57.79    5.40
   3  -1   6   59.09    5.00
  -4   1  -6    2.40    6.10
   4  -1   6    4.70    2.70
  -4   0   6   14.30    4.70
  -3   0   6   31.20    3.60
  -3   0   6   35.60    5.70
   2   0  -6   83.59    6.80
  -2   0   6   91.29    5.70
  -2   0   6   88.79    7.50
   1   0  -6  388.36   19.80
   1   0  -6  385.16   21.20
  -1   0   6  415.66   22.30
  -1   0   6  416.46   21.00
  -1   0   6  424.16   19.40
   0   0  -6 1027.50   51.69
   0   0  -6 1039.00   50.49
   0   0  -6  975.30   45.90
   0   0   6 1022.20   45.80
   0   0   6  967.00   51.69
   0   0   6 1030.40   50.29
  -1   0  -6  463.25   20.10
   1   0   6  415.46   20.10
   1   0   6  425.26   22.90
   1   0   6  411.16   21.40
   2   0   6   88.09    5.50
   2   0   6   88.39    6.20
   3   0   6   29.30    3.40
   3   0   6   33.80    3.90
  -4   0  -6    4.10    6.60
   4   0   6   14.70    3.50
  -4   1   6    3.20    3.90
  -3   1   6   53.09    5.30
  -3   1   6   66.19    8.00
  -2   1   6  158.58   11.30
  -2   1   6  143.39    9.10
  -2   1   6  156.48    8.50
   1  -1  -6  348.07   22.50
   1  -1  -6  320.67   19.00
  -1   1   6  344.67   17.40
  -1   1   6  367.46   18.40
  -1   1   6  365.06   19.90
   0  -1  -6 1400.36   69.69
   0  -1  -6 1562.74   97.59
   0  -1  -6 1473.75   78.49
   0   1   6 1547.65   75.89
   0   1   6 1544.15   69.49
   0   1   6 1599.84   78.39
   0   1   6 1647.54   78.49
  -1  -1  -6  373.36   17.10
   1   1   6  358.26   16.80
   1   1   6  364.76   18.10
   1   1   6  330.57   24.20
   1   1   6  356.16   19.30
   1   1   6  364.06   18.80
  -2  -1  -6  173.18    8.10
   2   1   6  161.48   12.60
   2   1   6  147.19    9.60
   2   1   6  151.08    8.20
   3   1   6   60.49    4.20
   3   1   6   57.19    7.00
   3   1   6   54.89    5.00
  -4  -1  -6    8.00    6.50
  -4   2   6    2.60    4.10
  -3   2   6    4.30    3.80
  -3   2   6    4.50    2.80
  -2   2   6  236.18   13.90
  -2   2   6  242.88   13.90
   1  -2  -6  119.69   13.10
   1  -2  -6  112.49    8.00
   1  -2  -6  108.69    8.40
  -1   2   6  124.19    7.90
  -1   2   6  131.49    7.70
   0  -2  -6  152.28    9.10
   0  -2  -6  141.69    9.60
   0  -2  -6  175.18   11.40
   0  -2  -6  175.38   12.80
   0   2   6  158.38   11.30
   0   2   6  155.58    9.30
   0   2   6  165.38    8.90
   0   2   6  154.38   11.50
  -1  -2  -6  120.59    7.40
  -1  -2  -6  139.39    9.80
   1   2   6  137.09    6.80
   1   2   6  129.89   10.30
   1   2   6  133.19    8.40
   1   2   6  137.79    8.00
  -2  -2  -6  226.18   11.50
   2   2   6  237.48   17.20
   2   2   6  223.08   11.20
   2   2   6  231.08   13.20
   3   2   6    5.70    3.40
   3   2   6    7.50    2.20
   4   2   6    2.80    4.10
  -4   3   6    3.50    4.80
  -3   3   6    3.60    3.50
  -3   3   6   -1.30    2.90
  -3   3   6    1.90    2.70
   2  -3  -6  159.38   16.90
   2  -3  -6  117.99   11.90
  -2   3   6  178.08   11.20
  -2   3   6  172.88   10.90
   1  -3  -6  838.92   47.20
   1  -3  -6  709.23   52.69
  -1   3   6  879.11   44.00
  -1   3   6  853.01   52.39
  -1   3   6  854.81   40.00
   0  -3  -6  149.09   11.00
   0  -3  -6  138.29   11.70
   0   3   6  146.19    9.30
   0   3   6  139.79    8.80
   0   3   6  145.79   11.20
   0   3   6  147.39   10.80
  -1  -3  -6  773.62   40.20
  -1  -3  -6  896.91   45.00
   1   3   6  881.01   39.70
   1   3   6  860.71   56.49
   1   3   6  911.61   45.20
  -2  -3  -6  147.39    9.10
  -2  -3  -6  175.58   10.20
   2   3   6  180.78   10.30
   2   3   6  163.28    8.30
   2   3   6  179.48   13.70
   3   3   6    2.90    3.40
   3   3   6    1.90    1.70
   4   3   6    3.00    4.30
  -4   4   6    2.60    4.30
  -4   4   6   10.30    5.60
   3  -4  -6    8.30    8.70
  -3   4   6    6.20    3.70
  -3   4   6    8.90    4.20
   2  -4  -6   11.10    7.70
  -2   4   6   17.60    4.50
  -2   4   6   11.70    3.60
   1  -4  -6  368.56   25.10
  -1   4   6  374.76   21.60
  -1   4   6  357.26   20.10
  -1   4   6  357.36   23.80
   0  -4  -6 1022.10   55.09
   0   4   6 1058.09   49.00
   0   4   6 1000.60   66.59
   0   4   6 1043.50   54.59
  -1  -4  -6  274.07   17.00
  -1  -4  -6  370.26   20.70
   1   4   6  344.57   23.70
   1   4   6  353.46   16.80
   1   4   6  314.47   18.90
   1   4   6  355.56   19.00
  -2  -4  -6    7.90    2.40
  -2  -4  -6   12.70    3.70
   2   4   6   13.20    2.30
   2   4   6   11.80    3.90
   2   4   6   14.30    1.50
   2   4   6   14.40    2.40
   3   4   6    4.50    2.00
   3   4   6    7.20    3.90
   4   4   6    1.20    4.50
   3  -5  -6   25.40   11.20
  -3   5   6   12.00    4.60
  -3   5   6   13.80    4.80
   2  -5  -6   47.30   10.70
  -2   5   6   52.19    7.20
  -2   5   6   63.19    7.90
   1  -5  -6  166.58   15.20
  -1   5   6  162.78   11.90
  -1   5   6  173.58   12.50
  -1   5   6  143.29   11.30
   0  -5  -6  149.29   12.80
   0   5   6  136.29    9.90
   0   5   6  149.29   10.60
   0   5   6  142.99   11.60
  -1  -5  -6  160.48   13.00
   1   5   6  169.68   10.00
   1   5   6  172.88   11.10
   1   5   6  160.88   13.60
  -2  -5  -6   70.29    8.10
   2   5   6   60.99    5.20
   2   5   6   64.39    3.80
   2   5   6   53.49    7.50
   3   5   6   11.10    4.50
   3   5   6   10.60    2.60
   3  -6  -6   16.00   10.00
  -3   6   6   18.50    5.70
  -3   6   6   25.30    6.20
   2  -6  -6    1.70    6.10
  -2   6   6    2.20    3.60
  -2   6   6    5.70    4.40
   1  -6  -6  168.58   15.60
  -1   6   6  149.39   12.00
  -1   6   6  157.38   12.10
  -1   6   6  147.59   12.40
   0  -6  -6   -1.50    3.70
   0   6   6    0.80    2.90
   0   6   6    3.50    2.70
   0   6   6    2.50    2.90
  -1  -6  -6  155.08   13.40
   1   6   6  156.48   13.70
   1   6   6  154.28   11.20
   1   6   6  162.68   10.30
  -2  -6  -6    5.20    4.30
   2   6   6    5.00    1.60
   2   6   6    9.70    4.40
   2   6   6    6.40    2.40
   3   6   6   27.70    6.60
   3   6   6   25.40    3.80
   3  -7  -6    3.60    8.70
  -3   7   6   15.50    5.80
  -3   7   6   17.00    6.50
   2  -7  -6   40.70   11.20
  -2   7   6   58.09    9.00
  -2   7   6   54.19    8.70
   1  -7  -6   -2.00    4.80
  -1   7   6   -2.20    3.60
  -1   7   6   -2.60    2.80
  -1   7   6   -5.30    3.20
   0  -7  -6  159.18   14.90
   0   7   6  133.49   11.10
   0   7   6  139.59   11.90
   0   7   6  139.09   13.00
  -1  -7  -6   -0.90    4.00
   1   7   6   -1.40    2.60
   1   7   6    4.20    4.00
   1   7   6    0.30    2.60
  -2  -7  -6   63.39    9.60
   2   7   6   58.89    8.80
   2   7   6   67.69    5.10
   2   7   6   69.69    6.50
   3   7   6   17.20    3.40
   3   7   6   13.90    5.80
   3  -8  -6    6.60   10.50
  -3   8   6    0.10    5.00
  -3   8   6   -2.20    4.60
   2  -8  -6   36.90   11.10
  -2   8   6   56.59    9.70
  -2   8   6   48.80    8.80
   1  -8  -6   80.99   13.30
  -1   8   6   94.69   11.50
  -1   8   6  100.19   10.60
  -1   8   6  112.49   11.70
   0  -8  -6    8.00    5.70
   0   8   6    5.70    4.60
   0   8   6    7.30    4.50
   0   8   6    4.10    4.20
  -1  -8  -6   98.59   13.00
   1   8   6   97.09   11.50
   1   8   6   95.29    9.00
   1   8   6   97.79    9.30
  -2  -8  -6   76.79   11.20
   2   8   6   47.40    8.70
   2   8   6   64.69    6.80
   3   8   6    3.70    5.00
   3   8   6    2.50    2.40
   2  -9  -6    5.20    7.60
  -2   9   6    1.30    4.90
  -2   9   6   -1.90    4.90
   1  -9  -6   25.10    9.10
  -1   9   6   26.80    7.20
  -1   9   6   21.60    7.10
  -1   9   6   25.20    6.40
   0  -9  -6  181.98   18.50
   0   9   6  200.48   15.70
   0   9   6  190.78   16.40
   0   9   6  199.68   17.90
  -1  -9  -6   16.70    7.00
   1   9   6   19.70    6.50
   1   9   6   25.30    6.10
   1   9   6   32.60    6.20
   2   9   6   -1.30    4.40
   2   9   6   -2.40    2.70
   2 -10  -6   15.10    9.90
  -2  10   6   22.10    8.00
  -2  10   6    9.50    6.60
   1 -10  -6   12.70    8.00
  -1  10   6   11.90    6.50
  -1  10   6   13.40    7.10
  -1  10   6    4.40    5.70
   0 -10  -6   30.80    9.60
   0  10   6   44.00    9.00
   0  10   6   29.60    7.80
   0  10   6   41.10    9.00
  -1 -10  -6    6.60    6.80
   1  10   6   19.30    6.00
   1  10   6    9.80    4.90
   1  10   6   18.50    7.40
  -2 -10  -6   16.20    8.80
   2  10   6   17.90    7.20
   2  10   6   19.40    5.10
   1 -11  -6   56.49   13.50
  -1  11   6   46.80   10.80
  -1  11   6   52.99   11.40
   0 -11  -6    2.60    6.70
   0  11   6   16.90    7.90
   0  11   6   16.70    7.80
   0  11   6   12.50    7.20
  -1 -11  -6   34.40   10.90
   1  11   6   54.29    9.40
   1  11   6   39.20    8.40
   1  11   6   56.59   11.60
   1  11  -7    3.00    9.40
   1  11  -7   -0.70    6.50
  -1 -11   7    5.80    4.00
  -1 -11   7    6.50    6.80
   0  11  -7    2.60    9.70
   0  11  -7   -0.50    6.70
   0 -11   7    2.10    3.60
   0 -11   7   -3.80    5.20
  -1  11  -7    1.80   11.00
  -1  11  -7   -3.90    5.70
   1 -11   7    1.70    3.80
   1 -11   7    3.30    6.20
   2  10  -7   -2.40    8.20
  -2 -10   7    3.50    5.70
   1  10  -7   14.50    7.80
   1  10  -7   13.10   10.60
  -1 -10   7    7.30    3.60
  -1 -10   7    9.90    6.00
   0  10  -7   -2.90    8.90
   0  10  -7   -4.50    5.80
   0 -10   7    4.90    5.20
   0 -10   7   -1.20    2.50
  -1  10  -7    7.40    7.40
  -1  10  -7    2.90   10.00
   1 -10   7   25.20    8.50
   1 -10   7    8.50    3.90
  -2  10  -7   -2.00    5.90
  -2  10  -7  -10.00    8.30
   2 -10   7    3.90    7.40
   2 -10   7    4.20    4.10
   2   9  -7   14.00    9.30
  -2  -9   7   26.50    7.40
   1   9  -7   18.60    8.20
   1   9  -7    8.90    9.20
  -1  -9   7   10.30    5.60
  -1  -9   7    9.20    3.20
   0   9  -7   29.40   12.90
   0   9  -7   22.80    8.50
   0  -9   7   30.30    5.00
   0  -9   7   30.70    7.80
  -1   9  -7    5.00    9.20
  -1   9  -7    2.50    5.30
   1  -9   7    8.60    3.80
   1  -9   7    7.10    5.60
  -2   9  -7   11.40    9.90
  -2   9  -7    8.60    6.60
   2  -9   7   16.80    5.10
   2  -9   7   26.40    8.60
   3   8  -7   27.40    9.20
  -3  -8   7   33.20    8.30
   2   8  -7   21.80    9.40
  -2  -8   7   15.30    5.80
  -2  -8   7   20.50    3.70
   1   8  -7   28.40    8.00
   1   8  -7   34.20   11.40
  -1  -8   7   29.90    4.50
  -1  -8   7   19.10    6.30
   0   8  -7   24.30    8.00
   0   8  -7   33.30   12.70
   0  -8   7   27.90    4.50
   0  -8   7   36.00    7.30
  -1   8  -7   19.10    7.30
  -1   8  -7   16.90   10.10
   1  -8   7   25.20    6.90
   1  -8   7   22.50    4.60
  -2   8  -7    6.70    8.40
  -2   8  -7   16.10    7.40
   2  -8   7   15.20    4.30
   2  -8   7   15.70    7.00
  -3   8  -7    5.70    8.50
  -3   8  -7   26.10    9.30
   3  -8   7   39.10    6.30
   3   7  -7   46.30    9.90
  -3  -7   7   35.60    7.90
   2   7  -7   50.69   11.40
   2   7  -7   39.00    6.00
  -2  -7   7   32.90    6.90
  -2  -7   7   40.20    4.30
   1   7  -7   60.19   10.20
   1   7  -7   44.20   12.70
  -1  -7   7   53.19    5.10
  -1  -7   7   61.69    8.60
   0   7  -7   15.20    6.40
   0   7  -7   10.80    9.30
   0  -7   7   17.10    5.20
   0  -7   7   13.80    3.20
  -1   7  -7   40.40    9.10
  -1   7  -7   27.30   10.90
   1  -7   7   46.70    5.60
   1  -7   7   60.59    8.80
  -2   7  -7    5.50    6.80
  -2   7  -7   17.00    6.60
   2  -7   7   40.30    8.20
   2  -7   7   43.00    5.80
  -3   7  -7   10.50    8.40
  -3   7  -7   27.90    8.60
   3  -7   7   44.50    6.60
   3   6  -7   47.30    9.60
  -3  -6   7   44.30    7.70
   2   6  -7   55.09    6.30
   2   6  -7   61.89   11.50
  -2  -6   7   48.20    4.50
  -2  -6   7   56.99    8.00
   1   6  -7   61.39    9.90
   1   6  -7   72.69   14.30
  -1  -6   7   68.59    5.40
  -1  -6   7   70.19    7.90
   0  -6   7  423.36   25.40
   0  -6   7  420.26   21.50
  -1   6  -7   36.60    8.20
   1  -6   7   67.49    8.70
   1  -6   7   61.19    5.60
  -2   6  -7   17.70    6.40
   2  -6   7   55.69    8.50
   2  -6   7   38.30    5.20
  -3   6  -7   26.20    7.90
  -3   6  -7    5.30    6.60
   3  -6   7   54.69    6.50
   3   5  -7    0.90    4.20
  -3  -5   7    0.50    3.40
   2   5  -7  174.88   10.60
   2   5  -7  155.08   16.40
  -2  -5   7  151.88    8.70
  -2  -5   7  137.79   12.00
   1   5  -7  178.98   14.90
   1   5  -7  180.88   20.40
  -1  -5   7  185.08   13.20
  -1  -5   7  175.68   10.00
   0   5  -7    0.60    6.50
   0   5  -7    2.10    3.50
   0  -5   7   -0.10    1.60
   0  -5   7    0.30    2.50
  -1   5  -7   75.29   10.40
  -2   5  -7   56.79    9.40
  -3   5  -7    0.10    5.30
  -3   5  -7    3.10    4.70
   3  -5   7    3.50    2.90
   3   4  -7   29.50    6.50
  -3  -4   7   23.80    5.30
   2   4  -7   44.80    8.40
   2   4  -7   42.90    3.80
   2   4  -7   29.00    2.40
  -2  -4   7   36.90    3.10
  -2  -4   7   36.10    5.60
   1   4  -7  341.27   16.70
   1   4  -7  270.67   19.90
   1   4  -7  255.07   26.60
  -1  -4   7  302.67   15.20
  -1  -4   7  308.07   18.40
   0   4  -7  347.07   22.70
   1  -4   7  326.97   18.10
   1  -4   7  287.67   15.50
   1  -4   7  280.67   17.00
   2  -4   7   42.70    6.10
   2  -4   7   38.10    4.50
   2  -4   7   37.50    4.70
  -3   4  -7   14.00    5.90
  -3   4  -7    1.20    4.60
   3  -4   7   26.40    4.20
  -4  -3   7    5.90    4.30
   3   3  -7   32.50    5.80
  -3  -3   7   31.70    5.60
   2   3  -7  100.99   11.00
  -2  -3   7   98.59    5.70
  -2  -3   7   88.79    8.00
   1   3  -7   90.89    5.30
   1   3  -7   53.79   11.60
  -1  -3   7   80.89    7.30
  -1  -3   7   86.59    5.30
   0  -3   7  859.21   44.20
   0  -3   7  861.41   44.80
   0  -3   7  855.31   39.90
  -1   3  -7   94.29    6.70
   1  -3   7   84.89    7.10
   1  -3   7   82.29    5.70
   1  -3   7   76.59    6.10
  -2   3  -7  105.29    7.40
   2  -3   7   91.89    7.40
   2  -3   7  105.29    8.20
   2  -3   7   93.09    6.80
   3  -3   7   27.70    4.40
   3  -3   7   28.90    4.30
  -4   3  -7   -0.80    3.80
  -4   3  -7    5.10    7.00
  -4  -2   7    6.60    4.00
   3   2  -7    1.00    2.40
  -3  -2   7    3.30    3.10
  -3  -2   7    0.50    1.20
   2   2  -7   82.19    9.10
  -2  -2   7   71.69    7.10
  -2  -2   7   84.19    4.80
   1   2  -7 1296.87   62.99
  -1  -2   7 1244.28   62.39
  -1  -2   7 1215.58   56.09
  -1  -2   7 1187.38   63.19
   0  -2   7  843.72   44.70
   0  -2   7  881.41   43.80
  -1   2  -7 1266.37   58.69
   1  -2   7 1231.68   59.09
   1  -2   7 1155.78   54.29
   1  -2   7 1082.59   61.19
  -2   2  -7   82.09    5.60
   2  -2   7   89.79    6.70
   2  -2   7   79.79    6.30
   2  -2   7   81.29    5.90
  -3   2  -7    2.40    4.40
   3  -2   7    0.20    2.00
   3  -2   7    0.90    2.00
  -4   2  -7    2.40    6.30
  -4  -1   7    2.40    3.80
   3   1  -7   10.70    2.70
  -3  -1   7   10.30    3.80
  -3  -1   7   11.30    2.00
   2   1  -7   42.50    5.90
  -2  -1   7   46.80    3.30
  -2  -1   7   37.60    5.30
   1   1  -7  715.13   36.30
  -1  -1   7  706.63   36.90
  -1  -1   7  679.83   36.40
  -1  -1   7  733.53   32.60
   0   1  -7 1263.97   62.09
   0   1  -7 1394.16   63.79
   0  -1   7 1196.38   61.69
   0  -1   7 1174.28   63.79
   0  -1   7 1193.18   56.39
  -1   1  -7  709.03   34.20
   1  -1   7  666.73   34.30
   1  -1   7  679.83   35.90
   1  -1   7  671.53   31.70
   2  -1   7   42.70    4.20
   2  -1   7   52.79    3.70
   2  -1   7   36.70    3.70
  -3   1  -7   -0.50    4.40
   3  -1   7   11.70    2.80
   3  -1   7   13.50    2.80
  -4   1  -7    2.40    6.20
   4  -1   7    6.20    2.80
  -4   0   7   -0.10    3.60
  -3   0   7   23.60    5.00
  -3   0   7   28.70    3.40
   2   0  -7  208.98   15.30
  -2   0   7  233.28   11.70
  -2   0   7  214.38   14.20
   1   0  -7    0.00    1.00
   1   0  -7   -2.70    3.10
  -1   0   7   -0.30    0.80
  -1   0   7    0.20    2.00
  -1   0   7   -2.40    2.80
  -1   0   7   -0.80    1.10
   0   0  -7    1.10    2.70
   0   0  -7   -0.40    0.80
   0   0  -7   -2.10    1.60
   0   0   7    0.20    0.90
   0   0   7    4.30    1.90
   0   0   7    0.10    1.00
   0   0   7   -0.50    2.80
  -1   0  -7   -1.00    2.80
   1   0   7   -0.60    1.10
   1   0   7    0.30    1.10
   1   0   7   -1.70    3.40
   1   0   7    1.40    1.20
   2   0   7  213.58   12.80
   2   0   7  216.78   11.20
   3   0   7   20.20    3.40
   3   0   7   25.10    3.20
  -4   0  -7    1.40    5.70
   4   0   7   -1.20    2.00
  -4   1   7    9.70    4.40
  -3   1   7   11.00    2.90
  -3   1   7   11.50    4.30
   2  -1  -7   37.60    4.90
  -2   1   7   47.80    6.20
  -2   1   7   41.40    4.30
  -2   1   7   46.40    3.00
   1  -1  -7  675.73   44.40
   1  -1  -7  640.64   36.40
  -1   1   7  700.33   32.90
  -1   1   7  732.63   35.90
  -1   1   7  731.93   37.00
   0  -1  -7 1192.58   63.79
   0  -1  -7 1177.28   79.19
   0   1   7 1257.77   56.49
   0   1   7 1276.57   63.69
   0   1   7 1303.77   65.19
   0   1   7 1264.57   62.09
  -1  -1  -7  690.53   32.40
   1   1   7  723.53   35.80
   1   1   7  673.53   32.10
   1   1   7  687.53   45.90
   1   1   7  709.33   36.60
   1   1   7  711.53   34.80
   2   1   7   42.40    3.30
   2   1   7   47.40    4.20
   2   1   7   47.40    5.80
   3   1   7    9.60    3.80
   3   1   7    9.20    2.50
   3   1   7    8.20    2.00
  -4  -1  -7    6.30    6.50
   4   1   7    4.80    2.50
  -4   2   7    2.60    4.40
  -3   2   7   -0.70    2.50
  -3   2   7    2.30    3.20
   2  -2  -7   61.59    7.90
  -2   2   7   82.09    8.20
  -2   2   7   89.59    7.00
  -2   2   7   94.09    6.00
   1  -2  -7 1085.59   73.39
   1  -2  -7 1066.29   60.49
   1  -2  -7 1110.99   64.09
  -1   2   7 1235.78   54.29
  -1   2   7 1289.47   59.99
   0  -2  -7  913.61   58.09
   0  -2  -7  865.61   49.30
   0   2   7  925.31   42.00
   0   2   7  942.81   46.90
   0   2   7  890.01   58.29
   0   2   7  873.41   47.70
  -1  -2  -7 1146.39   56.59
  -1  -2  -7 1158.58   63.19
   1   2   7 1287.17   63.79
   1   2   7 1312.57   55.99
   1   2   7 1262.57   61.69
   1   2   7 1239.78   79.79
  -2  -2  -7   76.89    5.20
   2   2   7   85.19    4.90
   2   2   7   78.49    5.80
   2   2   7   85.69    8.20
   3   2   7    0.40    1.60
   3   2   7   -3.30    2.90
  -4   3   7   -0.10    4.10
  -3   3   7   42.60    7.20
  -3   3   7   34.60    5.70
   2  -3  -7  107.79   16.20
  -2   3   7  108.99    7.80
  -2   3   7   91.59    8.00
   1  -3  -7   67.99    6.10
   1  -3  -7   91.89   12.20
  -1   3   7   88.19    6.80
  -1   3   7   81.49    6.20
   0  -3  -7  914.01   59.89
   0  -3  -7  919.71   50.69
   0   3   7  984.90   43.80
   0   3   7  921.91   59.79
   0   3   7  897.51   48.50
  -1  -3  -7   84.69    8.40
   1   3   7   92.39    8.10
   1   3   7   90.69    6.20
   1   3   7   76.49    6.90
   1   3   7   96.29    5.40
  -2  -3  -7   93.99    6.50
  -2  -3  -7  107.09    7.70
   2   3   7  109.79    9.80
   2   3   7  108.69    7.10
   2   3   7   97.49    5.60
   3   3   7   29.40    3.80
   3   3   7   30.70    6.00
   4   3   7    2.60    4.50
  -3   4   7   34.80    6.20
   2  -4  -7   39.30   10.30
  -2   4   7   36.10    5.20
  -2   4   7   48.80    6.70
   1  -4  -7  311.77   23.90
  -1   4   7  341.87   22.10
  -1   4   7  340.77   18.90
  -1   4   7  326.37   19.70
   0  -4  -7  857.21   47.20
   0   4   7  825.92   55.09
   0   4   7  874.61   40.80
   0   4   7  837.32   45.20
  -1  -4  -7  329.97   20.80
   1   4   7  342.37   24.00
   1   4   7  344.57   17.00
   1   4   7  335.57   19.10
  -2  -4  -7   43.00    5.80
  -2  -4  -7   40.90    4.60
   2   4   7   44.00    3.00
   2   4   7   47.30    6.40
   2   4   7   40.50    3.90
   2   4   7   49.50    4.30
   3   4   7   32.30    4.10
   3   4   7   37.40    6.80
   3  -5  -7   -5.80    8.30
  -3   5   7    0.30    3.60
  -3   5   7    4.00    3.80
   2  -5  -7  155.18   20.20
  -2   5   7  187.78   13.60
  -2   5   7  183.18   13.40
   1  -5  -7  195.38   17.70
  -1   5   7  213.88   14.00
  -1   5   7  185.68   13.20
  -1   5   7  199.68   14.10
   0  -5  -7    9.30    5.00
   0   5   7    0.40    2.10
   0   5   7    4.80    2.90
   0   5   7    0.80    2.20
  -1  -5  -7  184.98   14.90
   1   5   7  192.28   11.30
   1   5   7  204.08   15.80
   1   5   7  208.18   12.70
  -2  -5  -7  167.88   12.90
   2   5   7  176.18   14.90
   2   5   7  175.58    8.80
   2   5   7  172.28   11.00
   3   5   7    1.80    1.80
   3   5   7    0.80    3.60
   3  -6  -7   43.70   13.80
  -3   6   7   65.79    8.80
  -3   6   7   54.59    8.70
   2  -6  -7   49.80   12.00
  -2   6   7   61.59    8.50
  -2   6   7   60.49    8.20
   1  -6  -7   51.09   10.40
  -1   6   7   68.19    7.90
  -1   6   7   85.19    8.60
  -1   6   7   78.29    7.10
   0  -6  -7  467.05   29.70
   0   6   7  449.66   27.10
   0   6   7  459.75   31.90
   0   6   7  465.65   25.00
  -1  -6  -7   74.19   10.20
   1   6   7   78.29    8.80
   1   6   7   82.39    7.30
   1   6   7   91.29    7.10
  -2  -6  -7   53.89    8.40
   2   6   7   65.19    4.30
   2   6   7   62.79    8.30
   2   6   7   63.19    5.80
   3   6   7   49.50    5.30
   3   6   7   62.49    8.70
   3  -7  -7   51.09   14.70
  -3   7   7   37.80    7.70
  -3   7   7   43.90    8.20
   2  -7  -7   35.70   11.10
  -2   7   7   41.20    7.40
  -2   7   7   31.70    6.90
   1  -7  -7   54.29   11.10
  -1   7   7   50.69    7.90
  -1   7   7   62.19    6.80
  -1   7   7   59.09    8.40
   0  -7  -7   12.90    6.10
   0   7   7   21.90    5.00
   0   7   7   17.80    4.90
   0   7   7   16.90    4.80
  -1  -7  -7   66.89   10.20
   1   7   7   67.79    8.60
   1   7   7   61.59    6.70
   1   7   7   67.89    7.20
  -2  -7  -7   48.60    8.70
   2   7   7   58.99    8.30
   2   7   7   44.90    5.30
   3   7   7   58.99    9.70
   3   7   7   53.69    5.70
   3  -8  -7   37.10   14.50
  -3   8   7   28.10    7.70
  -3   8   7   46.40    9.00
   2  -8  -7   17.30    9.20
  -2   8   7   26.90    7.00
  -2   8   7   20.60    6.40
   1  -8  -7   21.10    8.30
  -1   8   7   24.60    6.80
  -1   8   7   30.40    5.60
  -1   8   7   19.80    6.10
   0  -8  -7   25.90    8.40
   0   8   7   29.60    6.30
   0   8   7   31.30    6.60
   0   8   7   45.60    7.50
  -1  -8  -7   29.90    8.20
   1   8   7   22.60    5.00
   1   8   7   29.40    6.90
   1   8   7   36.30    5.90
  -2  -8  -7   30.60    8.30
   2   8   7   18.80    6.20
   2   8   7   30.70    4.90
   3   8   7   35.10    8.10
   3   8   7   35.60    5.10
   2  -9  -7   17.50   10.20
  -2   9   7   21.60    7.10
  -2   9   7   17.40    6.60
   1  -9  -7   15.90    8.20
  -1   9   7   14.10    5.30
  -1   9   7    3.70    5.30
  -1   9   7   14.80    5.90
   0  -9  -7   27.30    8.90
   0   9   7   27.80    6.90
   0   9   7   33.20    7.40
   0   9   7   41.10    7.90
  -1  -9  -7    6.00    6.60
   1   9   7   12.70    4.70
   1   9   7   12.60    4.70
   1   9   7   15.10    6.00
  -2  -9  -7   36.50    9.60
   2   9   7   27.40    7.50
   2   9   7   24.40    5.00
   2 -10  -7    7.20    9.60
  -2  10   7    0.80    5.90
  -2  10   7    4.70    6.60
   1 -10  -7   10.00    8.70
  -1  10   7   14.00    5.80
  -1  10   7    3.20    5.60
  -1  10   7   22.80    7.40
   0 -10  -7    2.30    6.20
   0  10   7   -2.40    5.00
   0  10   7   -0.20    4.60
   0  10   7    2.60    5.30
  -1 -10  -7   12.80    7.50
   1  10   7   16.80    6.90
   1  10   7   15.70    5.50
   1  10   7   16.30    5.80
   2  10   7    5.20    6.10
   2  10   7    2.60    3.50
   1 -11  -7    3.60    7.60
  -1  11   7   13.80    7.60
  -1  11   7   -1.70    5.40
   0 -11  -7    0.30    7.30
   0  11   7    1.80    5.90
   0  11   7   -3.10    5.60
   0  11   7   -2.20    4.90
  -1 -11  -7   10.20    8.60
   1  11   7    1.60    4.90
   1  11   7    3.20    6.10
   1  11   7    0.60    4.50
   0  11  -8    6.40   11.10
   0  11  -8   10.60    8.60
   0 -11   8    9.30    7.20
   0 -11   8    3.00    3.90
   1  10  -8   81.99   18.20
   1  10  -8   83.89   14.20
  -1 -10   8   75.19   12.40
  -1 -10   8   77.79    7.70
   0  10  -8   16.80    8.40
   0  10  -8   12.10   11.20
   0 -10   8   11.70    6.50
   0 -10   8   12.40    3.90
  -1  10  -8   85.19   19.40
  -1  10  -8   81.89   14.70
   1 -10   8   76.39    8.80
   1 -10   8   56.29   11.40
   2   9  -8   36.20   11.90
  -2  -9   8   33.10    8.10
   1   9  -8   46.20   10.50
   1   9  -8   35.20   13.10
  -1  -9   8   27.40    4.70
  -1  -9   8   37.20    8.20
   0   9  -8   28.20   12.90
   0   9  -8   31.70    9.30
   0  -9   8   34.10    5.40
   0  -9   8   25.80    7.80
  -1   9  -8   29.70    9.30
  -1   9  -8   21.40   11.70
   1  -9   8   27.30    5.30
   1  -9   8   28.70    7.90
  -2   9  -8   17.90    7.70
  -2   9  -8   13.30    9.70
   2  -9   8   29.80    5.70
   2   8  -8   13.40    8.90
  -2  -8   8   17.20    3.60
  -2  -8   8   13.40    5.70
   1   8  -8   35.30    8.80
   1   8  -8   32.50   12.40
  -1  -8   8   28.40    4.40
  -1  -8   8   26.20    6.80
   0   8  -8   13.10   10.40
   0   8  -8   20.80    7.50
   0  -8   8   30.10    4.80
   0  -8   8   24.90    6.60
  -1   8  -8    9.30    8.90
  -1   8  -8   20.70    7.40
   1  -8   8   30.80    5.00
   1  -8   8   15.00    6.00
  -2   8  -8   10.00    8.70
  -2   8  -8    7.40    5.70
   2  -8   8   14.70    4.30
   2  -8   8   10.30    6.60
   3   7  -8    1.70    5.30
  -3  -7   8    3.80    4.80
   2   7  -8   20.80    8.70
  -2  -7   8   23.90    3.80
  -2  -7   8   17.80    5.60
   1   7  -8   13.30    9.10
   1   7  -8    5.00    5.40
  -1  -7   8    2.70    2.30
  -1  -7   8    6.20    4.20
   0   7  -8   24.90   11.60
   0   7  -8   25.00    8.10
   0  -7   8   45.00    5.20
   0  -7   8   56.69    8.20
  -1   7  -8   -2.80    3.30
  -1   7  -8   -2.20    5.20
   1  -7   8    7.30    4.30
   1  -7   8    3.90    2.70
  -2   7  -8    4.60    6.50
  -2   7  -8    6.50    5.30
   2  -7   8   15.10    4.00
   2  -7   8   27.60    7.10
  -3   7  -8    4.90    5.70
  -3   7  -8    0.80    6.70
   3  -7   8    0.20    3.20
   3   6  -8   10.20    6.00
  -3  -6   8   13.90    5.10
   2   6  -8    3.10    5.80
   2   6  -8    3.00    2.80
  -2  -6   8    3.60    2.10
  -2  -6   8    2.30    3.50
   1   6  -8   61.59    9.70
   1   6  -8   45.80   12.80
  -1  -6   8   52.99    4.80
  -1  -6   8   48.00    7.30
   0   6  -8   11.60    8.80
   0   6  -8   11.90    5.30
   0  -6   8   14.50    4.50
   0  -6   8   20.90    3.40
  -1   6  -8   19.80    6.20
  -1   6  -8    5.40    6.70
   1  -6   8   50.39    7.40
  -2   6  -8    1.40    5.60
  -2   6  -8   -1.30    3.00
   2  -6   8    1.30    2.50
   2  -6   8    3.10    4.40
  -3   6  -8    0.90    4.40
  -3   6  -8   -0.60    5.60
   3  -6   8   13.20    4.00
   3   5  -8   14.90    5.80
  -3  -5   8   12.60    4.80
   2   5  -8  115.19   14.90
   2   5  -8  116.29    8.80
  -2  -5   8  107.39   10.10
  -2  -5   8  120.59    7.20
   1   5  -8  107.39   16.20
   1   5  -8  101.39   11.30
  -1  -5   8  121.09    7.20
  -1  -5   8  100.59    9.40
   0   5  -8   -0.90    5.70
   0   5  -8    0.70    3.30
   0  -5   8    2.20    1.80
   0  -5   8   -1.30    2.30
  -1   5  -8   47.50    8.20
  -3   5  -8    4.00    4.30
  -3   5  -8    2.30    5.50
   3  -5   8   11.80    3.50
   3   4  -8   13.70    5.20
  -3  -4   8   15.60    4.70
   2   4  -8   53.49    4.90
   2   4  -8   45.00    9.30
  -2  -4   8   49.00    6.90
  -2  -4   8   52.49    4.10
   1   4  -8  166.28   14.00
   1   4  -8  151.68   19.50
  -1  -4   8  182.78    9.80
  -1  -4   8  197.58   12.80
   0   4  -8   85.89    8.80
   0   4  -8   57.79   12.40
   1  -4   8  193.48   11.10
   1  -4   8  196.28   12.20
   1  -4   8  192.38   13.00
   2  -4   8   52.99    6.70
   2  -4   8   44.70    4.90
   2  -4   8   41.00    4.90
  -3   4  -8    5.50    4.40
  -3   4  -8    4.50    5.90
   3  -4   8   11.70    3.50
   3   3  -8   35.20    6.20
  -3  -3   8   25.60    5.40
   2   3  -8   26.40    6.80
  -2  -3   8   28.40    5.00
  -2  -3   8   27.70    2.70
   1   3  -8  296.97   15.20
  -1  -3   8  261.17   16.70
  -1  -3   8  271.97   14.00
   0  -3   8  230.18   11.90
   0  -3   8  214.48   13.10
   0  -3   8  243.68   14.20
   1  -3   8  269.37   15.90
   1  -3   8  279.17   14.30
   1  -3   8  271.07   16.20
  -2   3  -8   36.20    4.20
   2  -3   8   35.30    4.20
   2  -3   8   29.10    3.90
   2  -3   8   35.20    5.00
  -3   3  -8    8.90    6.10
   3  -3   8   29.50    4.30
   3  -3   8   23.30    4.10
  -4  -2   8    5.40    4.30
   3   2  -8   36.70    5.60
  -3  -2   8   35.30    6.00
  -3  -2   8   41.40    3.40
   2   2  -8   56.19    8.50
  -2  -2   8   57.79    6.20
  -2  -2   8   62.89    4.10
   1   2  -8  298.57   15.20
  -1  -2   8  285.97   15.50
  -1  -2   8  277.27   16.90
  -1  -2   8  275.77   14.00
   0  -2   8  415.36   21.50
   0  -2   8  408.76   21.30
   0  -2   8  356.86   18.90
  -1   2  -8  300.77   15.50
   1  -2   8  268.07   14.10
   1  -2   8  261.87   15.80
   1  -2   8  278.97   15.70
  -2   2  -8   70.29    4.90
   2  -2   8   63.39    5.60
   2  -2   8   65.69    5.30
   2  -2   8   65.79    5.80
   3  -2   8   41.80    4.90
   3  -2   8   46.90    5.10
  -4   2  -8    0.30    6.30
   4  -2   8    2.70    2.70
  -4  -1   8    5.10    4.20
  -3  -1   8   13.50    4.30
  -3  -1   8   11.80    2.10
   2   1  -8   53.69    7.40
  -2  -1   8   66.79    4.20
  -2  -1   8   54.89    6.80
   1   1  -8   59.49    3.80
  -1  -1   8   56.89    4.00
  -1  -1   8   64.39    4.00
  -1  -1   8   60.79    5.80
   0  -1   8  994.90   50.79
   0  -1   8  971.70   45.00
   0  -1   8  983.20   49.50
  -1   1  -8   61.69    4.70
   1  -1   8   62.99    4.70
   1  -1   8   47.70    4.40
   1  -1   8   53.79    4.10
  -2   1  -8   59.59    3.80
   2  -1   8   61.59    4.30
   2  -1   8   55.99    4.50
   2  -1   8   56.09    5.10
  -3   1  -8    1.20    4.60
   3  -1   8   11.60    3.00
   3  -1   8   12.40    2.80
  -4   1  -8    1.20    6.30
   4  -1   8    3.50    2.70
  -4   0   8    1.00    3.90
  -3   0   8    0.30    1.70
  -3   0   8   -0.40    2.90
   2   0  -8  427.76   31.00
  -2   0   8  480.95   23.70
  -2   0   8  450.75   26.40
  -2   0   8  489.15   22.60
   1   0  -8  693.53   38.70
  -1   0   8  763.42   39.40
  -1   0   8  805.02   34.90
  -1   0   8  743.63   38.60
   0   0   8  384.46   17.60
   0   0   8  351.96   19.70
   0   0   8  366.46   20.00
   1   0   8  772.92   40.40
   1   0   8  721.93   36.90
   1   0   8  738.43   34.20
   1   0   8  735.93   38.90
   2   0   8  446.36   22.00
   2   0   8  468.55   25.20
  -3   0  -8    0.70    4.60
   3   0   8   -1.00    1.70
   3   0   8    2.00    1.90
  -4   0  -8   -1.70    6.00
   4   0   8    1.80    2.40
  -4   1   8    2.00    4.10
  -3   1   8   14.50    4.60
  -3   1   8   14.20    3.20
   2  -1  -8   48.60    5.70
  -2   1   8   64.09    3.80
  -2   1   8   57.99    5.00
  -2   1   8   69.49    7.10
   1  -1  -8   57.89    4.80
   1  -1  -8   47.80    4.60
  -1   1   8   58.39    4.60
  -1   1   8   64.19    4.00
  -1   1   8   59.89    6.50
   0  -1  -8  993.40   68.49
   0   1   8 1047.50   54.99
   0   1   8 1129.79   49.00
   0   1   8 1078.59   54.09
   0   1   8 1113.09   57.69
   1   1   8   66.39    6.30
   1   1   8   58.69    3.90
   1   1   8   59.29    4.60
   1   1   8   57.99    4.40
   2   1   8   61.59    6.80
   2   1   8   57.89    4.20
   2   1   8   54.99    4.80
   3   1   8   11.40    2.40
   3   1   8   12.60    2.80
  -4  -1  -8    1.80    6.70
   4   1   8    0.90    2.10
  -4   2   8   -0.90    3.80
  -3   2   8   48.80    5.90
  -3   2   8   39.60    6.90
   2  -2  -8   61.09    7.20
  -2   2   8   65.49    6.00
  -2   2   8   62.39    7.30
  -2   2   8   66.69    4.70
   1  -2  -8  188.68   19.40
   1  -2  -8  249.88   15.50
   1  -2  -8  255.67   17.30
  -1   2   8  299.37   14.80
  -1   2   8  278.67   14.40
   0  -2  -8  433.16   28.70
   0  -2  -8  384.26   27.30
   0   2   8  431.96   21.20
   0   2   8  472.15   23.40
   0   2   8  426.46   28.90
   1   2   8  308.67   16.80
   1   2   8  297.67   14.50
   1   2   8  296.27   21.30
   1   2   8  295.07   17.20
   1   2   8  303.47   16.40
   2   2   8   57.69    4.10
   2   2   8   70.39    7.40
   2   2   8   66.29    5.20
   3   2   8   41.60    4.60
   3   2   8   44.00    6.60
   4   2   8    2.50    2.30
  -3   3   8   28.70    5.20
  -3   3   8   31.40    6.60
   2  -3  -8   50.39   11.60
  -2   3   8   37.10    5.40
  -2   3   8   38.80    4.30
   1  -3  -8  229.58   18.20
   1  -3  -8  288.27   22.20
  -1   3   8  308.17   16.00
  -1   3   8  296.17   15.60
   0  -3  -8  259.57   19.30
   0   3   8  259.97   14.90
   0   3   8  260.87   18.20
   0   3   8  257.97   14.00
  -1  -3  -8  291.87   19.30
   1   3   8  297.67   21.20
   1   3   8  290.17   16.60
   1   3   8  296.07   17.30
   1   3   8  304.07   14.60
   2   3   8   31.40    2.70
   2   3   8   30.40    5.40
   2   3   8   35.10    3.70
   3   3   8   29.10    4.00
   3   3   8   32.70    6.30
  -3   4   8   14.50    5.40
  -3   4   8   18.00    5.10
   2  -4  -8   44.80   11.70
  -2   4   8   48.20    6.60
  -2   4   8   57.39    6.10
   1  -4  -8  215.48   19.20
   1  -4  -8  167.48   14.50
  -1   4   8  212.18   14.10
  -1   4   8  228.48   13.40
  -1   4   8  219.88   13.20
   0  -4  -8  272.47   20.50
   0   4   8  296.77   16.10
   0   4   8  295.37   20.30
   0   4   8  283.57   16.90
  -1  -4  -8  216.28   16.10
   1   4   8  231.68   13.50
   1   4   8  228.38   11.90
   1   4   8  216.48   16.80
  -2  -4  -8   62.49    7.50
   2   4   8   51.19    3.70
   2   4   8   54.99    5.00
   2   4   8   64.79    7.40
   3   4   8   17.00    3.20
   3   4   8   17.30    5.20
   3  -5  -8   13.60   11.30
  -3   5   8   12.80    5.10
   2  -5  -8  121.99   18.30
  -2   5   8  138.99   10.80
  -2   5   8  128.49   11.10
   1  -5  -8  119.39   15.80
  -1   5   8  134.39   10.20
  -1   5   8  134.39    9.80
  -1   5   8  113.29    9.90
   0  -5  -8    3.60    4.70
   0   5   8   -1.80    2.20
   0   5   8   -1.30    2.10
   0   5   8    6.60    2.60
  -1  -5  -8  115.49   11.30
   1   5   8  129.19    8.90
   1   5   8  126.69    8.10
   1   5   8  120.89   11.00
  -2  -5  -8  138.69   11.60
   2   5   8  137.59    9.20
   2   5   8  121.19   12.20
   2   5   8  137.89    7.20
   3   5   8   12.90    2.90
   3   5   8   16.90    5.40
   3  -6  -8   23.40   12.90
  -3   6   8   10.50    5.30
   2  -6  -8    8.10    8.00
  -2   6   8    5.10    3.90
  -2   6   8    7.70    4.10
   1  -6  -8   57.69   11.30
  -1   6   8   57.19    5.80
  -1   6   8   58.79    7.50
  -1   6   8   49.40    7.30
   0  -6  -8   23.90    7.00
   0   6   8   21.80    4.60
   0   6   8   26.00    4.90
   0   6   8   28.80    5.00
  -1  -6  -8   56.19    9.30
   1   6   8   46.10    6.90
   1   6   8   54.19    5.60
   1   6   8   55.89    5.80
  -2  -6  -8    3.20    4.60
   2   6   8    2.10    2.00
   2   6   8    1.90    3.40
   2   6   8    2.60    1.50
   3   6   8   19.80    6.00
   3   6   8   19.30    3.70
   3  -7  -8    0.90   10.50
  -3   7   8    0.20    4.40
   2  -7  -8   19.30    9.60
  -2   7   8   17.60    5.70
  -2   7   8   26.30    6.10
   1  -7  -8   -0.60    5.90
  -1   7   8    6.70    4.30
  -1   7   8    7.10    3.20
  -1   7   8    6.90    4.10
   0  -7  -8   47.20    9.60
   0   7   8   52.19    6.80
   0   7   8   47.50    6.90
   0   7   8   50.59    7.10
  -1  -7  -8    5.90    5.60
   1   7   8    2.30    2.90
   1   7   8    5.90    3.20
   1   7   8   11.10    4.40
  -2  -7  -8   31.80    7.70
   2   7   8   22.90    4.10
   2   7   8   25.70    6.10
   3   7   8   -0.70    2.10
   3   7   8   -0.40    4.10
   2  -8  -8   18.90   10.20
  -2   8   8   14.60    5.80
  -2   8   8   16.20    5.90
   1  -8  -8   26.00    9.70
  -1   8   8   34.90    7.00
  -1   8   8   35.40    7.50
  -1   8   8   33.60    5.70
   0  -8  -8   27.30    8.70
   0   8   8   30.70    6.50
   0   8   8   31.20    6.70
   0   8   8   31.00    6.10
  -1  -8  -8   34.30    8.80
   1   8   8   37.00    5.90
   1   8   8   37.80    7.40
   1   8   8   39.90    6.20
  -2  -8  -8   18.70    7.90
   2   8   8   19.20    4.20
   2   8   8   19.60    6.20
   2  -9  -8   30.70   12.00
  -2   9   8   32.80    8.30
  -2   9   8   42.90    8.80
   1  -9  -8   36.60   10.90
  -1   9   8   45.40    7.00
  -1   9   8   36.30    8.00
  -1   9   8   34.50    7.80
   0  -9  -8   44.70   11.00
   0   9   8   27.10    7.20
   0   9   8   29.10    6.70
   0   9   8   43.00    7.70
  -1  -9  -8   25.40    8.50
   1   9   8   37.40    8.00
   1   9   8   33.30    6.10
   1   9   8   43.00    7.00
   2   9   8   43.90    6.30
   2   9   8   41.70    8.70
   1 -10  -8   67.89   15.10
  -1  10   8   75.89   11.90
  -1  10   8  116.19   12.90
   0 -10  -8   22.40    9.50
   0  10   8   16.90    6.60
   0  10   8   31.30    7.60
   0  10   8   20.10    6.80
  -1 -10  -8   66.79   13.60
   1  10   8   89.69   10.50
   1  10   8   91.99   10.70
   1  10   8  104.19   12.70
   0 -11  -8    9.40    8.90
   0  11   8    1.90    5.80
   0  11   8    2.50    5.90
   0  11   8   15.10    6.60
   0 -11   9    9.30    4.20
   1  10  -9   10.60    8.00
   1  10  -9   16.90   11.50
  -1 -10   9   17.40    6.70
  -1 -10   9   25.10    5.00
   0  10  -9    3.10    6.30
   0  10  -9   -3.00    7.90
   0 -10   9    0.30    2.90
   0 -10   9    1.10    5.40
  -1  10  -9   13.70   12.20
  -1  10  -9   11.50    7.10
   1 -10   9   16.90    4.70
   1 -10   9   29.00    9.20
   2   9  -9   45.90   13.80
  -2  -9   9   39.70    8.90
   1   9  -9   56.39   11.60
   1   9  -9   50.59   14.50
  -1  -9   9   52.89    9.50
  -1  -9   9   46.30    6.10
   0   9  -9   -0.10    7.90
   0   9  -9    1.90    6.20
   0  -9   9   -1.10    4.30
   0  -9   9    0.80    3.00
  -1   9  -9   14.70   11.00
  -1   9  -9   30.90    9.50
   1  -9   9   34.40    5.70
   1  -9   9   47.70    9.90
  -2   9  -9   31.00    9.40
  -2   9  -9   11.10   10.30
   2  -9   9   45.10    6.80
   2  -9   9   48.40   10.20
   2   8  -9   23.00   10.20
  -2  -8   9   18.90    6.40
  -2  -8   9   25.60    4.20
   1   8  -9   38.30    9.40
   1   8  -9   43.30   13.70
  -1  -8   9   31.80    4.80
  -1  -8   9   41.20    8.30
   0   8  -9  380.06   38.40
   0   8  -9  337.07   28.40
   0  -8   9  403.86   26.00
   0  -8   9  409.56   21.40
  -1   8  -9   16.20    6.90
  -1   8  -9    7.90    8.60
   1  -8   9   35.70    5.30
   1  -8   9   31.70    7.90
  -2   8  -9    9.90    6.10
  -2   8  -9    9.30    8.00
   2  -8   9   26.60    5.20
   2  -8   9   23.60    7.60
   3   7  -9    7.00    6.40
  -3  -7   9    6.70    5.10
   2   7  -9    4.20    7.10
  -2  -7   9    6.50    4.40
  -2  -7   9    6.20    2.70
   1   7  -9  252.57   27.20
   1   7  -9  217.98   19.20
  -1  -7   9  206.08   12.60
  -1  -7   9  202.98   16.20
   0   7  -9   -1.70    8.10
   0   7  -9    2.20    4.80
   0  -7   9    1.90    2.40
   0  -7   9    6.20    4.30
  -1   7  -9  109.69   13.20
  -2   7  -9    3.50    6.40
  -2   7  -9    2.80    4.50
   2  -7   9    5.60    3.10
   2  -7   9   13.50    5.70
  -3   7  -9   -0.20    6.70
  -3   7  -9    4.70    5.70
   3  -7   9    6.00    3.80
   3   6  -9   11.70    6.30
  -3  -6   9    7.40    5.00
   2   6  -9    7.70    7.20
  -2  -6   9   20.10    5.30
  -2  -6   9   13.40    2.80
   1   6  -9   74.99   15.40
   1   6  -9   57.79   10.10
  -1  -6   9   68.89    5.60
  -1  -6   9   71.99    9.20
   0  -6   9  485.75   27.80
   0  -6   9  440.46   23.40
  -1   6  -9   35.00    7.60
  -1   6  -9    9.90    7.70
   1  -6   9   59.99    7.90
  -2   6  -9   -1.20    4.70
  -2   6  -9    8.30    5.00
   2  -6   9   16.60    5.70
   2  -6   9   15.70    3.80
  -3   6  -9   12.90    6.50
  -3   6  -9    0.70    6.70
   3  -6   9    8.40    3.60
   3   5  -9    9.90    5.60
  -3  -5   9    2.00    3.60
   2   5  -9   56.99   11.70
  -2  -5   9   60.29    4.90
  -2  -5   9   63.29    8.40
   1   5  -9  107.99   18.40
   1   5  -9   94.69   12.10
  -1  -5   9  114.89   10.00
  -1  -5   9  124.89    7.50
   0   5  -9    9.60    7.10
   0   5  -9   12.60    4.70
   0  -5   9   29.40    5.20
  -1   5  -9   40.10    7.40
  -1   5  -9   18.40    7.90
  -2   5  -9   26.10    7.30
   2  -5   9   61.19    8.00
  -3   5  -9   -0.90    5.50
  -3   5  -9    2.70    4.50
   3  -5   9    6.30    3.20
   3   4  -9   48.50    8.50
  -3  -4   9   50.59    8.00
   2   4  -9   70.39   11.60
   2   4  -9   67.69    6.20
  -2  -4   9   68.69    4.90
  -2  -4   9   66.49    7.50
   1   4  -9  155.88   20.20
  -1  -4   9  200.28   13.10
  -1  -4   9  181.28   10.10
   0   4  -9    8.90    6.80
   0  -4   9   20.90    4.30
   0  -4   9   25.70    3.30
   0  -4   9   24.90    3.20
   1  -4   9  182.08   10.90
   1  -4   9  189.88   12.00
   1  -4   9  191.78   13.00
   2  -4   9   66.89    6.00
   2  -4   9   72.39    6.60
   2  -4   9   62.09    7.20
   3  -4   9   40.60    5.50
   3   3  -9    6.80    4.20
  -3  -3   9   10.90    4.40
   2   3  -9    3.80    1.70
   2   3  -9    7.00    5.20
  -2  -3   9    7.60    3.50
  -2  -3   9    5.30    1.70
   1   3  -9   61.69    4.10
   1   3  -9   31.30    9.60
  -1  -3   9   53.89    4.10
  -1  -3   9   47.00    6.10
   0  -3   9  180.38   11.80
   0  -3   9  177.98    9.90
   0  -3   9  178.58   10.80
   1  -3   9   52.59    4.80
   1  -3   9   47.30    4.30
   1  -3   9   50.19    5.50
  -2   3  -9    7.00    2.40
  -2   3  -9   -1.20    3.70
   2  -3   9    6.80    2.40
   2  -3   9    6.30    2.50
   2  -3   9    5.80    3.30
  -3   3  -9    0.00    4.90
   3  -3   9    8.00    3.10
   3  -3   9    9.30    3.00
  -3  -2   9   68.89    4.70
  -3  -2   9   53.99    7.70
   2   2  -9  155.48   15.20
  -2  -2   9  171.58   12.00
  -2  -2   9  163.38    8.80
   1   2  -9   32.20    2.70
  -1  -2   9   29.60    2.90
  -1  -2   9   24.30    4.20
  -1  -2   9   35.70    3.10
   0   2  -9    3.70    4.70
   0  -2   9   10.30    2.70
   0  -2   9    8.50    1.90
   0  -2   9    8.90    1.90
  -1   2  -9   40.80    4.40
   1  -2   9   28.70    3.70
   1  -2   9   34.50    3.40
   1  -2   9   28.10    4.00
  -2   2  -9  190.38   10.00
   2  -2   9  164.68   10.60
   2  -2   9  157.58    9.90
   2  -2   9  163.78   11.10
   3  -2   9   66.99    5.90
   3  -2   9   69.09    6.70
  -3  -1   9   34.10    6.10
  -3  -1   9   35.90    3.40
   2   1  -9  129.49   12.70
  -2  -1   9  137.29   10.80
  -2  -1   9  153.58    8.00
   1   1  -9  210.28   11.40
  -1  -1   9  214.98   10.70
  -1  -1   9  198.28   11.50
  -1  -1   9  206.38   13.30
   0  -1   9  203.48   10.80
   0  -1   9  215.58   12.70
   0  -1   9  216.98   12.20
  -1   1  -9  214.08   12.30
   1  -1   9  207.88   12.10
   1  -1   9  211.68   11.10
   1  -1   9  208.68   12.50
   2  -1   9  129.69    7.90
   2  -1   9  137.39    7.80
   2  -1   9  121.99    8.80
   3  -1   9   31.30    4.50
   3  -1   9   33.80    4.20
  -4   0   9    1.30    4.00
  -3   0   9   17.90    2.80
  -3   0   9   11.60    4.20
   2   0  -9   28.50    4.90
  -2   0   9   31.60    3.20
  -2   0   9   32.70    2.40
  -2   0   9   28.70    5.20
   1   0  -9  370.16   22.00
  -1   0   9  438.86   20.10
  -1   0   9  423.86   21.90
  -1   0   9  432.46   23.70
   0   0  -9    0.50    2.80
   0   0   9    0.90    1.10
   0   0   9    0.90    1.10
   0   0   9    1.70    1.90
   1   0   9  430.46   25.50
   1   0   9  411.96   21.30
   1   0   9  406.16   19.80
   1   0   9  401.06   22.40
   2   0   9   33.10    3.90
   2   0   9   29.30    3.20
  -3   0  -9    1.40    5.00
   3   0   9   15.30    3.10
   3   0   9   11.70    2.70
  -4   0  -9    1.70    6.60
   4   0   9    3.80    2.70
  -3   1   9   34.20    6.50
  -3   1   9   41.20    4.80
   2  -1  -9  113.79    9.30
   2  -1  -9  119.39    9.70
  -2   1   9  150.38    7.60
  -2   1   9  131.59   10.90
  -2   1   9  147.79    8.70
   1  -1  -9  180.58   11.90
   1  -1  -9  195.78   13.90
  -1   1   9  216.88   13.80
  -1   1   9  216.48   11.40
  -1   1   9  216.48   11.20
   0   1   9  246.98   12.00
   0   1   9  225.18   14.10
   0   1   9  228.58   13.10
   1   1   9  207.78   10.90
   1   1   9  213.58   12.00
   1   1   9  236.88   14.50
   1   1   9  211.48   12.50
   2   1   9  141.99    9.30
   2   1   9  139.39    7.90
   3   1   9   29.80    3.60
   3   1   9   33.90    4.50
  -3   2   9   71.89    6.80
  -3   2   9   69.99    9.50
   2  -2  -9  150.08   12.20
  -2   2   9  178.48   10.00
  -2   2   9  171.68   13.40
  -2   2   9  183.38   11.00
   1  -2  -9   25.90    3.10
  -1   2   9   32.80    4.00
  -1   2   9   36.00    5.50
  -1   2   9   30.10    3.00
   0  -2  -9    1.10    3.00
   0   2   9    8.70    2.00
   0   2   9   10.50    2.00
   0   2   9    8.50    3.00
   1   2   9   30.50    3.80
   1   2   9   37.80    3.50
   1   2   9   32.80    4.80
   1   2   9   29.00    4.70
   1   2   9   31.60    2.90
   2   2   9  169.08   10.70
   2   2   9  180.48   14.30
   2   2   9  164.88    9.10
   3   2   9   76.69    8.80
   3   2   9   69.19    6.20
  -3   3   9   11.10    3.90
  -3   3   9    6.10    4.50
  -2   3   9    5.20    3.00
  -2   3   9    5.40    2.10
   1  -3  -9   37.40    9.80
   1  -3  -9   44.00    4.50
  -1   3   9   58.09    4.60
  -1   3   9   40.70    5.10
   0  -3  -9  188.08   17.10
   0   3   9  206.68   12.00
   0   3   9  199.68   14.70
   0   3   9  201.58   11.40
  -1  -3  -9   65.99    9.40
   1   3   9   60.89    4.90
   1   3   9   57.69    6.40
   1   3   9   60.99    4.30
   1   3   9   58.99    6.50
   2   3   9    5.30    3.30
   2   3   9    3.60    1.80
   2   3   9    6.40    1.50
   3   3   9    6.90    2.60
   3   3   9    9.10    4.50
  -3   4   9   49.90    7.40
  -3   4   9   60.99    9.50
   2  -4  -9   70.49   15.10
  -2   4   9   71.19    6.60
  -2   4   9   84.29    8.20
   1  -4  -9  164.08   13.40
   1  -4  -9  179.78   18.30
  -1   4   9  208.58   12.30
  -1   4   9  199.08   12.40
   0  -4  -9   25.30    7.40
   0   4   9   28.90    3.80
   0   4   9   23.80    3.90
   0   4   9   30.00    4.40
  -1  -4  -9  208.78   16.60
   1   4   9  216.18   16.90
   1   4   9  233.18   13.40
   1   4   9  218.98   11.80
  -2  -4  -9   89.89    9.80
   2   4   9   81.59    6.40
   2   4   9   80.39    8.90
   2   4   9   77.09    4.90
   3   4   9   59.89    8.20
   3   4   9   46.20    5.10
   3  -5  -9    1.90    8.40
  -3   5   9    2.80    3.90
   2  -5  -9   63.99   14.90
  -2   5   9   61.29    8.10
  -2   5   9   73.39    7.50
   1  -5  -9  110.69   15.80
   1  -5  -9   95.09   10.40
  -1   5   9  128.79   10.00
  -1   5   9  126.89    9.30
  -1   5   9  136.09    9.70
   0  -5  -9   35.80    8.50
   0   5   9   34.40    4.70
   0   5   9   39.20    5.20
   0   5   9   29.40    4.90
  -1  -5  -9  131.69   12.90
   1   5   9  119.49    8.30
   1   5   9  139.19    9.30
   1   5   9  136.09   11.80
  -2  -5  -9   75.69    9.80
   2   5   9   70.09    4.50
   2   5   9   62.49    8.20
   2   5   9   63.09    5.80
   3   5   9    6.80    4.90
   3   5   9    9.30    2.70
   3  -6  -9   16.60   11.30
  -3   6   9    7.20    4.90
   2  -6  -9   17.00    9.60
  -2   6   9   12.40    4.80
  -2   6   9   20.20    5.00
   1  -6  -9   80.09   14.10
  -1   6   9   92.99    7.70
  -1   6   9   82.09    8.60
  -1   6   9   79.89    8.40
   0  -6  -9  499.05   34.20
   0   6   9  523.45   30.40
   0   6   9  547.05   28.30
   0   6   9  534.15   36.20
  -1  -6  -9   79.69   11.30
   1   6   9   89.79    9.40
   1   6   9   83.79    7.00
   1   6   9   84.39    7.30
  -2  -6  -9   12.60    6.10
   2   6   9   15.30    3.30
   2   6   9    9.30    4.70
   2   6   9   18.40    2.50
   3   6   9   15.80    5.70
   3   6   9   13.80    3.30
   3  -7  -9    4.70   12.60
  -3   7   9    4.40    5.50
   2  -7  -9   17.50    9.70
  -2   7   9    5.10    4.40
  -2   7   9    9.10    4.90
   1  -7  -9  212.88   21.70
  -1   7   9  222.08   16.90
  -1   7   9  248.08   17.70
  -1   7   9  262.77   17.50
   0  -7  -9    4.60    5.90
   0   7   9   -1.30    2.80
   0   7   9   -0.50    3.30
   0   7   9   -1.50    2.80
  -1  -7  -9  237.08   19.90
   1   7   9  254.57   19.90
   1   7   9  221.48   14.40
   1   7   9  261.37   16.40
   2   7   9   10.70    3.10
   2   7   9    7.40    4.60
   3   7   9    2.50    4.70
   3   7   9    6.00    3.00
   2  -8  -9   30.40   11.90
  -2   8   9   27.70    6.70
  -2   8   9   29.20    7.30
   1  -8  -9   41.10   11.80
  -1   8   9   38.90    5.90
  -1   8   9   38.00    7.60
  -1   8   9   38.70    7.40
   0  -8  -9  463.95   34.20
   0   8   9  491.15   35.10
   0   8   9  520.55   28.60
  -1  -8  -9   41.50    9.50
   1   8   9   34.60    5.90
   1   8   9   32.10    7.10
   1   8   9   41.50    6.30
   2   8   9   25.00    4.50
   2   8   9   21.90    6.40
   2  -9  -9   48.70   15.90
  -2   9   9   61.79   10.20
  -2   9   9   40.00    9.00
   1  -9  -9   30.20   11.00
  -1   9   9   51.29    9.20
  -1   9   9   60.59    9.80
   0  -9  -9   -1.40    5.30
   0   9   9   -1.80    3.40
   0   9   9    0.70    4.10
   0   9   9    2.30    4.40
  -1  -9  -9   64.29   12.40
   1   9   9   60.19    9.90
   1   9   9   54.79    7.80
   1   9   9   68.29    8.70
   2   9   9   49.60    6.80
   2   9   9   58.69    9.90
   1 -10  -9   28.30   11.10
  -1  10   9   20.40    7.90
  -1  10   9   30.30    8.20
   0 -10  -9    9.90    8.30
   0  10   9    0.10    4.40
   0  10   9   -0.20    4.30
   0  10   9   -0.50    5.00
  -1 -10  -9   36.40   10.80
   1  10   9   19.70    5.70
   1  10   9   26.60    6.60
   1  10   9   27.00    7.60
   0 -11  -9    7.60    8.50
   1  10 -10   35.30   14.70
   1  10 -10   32.30   10.50
  -1 -10  10   29.20    8.90
  -1 -10  10   41.30    6.30
   0  10 -10   18.80    8.40
   0  10 -10   21.90   12.20
   0 -10  10   23.50    8.20
   0 -10  10   24.50    5.20
  -1  10 -10    7.00   10.80
  -1  10 -10   25.00    9.20
   1 -10  10   34.80    6.40
   1 -10  10   45.40   10.70
   2   9 -10  106.99   19.60
  -2  -9  10   96.59   13.80
   1   9 -10   23.60   12.10
   1   9 -10   30.50    9.60
  -1  -9  10   27.30    5.00
  -1  -9  10   25.60    7.80
   0   9 -10   10.40    6.70
   0   9 -10   15.50   10.50
   0  -9  10   14.60    4.20
   0  -9  10   12.60    6.10
  -1   9 -10    9.50   10.20
  -1   9 -10   15.40    7.20
   1  -9  10   23.70    7.90
   1  -9  10   21.90    4.90
  -2   9 -10   46.10   11.60
   2  -9  10   96.59   14.20
   2  -9  10   79.89    8.50
   2   8 -10   19.00    9.90
  -2  -8  10   20.10    6.90
   1   8 -10   63.59   16.70
   1   8 -10   65.09   11.90
  -1  -8  10   67.19    6.50
  -1  -8  10   63.29   10.10
   0   8 -10  195.98   27.80
   0   8 -10  171.08   19.30
   0  -8  10  232.28   14.00
   0  -8  10  270.27   18.60
  -1   8 -10   28.50   12.10
  -1   8 -10   52.99   11.20
   1  -8  10   68.59   10.50
   1  -8  10   57.99    7.00
  -2   8 -10    6.60    7.60
  -2   8 -10    9.00    6.40
   2  -8  10   17.20    7.00
   2  -8  10   22.30    5.00
   2   7 -10    2.30    7.40
  -2  -7  10    3.20    2.50
  -2  -7  10   -4.60    3.70
   1   7 -10  432.36   41.80
   1   7 -10  456.35   32.10
  -1  -7  10  488.45   24.20
  -1  -7  10  469.65   29.30
   0   7 -10   37.20    9.10
   0   7 -10   41.90   14.50
   0  -7  10   68.99    6.20
   0  -7  10   74.59    9.90
  -1   7 -10  272.87   22.40
  -2   7 -10    1.10    4.50
  -2   7 -10   -2.70    5.40
   2  -7  10   -1.20    4.80
   2  -7  10    2.50    2.90
   3   6 -10    6.70    5.90
  -3  -6  10    3.50    4.20
   2   6 -10   87.09   15.50
  -2  -6  10   83.19    6.20
  -2  -6  10   73.69    9.80
   1   6 -10   74.29   11.20
   1   6 -10   64.09   15.10
  -1  -6  10   80.49   10.00
  -1  -6  10   72.09    6.10
   0  -6  10  702.53   35.30
   0  -6  10  745.63   40.60
  -1   6 -10   10.90    7.20
  -1   6 -10   30.10    7.40
  -2   6 -10   31.90    8.00
  -3   6 -10    1.10    4.60
  -3   6 -10    3.20    7.30
   3  -6  10    4.00    3.50
   3   5 -10   11.20    6.00
  -3  -5  10   11.00    5.00
   2   5 -10  145.39   17.00
  -2  -5  10  119.29   11.20
  -2  -5  10  127.79    8.10
   1   5 -10  288.27   30.90
   1   5 -10  262.77   21.80
  -1  -5  10  356.76   20.90
  -1  -5  10  342.47   16.80
   0   5 -10   10.90    4.70
   0   5 -10    4.10    6.00
   0  -5  10   35.90    5.80
   1  -5  10  347.57   18.40
   1  -5  10  334.97   21.20
   2  -5  10  123.29    9.10
   2  -5  10  134.49   11.70
  -3   5 -10    2.90    4.50
  -3   5 -10   -3.90    5.10
   3  -5  10    9.60    3.60
   3   4 -10    2.50    4.30
  -3  -4  10   -0.20    3.40
   2   4 -10  133.89   16.00
  -2  -4  10  130.49    7.90
  -2  -4  10  126.79   10.90
   1   4 -10   69.19   15.00
  -1  -4  10  110.09    6.80
  -1  -4  10  104.99    9.20
   0  -4  10   44.00    5.90
   0  -4  10   35.70    4.00
   0  -4  10   37.40    3.90
   1  -4  10  112.39    9.20
   1  -4  10   92.79    7.00
   1  -4  10  102.59    7.70
   2  -4  10  129.59    9.10
   2  -4  10  139.19   11.10
   2  -4  10  136.39   10.00
  -3   4 -10    2.20    5.60
   3  -4  10    5.00    2.90
   3  -4  10   -0.10    2.40
  -3  -3  10   67.29    7.90
   2   3 -10   75.69   11.40
  -2  -3  10   68.89    4.90
  -2  -3  10   63.19    7.20
  -1  -3  10   79.89    5.70
  -1  -3  10   78.49    5.50
  -1  -3  10   79.09    7.40
   0  -3  10  137.79    8.30
   0  -3  10  138.49    9.00
   0  -3  10  149.79   10.50
   1  -3  10   83.29    7.20
   1  -3  10   76.79    5.80
   1  -3  10   81.29    6.40
   2  -3  10   78.19    7.20
   2  -3  10   69.89    6.40
   2  -3  10   66.39    5.90
   3  -3  10   69.49    7.00
   3  -3  10   77.09    6.60
  -3  -2  10   28.20    5.90
  -3  -2  10   34.40    3.50
   2   2 -10   55.99    9.40
   2   2 -10   42.70    4.70
  -2  -2  10   48.10    6.70
  -2  -2  10   53.09    4.00
   1   2 -10   30.50    2.80
  -1  -2  10   31.80    3.00
  -1  -2  10   33.50    3.10
  -1  -2  10   29.90    4.70
   0  -2  10  164.68    9.30
   0  -2  10  172.48   11.20
   0  -2  10  169.48   10.30
   1  -2  10   26.90    3.20
   1  -2  10   27.10    3.50
   1  -2  10   22.90    3.80
   2  -2  10   51.89    5.20
   2  -2  10   47.50    4.70
   2  -2  10   55.99    5.40
   3  -2  10   30.10    4.30
   3  -2  10   28.30    4.70
  -3  -1  10   11.80    2.30
  -3  -1  10   11.20    4.40
   2   1 -10    8.50    4.50
  -2  -1  10    7.50    3.30
  -2  -1  10    8.40    1.90
  -2  -1  10   11.30    1.50
   1   1 -10   32.20    2.90
  -1  -1  10   35.30    5.00
  -1  -1  10   30.80    2.90
  -1  -1  10   32.70    3.00
   0  -1  10  168.58   10.60
   0  -1  10  161.88    8.80
   0  -1  10  153.98    9.70
  -1   1 -10   37.60    4.40
   1  -1  10   37.30    3.80
   1  -1  10   31.80    3.30
   1  -1  10   35.70    4.00
  -2   1 -10    2.40    4.60
   2  -1  10    6.90    2.20
   2  -1  10    7.40    2.10
   2  -1  10    6.40    2.30
  -3   1 -10   -0.80    4.80
   3  -1  10   16.10    3.50
   3  -1  10   10.90    2.90
  -3   0  10   15.20    2.80
  -3   0  10    4.30    3.90
   2   0 -10    3.10    3.30
  -2   0  10    4.70    1.80
  -2   0  10    2.70    1.00
  -2   0  10   -0.70    4.10
  -2   0  10    1.00    2.70
   1   0 -10   70.49    5.40
  -1   0  10   86.69    7.70
  -1   0  10   84.09    5.20
  -1   0  10   78.69    5.20
   0   0  10   76.09    4.90
   0   0  10   76.29    6.50
   0   0  10   70.89    5.30
   1   0  10  101.59   11.50
   1   0  10   80.39    5.80
   1   0  10   72.79    5.00
   1   0  10   71.39    5.50
  -2   0 -10    3.10    4.30
   2   0  10    2.80    1.80
   2   0  10    1.80    1.60
  -3   0 -10    2.40    5.60
   3   0  10   14.20    3.20
   3   0  10    9.50    2.80
  -3   1  10    9.20    4.60
  -3   1  10    9.60    2.90
   2  -1 -10    7.40    2.80
  -2   1  10   13.00    4.50
  -2   1  10    8.60    2.40
  -2   1  10   11.40    1.60
   1  -1 -10   35.10    3.70
  -1   1  10   35.10    3.00
  -1   1  10   28.70    3.50
  -1   1  10   34.40    5.50
   0   1  10  165.88   11.20
   0   1  10  169.38    9.00
   0   1  10  160.58    9.80
   1   1  10   33.80    3.60
   1   1  10   33.10    3.00
   1   1  10   32.10    3.50
   1   1  10   37.60    6.40
  -2  -1 -10    1.40    4.50
   2   1  10    9.10    2.40
   2   1  10    7.50    2.00
  -3  -1 -10   -5.00    4.20
   3   1  10    7.80    2.60
   3   1  10   11.40    2.60
  -3   2  10   32.60    5.00
  -3   2  10   30.30    6.70
  -2   2  10   57.59    8.30
  -2   2  10   54.39    5.50
  -2   2  10   61.49    4.30
  -1   2  10   29.80    3.00
  -1   2  10   26.70    3.70
  -1   2  10   33.50    5.60
   0   2  10  204.08   10.70
   0   2  10  183.78   11.30
   0   2  10  198.58   13.00
   1   2  10   25.80    3.30
   1   2  10   34.20    5.50
   1   2  10   33.30    3.00
   1   2  10   30.00    3.90
   1   2  10   34.80    5.00
   2   2  10   55.09    7.20
   2   2  10   54.59    4.20
   2   2  10   55.99    5.00
   3   2  10   28.40    4.10
  -3   3  10   81.29    7.90
  -3   3  10   72.89   10.20
  -2   3  10   78.79    7.20
  -2   3  10   74.39    5.80
  -2   3  10   74.09    9.50
   1  -3 -10   72.89    6.60
   1  -3 -10   80.49   13.80
  -1   3  10   91.29    6.20
  -1   3  10   82.89    6.70
   0  -3 -10  140.89   15.40
   0   3  10  163.28    9.80
   0   3  10  149.09    9.30
   0   3  10  158.78   12.20
   1   3  10   81.19    6.40
   1   3  10   94.29    8.80
   1   3  10   93.39    5.60
   2   3  10   76.99    8.40
   2   3  10   73.19    5.00
   2   3  10   76.59    6.10
   3   3  10   79.89    9.60
   3   3  10   73.09    6.60
  -3   4  10   -4.60    3.80
  -3   4  10    4.20    3.70
   2  -4 -10  116.79   19.50
  -2   4  10  155.78   10.30
  -2   4  10  146.89   11.10
   1  -4 -10   81.79    8.10
   1  -4 -10   98.89   15.90
  -1   4  10  100.69    8.20
  -1   4  10  118.89    7.80
   0  -4 -10   44.10    9.80
   0   4  10   49.60    5.50
   0   4  10   45.30    5.60
   0   4  10   47.90    4.70
  -1  -4 -10   96.29   12.80
   1   4  10  113.99   10.40
   1   4  10  112.39    7.00
   1   4  10  114.29    8.00
   2   4  10  146.39    8.10
   2   4  10  148.69   10.00
   2   4  10  148.99   13.50
   3   4  10    2.80    4.10
   3   4  10    0.00    1.90
  -3   5  10   10.10    5.00
  -3   5  10    9.20    5.50
   2  -5 -10  131.39   21.10
  -2   5  10  148.19   10.80
  -2   5  10  134.59   11.30
   1  -5 -10  345.97   29.30
  -1   5  10  386.06   21.60
  -1   5  10  378.76   25.30
  -1   5  10  367.36   22.10
   0  -5 -10   36.20    9.70
   0   5  10   48.10    5.80
   0   5  10   34.20    4.70
   0   5  10   46.30    5.60
  -1  -5 -10  390.36   26.90
   1   5  10  391.86   22.50
   1   5  10  386.36   20.10
   1   5  10  403.26   28.40
   2   5  10  146.59   10.10
   2   5  10  152.58    8.10
   2   5  10  130.19   13.00
   3   5  10   12.80    5.60
   3   5  10    8.00    2.80
   3  -6 -10    7.40   11.30
  -3   6  10   -1.40    4.10
   2  -6 -10   72.09   16.80
  -2   6  10   92.89    9.80
  -2   6  10   99.89    9.20
   1  -6 -10   84.49   14.80
  -1   6  10   93.19    8.20
  -1   6  10   99.19    9.40
  -1   6  10   86.49    8.40
   0  -6 -10  790.22   49.60
   0   6  10  789.42   44.50
   0   6  10  827.62   54.09
   0   6  10  833.32   40.90
  -1  -6 -10   87.69   12.40
   1   6  10   86.09    7.10
   1   6  10   89.39    9.50
   1   6  10   88.69    7.60
   2   6  10   93.79   10.90
   2   6  10  107.19    6.40
   2   6  10   99.49    8.10
   3   6  10    3.50    2.70
   3   6  10    2.50    4.20
   2  -7 -10    3.40    9.00
  -2   7  10    0.10    3.50
  -2   7  10    1.10    3.90
   1  -7 -10  551.24   40.80
  -1   7  10  590.04   38.80
  -1   7  10  610.44   34.50
  -1   7  10  539.05   31.90
   0  -7 -10  101.69   15.10
   0   7  10   94.09    8.80
   0   7  10   77.19    9.10
   0   7  10   88.29    9.40
  -1  -7 -10  572.24   37.10
   1   7  10  583.54   40.50
   1   7  10  540.55   32.50
   1   7  10  594.04   29.50
   2   7  10    1.40    4.10
   2   7  10   -0.50    2.20
   2  -8 -10   22.30   11.80
  -2   8  10   15.60    6.20
  -2   8  10   22.80    6.00
   1  -8 -10   70.89   15.40
  -1   8  10   88.39    9.60
  -1   8  10   69.69   10.00
  -1   8  10   83.19    8.40
   0  -8 -10  298.47   25.90
   0   8  10  318.97   24.00
   0   8  10  316.17   20.10
   0   8  10  319.97   21.20
  -1  -8 -10   85.59   13.60
   1   8  10   89.79   10.60
   1   8  10   79.09    8.20
   1   8  10   76.19    8.00
   2   8  10   22.70    6.70
   2   8  10   18.70    4.20
   2  -9 -10  106.89   22.00
  -2   9  10  103.19   13.80
  -2   9  10  115.89   12.30
   1  -9 -10   25.20   10.90
  -1   9  10   32.20    7.30
  -1   9  10   22.10    7.20
   0  -9 -10   19.90    9.10
   0   9  10   16.70    5.30
   0   9  10   19.70    5.90
   0   9  10   21.20    6.30
  -1  -9 -10   27.40    9.50
   1   9  10   29.50    7.30
   1   9  10   30.20    6.30
   1   9  10   28.80    5.90
   2   9  10  117.79   13.60
   2   9  10  107.39   10.00
   1 -10 -10   30.20   12.40
  -1  10  10   38.10    8.30
  -1  10  10   44.90    9.50
   0 -10 -10   25.20   10.80
   0  10  10   24.20    7.60
   0  10  10   38.90    7.90
   0  10  10   23.10    6.50
  -1 -10 -10   45.60   12.40
   1  10  10   47.10    7.70
   1  10  10   44.40    7.80
   1  10  10   40.00    9.10
   0  10 -11   -5.00    5.30
   0  10 -11   -1.70    9.40
   0 -10  11    3.70    3.60
   0 -10  11    2.00    6.50
   1   9 -11   73.39   13.30
   1   9 -11   70.39   17.70
  -1  -9  11   58.79    7.00
  -1  -9  11   51.59   10.20
   0   9 -11   51.89   16.00
   0   9 -11   45.30   11.20
   0  -9  11   46.20    9.40
   0  -9  11   56.59    7.20
  -1   9 -11   43.10   10.90
  -1   9 -11   28.50   13.20
   1  -9  11   54.09   10.50
   1  -9  11   58.09    7.50
   2   8 -11    8.70    9.00
  -2  -8  11   15.30    6.30
   1   8 -11   65.79   12.20
   1   8 -11   77.69   18.00
  -1  -8  11   71.39   11.00
  -1  -8  11   66.59    6.70
   0   8 -11   79.39   20.20
   0   8 -11   91.59   14.30
   0  -8  11  131.29    9.50
   0  -8  11  146.09   13.50
  -1   8 -11   49.99   10.90
   1  -8  11   77.49   11.20
   1  -8  11   73.39    7.30
  -2   8 -11    5.50    8.10
  -2   8 -11    9.80    6.70
   2  -8  11   12.30    4.10
   2  -8  11   14.20    7.00
   2   7 -11   -1.50    7.10
  -2  -7  11    2.80    4.60
  -2  -7  11    7.20    2.90
   1   7 -11   21.40   11.00
   1   7 -11   34.10    8.80
  -1  -7  11   32.10    7.10
  -1  -7  11   36.50    4.80
   0   7 -11    1.50    4.60
   0   7 -11   -9.90    7.00
   0  -7  11    5.50    4.20
   0  -7  11   -2.00    2.10
  -1   7 -11   10.90    6.30
   1  -7  11   35.30    5.30
   1  -7  11   44.80    8.20
  -2   7 -11   -4.30    3.40
  -2   7 -11   -0.90    6.00
   2  -7  11    2.90    2.90
   2  -7  11    0.50    5.00
   3   6 -11    8.30    6.20
  -3  -6  11    2.60    4.60
   2   6 -11   30.60   10.60
  -2  -6  11   44.10    4.60
  -2  -6  11   46.90    8.20
   1   6 -11   50.39    9.40
   1   6 -11   42.60   13.70
  -1  -6  11   59.69    5.40
  -1  -6  11   57.99    8.80
   0  -6  11  194.88   14.90
   0  -6  11  191.18   11.80
  -1   6 -11    6.70    7.40
  -1   6 -11   28.50    7.30
   1  -6  11   61.89    8.30
  -2   6 -11   21.10    7.10
   2  -6  11   37.10    5.40
   2  -6  11   29.60    7.10
  -3   6 -11    0.40    4.60
  -3   6 -11   -1.30    6.50
   3  -6  11    3.70    3.70
   3   5 -11    5.60    5.60
  -3  -5  11    8.60    5.00
   2   5 -11  169.38   19.50
  -2  -5  11  158.18   13.70
  -2  -5  11  167.88   10.00
   1   5 -11   29.60   11.40
   1   5 -11   23.20    6.70
  -1  -5  11   36.90    4.30
  -1  -5  11   40.50    6.60
   0   5 -11   21.30    5.90
   0   5 -11    9.80    7.90
   1  -5  11   34.40    4.70
   1  -5  11   34.80    4.80
   1  -5  11   49.40    7.20
   2  -5  11  131.49   11.00
   2  -5  11  186.68   13.60
   2  -5  11  161.58   10.70
  -3   5 -11    1.10    6.40
  -3   5 -11    1.80    4.50
   3  -5  11    9.70    3.80
  -3  -4  11   76.49   10.00
   2   4 -11  191.28   20.10
  -2  -4  11  180.18   14.00
  -2  -4  11  184.68   10.50
   1   4 -11   46.90   12.70
  -1  -4  11   76.19    7.80
  -1  -4  11   71.69    5.50
   0  -4  11  114.59    7.70
   0  -4  11  124.89    9.90
   0  -4  11  116.19    8.30
   1  -4  11   78.39    6.60
   1  -4  11   75.49    6.10
   1  -4  11   70.89    7.50
   2  -4  11  184.28   12.80
   2  -4  11  193.28   13.70
   2  -4  11  184.08   11.70
   3  -4  11   88.19    7.80
   3  -4  11   79.59    8.10
  -3  -3  11  204.78   15.50
   2   3 -11  157.88   17.70
  -2  -3  11  167.88   12.70
  -2  -3  11  164.88    9.40
   1   3 -11   15.90    8.20
  -1  -3  11   44.10    4.00
  -1  -3  11   46.70    4.00
  -1  -3  11   40.40    5.90
   0  -3  11   37.90    5.40
   0  -3  11   43.40    4.00
   0  -3  11   36.90    3.90
   1  -3  11   40.40    5.50
   1  -3  11   41.40    4.50
   1  -3  11   38.70    4.10
   2  -3  11  168.98   11.60
   2  -3  11  178.68   12.00
   2  -3  11  152.28   10.30
   3  -3  11  198.98   12.70
   3  -3  11  205.18   14.10
  -3  -2  11   75.09    5.30
  -3  -2  11   54.49    8.30
   2   2 -11   28.50    7.80
  -2  -2  11   32.30    5.60
  -2  -2  11   30.70    3.30
  -1  -2  11   94.79    6.50
  -1  -2  11  104.39    8.60
  -1  -2  11  101.59    6.30
   0  -2  11   98.49    6.90
   0  -2  11   96.09    6.40
   0  -2  11  103.79    8.00
   1  -2  11   96.09    7.70
   1  -2  11   92.89    6.50
   1  -2  11  101.99    7.30
   2  -2  11   30.20    3.90
   2  -2  11   29.50    4.40
   2  -2  11   30.30    4.40
   3  -2  11   67.69    6.60
   3  -2  11   57.29    5.90
  -3  -1  11   90.19    9.60
  -3  -1  11   91.89    6.10
   2   1 -11   29.20    7.30
  -2  -1  11   36.20    3.60
  -2  -1  11   40.80    3.10
  -2  -1  11   38.00    6.00
  -1  -1  11   92.99    8.00
  -1  -1  11   90.59    6.00
  -1  -1  11   88.59    5.70
   0  -1  11  115.69    7.10
   0  -1  11  120.99    7.80
   0  -1  11  120.29    8.80
   1  -1  11   85.49    6.50
   1  -1  11   90.99    6.80
   1  -1  11   83.59    5.80
   2  -1  11   43.80    4.90
   2  -1  11   43.30    4.40
   2  -1  11   42.00    4.30
   3  -1  11   87.09    7.70
   3  -1  11   84.29    6.90
  -3   0  11   -0.10    1.80
  -3   0  11    1.40    3.30
   2   0 -11   12.60    4.90
  -2   0  11   20.10    2.30
  -2   0  11   20.90    4.80
  -2   0  11   20.80    3.00
  -1   0  11   47.00    3.80
  -1   0  11   47.30    6.40
  -1   0  11   44.80    3.70
   0   0 -11    2.90    3.60
   0   0  11   -0.90    1.90
   0   0  11    0.10    1.20
   0   0  11    0.20    1.10
   1   0  11   44.20    3.90
   1   0  11   45.70    4.40
   1   0  11   45.90    4.30
   1   0  11   53.39    9.70
   2   0  11   18.00    2.90
   2   0  11   19.30    3.30
  -3   0 -11   -3.10    4.40
   3   0  11   -1.00    2.10
   3   0  11    1.20    2.20
  -3   1  11  107.99    7.60
  -3   1  11   91.09   10.50
   2  -1 -11   37.90    6.00
  -2   1  11   45.50    7.10
  -2   1  11   48.00    4.60
  -2   1  11   42.20    3.30
  -1   1  11   89.49    8.70
  -1   1  11   91.09    6.00
  -1   1  11   90.09    6.20
   0   1  11  138.89    7.70
   0   1  11  119.69    9.60
   0   1  11  136.49    8.50
   1   1  11   99.79   10.40
   1   1  11   90.19    6.60
   1   1  11   80.99    6.30
   1   1  11   87.39    5.60
   2   1  11   39.00    3.70
   2   1  11   35.30    4.20
  -3   2  11   57.89    9.10
  -3   2  11   73.29    6.90
  -2   2  11   28.80    6.00
  -2   2  11   34.30    3.20
  -2   2  11   33.50    4.60
   1  -2 -11   87.49    7.70
  -1   2  11  105.49    6.70
  -1   2  11  110.99    7.40
  -1   2  11  120.79    9.90
   0   2  11   99.99    8.60
   0   2  11  115.29    6.80
   0   2  11   98.99    7.00
   1   2  11  103.19    6.20
   1   2  11   98.39    7.40
   1   2  11   92.89    7.00
   2   2  11   33.00    3.40
   2   2  11   38.50    4.30
  -3   3  11  221.98   14.70
  -3   3  11  237.28   18.20
  -2   3  11  167.18   11.70
  -2   3  11  183.28   10.80
  -2   3  11  176.98   14.50
   1  -3 -11   40.50    4.70
  -1   3  11   49.40    5.20
  -1   3  11   53.09    4.40
  -1   3  11   47.20    7.30
   0  -3 -11   47.90   10.20
   0   3  11   42.90    4.30
   0   3  11   41.90    4.20
   1   3  11   45.80    6.40
   1   3  11   50.49    5.90
   1   3  11   42.00    4.50
   1   3  11   55.59    4.00
   2   3  11  164.88   14.60
   2   3  11  173.88   11.10
   2   3  11  161.88    9.20
   3   3  11  223.78   19.00
   3   3  11  216.18   14.10
  -3   4  11   96.09    9.40
  -3   4  11   92.99   12.50
  -2   4  11  216.88   13.20
  -2   4  11  200.48   14.10
   1  -4 -11   72.49   14.00
  -1   4  11   83.59    6.50
  -1   4  11   75.19    7.20
   0  -4 -11  101.29   15.30
   0   4  11  151.18    9.40
   0   4  11  137.39   11.50
   0   4  11  137.39    9.30
  -1  -4 -11   81.99   12.70
   1   4  11   89.79    6.90
   1   4  11   90.69    9.30
   1   4  11   88.69    6.10
   2   4  11  210.28   13.50
   2   4  11  214.88   17.80
   2   4  11  210.78   11.20
   3   4  11   86.19    7.80
   3   4  11  109.69   11.80
  -3   5  11    7.10    5.60
  -3   5  11    2.80    3.90
   2  -5 -11  143.19   23.30
  -2   5  11  195.08   12.60
  -2   5  11  166.98   13.20
   1  -5 -11   45.40   12.00
  -1   5  11   49.10    6.60
  -1   5  11   45.90    5.60
   0  -5 -11   49.99   11.30
   0   5  11   65.19    6.00
   0   5  11   60.59    7.20
   0   5  11   69.29    6.70
  -1  -5 -11   38.60    9.30
   1   5  11   47.60    6.90
   1   5  11   45.00    4.70
   1   5  11   48.80    5.00
   2   5  11  196.88   12.60
   2   5  11  184.88   16.60
   2   5  11  189.68   10.30
   3   5  11   10.60    3.30
   3   5  11   12.00    5.70
  -3   6  11    6.00    5.30
   2  -6 -11   53.99   15.60
  -2   6  11   44.00    6.40
  -2   6  11   43.60    7.50
   1  -6 -11   75.89   15.30
  -1   6  11   71.99    8.80
  -1   6  11   72.09    7.40
  -1   6  11   73.39    7.20
   0  -6 -11  200.08   20.50
   0   6  11  214.08   14.50
   0   6  11  239.18   15.10
   0   6  11  233.58   17.70
  -1  -6 -11   61.89   11.90
   1   6  11   67.59    8.50
   1   6  11   78.49    7.00
   1   6  11   64.99    6.10
   2   6  11   44.10    7.80
   2   6  11   44.50    5.30
   2   6  11   37.90    3.70
   3   6  11    2.50    2.60
   3   6  11    8.40    5.50
   2  -7 -11    0.10    9.50
  -2   7  11    0.60    3.20
  -2   7  11    1.70    4.40
   1  -7 -11   29.10   11.20
  -1   7  11   42.60    5.90
  -1   7  11   37.30    6.20
  -1   7  11   41.00    7.20
   0  -7 -11    0.20    7.00
   0   7  11   -2.60    3.20
   0   7  11   -0.70    3.30
   0   7  11    1.10    3.00
  -1  -7 -11   43.10   10.60
   1   7  11   37.50    7.10
   1   7  11   44.10    5.90
   1   7  11   42.70    5.70
   2   7  11    3.40    4.30
   2   7  11    4.30    2.90
   2  -8 -11   13.00   12.00
  -2   8  11   18.90    5.60
  -2   8  11   15.10    6.40
   1  -8 -11   84.49   17.50
  -1   8  11   95.99    9.90
  -1   8  11   94.09   11.40
   0  -8 -11  151.18   20.40
   0   8  11  164.08   12.90
   0   8  11  143.49   12.40
   0   8  11  151.48   13.90
  -1  -8 -11  106.59   15.90
   1   8  11   93.59    8.90
   1   8  11   91.79   10.90
   1   8  11   99.39    8.90
   2   8  11   20.60    6.60
   2   8  11   15.40    4.30
   1  -9 -11   67.69   16.10
  -1   9  11   62.29    9.40
  -1   9  11   91.39   12.10
   0  -9 -11   45.70   12.30
   0   9  11   65.19    8.60
   0   9  11   63.39    8.80
   0   9  11   56.19    8.90
  -1  -9 -11   77.99   14.90
   1   9  11   63.49    8.00
   1   9  11   91.79    9.00
   1   9  11   74.89   10.40
   0 -10 -11   -3.90    6.80
   0  10  11    3.50    5.30
   0  10  11    3.40    5.10
   0  10  11    3.60    4.50
   1   9 -12    0.40    5.90
   1   9 -12    4.70   10.60
  -1  -9  12    9.40    3.80
  -1  -9  12    7.80    6.10
   0   9 -12    4.40    6.20
   0   9 -12   -4.00    8.30
   0  -9  12    3.70    3.20
   0  -9  12    0.10    5.10
  -1   9 -12    0.90    9.10
  -1   9 -12   13.00    7.30
   1  -9  12   18.20    4.70
   1  -9  12   23.70    8.00
   2   8 -12    7.20    9.90
  -2  -8  12   14.00    6.70
   1   8 -12   47.20   10.90
   1   8 -12   41.00   14.50
  -1  -8  12   52.29    9.80
  -1  -8  12   50.49    6.10
   0   8 -12   -5.20    7.20
   0   8 -12    6.70    5.60
   0  -8  12    4.60    5.00
   0  -8  12    3.60    3.00
  -1   8 -12   34.50    9.30
   1  -8  12   47.80    9.40
   1  -8  12   47.00    6.60
  -2   8 -12    3.80    5.20
  -2   8 -12   -3.40    7.10
   2  -8  12    4.50    3.40
   2  -8  12    2.20    6.10
   2   7 -12   34.40   12.30
  -2  -7  12   21.50    6.70
  -2  -7  12   27.10    4.40
   1   7 -12    7.40    9.50
   1   7 -12    5.90    5.50
  -1  -7  12    2.60    4.10
  -1  -7  12    6.20    3.00
   0   7 -12  113.39   15.80
   0  -7  12  154.88   13.80
   0  -7  12  159.18   10.50
  -1   7 -12    8.00    5.10
  -1   7 -12    0.40    7.00
   1  -7  12    2.90    2.80
   1  -7  12    0.80    4.30
  -2   7 -12    7.30    5.60
  -2   7 -12   -1.70    6.10
   2  -7  12   24.40    5.00
   2  -7  12   21.90    7.20
   2   6 -12   16.70    9.40
  -2  -6  12   20.30    3.60
  -2  -6  12   20.70    6.00
   1   6 -12   53.49   10.00
   1   6 -12   44.60   13.80
  -1  -6  12   68.19    6.00
  -1  -6  12   70.19    9.60
   0   6 -12   -2.90    3.00
   0   6 -12   -4.80    6.70
   0  -6  12    1.90    2.20
   0  -6  12    3.30    3.80
  -1   6 -12   23.00    7.00
  -1   6 -12    6.80    7.30
  -2   6 -12    0.90    5.70
  -2   6 -12    8.10    5.30
   2  -6  12   22.60    6.50
   2  -6  12   27.70    5.00
  -3  -5  12    1.70    4.60
   2   5 -12   20.00    9.40
  -2  -5  12   25.70    6.10
  -2  -5  12   23.60    3.60
   1   5 -12   70.89   10.90
   1   5 -12   68.19   16.30
  -1  -5  12  116.29    7.40
  -1  -5  12  100.69    9.90
   0   5 -12   18.40    9.10
   0   5 -12   35.80    7.10
   1  -5  12  110.89   10.10
   1  -5  12  100.99    7.70
   1  -5  12   92.29    8.00
  -2   5 -12    0.90    5.60
   2  -5  12   21.40    5.80
   2  -5  12   20.20    4.10
   2  -5  12   18.50    4.10
  -3   5 -12    2.00    4.70
  -3   5 -12    4.50    6.80
   3  -5  12    2.40    3.40
  -3  -4  12   12.10    5.20
   2   4 -12   20.50    8.40
  -2  -4  12   20.10    3.30
  -2  -4  12   15.90    5.10
  -1  -4  12  116.89   10.30
  -1  -4  12  110.59    7.50
   0   4 -12    0.20    4.90
   0  -4  12    2.80    2.00
   0  -4  12   -0.20    2.70
   0  -4  12    2.60    2.10
   1  -4  12  113.79    7.90
   1  -4  12  113.79    9.70
   1  -4  12  103.59    8.40
   2  -4  12   20.50    5.10
   2  -4  12   18.50    4.00
   2  -4  12   20.20    4.20
   3  -4  12   18.20    4.30
   3  -4  12   18.30    4.40
  -3  -3  12   20.40    5.60
   2   3 -12   25.60    8.40
  -2  -3  12   27.80    3.50
  -2  -3  12   19.40    5.00
   1   3 -12    1.90    6.50
  -1  -3  12   10.10    2.40
  -1  -3  12   12.50    3.90
  -1  -3  12   10.20    2.40
   0   3 -12    3.20    5.10
   0  -3  12    4.10    2.00
   0  -3  12    4.70    2.10
   0  -3  12    0.90    2.70
  -1   3 -12   -0.60    4.00
   1  -3  12    8.70    2.70
   1  -3  12    6.00    3.10
   1  -3  12    9.10    2.70
   2  -3  12   29.40    5.20
   2  -3  12   29.10    4.40
   2  -3  12   25.50    4.30
   3  -3  12   27.30    5.20
   3  -3  12   23.20    4.50
  -3  -2  12   17.80    5.50
  -3  -2  12   22.40    3.40
   2   2 -12   34.50    9.10
  -2  -2  12   47.50    7.00
  -2  -2  12   58.59    4.60
   1   2 -12   -0.50    5.00
  -1  -2  12    2.70    1.60
  -1  -2  12    0.60    2.70
  -1  -2  12   -0.50    1.40
   0  -2  12   16.10    2.80
   0  -2  12   13.50    3.40
   0  -2  12   17.10    2.80
  -1   2 -12    0.40    4.20
   1  -2  12    0.30    2.10
   1  -2  12   -0.50    1.60
   1  -2  12   -1.40    1.60
   2  -2  12   52.49    5.20
   2  -2  12   55.29    6.10
   2  -2  12   54.49    5.70
  -3   2 -12   -0.20    6.00
   3  -2  12   18.90    4.00
   3  -2  12   21.70    4.20
  -3  -1  12   31.10    3.80
  -3  -1  12   29.10    6.20
   2   1 -12   61.29   10.40
  -2  -1  12   72.79    7.90
  -2  -1  12   74.69    5.30
  -1  -1  12   97.29    8.70
  -1  -1  12   93.69    6.10
  -1  -1  12   93.89    6.40
   0   1 -12   -1.50    3.00
   0  -1  12    6.60    2.70
   0  -1  12    6.00    2.00
   0  -1  12    5.40    1.80
   1  -1  12   83.09    7.00
   1  -1  12   93.29    6.20
   1  -1  12   87.69    6.80
   2  -1  12   71.79    6.40
   2  -1  12   62.29    5.50
   3  -1  12   26.90    4.70
   3  -1  12   29.30    4.50
  -3   0  12    4.30    3.60
  -3   0  12    6.20    2.40
   2   0 -12    3.70    4.40
  -2   0  12    9.60    1.80
  -2   0  12   10.10    2.30
  -2   0  12   10.90    3.90
  -1   0  12  139.19    8.70
  -1   0  12  146.09   11.20
  -1   0  12  139.79    8.20
   0   0  12  141.59   10.00
   0   0  12  133.69    8.60
   0   0  12  129.19    7.80
   1   0  12  131.39    7.80
   1   0  12  124.59    8.80
   1   0  12  133.89    8.80
  -2   0 -12   -1.60    3.80
   2   0  12   10.40    2.50
   2   0  12    6.20    2.40
  -3   0 -12   -1.60    5.50
   3   0  12    4.50    2.60
   3   0  12    8.40    2.60
  -3   1  12   30.50    6.70
  -3   1  12   36.60    4.50
  -2   1  12   81.89    5.50
  -2   1  12   83.49    8.90
  -2   1  12   80.69    6.30
  -1   1  12   90.89    9.00
  -1   1  12  102.49    6.60
  -1   1  12   95.79    6.50
   0  -1 -12    1.00    3.50
   0   1  12    9.20    3.30
   0   1  12    6.10    1.80
   0   1  12    5.00    1.80
   1   1  12   92.29    6.10
   1   1  12   95.29    7.10
   1   1  12   98.29    7.10
   2   1  12   70.79    5.50
   2   1  12   82.79    6.70
  -3  -1 -12    0.30    5.70
   3   1  12   30.60    4.40
  -3   2  12   15.00    5.40
  -3   2  12   26.70    4.70
  -2   2  12   62.09    4.60
  -2   2  12   54.89    8.30
  -2   2  12   55.09    5.60
   1  -2 -12   -1.60    2.90
  -1   2  12    0.80    1.40
  -1   2  12    2.10    3.20
  -1   2  12    0.90    1.90
   0   2  12   14.40    2.60
   0   2  12   14.30    3.80
   0   2  12   19.20    2.80
  -1  -2 -12    0.20    4.10
   1   2  12    1.40    1.70
   1   2  12    0.70    2.00
   1   2  12   -0.70    1.20
   2   2  12   52.89    5.20
   2   2  12   46.30    4.20
  -3  -2 -12    2.30    6.10
   3   2  12   28.10    4.50
  -3   3  12   28.40    7.20
  -3   3  12   30.20    5.40
  -2   3  12   30.20    3.50
  -2   3  12   25.20    4.60
  -2   3  12   26.80    6.80
  -1   3  12   10.10    3.10
  -1   3  12   14.30    5.20
  -1   3  12   14.40    2.60
   0  -3 -12    1.30    3.60
   0   3  12    4.20    2.10
   0   3  12    2.60    1.90
   0   3  12    5.40    3.60
   1   3  12    8.90    3.90
   1   3  12   10.80    2.20
   1   3  12    8.90    3.30
   1   3  12   13.00    2.70
   2   3  12   25.90    3.20
   2   3  12   25.70    3.90
   2   3  12   22.40    5.60
   3   3  12   23.00    4.20
  -3   4  12   13.70    6.00
  -3   4  12   16.40    5.10
  -2   4  12   14.30    4.30
  -2   4  12   21.90    6.40
  -2   4  12   19.60    3.40
   1  -4 -12   97.19   17.40
  -1   4  12  118.59    8.50
  -1   4  12  129.79    9.40
   0  -4 -12   -1.50    6.20
   0   4  12    2.90    2.50
   0   4  12    2.90    2.10
   0   4  12    3.80    3.00
  -1  -4 -12   81.49   14.20
   1   4  12  131.99   11.80
   1   4  12  125.59    7.70
   1   4  12  121.79    8.80
   2   4  12   15.10    2.60
   2   4  12   18.90    3.50
   2   4  12   14.70    5.10
   3   4  12   15.90    6.00
   3   4  12   19.60    4.10
  -3   5  12    3.10    3.80
  -3   5  12   -3.30    4.30
   2  -5 -12   26.80   12.90
  -2   5  12   27.30    5.70
  -2   5  12   20.70    4.10
   1  -5 -12  126.49   19.90
  -1   5  12  110.19    9.60
  -1   5  12  123.99    9.20
   0  -5 -12  117.19   17.30
   0   5  12  133.39    9.50
   0   5  12  127.49   11.20
   0   5  12  119.59    9.20
  -1  -5 -12   85.19   14.40
   1   5  12  117.79   11.70
   1   5  12  133.69    8.30
   1   5  12  121.59    8.90
   2   5  12   26.30    4.30
   2   5  12   21.30    3.00
   2   5  12   23.00    5.80
   3   5  12    2.70    5.10
   3   5  12   -0.60    2.40
   2  -6 -12   17.30   11.10
  -2   6  12   17.40    5.50
  -2   6  12   16.20    4.30
   1  -6 -12   61.69   14.60
  -1   6  12   88.09    8.10
  -1   6  12   85.99    7.90
  -1   6  12   73.39    9.00
   0  -6 -12    8.20    7.10
   0   6  12   -1.00    2.50
   0   6  12    1.10    3.40
   0   6  12   -3.30    2.40
  -1  -6 -12   81.39   14.00
   1   6  12   91.29    7.00
   1   6  12   80.39    9.90
   1   6  12   86.99    7.50
   2   6  12   20.10    4.10
   2   6  12   22.80    3.30
   2   6  12   20.10    6.10
   2  -7 -12   16.70   11.90
  -2   7  12   21.60    5.20
  -2   7  12   24.30    6.50
   1  -7 -12    5.30    9.20
  -1   7  12    6.60    4.00
  -1   7  12    0.90    4.20
   0  -7 -12  235.48   22.80
   0   7  12  220.58   17.60
   0   7  12  208.18   14.60
   0   7  12  203.68   14.80
  -1  -7 -12    9.00    7.80
   1   7  12    7.60    3.30
   1   7  12    8.80    3.50
   1   7  12    6.90    4.60
   2   7  12   28.20    5.00
   2   7  12   30.80    7.40
   2  -8 -12    9.20   11.30
  -2   8  12    3.90    5.00
  -2   8  12    4.60    4.50
   1  -8 -12   58.19   15.10
  -1   8  12   54.29    8.70
  -1   8  12   48.10    7.50
   0  -8 -12    4.70    8.00
   0   8  12    2.10    3.40
   0   8  12    0.40    4.00
   0   8  12    4.70    4.40
  -1  -8 -12   52.29   13.10
   1   8  12   48.90    6.80
   1   8  12   62.39    9.00
   1   8  12   68.59    7.60
   2   8  12   12.60    4.00
   2   8  12    8.90    5.70
   1  -9 -12    9.40   10.20
  -1   9  12   14.00    5.50
  -1   9  12   13.40    6.00
   0  -9 -12   14.60   10.40
   0   9  12    1.10    4.70
   0   9  12    8.00    4.30
   0   9  12    4.30    4.70
  -1  -9 -12   17.90   11.00
   1   9  12    8.00    4.30
   1   9  12    9.50    4.10
   1   9  12   16.00    6.30
   1   9 -13   -2.30   10.00
   1   9 -13   -3.20    5.50
  -1  -9  13    1.70    3.40
  -1  -9  13    5.70    6.10
   0   9 -13   29.70    9.50
   0   9 -13   32.70   14.30
   0  -9  13   41.80    6.20
   0  -9  13   36.50    9.00
  -1   9 -13   -4.30    8.00
  -1   9 -13    0.20    4.80
   1  -9  13    4.60    3.70
   1  -9  13    2.60    5.60
   1   8 -13   15.30   11.10
   1   8 -13   24.10    8.60
  -1  -8  13   24.10    7.40
  -1  -8  13   28.10    4.80
   0   8 -13    5.20    5.70
   0   8 -13   -2.90    9.50
   0  -8  13    2.50    4.50
   0  -8  13    4.20    3.20
  -1   8 -13    7.60    6.70
  -1   8 -13    5.30    8.50
   1  -8  13   36.70    8.80
   1  -8  13   25.20    5.00
   2   7 -13   -5.80    7.70
  -2  -7  13    0.10    4.20
  -2  -7  13    3.60    2.80
   1   7 -13    7.10    9.30
   1   7 -13    4.50    5.50
  -1  -7  13    6.80    2.80
  -1  -7  13    6.80    5.10
   0   7 -13   54.59   10.90
   0  -7  13  106.49   11.20
   0  -7  13   78.59    7.20
  -1   7 -13   -0.40    6.40
  -1   7 -13    4.50    4.80
   1  -7  13    3.60    4.60
   1  -7  13    6.50    3.30
  -2   7 -13    3.50    7.30
  -2   7 -13    2.10    5.00
   2  -7  13    0.40    5.50
   2  -7  13    1.40    3.30
   2   6 -13    1.00    7.40
  -2  -6  13   -2.70    3.70
  -2  -6  13    3.90    2.50
   1   6 -13   51.79   10.00
   1   6 -13   48.70   15.00
  -1  -6  13   66.79    9.60
  -1  -6  13   66.39    5.90
   0   6 -13   16.30   10.60
   0   6 -13   26.50    7.20
   0  -6  13   55.29    8.30
  -1   6 -13   26.60    7.20
  -1   6 -13    6.10    6.70
  -2   6 -13    2.90    4.30
  -2   6 -13    2.50    6.60
   2  -6  13    5.00    5.20
   2  -6  13    3.20    3.00
   2   5 -13   13.50    9.00
  -2  -5  13   23.90    3.70
  -2  -5  13   24.60    6.10
   1   5 -13    0.80    3.60
   1   5 -13   -2.80    7.00
  -1  -5  13   -0.50    2.10
  -1  -5  13    1.90    3.60
   0  -5  13   90.79    9.60
   0  -5  13   86.59    7.00
  -1   5 -13    0.80    5.60
   1  -5  13   -1.30    3.10
   1  -5  13    1.20    2.30
   1  -5  13    3.20    2.50
   2  -5  13   22.70    5.90
   2  -5  13   17.60    4.20
   2  -5  13   16.60    4.20
  -3  -4  13    9.50    5.00
   2   4 -13    2.50    6.50
  -2  -4  13    5.40    3.90
  -2  -4  13    2.10    2.00
   1   4 -13   40.30   12.10
   1   4 -13   45.30    7.60
   0  -4  13   66.09    6.20
   0  -4  13   71.79    7.80
   0  -4  13   70.79    6.00
   1  -4  13   96.49    7.30
   1  -4  13   98.29    9.20
   1  -4  13   87.69    7.70
  -2   4 -13    0.90    5.20
   2  -4  13   -0.10    2.20
   2  -4  13    0.10    2.20
  -3   4 -13    2.60    7.20
   3  -4  13    9.60    4.00
   3  -4  13    5.30    3.20
  -3  -3  13   10.40    4.90
   2   3 -13   22.90    9.00
  -2  -3  13   49.99    7.50
  -2  -3  13   40.30    4.20
  -1  -3  13  142.39   11.60
  -1  -3  13  142.59    9.30
  -1  -3  13  138.69    8.80
   0  -3  13   55.49    5.40
   0  -3  13   61.89    5.30
   0  -3  13   52.29    7.00
   1  -3  13  144.79   10.90
   1  -3  13  134.69    9.80
   1  -3  13  136.09    9.00
   2  -3  13   30.80    4.90
   2  -3  13   37.90    4.90
  -3   3 -13    2.20    6.70
   3  -3  13   23.90    4.90
   3  -3  13   13.70    3.90
  -3  -2  13   92.49    6.30
  -3  -2  13   59.49    9.10
   2   2 -13   46.00   10.20
  -2  -2  13   60.59    4.90
  -2  -2  13   60.39    8.10
  -1  -2  13   79.59    8.40
  -1  -2  13   82.49    6.20
  -1  -2  13   83.49    6.10
   0  -2  13 1091.59   58.39
   0  -2  13 1127.69   51.99
   0  -2  13 1121.89   57.59
   1  -2  13   78.69    6.70
   1  -2  13   76.39    7.20
   1  -2  13   90.89    6.40
   2  -2  13   62.79    6.20
   2  -2  13   55.29    5.50
   3  -2  13   71.99    7.00
   3  -2  13   74.99    7.40
  -3  -1  13   65.09    9.30
  -3  -1  13   71.79    5.60
   2   1 -13   51.39   10.40
  -2  -1  13   70.39    8.10
  -2  -1  13   80.49    5.60
  -1  -1  13  159.88   12.10
  -1  -1  13  156.08    9.70
  -1  -1  13  153.18    9.10
   0  -1  13   17.40    3.80
   0  -1  13   17.20    2.90
   0  -1  13   16.90    2.90
   1  -1  13  154.98   10.20
   1  -1  13  144.39    8.90
   1  -1  13  139.99    9.90
   2  -1  13   72.99    6.00
   2  -1  13   68.99    6.50
   3  -1  13   58.89    6.10
   3  -1  13   57.39    6.60
  -3   0  13   -1.10    3.60
  -3   0  13   -0.40    2.00
  -2   0  13  266.97   19.10
  -2   0  13  299.17   15.20
  -1   0  13  672.43   35.50
  -1   0  13  704.23   37.30
  -1   0  13  642.44   31.90
   0   0 -13    0.90    3.50
   0   0  13   -2.00    2.00
   0   0  13    0.10    1.50
   0   0  13    1.40    1.60
   1   0  13  645.14   33.70
   1   0  13  643.74   35.00
   1   0  13  640.54   30.90
   2   0  13  273.57   16.90
   2   0  13  274.77   14.90
  -3   0 -13    0.30    6.30
   3   0  13    2.30    2.60
   3   0  13    1.50    2.40
  -3   1  13   65.79    9.90
  -3   1  13   67.29    6.00
  -2   1  13   81.39    6.40
  -2   1  13   86.09    5.70
  -2   1  13   60.69    8.90
  -1   1  13  168.78    9.60
  -1   1  13  151.28    9.70
  -1   1  13  159.78   12.70
   0   1  13   18.20    2.90
   0   1  13   20.40    4.50
   0   1  13   14.60    2.80
   1   1  13  156.88    9.00
   1   1  13  146.59   10.10
   1   1  13  154.58   10.10
   2   1  13   75.09    6.60
   2   1  13   76.19    5.80
  -3   2  13   84.39    7.30
  -2   2  13   51.89    8.40
  -2   2  13   63.29    6.10
  -2   2  13   64.49    4.90
  -1   2  13  105.39    7.30
  -1   2  13   94.99    6.80
  -1   2  13   92.09    9.70
   0   2  13 1308.47   57.19
   0   2  13 1242.38   63.79
   0   2  13 1150.58   64.09
   1   2  13   96.69    7.70
   1   2  13   90.49    6.20
   1   2  13   88.09    7.00
   2   2  13   58.29    5.70
   2   2  13   53.59    4.70
  -3   3  13   21.90    6.80
  -3   3  13   21.80    5.00
  -2   3  13   39.60    5.50
  -2   3  13   36.50    7.60
  -2   3  13   43.20    4.20
  -1   3  13  156.68   10.10
  -1   3  13  176.18   14.10
  -1   3  13  152.28   10.50
   0   3  13   55.99    7.80
   0   3  13   60.49    5.40
   0   3  13   64.49    5.40
   1   3  13  159.48   10.50
   1   3  13  148.89    9.00
   1   3  13  153.28   11.10
   2   3  13   41.60    4.10
   2   3  13   48.50    5.20
  -3  -3 -13    9.00    7.20
   3   3  13   22.00    4.20
  -3   4  13    8.30    4.30
  -3   4  13    7.10    5.60
  -2   4  13   -1.40    2.80
  -2   4  13    0.20    2.10
  -2   4  13   -0.80    4.50
  -1   4  13  117.39    8.40
  -1   4  13  109.49    8.90
  -1   4  13  119.59   11.70
   0   4  13   90.29    7.00
   0   4  13   84.89    7.00
   1   4  13  115.79   11.40
   1   4  13  107.59    8.50
   1   4  13  111.29   10.10
   1   4  13  127.49    7.70
   2   4  13    0.40    2.10
   2   4  13   -0.50    3.80
   2   4  13    0.60    1.60
   3   4  13   10.10    5.60
   3   4  13    9.00    3.50
  -2   5  13   21.20    5.40
  -2   5  13   25.60    7.40
  -2   5  13   22.50    4.10
   1  -5 -13   -0.20    3.30
   1  -5 -13    5.30    8.50
  -1   5  13    0.60    3.30
  -1   5  13   -1.70    2.10
   0  -5 -13   67.49   14.70
   0   5  13   98.89    9.70
   0   5  13  102.59    7.90
   0   5  13  103.99    8.20
  -1  -5 -13    5.50    8.60
   1   5  13    2.60    2.10
   1   5  13    0.50    2.10
   1   5  13    1.60    3.60
   2   5  13   21.00    3.10
   2   5  13   30.70    6.80
   2   5  13   19.80    3.80
   2  -6 -13    3.80   10.40
  -2   6  13    2.40    3.90
  -2   6  13    2.20    3.10
   1  -6 -13   55.19   14.80
  -1   6  13   72.79    8.90
  -1   6  13   86.09    7.60
   0  -6 -13   66.99   15.20
   0   6  13   75.09    7.10
   0   6  13   82.79    8.00
   0   6  13   72.09    8.70
  -1  -6 -13   76.19   14.90
   1   6  13   93.79   10.50
   1   6  13   86.49    7.10
   1   6  13   81.09    7.40
   2   6  13    3.00    4.50
   2   6  13    3.30    2.70
   2   6  13    2.30    2.00
   2  -7 -13   -2.60   10.30
  -2   7  13    3.10    4.60
  -2   7  13   -0.80    3.40
   1  -7 -13    8.40   10.80
  -1   7  13   -1.20    3.50
  -1   7  13    7.20    3.60
   0  -7 -13  131.69   20.00
   0   7  13  108.19   10.00
   0   7  13  123.79   11.90
   0   7  13  119.79   10.00
  -1  -7 -13    9.10    9.30
   1   7  13    4.00    3.00
   1   7  13    7.80    3.20
   1   7  13   -0.50    4.20
   2   7  13   -1.20    2.70
   2   7  13    0.80    4.60
   1  -8 -13   20.00   11.40
  -1   8  13   32.20    7.40
  -1   8  13   35.40    6.40
   0  -8 -13   -0.80    7.80
   0   8  13    3.60    4.10
   0   8  13    4.90    4.40
   0   8  13    1.80    3.40
  -1  -8 -13   31.50   12.00
   1   8  13   33.50    7.50
   1   8  13   36.10    5.90
   1   8  13   30.60    5.50
   1  -9 -13   12.70   11.60
  -1   9  13    2.80    5.10
  -1   9  13   -1.50    4.00
   0  -9 -13   50.29   14.90
   0   9  13   55.29    9.10
   0   9  13   52.09    8.70
   0   9  13   49.99    7.60
  -1  -9 -13    5.80    9.80
   1   9  13    0.90    4.80
   1   9  13    2.30    3.50
   1   9  13   -0.30    3.50
   1   8 -14   13.00   11.60
   1   8 -14    9.60    6.90
  -1  -8  14   11.70    6.60
  -1  -8  14   12.60    4.00
   0   8 -14    4.70    5.40
   0   8 -14    3.70   10.10
   0  -8  14   21.20    4.70
   0  -8  14   20.70    7.00
  -1   8 -14   -0.60    7.20
  -1   8 -14    0.90    5.10
   1  -8  14   11.70    4.20
   1  -8  14    9.70    6.60
   2   7 -14   23.30   11.50
  -2  -7  14   16.80    6.60
  -2  -7  14   17.60    4.10
   1   7 -14   -1.20    8.80
   1   7 -14    2.90    5.30
  -1  -7  14    2.80    2.50
  -1  -7  14    4.50    5.10
   0   7 -14   17.40    6.60
   0   7 -14   11.90   10.50
   0  -7  14   22.40    4.40
   0  -7  14   38.50    7.70
  -1   7 -14    2.80    4.40
  -1   7 -14    1.80    6.90
   1  -7  14    4.30    5.00
   1  -7  14    1.80    2.80
  -2   7 -14    4.30    5.40
  -2   7 -14   -0.40    6.70
   2  -7  14   14.10    4.40
   2   6 -14   68.69   15.50
  -2  -6  14   62.99   10.10
  -2  -6  14   63.19    6.10
   1   6 -14    8.90    9.80
   1   6 -14    2.80    5.00
  -1  -6  14    4.40    2.70
  -1  -6  14    5.30    4.50
   0   6 -14    1.70    7.80
   0   6 -14   -0.20    3.50
   0  -6  14    1.30    2.40
   0  -6  14   -0.40    3.90
  -1   6 -14    4.30    4.80
  -1   6 -14    1.00    5.90
   1  -6  14    6.50    3.10
   1  -6  14    8.30    4.80
  -2   6 -14   19.30    7.00
  -2   6 -14    1.90    6.60
   2   5 -14  100.09   17.30
  -2  -5  14  102.89   11.00
  -2  -5  14   95.79    7.40
   1   5 -14   54.79   14.40
   1   5 -14   36.80    8.00
  -1  -5  14   74.49    9.70
  -1  -5  14   64.69    5.90
   0   5 -14    5.40    7.00
   0  -5  14   -0.10    2.30
   0  -5  14   -0.50    3.30
   0  -5  14    0.40    2.40
   1  -5  14   68.19    6.60
   1  -5  14   78.19    7.50
   1  -5  14   83.69    9.20
   2  -5  14   95.19    8.90
   2  -5  14  103.59    8.60
   2   4 -14   77.49   15.00
  -2  -4  14   88.39    6.80
  -2  -4  14   89.59    9.90
  -1  -4  14  180.68   14.10
  -1  -4  14  160.48   10.30
   0  -4  14  122.69    8.70
   0  -4  14  136.59   11.50
   0  -4  14  129.59    9.40
   1  -4  14  149.09   12.20
   1  -4  14  153.18   10.20
   1  -4  14  157.28   11.20
   2  -4  14   88.19    8.20
   2  -4  14   82.19    7.50
  -3  -3  14   31.30    7.10
   2   3 -14   15.60    7.90
  -2  -3  14   19.90    5.50
  -2  -3  14   17.90    3.30
  -1  -3  14  188.18   14.10
  -1  -3  14  183.48   11.10
  -1  -3  14  190.28   11.90
   0  -3  14  297.97   19.20
   0  -3  14  295.57   17.90
   0  -3  14  310.97   16.40
   1  -3  14  196.08   13.60
   1  -3  14  184.28   12.50
   1  -3  14  182.18   11.50
  -2   3 -14   -0.70    5.60
   2  -3  14   15.80    4.00
   2  -3  14   17.20    3.70
  -3   3 -14    7.20    7.50
   3  -3  14   24.10    4.90
   3  -3  14   24.30    5.10
  -3  -2  14   31.20    4.20
  -3  -2  14   38.10    7.40
   2   2 -14   28.10    8.90
  -2  -2  14   41.20    7.10
  -2  -2  14   33.30    4.00
  -1  -2  14  165.08    9.80
  -1  -2  14  157.98   10.30
  -1  -2  14  166.28   12.60
   0  -2  14  184.88   12.20
   0  -2  14  194.68   11.40
   0  -2  14  216.38   13.90
   1  -2  14  153.68   10.50
   1  -2  14  149.59   10.90
   1  -2  14  142.49    9.40
   2  -2  14   34.90    5.20
   2  -2  14   33.10    4.70
  -3   2 -14    7.30    7.90
   3  -2  14   28.00    5.00
   3  -2  14   29.00    5.30
  -3  -1  14   34.60    4.30
  -3  -1  14   31.90    6.90
  -2  -1  14  248.58   18.00
  -2  -1  14  271.67   14.30
  -1  -1  14  291.57   15.50
  -1  -1  14  301.97   19.20
  -1  -1  14  293.27   16.80
   0  -1  14  148.99    9.80
   0  -1  14  136.79    8.80
   0  -1  14  152.28   11.00
   1  -1  14  284.07   17.50
   1  -1  14  286.87   17.40
   1  -1  14  302.57   15.70
   2  -1  14  263.97   16.90
   2  -1  14  273.07   15.10
   3  -1  14   28.10    4.70
   3  -1  14   31.60    5.50
  -3   0  14   52.49    8.90
  -3   0  14   53.89    5.20
  -2   0  14  276.47   14.40
  -2   0  14  242.68   18.20
  -1   0  14   65.99    7.70
  -1   0  14   61.19    5.20
  -1   0  14   68.89    5.30
   0   0  14   68.39    7.30
   0   0  14   68.09    5.80
   0   0  14   67.29    5.30
   1   0  14   63.69    5.30
   1   0  14   58.59    5.80
   1   0  14   59.69    6.10
   2   0  14  253.67   16.30
   2   0  14  261.57   14.40
   3   0  14   51.09    6.00
   3   0  14   58.09    6.30
  -3   1  14   32.30    4.50
  -3   1  14   26.20    6.90
  -2   1  14  282.87   14.80
  -2   1  14  237.38   18.50
  -1   1  14  347.27   17.60
  -1   1  14  330.37   18.90
  -1   1  14  329.57   21.60
   0   1  14  162.78   11.90
   0   1  14  160.38   10.50
   0   1  14  162.88    9.50
   1   1  14  287.57   17.90
   1   1  14  310.27   15.90
   1   1  14  312.37   17.70
   2   1  14  256.47   16.00
   2   1  14  247.28   13.90
  -3  -1 -14    1.30    6.80
   3   1  14   27.30    4.50
  -3   2  14   39.30    8.50
  -3   2  14   36.50    5.20
  -2   2  14   39.70    3.90
  -2   2  14   42.80    8.00
  -2   2  14   35.90    4.80
  -1   2  14  170.68   10.80
  -1   2  14  170.58   13.80
  -1   2  14  175.88   10.70
   0   2  14  228.18   13.90
   0   2  14  227.58   12.60
   0   2  14  227.88   15.50
   1   2  14  158.58   10.90
   1   2  14  174.58   11.30
   1   2  14  155.98    9.50
   2   2  14   41.80    5.40
   2   2  14   39.40    4.50
  -3  -2 -14    2.10    6.60
   3   2  14   33.10    4.90
  -3   3  14   16.00    6.40
  -3   3  14   28.60    5.20
  -2   3  14   14.60    5.70
  -2   3  14   20.60    3.20
  -2   3  14   14.90    3.90
  -1   3  14  220.38   13.50
  -1   3  14  225.38   17.00
   0   3  14  341.47   21.50
   0   3  14  315.47   19.20
   0   3  14  346.07   17.70
   1   3  14  218.08   11.80
   1   3  14  197.08   13.30
   1   3  14  216.08   14.20
  -2  -3 -14    2.80    5.90
   2   3  14   22.80    3.30
   2   3  14   20.30    3.90
  -3  -3 -14    4.50    7.30
   3   3  14   32.00    5.10
  -2   4  14   85.69    8.50
  -2   4  14   98.79   13.00
  -2   4  14  100.09    7.30
  -1   4  14  185.28   15.80
  -1   4  14  196.88   12.30
  -1   4  14  186.88   12.50
   0   4  14  149.49    9.80
   0   4  14  153.78   12.90
   0   4  14  142.79   10.20
   1   4  14  189.08   13.80
   1   4  14  173.78   12.20
   1   4  14  195.08   10.90
   2   4  14   92.19    6.50
   2   4  14   88.29    7.80
   2   4  14   91.39   10.80
  -2   5  14  134.49   14.90
  -2   5  14  136.89    9.90
  -2   5  14  138.89   11.70
   1  -5 -14   49.00   14.30
  -1   5  14   90.09    7.60
  -1   5  14  100.89    8.70
   0  -5 -14   -1.40    7.80
   0   5  14   -0.10    2.10
   0   5  14    1.50    2.70
   1   5  14   89.99    6.90
   1   5  14   87.59   10.30
   1   5  14  105.19   10.20
   1   5  14   88.99    7.80
   2   5  14  120.39    9.80
   2   5  14  129.49    8.20
   2   5  14  124.29   13.40
  -2   6  14   73.59    7.30
  -2   6  14   65.19    8.80
   1  -6 -14   -2.20    9.60
  -1   6  14    3.50    3.00
  -1   6  14    5.60    3.90
   0  -6 -14    8.20    9.60
   0   6  14    0.70    3.10
   0   6  14   -1.80    3.40
   0   6  14   -1.40    2.20
  -1  -6 -14    3.40    9.10
   1   6  14    7.00    2.80
   1   6  14    4.90    4.40
   1   6  14    1.80    2.50
   2   6  14   72.39   10.40
   2   6  14   77.69    7.50
   2  -7 -14   15.60   14.80
  -2   7  14   24.80    6.60
  -2   7  14   17.80    4.80
   1  -7 -14    7.50   11.30
  -1   7  14   -2.30    3.60
  -1   7  14    8.20    3.80
   0  -7 -14   31.90   13.10
   0   7  14   29.40    5.20
   0   7  14   39.00    7.00
   0   7  14   27.10    5.70
  -1  -7 -14   -5.60    9.20
   1   7  14    2.30    4.40
   1   7  14    1.70    2.90
   1   7  14    1.20    2.50
   2   7  14   24.70    7.30
   2   7  14   21.90    4.80
   1  -8 -14   17.00   13.30
  -1   8  14   16.00    4.90
  -1   8  14    9.40    5.60
   0  -8 -14   17.90   11.80
   0   8  14   21.20    5.10
   0   8  14   19.70    6.00
   0   8  14   20.10    5.60
  -1  -8 -14   18.40   11.80
   1   8  14   12.60    5.90
   1   8  14   18.40    4.80
   1   8  14   15.60    4.50
   0   8 -15   11.90    6.90
   0   8 -15   -1.80   10.30
   0  -8  15    9.40    4.00
   0  -8  15    9.20    5.80
   1   7 -15   -1.50    5.30
   1   7 -15   -6.90    8.70
  -1  -7  15    4.20    2.90
  -1  -7  15   -1.00    4.80
   0   7 -15    8.00    5.70
   0   7 -15    2.40    9.10
   0  -7  15   12.90    6.10
   0  -7  15   13.70    4.00
  -1   7 -15   -0.70    6.80
  -1   7 -15    2.30    5.20
   1  -7  15    5.00    4.90
   1  -7  15   -0.70    2.80
   2   6 -15   27.50   11.80
  -2  -6  15   31.10    8.00
  -2  -6  15   37.90    5.30
   1   6 -15   17.60    6.70
   1   6 -15    2.80    9.00
  -1  -6  15   18.70    3.80
  -1  -6  15   24.70    7.00
   0   6 -15   -3.80    7.00
   0   6 -15   -0.80    4.20
   0  -6  15    2.30    4.20
   0  -6  15   -0.20    2.10
  -1   6 -15    5.30    7.60
  -1   6 -15    7.10    5.20
   1  -6  15   27.20    6.90
   1  -6  15   17.60    4.20
  -2   6 -15    8.80    8.30
  -2   6 -15    7.20    6.00
   2  -6  15   36.20    5.90
   2   5 -15   61.09   14.90
  -2  -5  15   62.29    9.90
  -2  -5  15   68.89    6.20
  -1  -5  15  145.99    9.90
  -1  -5  15  151.18   13.60
   0   5 -15   -2.70    6.00
   0  -5  15    5.70    2.90
   0  -5  15    4.80    2.60
   0  -5  15    9.40    4.70
   1  -5  15  128.69   10.30
   1  -5  15  152.28   12.60
   1  -5  15  125.59    9.60
   2  -5  15   67.69    7.00
   2  -5  15   68.69    7.60
   2   4 -15   62.29   13.80
  -2  -4  15   60.29    9.20
  -2  -4  15   71.99    6.20
  -1  -4  15  119.69    8.30
  -1  -4  15  111.19   11.10
  -1  -4  15  116.29    8.70
   0   4 -15    2.80    6.10
   0  -4  15    6.00    2.70
   0  -4  15   12.70    3.30
   0  -4  15   10.40    4.30
   1  -4  15  108.39   10.40
   1  -4  15  111.39    9.20
   1  -4  15  110.09    8.40
   2  -4  15   68.79    6.80
   2  -4  15   54.59    6.70
   2   3 -15    2.50    6.70
  -2  -3  15    0.50    3.40
  -2  -3  15    0.50    2.10
  -1  -3  15  194.48   11.80
  -1  -3  15  197.28   14.90
  -1  -3  15  197.48   12.50
   0  -3  15  460.75   26.20
   0  -3  15  458.65   23.70
   0  -3  15  461.85   27.40
   1  -3  15  195.18   12.20
   1  -3  15  206.38   14.50
   1  -3  15  202.48   13.50
  -2   3 -15   -1.40    5.10
   2  -3  15   -0.90    2.00
   2  -3  15    2.20    2.50
   2   2 -15   18.40    8.10
  -2  -2  15   26.30    3.80
  -2  -2  15   25.00    5.90
  -1  -2  15  119.79    8.40
  -1  -2  15  116.99   10.70
  -1  -2  15  114.09    7.90
   0  -2  15   86.49    7.20
   0  -2  15   90.69    6.90
   0  -2  15   91.69    8.60
   1  -2  15  115.89    9.80
   1  -2  15  121.19    8.30
   1  -2  15  120.89    9.10
   2  -2  15   28.70    4.40
   2  -2  15   24.00    4.50
  -3  -1  15   17.50    6.30
  -3  -1  15   26.00    3.90
  -2  -1  15   26.70    6.00
  -2  -1  15   23.40    3.70
  -1  -1  15   42.50    6.70
  -1  -1  15   37.40    4.20
  -1  -1  15   42.60    4.20
   0  -1  15  263.87   15.90
   0  -1  15  258.97   14.40
   0  -1  15  265.27   17.00
   1  -1  15   44.70    6.00
   1  -1  15   42.00    5.00
   1  -1  15   45.20    5.10
   2  -1  15   28.80    4.20
   2  -1  15   25.50    4.40
   3  -1  15   28.30    5.20
   3  -1  15   26.60    4.60
  -3   0  15    1.60    4.30
  -3   0  15    2.60    2.50
  -2   0  15   10.10    4.50
  -2   0  15   13.80    3.00
  -1   0  15   89.89    6.60
  -1   0  15   99.19    9.40
  -1   0  15   84.89    6.70
   0   0 -15    2.40    4.40
   0   0  15    0.50    1.80
   0   0  15   -0.20    1.90
   0   0  15   -1.10    2.50
   1   0  15   79.99    7.40
   1   0  15   83.29    7.10
   1   0  15   83.19    6.30
  -2   0 -15    1.00    5.60
   2   0  15   13.70    3.10
   2   0  15    8.30    3.00
  -3   0 -15   -1.90    6.70
   3   0  15    1.80    2.90
  -3   1  15   29.70    4.50
  -3   1  15   32.00    7.80
  -2   1  15   24.30    6.20
  -2   1  15   27.00    4.10
  -1   1  15   50.79    7.80
  -1   1  15   49.30    4.70
  -1   1  15   46.60    4.60
   0   1  15  274.37   16.60
   0   1  15  279.57   15.00
   0   1  15  281.57   17.90
   1   1  15   43.10    5.60
   1   1  15   43.80    5.20
   1   1  15   49.70    4.60
   2   1  15   23.30    4.20
   2   1  15   25.60    3.90
  -3  -1 -15    3.70    7.40
   3   1  15   25.80    4.80
  -2   2  15   30.30    7.00
  -2   2  15   31.00    4.70
  -1   2  15  150.68   13.00
  -1   2  15  141.69    9.10
  -1   2  15  127.49    9.10
   0   2  15   96.79    7.50
   0   2  15   95.99    6.80
   0   2  15   93.59    9.20
   1   2  15  137.49    8.50
   1   2  15  133.99   10.10
   1   2  15  125.09    9.50
   2   2  15   22.50    4.20
   2   2  15   27.70    3.80
  -2   3  15   -0.80    3.70
  -2   3  15   -2.40    2.20
  -1   3  15  224.98   14.00
  -1   3  15  229.88   17.50
  -1   3  15  232.98   13.70
   0   3  15  519.35   31.10
   0   3  15  561.94   26.80
   0   3  15  514.55   29.50
   1   3  15  235.88   13.10
   1   3  15  236.58   15.00
   1   3  15  232.68   15.50
  -2  -3 -15    0.70    4.90
   2   3  15   -0.50    2.00
   2   3  15   -0.20    1.80
  -2   4  15   91.29   12.90
  -2   4  15   83.39    8.40
  -1   4  15  137.49   10.10
  -1   4  15  131.49   13.40
  -1   4  15  139.39    9.70
   0   4  15   16.60    3.50
   0   4  15   15.10    3.30
   0   4  15   19.10    5.90
   1   4  15  125.39    8.60
   1   4  15  127.29    9.70
   1   4  15  151.58   11.60
   2   4  15   79.69    7.50
   2   4  15   74.09    6.10
  -2   5  15   79.69    8.60
  -2   5  15   69.29   12.10
  -2   5  15   89.49    7.30
  -1   5  15  193.58   13.20
  -1   5  15  183.18   12.50
  -1   5  15  191.78   17.20
   0  -5 -15    4.90    5.50
   0   5  15   10.10    3.10
   0   5  15    2.90    4.80
   0   5  15    9.70    3.40
   1   5  15  180.58   16.60
   1   5  15  196.18   14.90
   1   5  15  175.98   12.60
   1   5  15  187.38   11.30
   2   5  15   87.29   11.00
   2   5  15   79.29    6.40
   2   5  15   79.79    7.70
  -2   6  15   62.89   11.60
  -2   6  15   43.70    6.00
  -2   6  15   46.10    7.70
   1  -6 -15   10.70   12.00
  -1   6  15   29.50    5.90
  -1   6  15   29.90    4.80
   0  -6 -15   -1.80    8.80
   0   6  15    0.80    2.60
   0   6  15    1.20    2.90
   1   6  15   26.80    4.90
   1   6  15   28.70    4.50
   1   6  15   21.70    6.30
   2   6  15   43.10    8.90
   2   6  15   42.70    6.20
   1  -7 -15    2.30   10.50
  -1   7  15    4.60    3.30
  -1   7  15    1.70    4.10
   0  -7 -15    9.00   11.50
   0   7  15   12.70    5.50
   0   7  15   15.10    4.00
   0   7  15   14.10    4.60
  -1  -7 -15    2.40   10.70
   1   7  15   -0.60    2.60
   1   7  15    4.20    4.80
   1   7  15   -1.00    2.60
   0  -8 -15    7.00   12.00
   0   8  15   15.00    5.30
   0   8  15   14.90    5.70
   0   8  15   13.60    4.60
   1   7 -16    6.00    9.80
  -1  -7  16    4.20    5.50
  -1  -7  16    4.70    3.10
   0   7 -16    0.10    8.90
   0   7 -16    1.30    4.60
   0  -7  16    6.10    5.70
   0  -7  16    1.50    2.80
  -1   7 -16    4.70    5.40
  -1   7 -16    2.50    8.10
   1  -7  16    5.40    3.50
   1  -7  16    6.30    5.70
   1   6 -16    7.90    6.10
   1   6 -16   15.40   11.00
  -1  -6  16   12.60    5.80
  -1  -6  16    9.50    3.50
   0   6 -16    2.70    7.80
   0   6 -16    3.00    4.20
   0  -6  16    1.20    4.00
   0  -6  16   -0.10    2.60
  -1   6 -16    8.20    8.60
  -1   6 -16    7.00    5.50
   1  -6  16   10.50    4.00
   1  -6  16   13.50    6.20
   2   5 -16   13.00    9.90
  -2  -5  16   26.70    7.30
  -2  -5  16   24.10    4.30
   1   5 -16    2.50    7.30
   1   5 -16    5.40    4.60
  -1  -5  16    3.40    4.80
  -1  -5  16    4.60    2.80
   0   5 -16    2.30    6.60
   0  -5  16    3.00    2.70
   0  -5  16    4.40    2.90
   0  -5  16    7.20    4.80
  -1   5 -16    4.70    7.50
   1  -5  16    6.30    4.60
   1  -5  16    6.00    3.10
   1  -5  16    4.20    3.00
  -2   5 -16    0.70    7.30
   2  -5  16   22.00    5.10
   2  -5  16   14.50    4.10
   2   4 -16   14.10    8.90
  -2  -4  16   31.00    4.70
  -2  -4  16   30.90    7.30
   1   4 -16   -2.10    6.30
  -1  -4  16   -0.70    2.20
  -1  -4  16    0.50    2.50
  -1  -4  16    1.20    4.10
   0  -4  16  113.09    8.60
   0  -4  16  113.89   11.00
   0  -4  16  118.09    9.10
  -1   4 -16    6.90    7.20
   1  -4  16    1.90    2.60
   1  -4  16    2.30    2.50
   1  -4  16    2.90    4.10
   2  -4  16   25.90    4.90
   2  -4  16   28.90    5.40
   2   3 -16   -5.40    6.50
  -2  -3  16    2.00    2.20
  -2  -3  16    2.30    4.00
   1   3 -16    6.70    7.00
  -1  -3  16   23.60    5.80
  -1  -3  16   18.90    3.60
  -1  -3  16   20.80    3.70
   0  -3  16   21.30    5.40
   0  -3  16   30.90    4.40
   0  -3  16   22.90    4.00
  -1   3 -16    1.30    6.50
   1  -3  16   16.60    3.80
   1  -3  16   20.50    4.00
   1  -3  16   12.40    4.40
  -2   3 -16    2.00    6.70
   2  -3  16   -0.40    2.50
   2  -3  16    0.50    2.80
  -2  -2  16    0.80    3.80
  -2  -2  16    0.90    2.30
   1   2 -16    6.90    6.50
  -1  -2  16   24.00    3.80
  -1  -2  16   20.30    3.50
  -1  -2  16   26.10    5.70
   0  -2  16  104.59    8.40
   0  -2  16  112.59    8.10
   0  -2  16  118.39   10.30
   1  -2  16   24.80    4.00
   1  -2  16   24.10    4.20
   1  -2  16   27.40    5.20
  -2   2 -16   -2.30    4.60
   2  -2  16    1.10    2.40
   2  -2  16    0.20    2.50
  -2  -1  16   25.10    3.90
  -2  -1  16   23.70    6.10
  -1  -1  16   43.50    4.60
  -1  -1  16   48.80    4.80
  -1  -1  16   41.40    7.00
   0   1 -16    1.20    4.70
   0  -1  16   -2.30    1.80
   0  -1  16    0.20    2.00
   0  -1  16   -0.60    2.50
   1  -1  16   51.99    6.60
   1  -1  16   40.90    5.10
   1  -1  16   47.10    5.50
   2  -1  16   24.00    4.50
   2  -1  16   25.40    4.40
  -2   0  16    6.00    2.50
  -2   0  16   10.60    5.00
   1   0 -16    2.60    5.40
  -1   0  16   14.60    2.90
  -1   0  16    9.90    4.30
  -1   0  16    7.10    2.50
   0   0  16   21.10    3.70
   0   0  16   27.60    5.30
   0   0  16   23.60    3.60
  -1   0 -16   -2.20    4.60
   1   0  16   11.20    2.90
   1   0  16   11.00    3.00
   1   0  16   12.60    3.70
  -2   0 -16    5.10    7.10
   2   0  16    8.70    2.80
   2   0  16    8.40    3.10
  -2   1  16   31.60    7.00
  -2   1  16   28.50    4.20
  -1   1  16   40.80    4.50
  -1   1  16   46.50    7.40
  -1   1  16   36.50    4.40
   0  -1 -16   -1.10    4.20
   0   1  16    0.80    1.90
   0   1  16   -0.70    2.80
   0   1  16    0.40    2.00
   1   1  16   47.70    4.70
   1   1  16   45.10    5.90
   1   1  16   41.70    5.10
   2   1  16   24.70    4.50
   2   1  16   25.20    4.00
  -2   2  16    2.10    2.40
  -2   2  16    2.40    4.60
  -1   2  16   29.60    6.60
  -1   2  16   25.60    3.80
  -1   2  16   25.90    4.10
   0   2  16  108.29    8.50
   0   2  16  112.09    7.80
   0   2  16  120.59   11.00
   1   2  16   25.50    4.40
   1   2  16   29.10    5.10
   1   2  16   21.40    3.50
  -2  -2 -16    0.80    6.30
   2   2  16   -0.80    2.00
   2   2  16    2.30    2.60
  -2   3  16   -2.30    2.30
  -2   3  16   -0.20    4.40
  -1   3  16   16.80    3.40
  -1   3  16   27.30    7.00
  -1   3  16   17.90    3.80
   0   3  16   28.60    4.10
   0   3  16   23.80    6.00
   0   3  16   30.00    4.40
   1   3  16   28.60    5.20
   1   3  16   18.60    3.40
   1   3  16   22.70    4.10
  -2  -3 -16    5.00    7.50
   2   3  16    2.10    2.50
   2   3  16    2.30    2.20
  -2   4  16   32.20    5.60
  -2   4  16   30.00    8.10
  -1   4  16   -2.10    2.10
  -1   4  16    1.50    4.60
  -1   4  16    0.80    2.50
   0   4  16  153.08   13.80
   0   4  16  166.98   10.30
   0   4  16  138.19   10.50
  -1  -4 -16    0.20    5.00
   1   4  16   -2.10    3.10
   1   4  16    2.40    2.30
   1   4  16    1.00    2.30
  -2  -4 -16    8.20    7.70
   2   4  16   27.90    4.10
   2   4  16   32.30    5.10
  -2   5  16   24.20    5.90
  -2   5  16   35.10    9.40
  -1   5  16    3.40    5.40
  -1   5  16    3.20    3.40
  -1   5  16    4.50    2.60
   0  -5 -16    5.60    6.10
   0   5  16    4.60    2.70
   0   5  16    5.50    5.10
   0   5  16    2.20    2.70
  -1  -5 -16    4.90    6.70
   1   5  16    7.80    4.90
   1   5  16    2.80    2.40
   1   5  16    5.10    3.00
   2   5  16   21.60    3.80
   2   5  16   26.90    5.30
  -1   6  16   13.00    4.70
  -1   6  16   15.80    7.20
  -1   6  16   19.10    4.30
   0  -6 -16    4.70    6.10
   0   6  16   -1.00    2.40
   0   6  16    2.20    3.30
   1   6  16   18.90    6.50
   1   6  16   21.30    4.20
   1   6  16   21.20    4.50
   1  -7 -16    0.40   11.30
  -1   7  16    3.70    3.40
  -1   7  16    3.50    4.10
   0  -7 -16    9.30   12.10
   0   7  16   -1.20    3.50
   0   7  16    0.90    3.00
   1   7  16    5.10    3.00
   1   7  16    5.20    3.20
   1   7  16    5.20    5.40
   1   6 -17   -2.60    9.60
  -1  -6  17    3.20    2.90
  -1  -6  17    4.10    5.40
   0   6 -17   -0.20    7.40
   0   6 -17    7.60    5.20
   0  -6  17    4.90    5.00
   0  -6  17    1.60    2.70
  -1   6 -17    1.60    4.30
  -1   6 -17   -3.80    7.00
   1  -6  17    4.40    3.50
   1  -6  17    5.30    5.10
   1   5 -17    1.60    7.80
  -1  -5  17    6.90    3.20
  -1  -5  17    5.00    4.90
   0   5 -17   -1.40    6.20
   0  -5  17    1.80    4.50
   0  -5  17    4.20    2.90
   0  -5  17    4.60    2.90
  -1   5 -17    1.10    7.00
   1  -5  17    6.00    3.10
   1  -5  17    8.80    3.50
   1  -5  17    1.00    4.30
   2   4 -17    7.10    8.40
  -2  -4  17   11.10    3.50
  -2  -4  17   13.10    5.60
   1   4 -17   -3.30    6.50
  -1  -4  17    2.80    2.70
  -1  -4  17   -0.90    2.20
  -1  -4  17    2.60    4.00
   0   4 -17    2.30    6.80
   0  -4  17    0.40    2.40
   0  -4  17    1.80    4.00
   0  -4  17    1.20    2.40
  -1   4 -17   -1.50    6.10
   1  -4  17    6.50    3.10
   1  -4  17    1.00    3.00
   1  -4  17    1.50    3.80
  -2   4 -17    0.70    6.30
   2  -4  17   12.60    4.00
   2  -4  17   11.80    4.10
  -2  -3  17    0.70    2.60
  -2  -3  17    3.00    4.70
   1   3 -17    6.00    7.70
  -1  -3  17   22.90    5.90
  -1  -3  17   25.50    4.10
  -1  -3  17   22.90    4.20
   0  -3  17   28.10    4.70
   0  -3  17   31.80    6.40
   0  -3  17   33.80    4.80
  -1   3 -17    3.70    6.10
   1  -3  17   21.80    5.50
   1  -3  17   21.10    4.10
   1  -3  17   17.30    4.00
  -2   3 -17    0.90    6.80
   2  -3  17    1.40    2.70
   2  -3  17    5.10    3.30
  -2  -2  17    3.20    4.10
  -2  -2  17   11.90    3.30
  -1  -2  17   62.19    5.80
  -1  -2  17   60.79    8.80
  -1  -2  17   67.59    6.10
   0  -2  17   79.09    7.10
   0  -2  17   90.79    7.10
   0  -2  17   86.49    9.30
   1  -2  17   65.19    6.50
   1  -2  17   61.39    7.90
   1  -2  17   48.70    5.90
  -2   2 -17    0.70    6.90
   2  -2  17   10.20    3.40
   2  -2  17   12.60    3.90
  -2  -1  17    8.80    4.80
  -2  -1  17   15.60    3.50
  -1  -1  17   85.49    9.60
  -1  -1  17   70.69    6.10
  -1  -1  17   74.89    6.40
   0  -1  17   61.19    8.00
   0  -1  17   52.59    5.60
   0  -1  17   50.29    5.20
   1  -1  17   66.59    6.10
   1  -1  17   72.39    7.90
   1  -1  17   68.79    6.70
  -2   1 -17    2.30    6.90
   2  -1  17   15.40    3.70
   2  -1  17   20.20    4.40
  -2   0  17  100.39   11.30
  -2   0  17  109.09    8.00
  -1   0  17   86.79    9.70
  -1   0  17   72.09    6.40
  -1   0  17   73.79    6.20
   0   0 -17    0.70    5.30
   0   0  17    0.00    1.80
   0   0  17    1.20    2.00
   0   0  17    0.70    3.30
   1   0  17   71.49    6.90
   1   0  17   76.19    6.60
   1   0  17   79.69    7.90
   2   0  17  101.99    8.10
   2   0  17  105.69    9.20
  -2   1  17   23.80    4.00
  -2   1  17   19.80    6.70
  -1   1  17   76.99    6.40
  -1   1  17   71.29    9.90
  -1   1  17   80.39    6.60
   0   1  17   57.29    5.40
   0   1  17   54.99    7.80
   0   1  17   49.20    5.60
   1   1  17   77.49    6.40
   1   1  17   72.89    6.90
   1   1  17   74.59    7.40
  -2  -1 -17    4.00    7.70
   2   1  17   16.20    4.10
   2   1  17   17.80    3.80
  -2   2  17    3.30    5.60
  -2   2  17    8.40    3.00
  -1   2  17   66.59    6.00
  -1   2  17   67.19    6.20
  -1   2  17   74.59   10.20
   0   2  17   94.19   10.00
   0   2  17   95.99    7.80
   0   2  17   95.59    7.20
   1   2  17   58.99    6.20
   1   2  17   63.39    7.10
   1   2  17   61.29    5.70
  -2  -2 -17    0.50    7.30
   2   2  17    7.40    2.90
   2   2  17    5.10    3.20
  -2   3  17    3.40    5.30
  -2   3  17    4.40    3.10
  -1   3  17   26.40    4.10
  -1   3  17   23.70    4.20
  -1   3  17   33.30    7.70
   0   3  17   45.50    5.30
   0   3  17   36.50    4.80
   0   3  17   35.30    7.10
   1   3  17   29.10    5.60
   1   3  17   26.60    4.10
   1   3  17   22.20    4.40
  -2  -3 -17    6.60    8.40
   2   3  17    2.50    2.90
   2   3  17    2.30    2.70
  -2   4  17    5.50    6.20
  -2   4  17   11.00    4.00
  -1   4  17    2.80    2.40
  -1   4  17    3.50    3.00
  -1   4  17    5.30    5.40
   0  -4 -17    2.50    5.60
   0   4  17    1.90    2.40
   0   4  17   -0.60    4.00
   0   4  17    0.60    2.40
  -1  -4 -17   -1.50    5.60
   1   4  17    1.90    2.50
   1   4  17    1.90    2.50
  -2  -4 -17    7.70    9.10
   2   4  17   15.20    4.20
   2   4  17   14.90    3.50
  -1   5  17    7.10    3.20
  -1   5  17    5.90    6.30
  -1   5  17    3.40    3.40
   0  -5 -17    0.80    5.40
   0   5  17    3.10    3.00
   0   5  17    4.50    5.00
   0   5  17    6.30    3.00
  -1  -5 -17    5.10    6.40
   1   5  17    3.60    2.80
   1   5  17    4.10    2.60
  -1   6  17    6.10    4.10
  -1   6  17    4.40    3.20
  -1   6  17    9.90    7.40
   0  -6 -17    7.00    6.50
   0   6  17   -0.40    2.80
   0   6  17   -0.20    3.00
   0   6  17   -0.20    5.40
   1   6  17    5.00    3.00
   1   6  17    7.40    3.70
   1   5 -18   -4.20    7.60
  -1  -5  18    2.10    2.50
  -1  -5  18    2.50    5.10
   0   5 -18    5.60    8.40
   0  -5  18   26.20    5.00
   0  -5  18   29.10    5.10
   0  -5  18   26.10    7.30
  -1   5 -18    1.20    7.70
   1  -5  18   -4.20    4.20
   1  -5  18    5.70    3.30
   1  -5  18    2.50    2.90
   1   4 -18    4.30    8.40
  -1  -4  18   22.30    6.50
  -1  -4  18   22.30    4.20
   0  -4  18   36.50    5.50
   0  -4  18   51.19    6.30
   0  -4  18   43.20    7.90
  -1   4 -18    2.30    7.70
   1  -4  18   19.00    6.00
   1  -4  18   20.80    4.40
   1  -4  18   26.20    5.00
   1   3 -18    4.20    7.60
  -1  -3  18   12.90    3.40
  -1  -3  18   11.20    3.50
  -1  -3  18   11.80    5.30
   0  -3  18   28.80    4.60
   0  -3  18   23.90    4.60
   0  -3  18   25.30    6.20
  -1   3 -18   -1.60    6.30
   1  -3  18   17.60    5.40
   1  -3  18   11.60    3.70
   1  -3  18   13.70    4.00
  -2  -2  18    4.40    4.90
   1   2 -18    2.10    6.10
  -1  -2  18    8.50    4.60
  -1  -2  18    5.30    2.60
  -1  -2  18    9.40    3.20
   0   2 -18    1.00    5.50
   0  -2  18    3.00    2.70
   0  -2  18    8.20    4.30
   0  -2  18    5.20    2.60
  -1   2 -18   -0.30    5.90
   1  -2  18    8.70    3.30
   1  -2  18    9.50    3.30
   1  -2  18    6.60    4.10
  -2   2 -18   -3.20    5.80
   2  -2  18    6.20    3.60
   2  -2  18    8.30    3.60
  -2  -1  18    9.60    3.10
  -2  -1  18    7.60    5.60
   1   1 -18   -0.40    5.30
  -1  -1  18    5.20    2.70
  -1  -1  18    6.10    2.70
  -1  -1  18    4.10    4.10
   0   1 -18   -0.90    5.00
   0  -1  18    9.30    3.00
   0  -1  18   11.00    3.30
   0  -1  18   15.40    4.90
  -1   1 -18    0.40    6.40
   1  -1  18    8.70    4.10
   1  -1  18    5.40    2.80
   1  -1  18    5.90    2.80
  -2   1 -18    0.90    7.30
   2  -1  18   11.10    3.70
   2  -1  18    7.50    3.40
  -2   0  18   13.70    3.50
  -2   0  18   17.50    6.10
   1   0 -18    0.20    6.00
  -1   0  18    1.20    2.40
  -1   0  18    1.30    2.20
  -1   0  18    6.80    4.80
   0   0  18   20.20    3.80
   0   0  18   22.20    5.60
   0   0  18   22.20    3.90
  -1   0 -18    0.60    5.60
   1   0  18    2.90    2.60
   1   0  18   -1.60    2.80
   1   0  18    3.30    2.50
  -2   0 -18    1.50    7.20
   2   0  18   18.20    4.00
   2   0  18   14.50    4.00
  -2   1  18   11.50    6.30
  -2   1  18   10.40    3.20
   1  -1 -18    0.80    5.50
  -1   1  18    9.70    3.00
  -1   1  18    7.20    2.80
  -1   1  18    5.20    4.80
   0  -1 -18   -1.00    4.50
   0   1  18   11.10    4.60
   0   1  18   14.20    3.40
   0   1  18    9.70    3.00
  -1  -1 -18   -1.00    6.10
   1   1  18    7.00    2.90
   1   1  18    6.50    3.00
  -2  -1 -18    1.10    7.90
   2   1  18    6.60    3.20
   2   1  18    9.20    3.30
  -2   2  18    6.10    5.30
  -2   2  18    7.70    3.20
  -1   2  18    4.80    4.70
  -1   2  18   11.20    3.10
  -1   2  18    9.50    3.00
   0  -2 -18    0.70    5.70
   0   2  18    6.70    2.70
   0   2  18    6.70    4.60
   0   2  18    4.30    2.60
  -1  -2 -18    4.00    6.30
   1   2  18   11.00    3.40
   1   2  18    6.20    2.70
  -2  -2 -18    2.80    7.80
   2   2  18    9.40    3.70
  -1   3  18   12.10    5.80
  -1   3  18   17.10    3.90
  -1   3  18   16.90    3.70
   0  -3 -18    5.80    6.10
   0   3  18   25.60    4.40
   0   3  18   23.20    4.10
   0   3  18   33.50    7.10
  -1  -3 -18    0.00    6.70
   1   3  18   12.00    3.30
   1   3  18   15.20    4.00
  -1   4  18   28.90    4.80
  -1   4  18   27.20    7.90
  -1   4  18   24.90    4.60
   0   4  18   43.80    8.60
   0   4  18   44.90    6.00
   0   4  18   49.80    5.90
   1   4  18   32.20    4.60
   1   4  18   25.40    4.80
  -1   5  18   -1.00    2.30
  -1   5  18    4.10    3.40
  -1   5  18   -1.00    5.70
   0  -5 -18    8.90    6.80
   0   5  18   25.70    4.70
   0   5  18   20.60    7.30
   0   5  18   35.90    5.40
  -1  -5 -18    4.70    7.00
   1   5  18   -1.10    2.60
   1   5  18    1.40    2.80
   0   4 -19   -3.30    6.70
   0  -4  19    4.60    5.10
   0  -4  19    2.70    3.00
   0  -4  19    4.20    2.90
   1   3 -19    3.40    7.40
  -1  -3  19    0.50    4.50
  -1  -3  19   -0.60    2.60
   0   3 -19    0.00    5.70
   0  -3  19    0.70    2.80
   0  -3  19    7.30    3.10
   0  -3  19    1.20    4.50
  -1   3 -19    5.10    8.20
   1  -3  19   -0.60    2.60
   1  -3  19   -3.00    2.50
   1   2 -19    1.40    6.80
  -1  -2  19    0.70    2.60
  -1  -2  19    1.80    4.10
  -1  -2  19    6.40    2.90
   0   2 -19   -0.50    5.80
   0  -2  19    2.90    4.20
   0  -2  19    3.20    2.70
   0  -2  19    3.40    2.60
  -1   2 -19    1.80    6.60
   1  -2  19    4.50    3.00
   1  -2  19   -0.20    2.50
   1   1 -19    6.20    6.80
  -1  -1  19    9.60    3.40
  -1  -1  19    6.30    2.90
  -1  -1  19   11.80    5.40
   0   1 -19    0.20    5.50
   0  -1  19   -3.30    3.50
   0  -1  19   -1.00    2.30
   0  -1  19   -2.80    1.80
  -1   1 -19    5.90    7.70
   1  -1  19    9.10    3.40
   1  -1  19   10.80    3.60
   1   0 -19    3.80    6.30
  -1   0  19   -0.30    2.20
  -1   0  19    2.60    4.50
  -1   0  19    0.10    2.50
   0   0 -19    2.60    5.70
   0   0  19    1.70    2.40
   0   0  19    2.60    4.00
   0   0  19   -1.50    2.00
  -1   0 -19    3.60    6.50
   1   0  19    0.00    2.50
   1   0  19    3.10    2.70
  -1   1  19   10.40    3.30
  -1   1  19    8.60    3.10
  -1   1  19    6.40    5.00
   0  -1 -19   -0.60    6.30
   0   1  19    1.70    2.30
   0   1  19    0.30    3.90
   0   1  19   -0.30    2.40
  -1  -1 -19   -2.60    6.30
   1   1  19   10.30    3.40
   1   1  19   13.50    3.40
  -1   2  19    4.20    2.90
  -1   2  19    5.50    2.90
  -1   2  19    6.00    5.10
   0  -2 -19    2.20    6.50
   0   2  19    3.80    2.80
   0   2  19    0.20    4.30
   0   2  19    2.60    2.70
  -1  -2 -19    2.20    7.50
   1   2  19    0.60    2.70
   1   2  19    3.30    2.70
  -1   3  19   -1.50    2.70
  -1   3  19    0.70    2.60
  -1   3  19    2.30    4.90
   0  -3 -19    1.50    6.70
   0   3  19    3.90    2.80
   0   3  19   -0.80    4.50
   0   3  19    5.40    3.10
  -1  -3 -19   -3.70    6.20
   1   3  19    2.50    2.80
   1   3  19    0.60    2.60
   0  -4 -19   -0.60    6.30
   0   4  19    4.30    3.10
   0   4  19    3.80    3.00
   0   4  19    0.90    4.90
   0   2 -20    2.50    7.00
   0  -2  20   35.20    7.60
   0  -2  20   22.70    4.60
   0  -2  20   28.20    5.00
   0   1 -20    2.70    6.70
   0  -1  20    7.60    4.70
   0  -1  20   10.70    3.70
   0  -1  20   10.30    3.70
   0   0 -20    1.60    6.80
   0   0  20    1.40    3.90
   0   0  20   -1.50    2.20
   0   0  20   -0.20    2.40
   0  -1 -20   -1.00    5.80
   0   1  20    6.40    3.20
   0   1  20   16.10    5.50
   0   1  20    8.90    3.30
   0  -2 -20    1.80    7.20
   0   2  20   27.40    4.80
   0   2  20   21.90    6.40
   0   2  20   26.50    4.70
;
_shelx_res_checksum              67217
_shelx_res_file
;
REM Solution 1  R1  0.127  Rweak  0.016,  Alpha = 0.0006  in P2(1)2(1)2(1)
REM Flack x = -0.802 ( 1.701 ) from Parsons' quotients
REM Formula:  C7 N3 O
TITL DABNO2 in P2(1)2(1)2(1)
CELL  0.71073   3.7492  10.2864  17.2379   90.000   90.000   90.000
ZERR    4.00   0.00060   0.00190   0.00300   0.0000   0.0000   0.0000
LATT -1
SYMM 1/2-X, -Y, 1/2+Z
SYMM -X, 1/2+Y, 1/2-Z
SYMM 1/2+X, 1/2-Y, -Z
SFAC C H N O
UNIT 24 28 12 8
TEMP -74.000
SIZE 0.05 0.50 0.65
ACTA
L.S. 10
FMAP 2
PLAN 20 0 0.00
BOND $H
OMIT 0 1 1  !behind beamstop
HTAB
REM Instructions for potential hydrogen bonds
EQIV $1 -x+2, y+1/2, -z+3/2
HTAB N1 N2_$1
EQIV $2 -x+3/2, -y+2, z-1/2
HTAB N1 O1_$2
HTAB N1 O2_$2
HTAB N2 O1_$2
EQIV $3 x-1/2, -y+3/2, -z+2
HTAB N2 O2_$3
HTAB C3 O2_$3
MPLA 6 C1 C2 C3 C4 C5 C6 N1 N2 N3 H1A H1B H2A H2B
MPLA 3 N3 O1 O2
RTAB table N1 N2
CONF
MERG 2
WGHT    0.039100
FVAR       1.06834
O1    4    0.959224    1.034202    1.123066    11.00000    0.09057    0.04962 =
         0.03054   -0.00781   -0.00528   -0.00739
O2    4    0.706998    0.852896    1.089629    11.00000    0.08107    0.03600 =
         0.03887    0.00715    0.00971   -0.00700
N1    3    0.947546    1.102583    0.762688    11.00000    0.06574    0.04839 =
         0.02823    0.00691   -0.00080   -0.01184
H1A   2    1.060271    1.173701    0.747826    11.00000    0.06743
H1B   2    0.850353    1.055295    0.725945    11.00000    0.05487
N2    3    0.643249    0.860495    0.799848    11.00000    0.05045    0.03387 =
         0.03294   -0.00599   -0.00306   -0.00435
H2A   2    0.543192    0.902149    0.759421    11.00000    0.05582
H2B   2    0.524515    0.803659    0.818428    11.00000    0.06579
N3    3    0.848587    0.958309    1.072510    11.00000    0.04699    0.03140 =
         0.03039   -0.00114    0.00250    0.00571
C1    1    0.924884    1.066011    0.838124    11.00000    0.03056    0.02932 =
         0.03009    0.00176    0.00248    0.00469
C2    1    0.766573    0.944874    0.858837    11.00000    0.02984    0.02481 =
         0.03119   -0.00423   -0.00009    0.00442
C3    1    0.749187    0.909924    0.935764    11.00000    0.03244    0.02116 =
         0.03466   -0.00138    0.00385    0.00263
AFIX  43
H3    2    0.646127    0.829103    0.950216    11.00000   -1.20000
AFIX   0
C4    1    0.882766    0.993118    0.992370    11.00000    0.03355    0.02490 =
         0.02816   -0.00134    0.00220    0.00583
C5    1    1.038041    1.111639    0.973641    11.00000    0.03180    0.02637 =
         0.03163   -0.00498    0.00016    0.00089
AFIX  43
H5    2    1.129157    1.167124    1.012989    11.00000   -1.20000
AFIX   0
C6    1    1.056659    1.146666    0.896888    11.00000    0.03345    0.02530 =
         0.03803    0.00088    0.00230   -0.00105
AFIX  43
H6    2    1.161539    1.227616    0.883345    11.00000   -1.20000
rem Cg    2    11.903  11.029  10.916  10.0  10.05
AFIX   0
HKLF 4
REM  DABNO2 in P2(1)2(1)2(1)
REM R1 =  0.0301 for    1010 Fo > 4sig(Fo)  and  0.0374 for all    1170 data
REM    116 parameters refined using      0 restraints
END
WGHT      0.0391      0.0000
REM Instructions for potential hydrogen bonds
HTAB N1 N2_$1
HTAB N1 O1_$2
HTAB N1 O2_$2
HTAB N2 O1_$2
HTAB N2 O2_$3
HTAB C3 O2_$3
REM Highest difference peak  0.119,  deepest hole -0.147,  1-sigma level  0.036
Q1    1   0.5759  0.6602  0.8425  11.00000  0.05    0.12
Q2    1   1.2367  0.9707  0.9400  11.00000  0.05    0.10
Q3    1   1.3203  1.1143  1.1377  11.00000  0.05    0.10
Q4    1   0.3662  0.8637  1.1420  11.00000  0.05    0.10
Q5    1   0.9762  0.9189  0.9629  11.00000  0.05    0.10
Q6    1   0.4253  0.9627  0.9768  11.00000  0.05    0.10
Q7    1   1.1333  0.9392  1.1408  11.00000  0.05    0.10
Q8    1   1.3667  1.0575  1.1407  11.00000  0.05    0.09
Q9    1   1.2275  1.0227  1.0789  11.00000  0.05    0.09
Q10   1   1.5021  1.2071  0.7943  11.00000  0.05    0.09
Q11   1   1.2691  1.0129  1.0455  11.00000  0.05    0.09
Q12   1   1.2277  1.1138  1.0077  11.00000  0.05    0.08
Q13   1   1.4257  1.1270  0.6942  11.00000  0.05    0.08
Q14   1   1.2016  0.8765  1.0235  11.00000  0.05    0.08
Q15   1   0.1321  0.8561  0.7617  11.00000  0.05    0.08
Q16   1   0.2374  0.8189  0.9824  11.00000  0.05    0.08
Q17   1   0.3157  0.9039  0.8451  11.00000  0.05    0.08
Q18   1   0.2556  0.9202  0.8748  11.00000  0.05    0.08
Q19   1   1.3779  0.9810  1.1015  11.00000  0.05    0.08
Q20   1   1.0691  1.0908  0.8725  11.00000  0.05    0.08
;
#END Tags that were not found in dictionaries
loop_
_space_group_symop_operation_xyz
'x, y, z'
'-x+1/2, -y, z+1/2'
'-x, y+1/2, -z+1/2'
'x+1/2, -y+1/2, -z'
loop_
_atom_site_type_symbol
_atom_site_label
_atom_site_fract_x
_atom_site_fract_y
_atom_site_fract_z
_atom_site_U_iso_or_equiv
_atom_site_adp_type
_atom_site_calc_flag
_atom_site_occupancy
O O1 0.9592(5) 1.03420(17) 1.12307(9) 0.0569(6) Uani d 1
O O2 0.7070(5) 0.85290(16) 1.08963(9) 0.0520(5) Uani d 1
N N1 0.9475(7) 1.1026(2) 0.76269(11) 0.0475(6) Uani d 1
H H1A 1.060(7) 1.174(3) 0.7478(15) 0.067(10) Uiso d 1
H H1B 0.850(7) 1.055(3) 0.7259(15) 0.055(8) Uiso d 1
N N2 0.6432(6) 0.8605(2) 0.79985(12) 0.0391(5) Uani d 1
H H2A 0.543(7) 0.902(3) 0.7594(17) 0.056(8) Uiso d 1
H H2B 0.525(8) 0.804(3) 0.8184(17) 0.066(10) Uiso d 1
N N3 0.8486(5) 0.95831(19) 1.07251(9) 0.0363(5) Uani d 1
C C1 0.9249(6) 1.0660(2) 0.83812(11) 0.0300(5) Uani d 1
C C2 0.7666(6) 0.9449(2) 0.85884(11) 0.0286(5) Uani d 1
C C3 0.7492(5) 0.90992(19) 0.93576(11) 0.0294(5) Uani d 1
H H3 0.6461 0.8291 0.9502 0.035 Uiso calc 1
C C4 0.8828(5) 0.9931(2) 0.99237(11) 0.0289(5) Uani d 1
C C5 1.0380(5) 1.11164(19) 0.97364(12) 0.0299(5) Uani d 1
H H5 1.1292 1.1671 1.013 0.036 Uiso calc 1
C C6 1.0567(6) 1.1467(2) 0.89689(12) 0.0323(5) Uani d 1
H H6 1.1615 1.2276 0.8833 0.039 Uiso calc 1
loop_
_atom_site_aniso_label
_atom_site_aniso_U_11
_atom_site_aniso_U_22
_atom_site_aniso_U_33
_atom_site_aniso_U_12
_atom_site_aniso_U_13
_atom_site_aniso_U_23
O1 0.0906(14) 0.0496(11) 0.0305(8) -0.0074(11) -0.0053(9) -0.0078(8)
O2 0.0811(13) 0.0360(9) 0.0389(9) -0.0070(10) 0.0097(9) 0.0071(8)
N1 0.0657(16) 0.0484(13) 0.0282(10) -0.0118(12) -0.0008(10) 0.0069(10)
N2 0.0504(13) 0.0339(11) 0.0329(10) -0.0044(11) -0.0031(10) -0.0060(9)
N3 0.0470(12) 0.0314(11) 0.0304(9) 0.0057(9) 0.0025(8) -0.0011(9)
C1 0.0306(11) 0.0293(12) 0.0301(10) 0.0047(9) 0.0025(9) 0.0018(9)
C2 0.0298(12) 0.0248(10) 0.0312(10) 0.0044(10) -0.0001(9) -0.0042(9)
C3 0.0324(11) 0.0212(10) 0.0347(10) 0.0026(10) 0.0039(11) -0.0014(9)
C4 0.0335(12) 0.0249(11) 0.0282(10) 0.0058(10) 0.0022(8) -0.0013(8)
C5 0.0318(12) 0.0264(11) 0.0316(10) 0.0009(10) 0.0002(10) -0.0050(9)
C6 0.0335(11) 0.0253(10) 0.0380(11) -0.0010(10) 0.0023(9) 0.0009(9)
loop_
_atom_type_symbol
_atom_type_description
_atom_type_scat_dispersion_real
_atom_type_scat_dispersion_imag
_atom_type_scat_source
C C 0.0033 0.0016 'International Tables Vol C Tables 4.2.6.8 and 6.1.1.4'
H H 0.0000 0.0000 'International Tables Vol C Tables 4.2.6.8 and 6.1.1.4'
N N 0.0061 0.0033 'International Tables Vol C Tables 4.2.6.8 and 6.1.1.4'
O O 0.0106 0.0060 'International Tables Vol C Tables 4.2.6.8 and 6.1.1.4'
loop_
_geom_angle_atom_site_label_1
_geom_angle_atom_site_label_2
_geom_angle_atom_site_label_3
_geom_angle
C1 N1 H1A 122.5(18)
C1 N1 H1B 120.8(17)
H1A N1 H1B 117.(2)
C2 N2 H2A 113.6(18)
C2 N2 H2B 110.(2)
H2A N2 H2B 115.(3)
O1 N3 O2 121.65(17)
O1 N3 C4 119.33(19)
O2 N3 C4 119.02(18)
N1 C1 C6 120.5(2)
N1 C1 C2 120.6(2)
C6 C1 C2 118.94(17)
C3 C2 N2 121.1(2)
C3 C2 C1 119.32(18)
N2 C2 C1 119.50(18)
C2 C3 C4 119.89(19)
C2 C3 H3 120.1
C4 C3 H3 120.1
C5 C4 C3 121.86(18)
C5 C4 N3 118.74(18)
C3 C4 N3 119.36(18)
C6 C5 C4 118.40(19)
C6 C5 H5 120.8
C4 C5 H5 120.8
C5 C6 C1 121.6(2)
C5 C6 H6 119.2
C1 C6 H6 119.2
loop_
_geom_bond_atom_site_label_1
_geom_bond_atom_site_label_2
_geom_bond_distance
O1 N3 1.241(2)
O2 N3 1.243(2)
N1 C1 1.356(3)
N1 H1A 0.88(3)
N1 H1B 0.88(3)
N2 C2 1.415(3)
N2 H2A 0.90(3)
N2 H2B 0.80(3)
N3 C4 1.433(3)
C1 C6 1.399(3)
C1 C2 1.426(3)
C2 C3 1.375(3)
C3 C4 1.391(3)
C3 H3 0.95
C4 C5 1.389(3)
C5 C6 1.373(3)
C5 H5 0.95
C6 H6 0.95
loop_
_geom_hbond_atom_site_label_D
_geom_hbond_atom_site_label_H
_geom_hbond_atom_site_label_A
_geom_hbond_site_symmetry_A
_geom_hbond_distance_DH
_geom_hbond_distance_HA
_geom_hbond_distance_DA
_geom_hbond_angle_DHA
_geom_hbond_publ_flag
N1 H1A N2 3_756 0.88(3) 2.37(3) 3.249(3) 177(2) yes
N1 H1B O1 2_674 0.88(3) 2.31(3) 3.178(3) 169(2) yes
N1 H1B O2 2_674 0.88(3) 2.54(3) 3.073(3) 120(2) yes
N2 H2A O1 2_674 0.90(3) 2.44(3) 3.257(3) 151(2) yes
N2 H2B O2 4_467 0.80(3) 2.55(3) 3.335(3) 165(3) yes
C3 H3 O2 4_467 0.95 2.59 3.411(3) 145 yes
loop_
_geom_torsion_atom_site_label_1
_geom_torsion_atom_site_label_2
_geom_torsion_atom_site_label_3
_geom_torsion_atom_site_label_4
_geom_torsion
N1 C1 C2 C3 179.6(2)
C6 C1 C2 C3 -0.4(3)
N1 C1 C2 N2 2.1(3)
C6 C1 C2 N2 -177.9(2)
N2 C2 C3 C4 177.97(19)
C1 C2 C3 C4 0.5(3)
C2 C3 C4 C5 -0.5(3)
C2 C3 C4 N3 177.19(19)
O1 N3 C4 C5 -0.3(3)
O2 N3 C4 C5 179.37(18)
O1 N3 C4 C3 -178.08(19)
O2 N3 C4 C3 1.6(3)
C3 C4 C5 C6 0.3(3)
N3 C4 C5 C6 -177.4(2)
C4 C5 C6 C1 -0.2(3)
N1 C1 C6 C5 -179.8(2)
C2 C1 C6 C5 0.2(3)
