#------------------------------------------------------------------------------
#$Date: 2016-02-20 00:18:51 +0200 (Sat, 20 Feb 2016) $
#$Revision: 176760 $
#$URL: svn://www.crystallography.net/cod/cif/2/01/95/2019596.cif $
#------------------------------------------------------------------------------
#
# This file is available in the Crystallography Open Database (COD),
# http://www.crystallography.net/. The original data for this entry
# were provided by IUCr Journals, http://journals.iucr.org/.
#
# The file may be used within the scientific community so long as
# proper attribution is given to the journal article from which the
# data were obtained.
#
data_2019596
loop_
_publ_author_name
'Benali-Cherif, Rim'
'Takouachet, Radhwane'
'Bendeif, El-Eulmi'
'Benali-Cherif, Nourredine'
_publ_section_title
;
 A comparative study of two polymorphs of <small>L</small>-aspartic acid
 hydrochloride
;
_journal_coeditor_code           SK3547
_journal_issue                   7
_journal_name_full               'Acta Crystallographica Section C'
_journal_page_first              689
_journal_page_last               692
_journal_paper_doi               10.1107/S2053229614013163
_journal_volume                  70
_journal_year                    2014
_chemical_formula_iupac          'C4 H8 N O4 +, Cl -'
_chemical_formula_moiety         'C4 H8 N O4 +, Cl -'
_chemical_formula_sum            'C4 H8 Cl N O4'
_chemical_formula_weight         169.56
_chemical_name_common            'L-Aspartate chloride'
_chemical_name_systematic
;
<i>L</i>-Aspartic acid hydrochloride
;
_space_group_crystal_system      triclinic
_space_group_IT_number           1
_space_group_name_Hall           'P 1'
_space_group_name_H-M_alt        'P 1'
_symmetry_space_group_name_Hall  'P 1'
_symmetry_space_group_name_H-M   'P 1'
_atom_sites_solution_hydrogens   difmap
_atom_sites_solution_primary     direct
_atom_sites_solution_secondary   difmap
_cell_angle_alpha                114.570(10)
_cell_angle_beta                 97.752(9)
_cell_angle_gamma                95.720(8)
_cell_formula_units_Z            1
_cell_length_a                   5.5888(5)
_cell_length_b                   5.6045(6)
_cell_length_c                   6.1697(7)
_cell_measurement_reflns_used    4428
_cell_measurement_temperature    100(2)
_cell_measurement_theta_max      32.777
_cell_measurement_theta_min      3.702
_cell_volume                     171.52(4)
_computing_cell_refinement
;
CrysAlis PRO (Agilent, 2012)
;
_computing_data_collection
;
CrysAlis PRO (Agilent, 2012)
;
_computing_data_reduction
;
CrysAlis PRO (Agilent, 2012)
;
_computing_molecular_graphics
;
Mercury (Macrae <i>et al.</i>, 2006) and PLATON (Spek, 2003).
;
_computing_publication_material  'enCIFer (Allen <i>et al.</i>, 2004)'
_computing_structure_refinement
;
SHELXL2014 (Sheldrick, 2008) and WinGX (Farrugia, 2012)
;
_computing_structure_solution    'SHELXS2014 (Sheldrick, 2008)'
_diffrn_ambient_temperature      100(2)
_diffrn_detector_area_resol_mean 10.4508
_diffrn_measured_fraction_theta_full 1.000
_diffrn_measured_fraction_theta_max 0.920
_diffrn_measurement_device_type  'Agilent SuperNova (Dual, Cu at zero, Atlas)'
_diffrn_measurement_method       '\w scans'
_diffrn_radiation_type           MoK\a
_diffrn_radiation_wavelength     0.71073
_diffrn_reflns_av_R_equivalents  0.0202
_diffrn_reflns_limit_h_max       8
_diffrn_reflns_limit_h_min       -8
_diffrn_reflns_limit_k_max       8
_diffrn_reflns_limit_k_min       -8
_diffrn_reflns_limit_l_max       9
_diffrn_reflns_limit_l_min       -9
_diffrn_reflns_number            4428
_diffrn_reflns_theta_full        25.242
_diffrn_reflns_theta_max         32.777
_diffrn_reflns_theta_min         3.702
_exptl_absorpt_coefficient_mu    0.512
_exptl_absorpt_correction_T_max  0.981
_exptl_absorpt_correction_T_min  0.963
_exptl_absorpt_correction_type   analytical
_exptl_absorpt_process_details
;
[<i>CrysAlis PRO</i> (Agilent, 2012), using a multifaceted crystal
model based on expressions derived by Clark & Reid (1995)]
;
_exptl_crystal_colour            colourless
_exptl_crystal_density_diffrn    1.642
_exptl_crystal_density_method    'not measured'
_exptl_crystal_description       prism
_exptl_crystal_F_000             88
_exptl_crystal_size_max          0.138
_exptl_crystal_size_mid          0.091
_exptl_crystal_size_min          0.057
_refine_diff_density_max         0.298
_refine_diff_density_min         -0.176
_refine_ls_abs_structure_details
;
Flack <i>x</i> determined using 1069 quotients [(I+)-(I-)]/[(I+)+(I-)]
(Parsons <i>et al.</i>, 2013)
;
_refine_ls_abs_structure_Flack   0.03(3)
_refine_ls_extinction_method     none
_refine_ls_goodness_of_fit_ref   1.049
_refine_ls_hydrogen_treatment    refall
_refine_ls_matrix_type           full
_refine_ls_number_parameters     123
_refine_ls_number_reflns         2273
_refine_ls_number_restraints     3
_refine_ls_restrained_S_all      1.048
_refine_ls_R_factor_all          0.0220
_refine_ls_R_factor_gt           0.0216
_refine_ls_shift/su_max          0.001
_refine_ls_shift/su_mean         0.000
_refine_ls_structure_factor_coef Fsqd
_refine_ls_weighting_details
'w=1/[\s^2^(Fo^2^)+(0.0330P)^2^] where P=(Fo^2^+2Fc^2^)/3'
_refine_ls_weighting_scheme      calc
_refine_ls_wR_factor_gt          0.0537
_refine_ls_wR_factor_ref         0.0543
_reflns_number_gt                2259
_reflns_number_total             2273
_reflns_threshold_expression     I>2\s(I)
_cod_data_source_file            sk3547sup1.cif
_cod_data_source_block           I
_cod_depositor_comments
'Adding full bibliography for 2019595--2019596.cif.'
_cod_original_cell_volume        171.52(3)
_cod_database_code               2019596
_cod_database_fobs_code          2019596
#BEGIN Tags that were not found in dictionaries:
_shelx_space_group_comment
;
The symmetry employed for this shelxl refinement is uniquely defined
by the following loop, which should always be used as a source of
symmetry information in preference to the above space-group names.
They are only intended as comments.
;
_shelx_estimated_absorpt_t_min   0.933
_shelx_estimated_absorpt_t_max   0.971
_shelx_hkl_checksum              68301
_shelx_hkl_file
;
  -8  -1   0 3858.13 282.800   8
  -8  -1   1 4207.46 296.116   2
  -8   0  -1 1693.95 181.235   8
  -8   0   0 195.219 60.1050   2
  -8   0   1 3938.28 279.808   2
  -8   0   2 2561.97 226.653   2
  -8   1  -1 4603.76 282.865   7
  -8   1   0 837.518 122.627   2
  -8   1   1 4897.83 308.461   2
  -8   1   2 5622.32 341.931   2
  -8   2   0 2251.66 199.899   2
  -8   2   1 2167.40 205.663   2
  -8   3   0 12217.4 501.516   2
  -7  -3   2 523.081 104.664   4
  -7  -3   3 623.360 125.967   2
  -7  -3   3 745.423 118.419   4
  -7  -3   4 3011.06 233.723   4
  -7  -2   0 170.230 59.4647   2
  -7  -2   1 696.352 118.204   2
  -7  -2   2 8929.12 445.730   2
  -7  -2   3 3209.64 260.745   2
  -7  -2   4 893.544 143.077   2
  -7  -2   5 3137.30 267.446   2
  -7  -1  -2 614.376 117.473   8
  -7  -1  -1 3746.64 245.851   2
  -7  -1  -1 3821.85 282.511   8
  -7  -1   0 4028.92 268.718   2
  -7  -1   1 1294.47 150.654   2
  -7  -1   2 2682.98 224.427   2
  -7  -1   3 3042.05 246.486   2
  -7  -1   4 971.041 141.306   2
  -7  -1   5 5107.83 336.775   2
  -7   0  -2 1094.56 149.647   8
  -7   0  -1 113.014 51.0240   7
  -7   0  -1 101.729 60.1739   8
  -7   0  -1 71.5104 43.4554   2
  -7   0   0 9845.45 412.461   2
  -7   0   1 7862.75 376.425   2
  -7   0   2 1880.19 183.100   2
  -7   0   3 2347.80 210.892   2
  -7   0   4 4965.73 318.925   2
  -7   0   5 1314.42 164.675   2
  -7   1  -3 566.677 92.3896   7
  -7   1  -3 688.988 120.109   8
  -7   1  -2 4968.69 277.404   7
  -7   1  -2 4894.81 297.858   8
  -7   1  -1 2583.82 186.872   2
  -7   1  -1 2925.45 210.425   8
  -7   1   0 1050.52 125.783   2
  -7   1   0 1176.71 121.106   8
  -7   1   1 3775.01 247.252   2
  -7   1   2 1632.17 169.972   2
  -7   1   3 9407.91 433.969   2
  -7   1   4 2350.94 217.380   2
  -7   2  -4 1052.37 138.990   7
  -7   2  -4 1113.37 149.083   8
  -7   2  -3 1701.77 172.650   8
  -7   2  -3 1777.16 172.985   7
  -7   2  -2 4813.64 269.811   8
  -7   2  -2 4563.66 281.072   7
  -7   2  -1 6889.74 318.647   2
  -7   2   0 1657.12 158.688   2
  -7   2   1 3770.61 252.465   2
  -7   2   2 6540.77 352.263   2
  -7   2   3 1985.48 197.978   2
  -7   3  -3 5916.40 339.988   7
  -7   3  -2 3798.95 265.156   7
  -7   3  -1 3259.20 218.827   2
  -7   3   0 1154.04 137.888   2
  -7   3   1 4709.03 291.298   2
  -7   3   2 5903.11 342.848   2
  -7   3   3 3227.75 259.744   2
  -7   4  -2 3519.20 267.318   7
  -7   4  -1 2511.91 201.053   2
  -7   4   0 8517.64 402.938   2
  -7   4   1 213.366 65.7523   2
  -7   5  -1 3967.82 270.369   2
  -7   5   0 4961.55 320.194   2
  -6  -4   1 2111.98 204.485   4
  -6  -4   2 4384.94 255.980   3
  -6  -4   2 4803.77 304.083   4
  -6  -4   3 4789.29 299.334   4
  -6  -4   4 358.000 84.2922   4
  -6  -4   5 330.414 74.9530   4
  -6  -3  -1 46.8473 47.3666   4
  -6  -3   0 5119.05 312.931   4
  -6  -3   1 2900.83 227.336   4
  -6  -3   2 5414.33 307.392   4
  -6  -3   3 4034.63 257.796   4
  -6  -3   4 5160.09 289.137   4
  -6  -3   5 2319.03 225.066   2
  -6  -3   5 2202.14 178.793   4
  -6  -3   6 2028.42 211.246   2
  -6  -2  -2 2541.12 241.160   8
  -6  -2  -1 662.621 106.928   4
  -6  -2   0 3992.56 260.774   4
  -6  -2   1 11796.7 462.494   4
  -6  -2   2 2800.12 207.578   4
  -6  -2   3 651.111 106.931   2
  -6  -2   3 976.867 118.057   4
  -6  -2   4 6349.62 303.271   4
  -6  -2   4 6398.84 353.600   2
  -6  -2   5 3168.96 250.127   2
  -6  -2   6 1528.82 176.493   2
  -6  -2   7 4322.06 301.479   2
  -6  -1  -3 392.502 98.3022   8
  -6  -1  -2 2699.34 236.764   8
  -6  -1  -1 5951.85 296.872   2
  -6  -1  -1 5766.98 240.631   7
  -6  -1   0 626.806 97.4939   2
  -6  -1   1 4518.92 266.002   2
  -6  -1   2 7084.62 344.389   2
  -6  -1   3 7850.57 371.588   2
  -6  -1   4 3779.84 257.437   2
  -6  -1   5 1523.43 169.043   2
  -6  -1   6 2482.24 218.392   2
  -6  -1   7 1979.04 197.931   2
  -6   0  -4 1721.28 195.976   8
  -6   0  -3 4093.71 289.121   8
  -6   0  -2 3483.64 247.008   8
  -6   0  -2 3547.78 203.357   7
  -6   0  -2 3925.70 209.171   2
  -6   0  -1 9186.17 386.282   8
  -6   0  -1 9442.16 358.618   2
  -6   0   0 2985.20 198.327   2
  -6   0   1 5039.77 270.880   2
  -6   0   2 8430.76 367.390   2
  -6   0   3 3033.46 218.293   2
  -6   0   4 2945.00 223.393   2
  -6   0   5 5536.21 320.882   2
  -6   0   6 2978.61 241.778   2
  -6   1  -4 1007.94 143.614   8
  -6   1  -3 3698.04 226.274   7
  -6   1  -3 3484.15 248.022   8
  -6   1  -2 2803.10 204.771   8
  -6   1  -2 2771.34 190.128   7
  -6   1  -2 2967.44 170.943   2
  -6   1  -1 1718.05 145.571   8
  -6   1  -1 1967.78 149.513   2
  -6   1   0 7609.93 321.875   2
  -6   1   0 8034.23 305.083   8
  -6   1   1 6491.03 303.829   2
  -6   1   2 7861.05 350.627   2
  -6   1   3 2007.60 177.919   2
  -6   1   4 2995.33 228.310   2
  -6   1   5 4179.22 281.917   2
  -6   1   6 2788.58 236.520   2
  -6   2  -5 1168.43 160.363   8
  -6   2  -4 8818.67 411.264   8
  -6   2  -4 8680.57 388.146   7
  -6   2  -3 3861.97 242.764   7
  -6   2  -3 3969.38 246.636   8
  -6   2  -2 2180.43 147.095   2
  -6   2  -2 2027.88 160.660   8
  -6   2  -2 1749.00 161.527   7
  -6   2  -1 8122.72 321.733   2
  -6   2  -1 8380.16 308.052   8
  -6   2   0 6191.01 289.555   2
  -6   2   0 6449.02 234.137   8
  -6   2   1 3339.14 216.936   2
  -6   2   2 751.201 108.041   2
  -6   2   3 14289.6 527.344   2
  -6   2   4 3458.52 251.558   2
  -6   2   5 2086.14 205.585   2
  -6   3  -5 1991.42 195.411   8
  -6   3  -4 829.966 120.411   7
  -6   3  -4 544.730 97.5367   8
  -6   3  -3 3860.87 227.439   8
  -6   3  -3 3681.87 248.985   7
  -6   3  -2 4596.54 222.038   8
  -6   3  -2 4702.58 229.773   2
  -6   3  -1 5722.26 273.310   2
  -6   3   0 6516.31 309.209   2
  -6   3   1 3356.70 227.657   2
  -6   3   2 2420.75 203.317   2
  -6   3   3 925.998 131.710   2
  -6   3   4 8165.25 413.795   2
  -6   4  -5 5650.36 321.558   8
  -6   4  -4 1600.17 151.649   8
  -6   4  -4 1612.15 175.322   7
  -6   4  -3 7439.47 377.958   7
  -6   4  -2 6083.31 285.151   2
  -6   4  -1 2774.93 198.272   2
  -6   4   0 577.711 96.6843   2
  -6   4   1 8616.30 398.244   2
  -6   4   2 8588.75 415.147   2
  -6   4   3 2018.00 204.912   2
  -6   5  -4 4349.04 299.084   7
  -6   5  -3 5350.69 330.523   7
  -6   5  -2 6201.90 308.998   2
  -6   5  -2 6068.70 346.383   7
  -6   5  -1 1934.53 178.373   2
  -6   5   0 5962.37 335.390   2
  -6   5   1 519.120 107.558   2
  -6   6  -2 1620.24 166.539   2
  -6   6  -1 5994.96 345.311   2
  -5  -6   3 540.113 105.706   3
  -5  -6   4 2099.31 200.348   3
  -5  -5   0 728.469 127.180   3
  -5  -5   1 3033.66 239.254   3
  -5  -5   1 2984.17 243.411   4
  -5  -5   2 1350.24 153.942   3
  -5  -5   3 4208.61 261.242   3
  -5  -5   4 5335.17 290.877   3
  -5  -5   5 3657.86 233.873   3
  -5  -5   6 491.944 89.6442   4
  -5  -4  -1 537.409 96.3482   4
  -5  -4   0 4819.01 297.837   4
  -5  -4   0 4739.91 286.926   3
  -5  -4   1 3352.82 241.447   4
  -5  -4   1 3040.27 217.623   3
  -5  -4   2 1121.03 121.688   3
  -5  -4   2 1109.98 133.895   4
  -5  -4   3 2764.55 186.972   3
  -5  -4   3 2986.55 218.555   4
  -5  -4   4 11878.8 453.837   4
  -5  -4   4 12012.5 407.872   3
  -5  -4   5 5429.83 286.780   4
  -5  -4   6 1100.11 123.243   4
  -5  -4   7 3224.06 260.054   2
  -5  -4   8 2674.91 233.450   2
  -5  -3  -3 799.249 119.023   4
  -5  -3  -2 1710.87 170.455   4
  -5  -3  -1 14050.4 513.126   4
  -5  -3   0 464.789 82.4435   3
  -5  -3   0 412.819 84.7014   4
  -5  -3   1 4956.14 248.022   3
  -5  -3   1 4964.07 274.911   4
  -5  -3   2 7364.08 293.707   3
  -5  -3   2 8340.53 352.197   4
  -5  -3   3 4159.15 199.481   3
  -5  -3   3 3972.10 234.709   4
  -5  -3   4 2146.70 163.136   4
  -5  -3   4 2297.21 141.761   3
  -5  -3   5 6813.00 297.845   4
  -5  -3   5 7145.47 365.168   2
  -5  -3   6 7649.31 304.014   4
  -5  -3   6 7297.19 380.090   2
  -5  -3   7 3207.34 246.480   2
  -5  -3   8 3482.09 257.745   2
  -5  -2  -3 2554.96 239.465   8
  -5  -2  -2 3971.16 249.492   4
  -5  -2  -1 2973.25 207.024   4
  -5  -2   0 12970.1 448.862   4
  -5  -2   0 11889.9 312.371   7
  -5  -2   1 10318.7 331.781   3
  -5  -2   1 9899.44 380.083   4
  -5  -2   2 14351.2 459.653   4
  -5  -2   2 13875.3 375.338   3
  -5  -2   3 13099.2 428.717   4
  -5  -2   3 13234.9 338.495   3
  -5  -2   4 4066.77 256.900   2
  -5  -2   4 4302.30 222.917   4
  -5  -2   5 9659.54 336.886   4
  -5  -2   5 9381.62 410.337   2
  -5  -2   6 6954.53 353.415   2
  -5  -2   7 3242.43 242.186   2
  -5  -2   8 138.318 45.8607   2
  -5  -1  -4 2579.84 236.279   8
  -5  -1  -3 9416.06 436.909   8
  -5  -1  -2 4332.58 188.417   7
  -5  -1  -1 4659.25 248.143   4
  -5  -1  -1 4637.64 194.197   7
  -5  -1   0 10926.7 393.972   4
  -5  -1   1 18535.3 534.237   4
  -5  -1   2 15938.1 472.073   4
  -5  -1   2 15770.9 508.270   2
  -5  -1   3 5152.14 271.327   2
  -5  -1   4 5870.22 298.214   2
  -5  -1   5 5460.93 296.770   2
  -5  -1   6 5014.21 289.877   2
  -5  -1   7 1684.17 169.601   2
  -5  -1   8 7692.20 385.195   2
  -5   0  -5 972.090 149.498   8
  -5   0  -4 10461.7 469.463   8
  -5   0  -3 4302.50 270.565   8
  -5   0  -2 6510.29 262.641   7
  -5   0  -2 6873.27 262.256   2
  -5   0  -2 6801.94 319.912   8
  -5   0  -1 2016.13 141.506   2
  -5   0   0 9009.64 330.366   2
  -5   0   1 16652.9 494.385   2
  -5   0   2 6146.64 281.565   2
  -5   0   3 31931.5 799.915   2
  -5   0   4 10437.6 406.020   2
  -5   0   5 818.009 112.395   2
  -5   0   6 3414.15 239.692   2
  -5   0   7 4842.77 297.263   2
  -5   1  -5 3785.59 275.362   8
  -5   1  -4 3854.96 256.819   8
  -5   1  -3 8406.58 253.485   2
  -5   1  -3 8266.84 361.886   8
  -5   1  -3 8357.26 330.711   7
  -5   1  -2 13335.3 422.764   7
  -5   1  -2 13840.7 385.103   2
  -5   1  -2 14014.7 452.408   8
  -5   1  -1 15970.9 465.022   8
  -5   1  -1 17339.2 461.423   2
  -5   1   0 2016.90 141.156   2
  -5   1   0 1607.76 76.2389   1
  -5   1   1 10595.5 312.922   1
  -5   1   1 9691.96 353.865   2
  -5   1   2 12508.6 423.352   2
  -5   1   3 5908.71 285.177   2
  -5   1   4 10581.7 416.396   2
  -5   1   5 4229.19 263.544   2
  -5   1   6 2543.77 213.071   2
  -5   1   7 2621.02 221.962   2
  -5   2  -6 5852.09 356.610   8
  -5   2  -5 5515.16 309.597  11
  -5   2  -5 5883.27 333.928   8
  -5   2  -4 984.273 115.994   7
  -5   2  -4 1005.83 122.537   8
  -5   2  -3 1956.74 159.237   8
  -5   2  -3 1869.96 108.271   2
  -5   2  -3 2013.14 160.561   7
  -5   2  -2 10863.0 364.634   8
  -5   2  -2 10719.8 385.301   7
  -5   2  -2 10691.5 326.766   2
  -5   2  -1 4497.69 209.657   2
  -5   2  -1 4509.52 196.667   8
  -5   2   0 9208.13 329.891   2
  -5   2   0 8554.14 251.286   8
  -5   2   1 11557.0 252.255   8
  -5   2   1 12127.8 405.527   2
  -5   2   2 10604.8 394.166   2
  -5   2   3 3808.63 234.771   2
  -5   2   4 1091.43 132.033   2
  -5   2   5 7214.03 363.193   2
  -5   2   6 4048.47 278.323   2
  -5   3  -6 404.416 96.4960   8
  -5   3  -6 423.567 90.0876  11
  -5   3  -5 4220.07 270.441   8
  -5   3  -4 12877.7 477.586   7
  -5   3  -4 12987.7 460.995   8
  -5   3  -3 4173.89 222.584   8
  -5   3  -3 4430.83 187.165   2
  -5   3  -3 4285.89 249.490   7
  -5   3  -2 3057.56 165.217   8
  -5   3  -2 2906.90 162.854   2
  -5   3  -1 4351.20 217.348   2
  -5   3  -1 4351.13 169.889   8
  -5   3   0 4852.50 243.098   2
  -5   3   1 10272.8 387.491   2
  -5   3   2 2637.40 195.107   2
  -5   3   3 9039.39 396.124   2
  -5   3   4 3380.42 245.408   2
  -5   3   5 1661.54 180.315   2
  -5   4  -6 2796.99 250.100  11
  -5   4  -6 3773.46 265.325   8
  -5   4  -5 730.381 110.757   8
  -5   4  -5 796.045 115.115   7
  -5   4  -4 7078.29 353.660   7
  -5   4  -4 7700.55 331.011   8
  -5   4  -3 5510.72 232.277   2
  -5   4  -3 5330.61 291.580   7
  -5   4  -3 5429.81 244.463   8
  -5   4  -2 3205.90 187.530   2
  -5   4  -2 3353.74 161.034   8
  -5   4  -1 11727.8 410.864   2
  -5   4   0 5200.83 271.670   2
  -5   4   1 1355.82 144.663   2
  -5   4   2 2055.76 188.380   2
  -5   4   3 2008.67 194.513   2
  -5   4   4 6212.63 364.441   2
  -5   5  -6 8080.29 396.312   8
  -5   5  -5 4813.14 275.149   8
  -5   5  -5 5080.74 315.447   7
  -5   5  -4 1224.28 122.690   8
  -5   5  -4 1092.43 141.260   7
  -5   5  -3 3834.38 258.196   7
  -5   5  -3 3925.08 215.656   2
  -5   5  -2 2305.07 174.747   2
  -5   5  -1 3943.57 242.944   2
  -5   5   0 5706.77 311.389   2
  -5   5   1 3219.20 244.183   2
  -5   5   2 6140.01 356.609   2
  -5   6  -4 1359.74 162.227   7
  -5   6  -3 8556.87 410.930   7
  -5   6  -3 8991.16 374.000   2
  -5   6  -2 5871.40 330.126   7
  -5   6  -2 5813.11 312.635   2
  -5   6  -1 164.795 60.0641   2
  -5   6   0 5317.22 325.314   2
  -5   6   1 3235.69 261.691   2
  -5   7  -2 4587.71 300.529   7
  -5   7  -1 3065.74 241.081   7
  -4  -6   1 2892.54 247.952   3
  -4  -6   2 1040.60 145.090   3
  -4  -6   3 1879.09 190.875   3
  -4  -6   4 5644.15 323.140   3
  -4  -6   5 2163.25 197.316   3
  -4  -6   6 785.492 120.917   3
  -4  -6   7 1145.39 146.224   3
  -4  -5  -1 5851.41 354.169   3
  -4  -5  -1 5756.38 333.552   4
  -4  -5   0 4224.24 285.619   3
  -4  -5   1 1410.63 157.703   3
  -4  -5   2 8174.79 374.550   3
  -4  -5   3 2227.72 185.485   3
  -4  -5   4 1567.85 153.194   3
  -4  -5   5 3052.65 215.710   3
  -4  -5   6 6688.39 335.947   3
  -4  -5   7 3180.93 233.265   3
  -4  -5   8 776.563 125.829   2
  -4  -4  -3 4425.51 274.631   4
  -4  -4  -2 1283.65 144.142   4
  -4  -4  -1 2047.14 191.602   3
  -4  -4  -1 2081.41 183.207   4
  -4  -4   0 4176.36 254.779   3
  -4  -4   1 4212.70 243.002   3
  -4  -4   2 6591.15 298.498   3
  -4  -4   3 14246.8 454.423   3
  -4  -4   4 713.224 92.0150   3
  -4  -4   5 3257.43 201.348   3
  -4  -4   6 4564.86 250.963   3
  -4  -4   7 5003.37 302.890   2
  -4  -4   8 1880.68 176.826   2
  -4  -3  -3 3061.66 213.058   4
  -4  -3  -3 3030.09 253.701   8
  -4  -3  -2 10505.1 410.851   4
  -4  -3  -1 19.6368 45.8868   3
  -4  -3  -1-2.75712 25.5371   4
  -4  -3   0 12625.4 442.291   4
  -4  -3   0 12699.3 428.286   3
  -4  -3   1 10222.1 355.578   3
  -4  -3   2 5214.36 230.354   3
  -4  -3   3 7895.30 283.442   3
  -4  -3   4 24235.8 586.178   3
  -4  -3   5 5547.50 240.693   3
  -4  -3   5 5493.32 243.946   4
  -4  -3   6 2038.26 133.767   4
  -4  -3   6 2050.81 147.056   3
  -4  -3   6 2050.94 182.678   2
  -4  -3   7 3323.38 230.009   9
  -4  -3   7 3448.75 236.384   2
  -4  -3   8 2622.81 220.351   9
  -4  -3   8 2578.25 201.024   2
  -4  -2  -4 2513.97 232.928   8
  -4  -2  -3 1722.22 131.434  10
  -4  -2  -3 1966.40 193.361   8
  -4  -2  -3 2017.92 162.986   4
  -4  -2  -2 2236.80 131.672  10
  -4  -2  -2 2551.34 176.122   4
  -4  -2  -1 18385.7 530.338   4
  -4  -2   0 2110.65 152.602   4
  -4  -2   0 2092.16 139.961   3
  -4  -2   1 16541.7 389.859   9
  -4  -2   1 16416.5 368.955  10
  -4  -2   1 16851.3 479.244   4
  -4  -2   1 16884.9 432.769   3
  -4  -2   2 6423.28 221.422   3
  -4  -2   2 6336.93 260.837   4
  -4  -2   2 6596.12 205.212  10
  -4  -2   2 6226.83 203.167   9
  -4  -2   2 6365.92 205.485  12
  -4  -2   3 3121.80 141.739   3
  -4  -2   3 3443.02 178.797   4
  -4  -2   3 3253.43 115.143  12
  -4  -2   4 8378.07 257.301   3
  -4  -2   4 8289.88 289.590   4
  -4  -2   5 18355.2 458.171   4
  -4  -2   5 17673.4 553.731   2
  -4  -2   5 18325.6 449.778   3
  -4  -2   6 6146.46 243.773   3
  -4  -2   6 5704.71 290.988   2
  -4  -2   7 4466.91 260.678   2
  -4  -2   8 5288.52 344.459   9
  -4  -1  -5 1505.99 179.380   8
  -4  -1  -4 5615.81 258.479  10
  -4  -1  -4 5792.73 334.210   8
  -4  -1  -3 2516.83 144.275  10
  -4  -1  -3 2823.52 209.192   8
  -4  -1  -2 9442.75 344.174   4
  -4  -1  -2 8988.48 257.289  10
  -4  -1  -1 5226.67 145.381  10
  -4  -1  -1 5361.28 188.893   7
  -4  -1  -1 5876.08 250.943   4
  -4  -1   0 26332.6 632.581   4
  -4  -1   1 7237.40 211.375   3
  -4  -1   1 6325.66 137.419  10
  -4  -1   1 7510.88 269.675   4
  -4  -1   2 23864.5 451.659  10
  -4  -1   2 22732.4 493.411  12
  -4  -1   2 22361.5 547.024   4
  -4  -1   2 22131.8 445.979   3
  -4  -1   3 20386.4 554.637   2
  -4  -1   3 19290.8 423.964  12
  -4  -1   3 19034.7 374.828   3
  -4  -1   3 20186.6 486.656   4
  -4  -1   4 6716.00 179.639   3
  -4  -1   4 6227.61 200.766  12
  -4  -1   4 6197.16 281.143   2
  -4  -1   5 11900.8 302.955   3
  -4  -1   5 11707.2 417.010   2
  -4  -1   6 7127.27 321.369   2
  -4  -1   7 4846.50 270.097   2
  -4   0  -6 635.715 123.553   8
  -4   0  -5 7189.41 382.959   8
  -4   0  -4 269.067 67.1100   8
  -4   0  -4 475.184 66.8187  10
  -4   0  -4 427.479 63.3512  11
  -4   0  -3 6917.00 320.240   8
  -4   0  -3 7144.34 225.207   2
  -4   0  -2 14460.8 381.018   2
  -4   0  -2 14156.6 310.700  10
  -4   0  -2 14388.3 450.208   8
  -4   0  -2 13954.9 383.125   7
  -4   0  -1 11760.0 345.622   2
  -4   0   0 11428.7 349.785   2
  -4   0   1 26236.6 537.390   1
  -4   0   1 25022.8 610.545   2
  -4   0   2 12906.1 397.127   2
  -4   0   3 5193.09 180.152   8
  -4   0   3 5504.92 250.039   2
  -4   0   4 5638.28 262.720   2
  -4   0   5 12900.7 439.396   2
  -4   0   6 5451.86 283.029   2
  -4   0   7 1538.73 151.080   2
  -4   1  -6 4050.76 288.120   8
  -4   1  -5 894.067 126.814   8
  -4   1  -5 458.683 74.1796  11
  -4   1  -4 25211.0 706.419   8
  -4   1  -3 2222.10 164.514   8
  -4   1  -3 2432.35 154.491   7
  -4   1  -3 2405.70 103.113   2
  -4   1  -2 1954.27 133.533   7
  -4   1  -2 1800.44 104.797   2
  -4   1  -2 1747.81 133.952   8
  -4   1  -1 9292.18 284.805   2
  -4   1  -1 9660.80 304.652   8
  -4   1   0 17944.9 452.504   2
  -4   1   0 17510.0 375.444   1
  -4   1   1 7501.31 250.316   1
  -4   1   1 7064.97 266.150   2
  -4   1   2 18684.8 369.432   8
  -4   1   2 19197.6 510.769   2
  -4   1   3 26441.0 494.269   8
  -4   1   3 27605.1 673.266   2
  -4   1   4 2947.84 190.185   2
  -4   1   5 3576.08 221.921   2
  -4   1   6 2108.59 178.620   2
  -4   1   7 2324.36 192.876   2
  -4   2  -6 2895.71 233.763   8
  -4   2  -6 2615.09 204.111  11
  -4   2  -5 2904.96 214.209   8
  -4   2  -5 2611.73 196.055  11
  -4   2  -4 1956.12 155.841   7
  -4   2  -4 2295.03 172.318   8
  -4   2  -3 36550.1 684.992   2
  -4   2  -3 37234.7 834.112   8
  -4   2  -3 36293.3 829.481   7
  -4   2  -2 11846.3 353.262   8
  -4   2  -2 11145.2 306.782   2
  -4   2  -1 9149.34 287.955   2
  -4   2  -1 9587.03 277.049   8
  -4   2   0 14662.1 322.625   8
  -4   2   0 14804.0 409.379   2
  -4   2   1 321.723 57.9069   2
  -4   2   2 3018.21 182.589   2
  -4   2   3 22400.7 613.668   2
  -4   2   4 10905.9 410.405   2
  -4   2   5 544.360 92.6544   2
  -4   2   6 3480.31 244.356   2
  -4   2   7 2617.85 218.193   2
  -4   3  -7 1007.66 146.411   8
  -4   3  -7 825.398 127.758  11
  -4   3  -6 10526.3 454.139   8
  -4   3  -6 9163.05 427.525  11
  -4   3  -5 8972.60 403.105  11
  -4   3  -5 9743.64 398.765   8
  -4   3  -4 354.821 63.3226   8
  -4   3  -4 336.520 67.5631   7
  -4   3  -4 448.764 54.2451   1
  -4   3  -3 2588.50 180.443   7
  -4   3  -3 2769.31 165.395   8
  -4   3  -3 3005.06 137.324   2
  -4   3  -2 44143.8 861.956   8
  -4   3  -2 42227.6 856.552   2
  -4   3  -1 3005.87 164.120   2
  -4   3  -1 3222.49 128.791   8
  -4   3   0 8595.77 311.826   2
  -4   3   1 13892.1 436.433   2
  -4   3   2 3929.82 222.831   2
  -4   3   3 2245.49 176.580   2
  -4   3   4 3072.12 222.064   2
  -4   3   5 5679.60 325.650   2
  -4   3   6 2315.52 210.146   2
  -4   4  -7 9486.78 471.108  11
  -4   4  -7 10589.4 481.495   8
  -4   4  -6 223.798 66.2295  11
  -4   4  -6 279.597 70.6793   8
  -4   4  -5 13188.2 469.747   8
  -4   4  -4 8921.65 326.123   1
  -4   4  -4 9283.92 385.313   7
  -4   4  -4 9279.29 348.368   8
  -4   4  -3 6759.08 262.378   8
  -4   4  -3 6752.66 247.761   2
  -4   4  -3 6421.36 303.950   7
  -4   4  -2 8229.02 257.919   8
  -4   4  -2 7943.78 294.963   2
  -4   4  -1 9363.33 340.304   2
  -4   4   0 6364.54 287.750   2
  -4   4   1 16741.5 529.981   2
  -4   4   2 7916.47 358.823   2
  -4   4   3 2848.06 221.578   2
  -4   4   4 3829.85 272.011   2
  -4   4   5 2191.97 211.562   2
  -4   5  -7 3535.09 266.835   8
  -4   5  -6 3139.84 233.960   8
  -4   5  -6 3075.92 262.442  11
  -4   5  -5 4831.91 267.342   8
  -4   5  -5 5203.74 301.657   7
  -4   5  -5 4554.02 310.992  11
  -4   5  -4 19072.8 547.356   8
  -4   5  -4 20120.5 629.101   7
  -4   5  -3 7497.35 344.887   7
  -4   5  -3 7850.39 303.780   2
  -4   5  -3 7704.96 280.523   8
  -4   5  -2 4367.58 232.834   2
  -4   5  -1 13582.0 465.068   2
  -4   5   0 4320.96 256.424   2
  -4   5   1 2759.02 214.686   2
  -4   5   2 3398.18 249.410   2
  -4   5   3 2102.79 208.172   2
  -4   6  -6 5930.48 323.588   8
  -4   6  -6 5625.50 374.277  11
  -4   6  -5 5444.49 283.351   8
  -4   6  -5 5241.53 314.512   7
  -4   6  -5 5197.46 347.532  11
  -4   6  -4 3477.41 248.313   7
  -4   6  -3 5791.15 312.467   7
  -4   6  -2 864.602 119.119   7
  -4   6  -2 662.957 100.234   2
  -4   6  -1 5299.75 300.908   2
  -4   6   0 8752.54 414.463   2
  -4   6   1 318.222 84.2785   2
  -4   7  -4 835.384 122.627   7
  -4   7  -4 1146.07 160.571  11
  -4   7  -4 1111.46 131.252   6
  -4   7  -3 6713.61 350.656   7
  -4   7  -2 6331.74 331.567   7
  -4   7  -1 147.177 54.8554   7
  -3  -7   3 603.094 123.859   3
  -3  -7   4 6357.51 370.124   3
  -3  -7   5 1560.44 186.794   3
  -3  -7   6 4687.22 326.007   3
  -3  -6   0 2699.86 236.950   3
  -3  -6   1 4048.44 283.968   3
  -3  -6   2 2008.19 195.539   3
  -3  -6   3 5923.23 328.415   3
  -3  -6   4 679.330 113.295   3
  -3  -6   5 5113.61 308.705   3
  -3  -6   6 2987.67 237.788   3
  -3  -6   7 2104.82 204.847   3
  -3  -6   8 2510.08 231.278   3
  -3  -5  -1 313.885 89.8630   3
  -3  -5   0 2771.42 217.491   3
  -3  -5   1 7805.23 360.232   3
  -3  -5   2 4258.01 253.512   3
  -3  -5   3 1511.31 151.087   3
  -3  -5   4 16202.8 537.709   3
  -3  -5   5 3092.81 218.613   3
  -3  -5   6 1284.17 145.595   3
  -3  -5   7 2924.74 227.154   3
  -3  -5   8 3505.31 261.520   3
  -3  -4  -3 1852.41 194.014   8
  -3  -4  -3 2035.89 170.099   4
  -3  -4  -1 14744.5 519.042   3
  -3  -4   0 3602.44 227.526   3
  -3  -4   1 4343.13 237.370   3
  -3  -4   2 7975.98 321.656   3
  -3  -4   3 2298.36 162.154   3
  -3  -4   4 6708.70 284.840   3
  -3  -4   4 5351.48 135.278   9
  -3  -4   5 6481.56 220.239   9
  -3  -4   5 7273.22 312.102   3
  -3  -4   6 3987.91 237.556   3
  -3  -4   6 3955.36 199.782   9
  -3  -4   7 6713.20 335.842   3
  -3  -4   7 6767.45 306.249   9
  -3  -4   7 6692.76 326.136   2
  -3  -4   8 2060.72 191.446   3
  -3  -3  -4 2657.57 206.645  10
  -3  -3  -4 2783.32 237.950   8
  -3  -3  -3 3342.35 245.794   8
  -3  -3  -3 4022.99 225.352   4
  -3  -3  -2 2499.74 173.859   4
  -3  -3  -1 6759.51 300.858   3
  -3  -3   0 7041.98 288.222   3
  -3  -3   0 6935.61 198.393  11
  -3  -3   1 1853.96 134.830   3
  -3  -3   1 1650.60 104.452  11
  -3  -3   2 25118.8 593.281   3
  -3  -3   3 12618.3 271.276   9
  -3  -3   3 13461.4 387.193   3
  -3  -3   4 442.632 70.4751   3
  -3  -3   4 309.199 39.4449   9
  -3  -3   5 4844.36 230.035   3
  -3  -3   6 4209.11 235.569   2
  -3  -3   6 4421.90 235.208   3
  -3  -3   6 4004.52 223.445   9
  -3  -3   7 5508.02 295.238   9
  -3  -3   7 5659.09 278.177   2
  -3  -3   8 3563.95 260.161   9
  -3  -3   9 1758.30 198.060   9
  -3  -2  -5 1323.39 165.741   8
  -3  -2  -5 1094.60 136.151  10
  -3  -2  -4 2481.00 181.183  10
  -3  -2  -4 2646.13 217.239   8
  -3  -2  -4 2692.52 173.530   4
  -3  -2  -3 6795.24 280.467  10
  -3  -2  -3 7020.54 337.935   8
  -3  -2  -3 7116.38 286.745   4
  -3  -2  -2 7840.63 162.371  11
  -3  -2  -2 10294.7 333.134   4
  -3  -2  -1 3463.04 184.086   4
  -3  -2  -1 3715.31 195.248   3
  -3  -2   0 6665.25 162.122   7
  -3  -2   0 7061.85 209.629   9
  -3  -2   0 7375.32 258.161   3
  -3  -2   1 4533.12 141.736   9
  -3  -2   1 4299.04 180.458   3
  -3  -2   1 4856.15 181.079  11
  -3  -2   2 12033.5 319.557   3
  -3  -2   2 12313.6 279.110   9
  -3  -2   2 12435.7 321.739  10
  -3  -2   3 11883.1 323.905   3
  -3  -2   3 12042.5 295.419   9
  -3  -2   4 8536.19 271.999   3
  -3  -2   5 13930.3 288.118  12
  -3  -2   5 14253.0 296.336  12
  -3  -2   5 15090.2 354.218   4
  -3  -2   5 15167.3 460.104   2
  -3  -2   6 6159.55 275.662   2
  -3  -2   7 175.648 50.5053   9
  -3  -2   7 301.275 57.0492   2
  -3  -2   8 2590.00 236.258   9
  -3  -1  -6 3196.42 242.132  10
  -3  -1  -6 3168.83 259.036   8
  -3  -1  -5 1305.64 136.831  10
  -3  -1  -5 1180.51 148.121   8
  -3  -1  -4 7320.93 303.285  10
  -3  -1  -4 6862.46 338.386   8
  -3  -1  -3 11921.5 366.273   4
  -3  -1  -3 11703.3 423.393   8
  -3  -1  -3 11971.7 296.231  11
  -3  -1  -3 12012.8 357.635  10
  -3  -1  -2 1101.70 96.1601   4
  -3  -1  -1 11758.7 282.242   7
  -3  -1  -1 12672.8 353.227   4
  -3  -1   0 40319.6 761.375   9
  -3  -1   0 41637.8 796.949  12
  -3  -1   0 39038.0 764.848   3
  -3  -1   0 38775.9 799.667   4
  -3  -1   1 23266.1 472.989   9
  -3  -1   1 22764.2 472.324  12
  -3  -1   1 22642.6 422.931  10
  -3  -1   1 22210.1 508.082   4
  -3  -1   1 22409.5 455.125   3
  -3  -1   2 5159.80 173.699   9
  -3  -1   2 5028.80 160.021  10
  -3  -1   2 5081.65 146.039   3
  -3  -1   2 5134.00 153.629  12
  -3  -1   2 5013.13 186.360   4
  -3  -1   3 13414.8 312.914  12
  -3  -1   3 13752.6 319.595   3
  -3  -1   3 13605.5 350.729   4
  -3  -1   4 5638.72 177.608  12
  -3  -1   4 6129.36 251.709   2
  -3  -1   4 6108.74 189.184   4
  -3  -1   5 8873.69 322.200   2
  -3  -1   6 11246.7 382.795   2
  -3  -1   7 5269.69 256.107   2
  -3  -1   8 2631.46 247.840   9
  -3   0  -7-5.58401 19.9728  10
  -3   0  -6 5825.44 340.007   8
  -3   0  -6 4788.19 290.764  10
  -3   0  -5 8470.99 355.074  10
  -3   0  -5 8403.12 387.399   8
  -3   0  -4 4636.20 219.728  10
  -3   0  -4 4339.10 120.876   2
  -3   0  -4 4640.46 257.447   8
  -3   0  -4 4645.72 199.939  11
  -3   0  -3 10051.6 241.364   2
  -3   0  -3 10553.4 373.491   8
  -3   0  -2 16801.9 400.588   7
  -3   0  -2 17074.4 462.520   8
  -3   0  -2 16078.6 361.826  10
  -3   0  -1 3154.83 87.6760  10
  -3   0  -1 3711.18 162.153   4
  -3   0   0 25886.9 566.683   4
  -3   0   0 27126.8 564.846   9
  -3   0   0 27234.4 567.857  12
  -3   0   1 21527.9 462.926   9
  -3   0   1 20622.6 440.955   1
  -3   0   1 20363.8 443.557  12
  -3   0   1 19520.2 474.863   2
  -3   0   2 11078.0 270.470   8
  -3   0   2 12463.4 346.691   1
  -3   0   2 11687.4 337.433   2
  -3   0   2 11326.5 290.017  12
  -3   0   3 18053.0 401.101  12
  -3   0   3 16031.5 311.164   3
  -3   0   3 16962.9 450.207   2
  -3   0   3 17129.8 372.972   8
  -3   0   4 22742.6 562.034   2
  -3   0   4 22246.6 448.726   3
  -3   0   5 2439.08 158.921   2
  -3   0   6 1079.37 112.248   2
  -3   0   7 12029.8 420.213   2
  -3   1  -7 2886.66 239.783  10
  -3   1  -7 3381.23 267.742   8
  -3   1  -6 1540.31 137.286  11
  -3   1  -6 1507.73 152.888  10
  -3   1  -6 1459.02 161.500   8
  -3   1  -5 13796.4 461.929  10
  -3   1  -5 14437.4 449.892  11
  -3   1  -5 14971.5 508.690   8
  -3   1  -4 5450.34 173.868   6
  -3   1  -4 5419.52 234.887  10
  -3   1  -4 5418.03 266.180   8
  -3   1  -4 5478.34 241.263  11
  -3   1  -3 3737.86 194.857   8
  -3   1  -3 3509.43 142.582   6
  -3   1  -3 3353.17 169.219   7
  -3   1  -3 3465.99 100.397   2
  -3   1  -2 43345.9 857.526   7
  -3   1  -2 43403.7 780.263   2
  -3   1  -2 44499.7 886.839   8
  -3   1  -2 43895.6 833.774   6
  -3   1  -1 50512.8 921.906   2
  -3   1  -1 51733.9 949.418   8
  -3   1   0 42785.0 817.154   2
  -3   1   1 31031.3 650.910   2
  -3   1   2 16369.0 311.987   8
  -3   1   2 17958.4 442.129   2
  -3   1   3 4863.88 142.515   8
  -3   1   3 5181.69 139.866   3
  -3   1   3 4998.99 221.601   2
  -3   1   4 5544.77 179.147   3
  -3   1   4 5295.66 241.167   2
  -3   1   4 5536.14 180.029   8
  -3   1   5 18854.4 537.167   2
  -3   1   6 3720.82 219.427   2
  -3   1   7 992.738 118.857   2
  -3   2  -7 7142.12 350.875  11
  -3   2  -7 7611.31 401.479   8
  -3   2  -6 8867.06 378.137  11
  -3   2  -6 9375.45 412.037   8
  -3   2  -5 3518.52 216.235  11
  -3   2  -5 3681.41 228.092   8
  -3   2  -4 30623.8 586.676   6
  -3   2  -4 31044.2 743.691   8
  -3   2  -3 330.574 57.5451   7
  -3   2  -3 297.471 30.3508   2
  -3   2  -3 450.467 64.1897   8
  -3   2  -3 355.209 43.9779   6
  -3   2  -3 393.134 44.5237   1
  -3   2  -2 1025.96 83.8007   8
  -3   2  -2 866.795 90.5900   7
  -3   2  -2 914.903 64.2373   2
  -3   2  -1 22843.6 497.573   2
  -3   2  -1 23623.7 476.244   8
  -3   2   0 30962.4 542.038   8
  -3   2   0 31589.3 653.795   2
  -3   2   1 18135.8 459.928   2
  -3   2   2 33070.9 739.168   2
  -3   2   2 33415.9 617.422   3
  -3   2   3 8192.39 312.708   2
  -3   2   3 8786.53 245.302   3
  -3   2   4 189.716 52.1443   2
  -3   2   5 6291.21 299.969   2
  -3   2   6 5787.75 303.160   2
  -3   3  -8 231.848 70.3701  11
  -3   3  -7 2703.12 228.534   8
  -3   3  -7 2520.43 216.224  11
  -3   3  -6 4028.62 261.432  11
  -3   3  -6 4924.97 284.629   8
  -3   3  -5 4029.93 246.049  11
  -3   3  -5 4330.33 242.836   8
  -3   3  -5 4703.47 223.132   1
  -3   3  -4 6707.35 212.687   6
  -3   3  -4 6404.56 271.147   8
  -3   3  -4 6163.02 275.584   7
  -3   3  -4 6032.69 243.535   1
  -3   3  -3 63082.4 1194.71   8
  -3   3  -3 60920.5 1227.61   7
  -3   3  -3 63034.5 1102.22   2
  -3   3  -2 8526.40 257.557   8
  -3   3  -2 8702.67 260.447   2
  -3   3  -1 11375.2 330.626   2
  -3   3  -1 11672.9 271.630   8
  -3   3   0 24138.4 575.715   2
  -3   3   1 4898.95 226.586   2
  -3   3   2 5921.59 212.010   3
  -3   3   2 5110.71 247.107   2
  -3   3   3 22777.4 628.921   2
  -3   3   4 11436.2 432.124   2
  -3   3   5 136.468 55.2149   2
  -3   3   6 2144.27 195.973   2
  -3   4  -8 13379.6 583.710  11
  -3   4  -7 538.574 106.244  11
  -3   4  -7 505.719 97.5207   8
  -3   4  -6 7323.46 378.773  11
  -3   4  -6 7141.13 329.512   1
  -3   4  -6 8019.66 367.375   8
  -3   4  -5 9416.68 367.413   8
  -3   4  -5 8557.00 389.166  11
  -3   4  -5 8527.37 346.268   1
  -3   4  -4 1545.17 138.258   7
  -3   4  -4 1640.62 131.034   8
  -3   4  -3 1341.33 105.660   8
  -3   4  -3 1504.41 129.557   7
  -3   4  -3 1247.15 94.7281   2
  -3   4  -2 47882.6 892.488   8
  -3   4  -2 45573.8 942.008   2
  -3   4  -1 9777.95 334.338   2
  -3   4   0 6956.47 289.298   2
  -3   4   1 5920.47 279.201   2
  -3   4   2 3606.09 224.873   2
  -3   4   3 2867.49 211.675   2
  -3   4   4 6562.69 347.231   2
  -3   4   5 4699.95 299.862   2
  -3   5  -7 13612.0 584.788  11
  -3   5  -7 13862.1 545.417   8
  -3   5  -6 1413.83 154.647   1
  -3   5  -6 1534.36 155.551   8
  -3   5  -6 1382.16 171.992  11
  -3   5  -5 9042.35 391.828   1
  -3   5  -5 10157.1 389.346   8
  -3   5  -5 9421.44 432.122  11
  -3   5  -4 5896.80 262.201   8
  -3   5  -4 5712.52 284.877   7
  -3   5  -3 7331.10 315.863   7
  -3   5  -2 2894.78 180.312   2
  -3   5  -2 2936.56 189.343   7
  -3   5  -1 16969.2 517.329   2
  -3   5   0 6894.37 320.169   2
  -3   5   1 8532.68 376.693   2
  -3   5   2 6423.72 338.447   2
  -3   5   3 1570.43 172.234   2
  -3   5   4 1662.17 185.020   6
  -3   5   4 1333.81 163.306   2
  -3   6  -7 277.078 75.4455   8
  -3   6  -6 10633.4 511.461  11
  -3   6  -6 11515.1 457.827   8
  -3   6  -6 10653.3 481.011   1
  -3   6  -5 1424.99 138.523   8
  -3   6  -5 1295.89 162.621  11
  -3   6  -4 7976.28 355.646   7
  -3   6  -4 7547.07 385.022  11
  -3   6  -3 11272.0 420.244   7
  -3   6  -2 3693.53 224.030   7
  -3   6  -1 2669.72 203.883   2
  -3   6   0 5329.64 308.814   2
  -3   6   1 3803.87 269.003   2
  -3   6   2 2475.42 225.193   2
  -3   7  -6 845.204 139.086   1
  -3   7  -5 12328.0 552.674  11
  -3   7  -4 1117.25 129.025   6
  -3   7  -4 675.080 119.207  11
  -3   7  -4 888.100 117.608   7
  -3   7  -3 3122.38 226.908   6
  -3   7  -3 2923.03 238.778  11
  -3   7  -3 2852.03 209.880   7
  -3   7  -2 3015.33 205.930   7
  -3   7  -2 3308.23 244.137   6
  -3   7  -1 3933.20 233.039   7
  -3   7  -1 3970.50 278.862   6
  -3   7   0 3425.88 269.043   6
  -3   8  -4 6590.15 350.244   6
  -3   8  -4 5446.23 360.587  11
  -3   8  -3 1364.68 169.454  11
  -3   8  -3 1621.29 181.264   6
  -2  -7   1 7309.02 407.105   3
  -2  -7   2 258.040 83.6129   3
  -2  -7   3 2902.12 247.570   3
  -2  -7   4 3978.96 288.105   3
  -2  -7   5 2900.32 249.322   3
  -2  -7   6-203.080 90.3363   3
  -2  -7   7 7799.85 437.185   3
  -2  -6  -1 3343.99 269.206   3
  -2  -6   0 3628.27 266.401   3
  -2  -6   1 230.789 71.1437   3
  -2  -6   2 12335.5 489.384   3
  -2  -6   3 384.638 86.1426   3
  -2  -6   4 8771.67 408.283   3
  -2  -6   5 4840.07 299.154   3
  -2  -6   6 3713.13 267.457   3
  -2  -6   7 1348.85 168.561   3
  -2  -6   8 6810.28 400.594   3
  -2  -5  -3 4238.87 290.090   8
  -2  -5  -2 261.021 77.3227   3
  -2  -5  -1 7383.97 366.793   3
  -2  -5   0 4903.89 280.280   3
  -2  -5   1 3461.96 228.560   3
  -2  -5   2 3388.70 218.333   3
  -2  -5   3 23710.5 667.895   3
  -2  -5   4 3702.12 234.704   3
  -2  -5   5 6522.29 322.601   3
  -2  -5   6 13028.1 498.022   3
  -2  -5   7 2122.48 199.629   3
  -2  -5   8 2414.06 225.001   3
  -2  -5   9 4467.97 324.574   3
  -2  -4  -4 2418.11 213.915  10
  -2  -4  -4 2575.71 225.015   8
  -2  -4  -3 4006.44 267.047   8
  -2  -4  -2 10939.2 439.722   3
  -2  -4  -1 1481.91 141.021   3
  -2  -4   0 11121.8 397.776   3
  -2  -4   1 11888.5 397.629   3
  -2  -4   2 2708.71 172.688   3
  -2  -4   3 7925.14 171.815   5
  -2  -4   3 8300.93 296.360   3
  -2  -4   4 24841.7 480.225   9
  -2  -4   4 26370.9 663.427   3
  -2  -4   5 5628.62 277.089   3
  -2  -4   5 5658.32 211.062   9
  -2  -4   6 7928.64 356.387   3
  -2  -4   6 8249.94 306.606   9
  -2  -4   7 2086.93 157.664   2
  -2  -4   7 2468.10 180.463   9
  -2  -4   8 1338.11 148.651   9
  -2  -4   9 6141.90 359.471   9
  -2  -3  -5 2870.79 234.263  10
  -2  -3  -5 3739.45 271.883   8
  -2  -3  -4 1540.11 154.827  10
  -2  -3  -4 1245.34 113.148   4
  -2  -3  -4 1249.24 146.180   8
  -2  -3  -3 4360.96 258.293   8
  -2  -3  -3 4463.68 219.720   4
  -2  -3  -2 8982.98 355.726   3
  -2  -3  -1 18027.4 510.920   3
  -2  -3   0 7448.56 281.104   3
  -2  -3   1 40126.9 759.521  11
  -2  -3   1 40013.5 833.255   3
  -2  -3   2 305.709 53.6575   3
  -2  -3   3 3595.83 179.080   3
  -2  -3   3 3437.04 135.675   5
  -2  -3   3 3301.02 109.604   9
  -2  -3   4 35155.4 769.632   3
  -2  -3   4 33468.3 681.904   9
  -2  -3   5 17159.2 462.957   9
  -2  -3   6 7856.07 323.482   9
  -2  -3   6 7983.80 302.054   2
  -2  -3   7 13496.5 493.734   9
  -2  -3   7 14006.8 418.525   2
  -2  -3   8 2263.41 207.115   9
  -2  -3   9-21.4819 39.0878   9
  -2  -2  -6 5141.56 330.388  10
  -2  -2  -6 4640.55 309.079   8
  -2  -2  -5 3053.70 233.139   8
  -2  -2  -5 2949.26 221.623  10
  -2  -2  -4 10675.6 406.503  10
  -2  -2  -4 11157.5 435.144   8
  -2  -2  -4 12025.7 353.113   4
  -2  -2  -3 3035.71 194.548   8
  -2  -2  -3 3000.99 158.219   4
  -2  -2  -2 6057.77 258.564   3
  -2  -2  -1 30891.3 628.650   3
  -2  -2  -1 25050.3 432.957  11
  -2  -2   0 17252.8 416.550   3
  -2  -2   0 16330.4 336.630  11
  -2  -2   1 10167.7 255.835  11
  -2  -2   1 8937.97 185.551   9
  -2  -2   1 9608.38 267.924   3
  -2  -2   2 75894.3 1339.17   6
  -2  -2   2 74328.3 1331.19   3
  -2  -2   2 79069.5 1355.83  11
  -2  -2   2 73900.5 1236.97   9
  -2  -2   2 76779.3 1292.72   5
  -2  -2   2 78196.8 1341.19  10
  -2  -2   3 6132.98 215.026   3
  -2  -2   3 6467.22 207.955   5
  -2  -2   3 6120.73 204.655   6
  -2  -2   4 4090.39 158.326   6
  -2  -2   4 3914.71 101.385  12
  -2  -2   4 3971.14 98.6964  12
  -2  -2   5 10377.2 283.352   6
  -2  -2   5 11201.0 342.781   2
  -2  -2   5 11231.1 269.027  12
  -2  -2   6 3883.45 165.333  12
  -2  -2   6 3506.25 223.126   9
  -2  -2   6 3619.58 182.267   2
  -2  -2   7 6827.66 259.424   2
  -2  -2   7 6518.61 343.446   9
  -2  -2   7 6790.10 258.500  12
  -2  -2   8 8778.15 444.391   9
  -2  -1  -7 2025.43 213.878  10
  -2  -1  -6 3234.83 245.169   8
  -2  -1  -6 3052.65 237.056  10
  -2  -1  -5 5921.39 309.569   8
  -2  -1  -5 5383.08 288.589  10
  -2  -1  -4 4660.23 233.554  10
  -2  -1  -4 5051.18 154.711  11
  -2  -1  -4 4429.62 245.755   8
  -2  -1  -3 14463.8 409.184  10
  -2  -1  -3 15233.8 386.246   4
  -2  -1  -3 14828.0 454.459   8
  -2  -1  -3 14919.2 351.217   2
  -2  -1  -3 15811.0 328.837  11
  -2  -1  -2 24300.1 500.494   2
  -2  -1  -2 24650.1 533.527   4
  -2  -1  -1 15916.5 368.230   6
  -2  -1  -1 15875.9 365.745   9
  -2  -1  -1 14634.0 303.136   7
  -2  -1  -1 15253.8 368.078   4
  -2  -1  -1 15941.6 382.015   3
  -2  -1   0 9596.76 250.684  12
  -2  -1   0 9414.98 224.028   9
  -2  -1   0 8893.50 239.648   3
  -2  -1   1 10482.7 226.953   9
  -2  -1   1 9961.01 228.573  10
  -2  -1   1 9977.37 233.022   3
  -2  -1   1 10158.6 225.301  12
  -2  -1   2 36091.6 689.074  10
  -2  -1   2 35809.5 624.023  12
  -2  -1   2 36843.7 663.580   3
  -2  -1   2 37346.1 693.527   8
  -2  -1   2 38801.0 729.978  11
  -2  -1   2 37425.1 706.694   6
  -2  -1   2 38188.8 708.392   5
  -2  -1   3 59884.6 992.713  12
  -2  -1   3 58747.2 1082.06  10
  -2  -1   3 61049.2 1065.99   6
  -2  -1   3 58443.3 1062.93   8
  -2  -1   3 59473.1 1095.84   2
  -2  -1   3 57384.9 1009.12   4
  -2  -1   4 3904.34 154.825   6
  -2  -1   4 3867.68 111.947   4
  -2  -1   4 3702.33 167.888   2
  -2  -1   5 21960.3 526.027   2
  -2  -1   5 22282.0 488.342   6
  -2  -1   6 11409.6 351.795   2
  -2  -1   6 12187.1 384.824  12
  -2  -1   7 262.068 51.7416   2
  -2  -1   7 330.228 85.7387   9
  -2  -1   7 485.682 80.5428  12
  -2  -1   8 3211.97 269.989   9
  -2   0  -7 4736.53 320.691  10
  -2   0  -7 5206.16 326.624   8
  -2   0  -6 6108.54 328.194  10
  -2   0  -6 6298.55 332.202   8
  -2   0  -5 679.233 95.8333  10
  -2   0  -5 896.138 113.792   8
  -2   0  -5 765.128 76.9875  11
  -2   0  -4 12648.7 246.462   2
  -2   0  -4 12734.4 397.385  10
  -2   0  -4 13480.1 430.720   8
  -2   0  -4 14098.7 361.873  11
  -2   0  -3 19475.1 431.181  11
  -2   0  -3 19144.4 504.371   8
  -2   0  -3 18251.1 354.741   2
  -2   0  -3 19027.8 401.202   6
  -2   0  -2 18179.8 393.856  10
  -2   0  -2 17770.6 383.485   6
  -2   0  -2 17967.8 448.805   8
  -2   0  -2 18691.9 399.636   7
  -2   0  -1 31737.4 600.835   6
  -2   0  -1 32912.4 623.191   9
  -2   0  -1 31042.6 610.583   4
  -2   0  -1 30988.0 547.153  10
  -2   0   0 76420.9 1267.36   9
  -2   0   0 76125.3 1272.77  12
  -2   0   0 71662.9 1272.85   4
  -2   0   1 51538.5 884.973  12
  -2   0   1 52696.4 910.271   1
  -2   0   1 51095.0 897.511   9
  -2   0   1 50271.0 891.341   4
  -2   0   1 50682.1 923.202   2
  -2   0   2 7340.72 194.441  12
  -2   0   2 6990.99 180.891   8
  -2   0   2 7603.02 239.891   6
  -2   0   2 7238.56 225.519   2
  -2   0   2 7903.53 249.791   1
  -2   0   3 5648.28 214.693   6
  -2   0   3 5918.50 180.477   8
  -2   0   3 6126.22 211.012   2
  -2   0   4 12919.9 352.085   2
  -2   0   4 12292.2 317.353   3
  -2   0   5 4983.26 210.410   2
  -2   0   6 10473.0 342.510   2
  -2   0   7 3847.53 250.165  12
  -2   0   7 3759.06 282.794   9
  -2   0   8 1765.49 209.513   9
  -2   0   8 1588.95 172.958  12
  -2   1  -8 2786.79 257.909  10
  -2   1  -7 2988.88 237.201   8
  -2   1  -7 2721.10 233.340  10
  -2   1  -6 3869.15 213.764  11
  -2   1  -6 3890.01 248.759   8
  -2   1  -6 3669.79 243.269  10
  -2   1  -5 9453.99 333.521  11
  -2   1  -5 8363.60 345.725  10
  -2   1  -5 9922.29 373.517   8
  -2   1  -4 13541.1 407.065  10
  -2   1  -4 13953.4 426.634   8
  -2   1  -4 13925.8 397.504  11
  -2   1  -3 14688.8 305.789   6
  -2   1  -3 15286.1 413.751   8
  -2   1  -2 5189.13 183.393   7
  -2   1  -2 5200.05 167.684  10
  -2   1  -2 5327.71 147.054   1
  -2   1  -2 5208.65 125.397   2
  -2   1  -2 5416.46 192.751   8
  -2   1  -2 5486.93 159.373   6
  -2   1  -1 5098.69 143.059   2
  -2   1  -1 5162.23 174.742   6
  -2   1  -1 5324.12 164.159   8
  -2   1   0 54116.9 949.037   2
  -2   1   0 54394.9 900.119   8
  -2   1   1 39283.1 755.373   2
  -2   1   1 41469.8 756.157  12
  -2   1   2 14955.3 292.581   8
  -2   1   2 15783.9 309.717   3
  -2   1   2 15951.5 383.267   2
  -2   1   3 17068.5 430.538   2
  -2   1   3 17337.1 378.995   3
  -2   1   3 17050.2 364.835   8
  -2   1   4 16402.0 438.191   2
  -2   1   5 598.036 77.9240   2
  -2   1   6 185.294 48.3044   2
  -2   1   7 10380.7 472.530  12
  -2   1   7 10150.7 503.823   9
  -2   1   8 2505.35 234.819  12
  -2   2  -8 2203.66 223.902  10
  -2   2  -7 1779.88 185.910  10
  -2   2  -7 1995.69 187.598   8
  -2   2  -7 1935.73 170.369  11
  -2   2  -6 2784.31 206.121  10
  -2   2  -6 3033.12 211.509   8
  -2   2  -6 2544.49 189.540  11
  -2   2  -5 8955.53 345.239   8
  -2   2  -5 8460.66 333.496  11
  -2   2  -5 8276.84 335.943  10
  -2   2  -4 9724.50 197.716   6
  -2   2  -4 10552.7 346.959   8
  -2   2  -4 11003.3 326.863   1
  -2   2  -4 10260.1 347.525  11
  -2   2  -3 13244.3 366.958   8
  -2   2  -3 13159.2 343.935   1
  -2   2  -3 13070.9 367.862   7
  -2   2  -3 13457.4 301.146   6
  -2   2  -2 31506.8 632.965   8
  -2   2  -2 31780.0 581.163   2
  -2   2  -2 32508.0 660.232   7
  -2   2  -1 45428.9 788.344   8
  -2   2  -1 44366.1 811.112   2
  -2   2   0 12531.1 316.414   2
  -2   2   1 3847.70 137.113   3
  -2   2   1 3778.90 164.285   2
  -2   2   2 33707.4 568.123   2
  -2   2   2 14777.6 404.367   3
  -2   2   3 12380.6 375.591   2
  -2   2   4 2575.32 165.027   2
  -2   2   5 9702.72 363.972   2
  -2   2   6 4970.67 263.748   2
  -2   2   7 937.039 154.099  12
  -2   3  -8 1578.27 170.722  11
  -2   3  -8 1879.02 196.304   8
  -2   3  -7 4604.20 290.706  11
  -2   3  -7 4346.65 279.790   8
  -2   3  -6 16240.9 529.509   1
  -2   3  -6 16687.8 542.902   8
  -2   3  -6 16538.7 551.627  11
  -2   3  -5 2582.39 185.071  11
  -2   3  -5 2778.97 181.613   8
  -2   3  -5 2562.98 174.071   1
  -2   3  -4 3753.65 137.258   6
  -2   3  -4 3568.05 206.317  11
  -2   3  -4 3880.41 196.132   8
  -2   3  -4 3883.84 196.664   1
  -2   3  -3 4206.07 182.702   8
  -2   3  -3 4380.02 197.656   7
  -2   3  -2 17748.8 404.933   8
  -2   3  -2 17204.0 402.499   2
  -2   3  -2 18301.3 445.182   7
  -2   3  -1 13544.7 355.099   2
  -2   3   0 25845.0 585.371   2
  -2   3   1 22677.4 557.970   2
  -2   3   2 11794.7 384.378   2
  -2   3   3 5511.75 258.512   2
  -2   3   4 1558.67 143.840   2
  -2   3   5 2257.05 182.138   2
  -2   3   6 5548.43 300.551   2
  -2   4  -8 2545.21 234.951  11
  -2   4  -8 2933.47 246.211   8
  -2   4  -7 2556.51 223.437  11
  -2   4  -7 3065.75 231.824   8
  -2   4  -7 2546.39 211.901   1
  -2   4  -6 1486.79 157.830  11
  -2   4  -6 1832.79 167.801   1
  -2   4  -6 2074.11 174.094   8
  -2   4  -5 16005.8 484.664   8
  -2   4  -5 14090.5 482.926   1
  -2   4  -5 14887.3 319.408   6
  -2   4  -5 13771.4 498.004  11
  -2   4  -4 5200.85 267.729  11
  -2   4  -4 5583.86 242.765   8
  -2   4  -4 5475.55 248.322   7
  -2   4  -3 19906.3 488.386   8
  -2   4  -3 19599.3 517.382   7
  -2   4  -2 9274.06 298.956   2
  -2   4  -2 9446.92 310.646   7
  -2   4  -1 2751.55 159.290   2
  -2   4   0 3468.04 190.977   2
  -2   4   1 17259.7 505.732   2
  -2   4   2 2435.91 178.814   2
  -2   4   3 4539.38 258.536   2
  -2   4   4 13069.7 485.004   6
  -2   4   4 12765.5 485.303   2
  -2   4   5 1576.68 164.330   2
  -2   4   5 1119.09 135.373   6
  -2   5  -8 13264.3 590.556  11
  -2   5  -8 13245.5 555.846   8
  -2   5  -8 13137.4 563.055   1
  -2   5  -7 3343.96 268.769  11
  -2   5  -7 2924.25 243.430   1
  -2   5  -7 3538.36 252.620   8
  -2   5  -6 577.386 103.991  11
  -2   5  -6 529.489 89.0483   8
  -2   5  -6 459.324 89.4717   1
  -2   5  -5 3659.42 248.964  11
  -2   5  -5 3730.06 219.185   8
  -2   5  -5 3943.11 167.712   6
  -2   5  -4 18623.2 479.796   6
  -2   5  -4 18299.8 583.152  11
  -2   5  -4 19232.6 526.918   8
  -2   5  -4 18632.5 537.888   7
  -2   5  -3 608.956 80.6588   7
  -2   5  -2 13884.3 412.034   7
  -2   5  -1 21027.0 581.983   2
  -2   5   0 5214.17 266.342   2
  -2   5   1 366.223 76.6507   2
  -2   5   2 7485.18 356.671   2
  -2   5   3 1843.81 181.047   2
  -2   5   3 1980.19 186.762   6
  -2   5   4 3378.11 252.584   6
  -2   6  -8 1630.08 194.941   1
  -2   6  -7 14370.9 608.942  11
  -2   6  -7 13816.7 538.845   8
  -2   6  -7 12722.2 565.663   1
  -2   6  -6 5326.49 338.192  11
  -2   6  -6 4982.55 326.536   1
  -2   6  -5 2710.73 162.550   6
  -2   6  -5 2315.15 209.211  11
  -2   6  -4 4006.17 261.618  11
  -2   6  -4 4351.32 224.232   6
  -2   6  -3 8897.89 352.534   6
  -2   6  -3 8988.55 344.264   7
  -2   6  -3 8235.10 370.982  11
  -2   6  -2 187.194 53.0582   6
  -2   6  -2 184.407 50.4881   7
  -2   6  -1 12077.0 457.041   6
  -2   6  -1 11868.0 382.559   7
  -2   6   0 6628.43 343.279   6
  -2   6   1 1949.68 185.357   6
  -2   6   2 3707.49 271.935   6
  -2   7  -7 828.378 146.334   1
  -2   7  -6 18188.0 694.156  11
  -2   7  -5 149.161 54.9982  11
  -2   7  -5 179.925 51.8218   6
  -2   7  -4 1257.31 152.179  11
  -2   7  -4 1411.55 143.166   6
  -2   7  -3 9396.46 424.946  11
  -2   7  -3 11110.6 441.015   6
  -2   7  -3 10924.3 393.261   7
  -2   7  -2 5705.11 301.672  11
  -2   7  -2 5726.42 320.630   6
  -2   7  -2 6199.55 276.619   7
  -2   7  -1 896.574 131.307   6
  -2   7   0 4050.25 289.648   6
  -2   8  -5 10759.6 514.958  11
  -2   8  -4 656.624 107.443   6
  -2   8  -4 418.506 89.2035  11
  -2   8  -3 1131.15 142.596  11
  -2   8  -3 1912.63 193.551   6
  -1  -7   1 1615.19 185.495   3
  -1  -7   2 1265.40 167.708   3
  -1  -7   3 4206.87 288.893   3
  -1  -7   4 4153.47 293.952   3
  -1  -7   5 872.561 138.156   3
  -1  -7   6 17598.3 672.919   3
  -1  -7   7 1141.74 164.983   3
  -1  -6  -2 1957.62 203.711   3
  -1  -6  -1 1563.46 174.138   3
  -1  -6   0 186.963 64.2700   3
  -1  -6   1 21311.3 670.538   3
  -1  -6   2 2446.41 201.332   3
  -1  -6   3 3074.22 230.438   3
  -1  -6   4 11062.8 459.146   3
  -1  -6   5 5748.28 327.518   3
  -1  -6   6 1035.10 143.794   3
  -1  -6   7 15590.7 621.369   3
  -1  -6   8 2754.15 255.426   3
  -1  -5  -3 1395.83 152.817   8
  -1  -5  -2 2672.07 217.359   3
  -1  -5  -1 5198.28 289.378   3
  -1  -5   0 4436.11 255.146   3
  -1  -5   1 37.8613 43.2060   3
  -1  -5   2 27051.6 714.568   3
  -1  -5   3 86.4476 45.8852   3
  -1  -5   4 12140.3 442.587   3
  -1  -5   4 11956.2 260.483   9
  -1  -5   5 17573.9 573.507   3
  -1  -5   5 17056.2 410.262   9
  -1  -5   6 1313.10 150.001   3
  -1  -5   6 1148.56 102.311   9
  -1  -5   7 5116.09 255.595   9
  -1  -5   7 4459.62 300.420   3
  -1  -5   8 20721.2 638.730   9
  -1  -4  -4 2016.53 183.371   8
  -1  -4  -3 4467.77 255.450   8
  -1  -4  -2 309.538 70.3974   3
  -1  -4  -1 14823.0 473.688   3
  -1  -4   0 18044.4 519.042   3
  -1  -4   1 5752.46 254.510   3
  -1  -4   2 6681.06 274.402   3
  -1  -4   2 5876.08 127.775   5
  -1  -4   3 50351.4 840.188   9
  -1  -4   3 50106.6 885.775   5
  -1  -4   3 51509.1 1059.47   3
  -1  -4   4 5133.77 174.215   9
  -1  -4   4 5123.50 253.872   3
  -1  -4   5 7898.90 343.186   3
  -1  -4   5 8674.70 282.612   9
  -1  -4   6 23520.6 607.878   9
  -1  -4   7 4011.07 239.691   9
  -1  -4   8 2743.37 219.843   9
  -1  -4   9 6344.40 370.454   9
  -1  -3  -6 3814.73 265.359   8
  -1  -3  -5 2400.76 214.433  10
  -1  -3  -5 1866.60 175.933   8
  -1  -3  -4 4641.10 263.962   8
  -1  -3  -4 5152.67 214.153   4
  -1  -3  -3 2292.32 167.537   8
  -1  -3  -2 24619.8 634.560   3
  -1  -3  -1 924.293 95.8214   3
  -1  -3   0 9044.23 301.357   3
  -1  -3   1 30168.0 663.668   3
  -1  -3   2 19815.6 480.150   3
  -1  -3   2 19767.1 451.882  11
  -1  -3   2 18784.1 357.259   5
  -1  -3   2 18613.3 386.091   7
  -1  -3   3 7066.05 262.386   3
  -1  -3   3 6900.17 197.711   5
  -1  -3   3 6892.12 185.989   9
  -1  -3   3 6935.25 218.264   6
  -1  -3   4 30213.9 586.858   6
  -1  -3   4 30140.4 623.064   9
  -1  -3   4 28991.4 507.598  12
  -1  -3   5 14259.3 415.910   9
  -1  -3   5 13885.6 314.572   6
  -1  -3   5 14029.8 307.557  12
  -1  -3   6 12731.6 350.399   2
  -1  -3   6 12251.6 317.593  12
  -1  -3   6 11627.2 415.406   9
  -1  -3   7 6196.92 318.851   9
  -1  -3   7 6247.45 235.795  12
  -1  -3   8 2188.58 208.849   9
  -1  -3   9 6147.05 383.394   9
  -1  -2  -6 778.554 125.285  10
  -1  -2  -6 836.112 120.126   8
  -1  -2  -5 2037.11 181.604  10
  -1  -2  -5 2129.89 177.416   8
  -1  -2  -4 4248.61 239.544  10
  -1  -2  -4 4126.05 230.021   8
  -1  -2  -4 4774.25 180.841   4
  -1  -2  -3 12563.4 398.514   8
  -1  -2  -2 13302.7 388.550   3
  -1  -2  -1 60846.1 1132.35   3
  -1  -2   0 23057.5 409.689  11
  -1  -2   0 22565.2 496.663   3
  -1  -2   1 45478.4 775.605  11
  -1  -2   1 44199.0 812.559   3
  -1  -2   1 41659.9 696.783   5
  -1  -2   1 43214.0 712.449   7
  -1  -2   2 9415.58 271.179   3
  -1  -2   2 10180.5 274.634  11
  -1  -2   2 9803.32 246.734   6
  -1  -2   2 9608.55 219.563   5
  -1  -2   2 9605.87 208.306   9
  -1  -2   3 4102.87 134.122   6
  -1  -2   3 3841.50 146.725   9
  -1  -2   3 4065.08 146.588   5
  -1  -2   3 3972.51 95.2038  12
  -1  -2   4 22455.2 438.096   6
  -1  -2   4 22547.5 535.412   9
  -1  -2   4 23623.8 450.324  12
  -1  -2   5 37658.9 742.992  12
  -1  -2   5 38993.5 851.763   9
  -1  -2   5 36979.0 653.497   6
  -1  -2   5 39298.7 745.277   2
  -1  -2   6 9720.86 312.283  12
  -1  -2   6 9527.29 270.662   2
  -1  -2   6 9587.69 381.522   9
  -1  -2   7 6063.94 341.824   9
  -1  -2   7 6098.85 267.546  12
  -1  -2   8 3148.02 260.009   9
  -1  -1  -7 5198.86 341.280  10
  -1  -1  -7 5355.25 321.580   8
  -1  -1  -6 9384.58 432.504  10
  -1  -1  -6 9588.14 407.294   8
  -1  -1  -5 1338.19 138.294  10
  -1  -1  -5 1400.90 137.375   8
  -1  -1  -4 10290.8 367.497  10
  -1  -1  -4 10835.3 284.089   2
  -1  -1  -4 11424.5 278.024   4
  -1  -1  -4 11478.2 380.688   8
  -1  -1  -3 6012.93 240.859   8
  -1  -1  -3 5846.14 180.040   4
  -1  -1  -3 5979.79 182.431   2
  -1  -1  -3 5791.65 229.774  10
  -1  -1  -2 273.644 21.6178  11
  -1  -1  -2 236.017 31.7545   2
  -1  -1  -1 20504.3 415.354   6
  -1  -1  -1 19903.5 434.395   3
  -1  -1   0 277335. 4394.45   3
  -1  -1   0 283638. 4349.76   9
  -1  -1   1 5395.94 149.474  11
  -1  -1   1 5445.74 145.225   3
  -1  -1   1 5226.81 127.791   5
  -1  -1   2 35649.3 663.541  10
  -1  -1   2 35804.2 642.373   5
  -1  -1   2 36558.3 693.666   1
  -1  -1   2 36243.3 675.513  11
  -1  -1   2 33389.1 625.892   6
  -1  -1   3 33335.4 655.044   2
  -1  -1   3 36523.7 721.214  11
  -1  -1   3 34825.8 676.808   8
  -1  -1   3 36775.6 746.913   1
  -1  -1   3 34951.0 704.551  10
  -1  -1   3 34577.1 621.731   6
  -1  -1   4 2275.09 120.050  12
  -1  -1   4 2162.51 104.698   2
  -1  -1   4 2134.18 85.3956   6
  -1  -1   5 3309.91 141.874   2
  -1  -1   5 3187.16 201.816   9
  -1  -1   5 3668.24 180.322  12
  -1  -1   5 3482.58 112.796   6
  -1  -1   6 11873.0 399.960  12
  -1  -1   6 11651.2 447.720   9
  -1  -1   6 11547.1 313.278   2
  -1  -1   7 8414.94 413.017   9
  -1  -1   7 8261.13 354.405  12
  -1  -1   8 7500.47 429.153   9
  -1  -1   8 7582.09 364.180  12
  -1   0  -7 698.726 122.477  10
  -1   0  -7 624.152 106.624   8
  -1   0  -6 3804.16 250.668  10
  -1   0  -6 3611.89 230.477   8
  -1   0  -5 23141.6 642.275  10
  -1   0  -5 23724.5 633.226   8
  -1   0  -5 24278.5 557.151  11
  -1   0  -4 4199.02 207.404  10
  -1   0  -4 3994.64 166.485  11
  -1   0  -4 4111.04 118.647   2
  -1   0  -4 4365.64 211.425   8
  -1   0  -3 27365.7 543.896  11
  -1   0  -3 26461.7 472.090   2
  -1   0  -3 27452.0 601.438   8
  -1   0  -2 74841.1 1260.70  11
  -1   0  -2 74855.1 1288.33  10
  -1   0  -2 74391.3 1232.56   6
  -1   0  -2 76511.7 1248.07   4
  -1   0  -2 75694.3 1318.41   8
  -1   0  -2 75375.7 1210.42   2
  -1   0  -1 4685.77 125.963   4
  -1   0  -1 4673.66 123.615   7
  -1   0  -1 4530.14 117.886  10
  -1   0  -1 4435.62 117.376   6
  -1   0   0 3561.06 98.6427   4
  -1   0   1 119226. 1883.45   8
  -1   0   1 120077. 1943.06   1
  -1   0   1 118819. 1881.81   4
  -1   0   1 117733. 1918.87   2
  -1   0   2 2074.84 110.645   1
  -1   0   2 2108.96 89.4707   2
  -1   0   2 1958.05 80.6871   8
  -1   0   2 1876.51 90.9810  11
  -1   0   3 63746.6 1119.68   2
  -1   0   3 64829.9 1158.56  11
  -1   0   3 64902.5 1136.62   8
  -1   0   4 10969.7 289.941   2
  -1   0   5 4177.58 168.875   2
  -1   0   6 6037.77 299.824  12
  -1   0   6 5698.47 316.512   9
  -1   0   6 6294.37 226.982   2
  -1   0   7 3662.25 251.573  12
  -1   0   7 3625.22 276.476   9
  -1   0   8 926.483 137.420  12
  -1   0   8 1002.38 159.545   9
  -1   1  -8 5770.65 377.887  10
  -1   1  -8 6773.80 372.169   8
  -1   1  -7 5038.21 318.530  10
  -1   1  -7 5050.53 294.548   8
  -1   1  -7 5401.18 264.912  11
  -1   1  -6 3122.41 187.103  11
  -1   1  -6 3291.94 214.014   8
  -1   1  -6 3056.25 219.446  10
  -1   1  -5 3583.53 189.369  11
  -1   1  -5 3894.96 212.741   8
  -1   1  -5 3814.26 219.158  10
  -1   1  -4 13808.6 381.713  11
  -1   1  -4 13407.9 404.010  10
  -1   1  -4 13757.3 397.482   8
  -1   1  -3 3544.07 154.755  11
  -1   1  -3 3615.29 163.654   8
  -1   1  -3 3667.15 157.051   1
  -1   1  -2 130018. 2144.60  10
  -1   1  -2 131110. 2130.77   1
  -1   1  -2 133830. 2150.62   8
  -1   1  -2 130005. 2140.63   7
  -1   1  -2 129098. 2060.32   6
  -1   1  -1 48639.5 797.000   2
  -1   1  -1 48761.2 828.301   8
  -1   1   0 12238.8 255.662   2
  -1   1   1 90892.7 1507.92   2
  -1   1   1 90494.3 1473.02   3
  -1   1   2 46066.1 859.070   2
  -1   1   2 47564.3 872.853   5
  -1   1   2 48456.5 846.980   3
  -1   1   3 5225.70 188.828   2
  -1   1   3 5718.39 187.942  11
  -1   1   4 16861.4 424.530   2
  -1   1   5 11733.7 352.069   2
  -1   1   6 4069.68 266.811  12
  -1   1   6 3571.60 260.008   9
  -1   1   6 3932.52 194.007   2
  -1   1   7 2287.35 217.406  12
  -1   1   7 2827.41 253.832   9
  -1   2  -8 323.229 74.3823  11
  -1   2  -8 403.311 94.4188   8
  -1   2  -8 489.771 104.384  10
  -1   2  -7 15831.1 532.655  11
  -1   2  -7 16224.6 600.945  10
  -1   2  -7 17054.4 571.310   8
  -1   2  -6 2919.54 212.044  10
  -1   2  -6 2793.78 190.738  11
  -1   2  -6 3205.38 207.486   8
  -1   2  -5 4828.17 237.291  11
  -1   2  -5 4763.89 246.641  10
  -1   2  -5 4614.85 227.928   8
  -1   2  -5 4781.38 240.117   1
  -1   2  -4 35208.0 774.377   1
  -1   2  -4 36437.2 765.391   8
  -1   2  -4 35630.0 773.972  11
  -1   2  -4 33810.8 774.667  10
  -1   2  -3 21832.3 478.634  12
  -1   2  -3 21218.2 488.326   8
  -1   2  -3 20884.2 505.644  11
  -1   2  -3 21841.6 503.634   1
  -1   2  -2 23839.3 485.525  12
  -1   2  -2 24083.4 497.457   9
  -1   2  -2 23780.1 484.646   8
  -1   2  -2 23285.0 492.689   7
  -1   2  -1 71345.3 1205.94   9
  -1   2  -1 70666.3 1178.78   8
  -1   2  -1 70431.4 1200.89   2
  -1   2   0 50681.0 891.773   9
  -1   2   0 51017.6 911.854   3
  -1   2   0 50699.4 915.211   2
  -1   2   1 7718.94 225.628   3
  -1   2   1 7442.74 231.833   2
  -1   2   2 33704.8 698.485   2
  -1   2   3 5895.94 189.247  11
  -1   2   3 6331.37 239.348   2
  -1   2   4 2864.36 165.205   2
  -1   2   5 6611.50 265.683   6
  -1   2   5 6334.72 271.666   2
  -1   2   6 1258.07 165.729  12
  -1   2   6 1013.53 147.994   9
  -1   2   7 3985.12 310.007  12
  -1   3  -9 6096.95 353.038  11
  -1   3  -8 4185.22 279.361  11
  -1   3  -8 4766.54 307.922   8
  -1   3  -7 547.959 96.1196   8
  -1   3  -7 229.481 61.5169  11
  -1   3  -6 8038.44 342.766   8
  -1   3  -6 7935.26 361.924   1
  -1   3  -6 8038.39 361.246  11
  -1   3  -5 1567.52 138.726  11
  -1   3  -5 1525.18 137.294   1
  -1   3  -5 2048.08 150.111   8
  -1   3  -4 12156.1 397.622  11
  -1   3  -4 12417.1 398.260   1
  -1   3  -4 12894.9 381.126   8
  -1   3  -4 12555.7 260.469   6
  -1   3  -3 35719.3 674.361   6
  -1   3  -3 37265.0 720.505  12
  -1   3  -3 36368.0 741.388   8
  -1   3  -3 36333.9 744.851   7
  -1   3  -2 7355.67 220.709   9
  -1   3  -2 6844.18 214.979   8
  -1   3  -2 6940.36 227.716   7
  -1   3  -2 7360.08 222.695  12
  -1   3  -1 21928.1 460.458   9
  -1   3  -1 22852.8 486.534  12
  -1   3  -1 21223.5 486.004   2
  -1   3   0 33436.6 702.323   2
  -1   3   0 33897.9 655.376   9
  -1   3   1 8559.37 288.667   2
  -1   3   2 5418.23 235.867   2
  -1   3   3 25328.4 636.522   2
  -1   3   4 3293.74 201.390   2
  -1   3   4 3660.32 209.006   6
  -1   3   5 2869.34 193.458   6
  -1   3   6 4955.20 340.237   9
  -1   3   6 5346.83 366.514  12
  -1   4  -8 6092.69 351.486   8
  -1   4  -8 5500.50 342.060  11
  -1   4  -7 4634.69 303.033   1
  -1   4  -7 4883.82 304.393  11
  -1   4  -7 4977.48 291.677   8
  -1   4  -6 12264.1 480.087   1
  -1   4  -6 12317.2 479.038  11
  -1   4  -6 13115.2 458.256   8
  -1   4  -5 12094.9 273.475   6
  -1   4  -5 11276.7 427.862  11
  -1   4  -5 12630.6 416.086   8
  -1   4  -5 12260.9 446.292   1
  -1   4  -4 414.391 70.0922  11
  -1   4  -4 299.640 56.5004   8
  -1   4  -4 319.711 42.6126   6
  -1   4  -3 6718.95 230.332   6
  -1   4  -3 7033.32 248.379   7
  -1   4  -3 6520.46 272.564  11
  -1   4  -2 31328.0 640.840   9
  -1   4  -2 31473.9 656.594   7
  -1   4  -1 7110.36 223.800   9
  -1   4   0 14979.7 436.858   2
  -1   4   1 16853.5 492.996   2
  -1   4   2 2686.49 181.691   2
  -1   4   2 2575.09 181.488   6
  -1   4   3 4043.57 237.805   6
  -1   4   4 3662.95 236.674   6
  -1   4   5 554.845 92.8238   6
  -1   4   5 493.278 103.300   9
  -1   5  -8 2079.37 220.581   1
  -1   5  -8 2752.57 231.555   8
  -1   5  -8 2236.71 219.590  11
  -1   5  -7 2661.27 240.314   1
  -1   5  -7 3046.12 251.895  11
  -1   5  -7 3125.44 230.408   8
  -1   5  -6 3800.15 264.769  11
  -1   5  -6 4114.74 246.063   8
  -1   5  -6 3439.48 254.799   1
  -1   5  -5 11864.8 325.601   6
  -1   5  -5 11829.4 416.667   8
  -1   5  -5 11187.3 445.359  11
  -1   5  -4 5924.16 232.790   6
  -1   5  -4 5443.55 280.261  11
  -1   5  -3 6128.86 279.494  11
  -1   5  -3 6323.72 255.356   6
  -1   5  -3 6573.60 250.483   7
  -1   5  -2 7341.66 291.600  11
  -1   5  -2 7406.29 295.121   6
  -1   5  -2 8113.58 268.660   7
  -1   5  -1 3362.80 178.004  11
  -1   5  -1 3534.45 160.611   7
  -1   5  -1 3334.61 201.363   6
  -1   5   0 574.383 86.6202   6
  -1   5   1 16156.9 525.186   6
  -1   5   2 3937.74 248.515   6
  -1   5   3 512.542 99.5391   6
  -1   5   4 7176.86 372.452   6
  -1   5   4 7318.46 388.614   9
  -1   6  -8 7746.27 454.299   1
  -1   6  -7 4718.60 331.259  11
  -1   6  -7 4103.11 316.107   1
  -1   6  -6 310.139 81.0322  11
  -1   6  -6 240.983 82.4223   1
  -1   6  -5 1643.05 168.087  11
  -1   6  -5 1940.68 135.368   6
  -1   6  -4 15411.4 465.732   6
  -1   6  -4 14202.8 511.574  11
  -1   6  -3 1016.45 118.851  11
  -1   6  -3 1239.90 124.345   6
  -1   6  -2 5111.93 255.688  11
  -1   6  -2 5057.86 270.200   6
  -1   6  -2 5527.11 225.140   7
  -1   6  -1 10323.7 355.944  11
  -1   6  -1 10260.7 416.271   6
  -1   6  -1 10992.8 321.350   7
  -1   6   0 4251.31 265.686   6
  -1   6   1 191.579 67.9839   6
  -1   6   2 4579.66 301.503   6
  -1   7  -7 6711.18 412.918  11
  -1   7  -7 7259.09 447.091   1
  -1   7  -6 3439.79 279.009  11
  -1   7  -5 4581.49 246.529   6
  -1   7  -5 4092.35 289.187  11
  -1   7  -4 1993.47 185.136  11
  -1   7  -4 2234.23 178.552   6
  -1   7  -3 3531.43 240.054   6
  -1   7  -3 3566.24 235.896  11
  -1   7  -2 1295.48 150.453   6
  -1   7  -2 1211.45 125.173  11
  -1   7  -1 9077.97 427.621   6
  -1   7   0 3273.26 259.824   6
  -1   8  -5 879.032 122.419   6
  -1   8  -5 711.185 127.726  11
  -1   8  -4 2278.93 201.577   6
  -1   8  -4 1841.76 189.953  11
  -1   8  -3 2771.22 231.751   6
   0  -7   0 5572.50 343.038   3
   0  -7   1 1293.26 161.389   3
   0  -7   2 5756.41 331.280   3
   0  -7   3 7860.99 400.798   3
   0  -7   4 1589.53 177.228   3
   0  -7   5 3740.43 283.954   3
   0  -7   6 2364.81 230.476   3
   0  -7   7 791.246 141.595   3
   0  -6  -2 3981.97 281.676   3
   0  -6  -1 3551.25 253.612   3
   0  -6   0 3341.67 235.212   3
   0  -6   1 2312.40 193.708   3
   0  -6   2 1931.76 176.893   3
   0  -6   3 8907.86 397.665   3
   0  -6   4 8669.11 397.803   3
   0  -6   5 2015.46 192.090   3
   0  -6   6 15760.2 602.460   3
   0  -6   7 3095.43 264.992   3
   0  -6   8 350.345 98.8166   3
   0  -5  -3 2557.53 213.758   3
   0  -5  -2 2086.28 183.240   3
   0  -5  -1 5901.11 297.607   3
   0  -5   0 1648.48 149.073   3
   0  -5   1 11331.2 201.669   5
   0  -5   1 10801.5 200.479   5
   0  -5   2 9998.43 377.449   3
   0  -5   2 9064.58 208.251   5
   0  -5   3 2550.31 111.552   5
   0  -5   3 2594.07 105.851   9
   0  -5   3 2453.23 182.979   3
   0  -5   4 4448.19 171.151   9
   0  -5   4 4594.97 259.680   3
   0  -5   5 9236.19 302.282   9
   0  -5   5 8764.07 392.135   3
   0  -5   6 839.461 98.5109   9
   0  -5   7 12812.8 458.405   9
   0  -5   8 4696.40 288.340   9
   0  -5   9 4076.67 290.494   9
   0  -4  -5 984.597 143.349  10
   0  -4  -4 3471.17 214.961   8
   0  -4  -3 9791.96 361.001   8
   0  -4  -3 10349.2 407.740   3
   0  -4  -2 2552.01 115.168   5
   0  -4  -2 2262.35 170.824   3
   0  -4  -1 3160.27 109.330   5
   0  -4  -1 3212.74 192.742   3
   0  -4   0 16094.4 456.203   3
   0  -4   0 15164.2 289.821   5
   0  -4   1 3334.16 188.010   3
   0  -4   1 3464.06 103.123   5
   0  -4   2 16856.3 340.149   9
   0  -4   2 16545.3 341.758   5
   0  -4   2 17527.5 482.199   3
   0  -4   3 10904.4 272.813   9
   0  -4   3 11234.0 378.533   3
   0  -4   3 10583.8 274.232   5
   0  -4   4 15607.5 394.431   9
   0  -4   4 15353.0 352.822  12
   0  -4   5 8144.95 294.851   9
   0  -4   5 8313.17 243.042  12
   0  -4   6 4519.49 184.556  12
   0  -4   6 4688.90 240.578   9
   0  -4   7 1701.75 158.985   9
   0  -4   8 13730.6 537.559   9
   0  -4   9 2174.36 216.493   9
   0  -3  -5 6882.27 318.848   8
   0  -3  -5 6952.97 371.686  10
   0  -3  -4 2873.21 183.847   8
   0  -3  -3 5791.30 210.483   5
   0  -3  -3 5205.35 235.853   8
   0  -3  -2 10992.5 278.397   5
   0  -3  -2 10292.9 349.106   3
   0  -3  -1 7814.73 272.437   3
   0  -3  -1 7487.17 188.574   5
   0  -3   0 25027.8 565.605   3
   0  -3   0 25065.0 442.595   5
   0  -3   1 33711.3 708.128   3
   0  -3   2 8577.05 208.691   9
   0  -3   2 9060.71 292.145   3
   0  -3   2 8927.90 257.903   2
   0  -3   2 9036.35 214.073   5
   0  -3   3 42364.9 769.334   5
   0  -3   3 41109.7 770.123   9
   0  -3   3 39966.2 731.985  12
   0  -3   4 5962.04 220.766   9
   0  -3   4 5755.82 180.493  12
   0  -3   5 5410.82 240.758   9
   0  -3   5 5434.13 198.774  12
   0  -3   6 10542.6 326.497  12
   0  -3   6 9934.75 385.223   9
   0  -3   6 10276.3 249.447   2
   0  -3   7 16802.6 577.646   9
   0  -3   7 17641.9 494.049  12
   0  -3   8 456.680 97.4470   9
   0  -2  -6 2509.14 221.998  10
   0  -2  -6 2585.78 197.566   8
   0  -2  -5 8911.43 391.315  10
   0  -2  -5 8247.03 337.980   8
   0  -2  -4 9981.32 382.448  10
   0  -2  -4 10761.8 339.078   5
   0  -2  -4 10487.6 353.576   8
   0  -2  -3 1691.85 105.600   5
   0  -2  -3 1652.00 117.992   8
   0  -2  -2 61227.0 1072.02   5
   0  -2  -2 61211.2 1147.31   3
   0  -2  -1 24632.4 455.780   5
   0  -2  -1 24826.0 528.725   3
   0  -2   0 13537.7 329.800   3
   0  -2   0 14252.2 259.439   5
   0  -2   1 69661.5 1120.33   9
   0  -2   1 67859.5 1205.46   3
   0  -2   2 159009. 2533.58  12
   0  -2   2 160291. 2555.14   5
   0  -2   2 158438. 2557.93   9
   0  -2   3 6114.71 170.789  12
   0  -2   3 6085.67 192.451   5
   0  -2   3 5988.13 200.354   9
   0  -2   4 27309.7 630.383   9
   0  -2   4 27785.4 569.343  12
   0  -2   5 7549.56 185.498   2
   0  -2   5 7509.59 303.735   9
   0  -2   5 7570.50 258.590  12
   0  -2   6 7304.20 330.721   9
   0  -2   6 6445.85 155.184   2
   0  -2   6 7022.45 276.489  12
   0  -2   7 5331.20 267.955  12
   0  -2   7 6269.78 338.133   9
   0  -2   8 6257.58 322.015  12
   0  -2   8 7132.17 398.528   9
   0  -1  -7 8799.34 447.547  10
   0  -1  -7 8044.81 376.421   8
   0  -1  -6 2998.16 234.046  10
   0  -1  -6 2966.63 202.122   8
   0  -1  -5 321.345 75.1964  10
   0  -1  -5 361.249 69.3655   8
   0  -1  -4 16190.0 488.573  10
   0  -1  -4 17646.7 451.210   5
   0  -1  -4 17408.2 326.970   4
   0  -1  -4 17303.6 464.424   8
   0  -1  -3 34123.0 658.830   2
   0  -1  -3 34526.3 684.330   5
   0  -1  -3 33114.0 696.075   8
   0  -1  -2 6203.60 179.261   2
   0  -1  -2 6252.27 179.715   5
   0  -1  -2 6097.70 190.005   8
   0  -1  -1 244724. 3861.04   5
   0  -1  -1 245770. 3901.93   3
   0  -1   0 5146.28 133.568   3
   0  -1   1 1639.06 70.3001  11
   0  -1   1 1631.68 55.5632   9
   0  -1   1 1671.82 50.7860  12
   0  -1   2 75713.8 1296.18  11
   0  -1   2 76637.7 1296.89  10
   0  -1   2 74307.7 1284.74   9
   0  -1   2 76496.0 1250.55  12
   0  -1   3 34245.1 656.994  12
   0  -1   3 33935.2 696.907   9
   0  -1   3 35802.0 691.851  10
   0  -1   3 33466.1 583.544   2
   0  -1   3 35090.3 712.157   1
   0  -1   3 32951.7 675.214  11
   0  -1   4 2620.36 88.7336   2
   0  -1   4 2701.64 160.466   9
   0  -1   4 2574.41 74.2052   4
   0  -1   4 2852.88 144.126  12
   0  -1   5 58436.0 1152.58  12
   0  -1   5 58913.9 1217.27   9
   0  -1   5 57016.8 976.552   2
   0  -1   6 3282.48 228.133   9
   0  -1   6 3161.87 198.935  12
   0  -1   7 575.883 106.757   9
   0  -1   7 364.439 73.7910  12
   0  -1   8 3666.13 291.610   9
   0  -1   8 3322.96 253.602  12
   0   0  -8 2387.02 209.732   8
   0   0  -7 5716.29 346.595  10
   0   0  -7 5876.68 310.079   8
   0   0  -6 16470.3 565.528  10
   0   0  -6 17565.8 533.491   8
   0   0  -5 4.91665 35.2837  10
   0   0  -5 44.5738 28.5447   8
   0   0  -4 9525.82 329.811  10
   0   0  -4 10351.3 312.402   5
   0   0  -4 9983.10 285.655  11
   0   0  -4 9364.65 306.257   8
   0   0  -4 9936.57 248.957   2
   0   0  -3 42740.5 795.106  11
   0   0  -3 44362.1 822.042   5
   0   0  -3 41544.8 821.194   8
   0   0  -3 43754.4 754.959   2
   0   0  -2 9224.68 226.439   5
   0   0  -2 8648.39 212.326  11
   0   0  -2 9408.25 194.077   2
   0   0  -2 9060.54 232.041   8
   0   0  -1 11491.0 229.368   5
   0   0  -1 12430.4 235.691   8
   0   0   1 12052.9 214.140   2
   0   0   2 7943.44 203.892  11
   0   0   2 8455.29 178.853   2
   0   0   2 8621.39 240.708   1
   0   0   2 8569.18 221.551   8
   0   0   3 43783.2 803.850  11
   0   0   3 42274.3 736.658   6
   0   0   3 43313.7 850.870  12
   0   0   3 42271.4 869.418   9
   0   0   3 44786.1 874.830   1
   0   0   3 44403.9 832.994   8
   0   0   3 42870.8 749.642   2
   0   0   4 10369.7 341.623  12
   0   0   4 10098.1 231.872   6
   0   0   4 10215.5 353.290   9
   0   0   4 10155.2 248.649   2
   0   0   5 56.2110 23.2655   2
   0   0   5 73.0186 16.9683   6
   0   0   5 33.9182 35.0434   9
   0   0   5 130.460 39.4732  12
   0   0   6 18286.8 586.056  12
   0   0   6 18775.5 621.900   9
   0   0   7 5749.55 332.379  12
   0   0   7 6274.85 369.614   9
   0   0   8 3012.22 253.193  12
   0   1  -8 3394.27 286.629  10
   0   1  -8 3285.72 247.040   8
   0   1  -7 354.220 88.9254  10
   0   1  -7 390.955 79.2381   8
   0   1  -6 3408.16 194.420  11
   0   1  -6 3216.86 229.316  10
   0   1  -6 3511.09 210.556   8
   0   1  -5 54876.3 1172.17  10
   0   1  -5 59131.3 1140.54   8
   0   1  -5 54359.3 1105.29  11
   0   1  -4 3068.23 155.595  11
   0   1  -4 2931.85 152.336   8
   0   1  -3 33288.9 648.327   5
   0   1  -3 33294.1 674.341  11
   0   1  -3 32297.1 690.177   1
   0   1  -3 31577.2 647.628   8
   0   1  -2 73921.3 1234.45   5
   0   1  -2 73607.3 1221.60  12
   0   1  -2 73367.6 1245.54   8
   0   1  -1 1646.21 54.2500   6
   0   1  -1 1612.86 62.8911   8
   0   1   0 5562.34 137.741   2
   0   1   1 246640. 3971.09   5
   0   1   1 253115. 3995.30   2
   0   1   2 6302.47 199.218   3
   0   1   2 5867.24 172.713   5
   0   1   2 5670.26 147.591  11
   0   1   2 5800.33 174.093   2
   0   1   3 33020.2 625.270  11
   0   1   3 33563.0 650.087   6
   0   1   3 34122.4 653.379   2
   0   1   4 16954.4 392.473  11
   0   1   4 16580.0 506.511   9
   0   1   4 16765.5 403.775   2
   0   1   4 17150.4 401.703   6
   0   1   5 270.961 41.6011   6
   0   1   5 216.047 56.5071   9
   0   1   5 230.248 56.6260  12
   0   1   6 2885.75 233.721   9
   0   1   6 2995.27 234.896  12
   0   1   7 8972.11 456.276  12
   0   1   7 9369.13 476.184   9
   0   2  -8 5860.71 376.048  10
   0   2  -8 6425.27 348.498   8
   0   2  -7 5106.45 313.888  10
   0   2  -7 4827.03 269.140  11
   0   2  -7 5235.66 284.439   8
   0   2  -6 6849.83 331.474  10
   0   2  -6 6635.70 296.418  11
   0   2  -6 6663.64 298.072   8
   0   2  -5 7595.75 299.935  11
   0   2  -5 7467.87 315.984  10
   0   2  -5 7829.47 327.088   1
   0   2  -5 8070.77 298.711   8
   0   2  -4 26148.2 646.565   1
   0   2  -4 27204.6 611.934   8
   0   2  -4 27488.1 640.997  11
   0   2  -3 5899.26 139.252   6
   0   2  -3 5791.40 170.816  12
   0   2  -3 6064.26 208.048   8
   0   2  -3 5650.66 224.404   1
   0   2  -2 158307. 2513.41  12
   0   2  -2 157384. 2542.74   9
   0   2  -2 158756. 2569.39   8
   0   2  -2 156924. 2525.25   6
   0   2  -1 72503.3 1191.37  11
   0   2  -1 70523.2 1186.96   6
   0   2  -1 68901.5 1135.36   9
   0   2  -1 68839.1 1151.70   7
   0   2  -1 69699.9 1158.23  12
   0   2   0 14216.3 326.329   6
   0   2   0 13220.6 269.310   9
   0   2   1 24412.2 527.880   6
   0   2   1 26128.4 542.338   3
   0   2   1 24583.4 469.625   5
   0   2   1 25018.1 526.123   2
   0   2   2 60700.4 1097.60   6
   0   2   2 61400.4 1054.84   5
   0   2   2 60419.8 1094.54   2
   0   2   2 57567.8 968.157  11
   0   2   3 1645.31 68.7654  11
   0   2   3 1816.96 117.685   6
   0   2   3 1650.15 110.644   2
   0   2   4 10456.3 331.204   6
   0   2   4 9953.50 389.623   9
   0   2   5 8895.52 310.391   6
   0   2   5 8563.94 408.482  12
   0   2   5 8437.60 391.796   9
   0   2   6 2410.87 230.768  12
   0   2   6 2367.28 222.273   9
   0   3  -8 437.591 87.7540  11
   0   3  -8 532.797 101.845   8
   0   3  -7 15911.5 552.122  11
   0   3  -7 17273.4 563.309   8
   0   3  -6 9875.93 389.960  11
   0   3  -6 9324.23 404.697   1
   0   3  -6 9870.82 375.554   8
   0   3  -5 5070.04 252.686  11
   0   3  -5 4589.38 251.691   1
   0   3  -5 4690.91 228.082   8
   0   3  -4 5350.00 178.425  12
   0   3  -4 5423.65 155.442   6
   0   3  -4 5191.84 239.176  11
   0   3  -4 5494.64 224.982   8
   0   3  -4 5138.19 246.653   1
   0   3  -3 38567.8 716.950   6
   0   3  -3 38820.5 744.202   9
   0   3  -3 39010.7 782.161   8
   0   3  -3 38713.5 706.089  12
   0   3  -2 8817.08 250.357   6
   0   3  -2 8920.35 216.974   9
   0   3  -2 9049.09 226.751  12
   0   3  -1 34059.3 655.586  11
   0   3  -1 33678.2 682.879   6
   0   3  -1 32762.7 595.354   9
   0   3  -1 34620.3 613.231   7
   0   3   0 25179.9 489.984  11
   0   3   0 25657.5 573.703   6
   0   3   0 26023.8 490.614   9
   0   3   1 7277.63 261.393   6
   0   3   2 9952.98 332.840   6
   0   3   2 10050.0 280.762   5
   0   3   3 5489.21 248.057   6
   0   3   4 2645.80 176.368   6
   0   3   4 2667.30 202.927   9
   0   3   5 7048.79 304.543   6
   0   3   5 6879.02 398.384  12
   0   3   5 7093.15 370.838   9
   0   3   6 975.160 148.069   9
   0   4  -8 12856.9 579.188   1
   0   4  -8 13410.6 547.757  11
   0   4  -8 13618.6 536.015   8
   0   4  -7 1877.50 178.578  11
   0   4  -7 2191.35 184.293   8
   0   4  -7 1807.89 190.442   1
   0   4  -6 3924.54 250.248  11
   0   4  -6 3951.92 262.712   1
   0   4  -6 4403.74 246.274   8
   0   4  -5 8341.69 227.701   6
   0   4  -5 7065.91 231.714  12
   0   4  -5 7969.35 315.155   8
   0   4  -5 7686.77 349.942   1
   0   4  -5 7634.69 339.324  11
   0   4  -4 15440.5 375.000   6
   0   4  -4 14649.5 463.275  11
   0   4  -4 15238.9 355.732  12
   0   4  -3 9944.11 341.586  11
   0   4  -3 10506.9 308.473   6
   0   4  -3 11296.9 283.048  12
   0   4  -3 10583.9 277.578   9
   0   4  -2 16391.3 430.575  11
   0   4  -2 16659.6 389.418  12
   0   4  -2 16300.5 344.728   9
   0   4  -2 16240.2 429.958   6
   0   4  -1 3148.79 143.607  11
   0   4  -1 3158.18 170.471   6
   0   4  -1 2958.24 111.475   9
   0   4  -1 3132.46 118.486   7
   0   4   0 15874.9 354.979  11
   0   4   0 15306.4 449.209   6
   0   4   0 15659.9 357.451   9
   0   4   1 3174.66 96.1280  11
   0   4   1 3536.93 198.639   6
   0   4   2 2224.87 164.964   6
   0   4   3 10128.9 395.283   6
   0   4   3 9542.39 385.299   9
   0   4   4 3715.97 236.581   6
   0   4   4 3984.12 260.483   9
   0   4   5 913.086 131.821   9
   0   5  -8 5092.90 318.170   8
   0   5  -8 4327.24 329.914   1
   0   5  -8 4543.75 315.553  11
   0   5  -7 11664.5 533.922   1
   0   5  -7 11486.4 496.577  11
   0   5  -7 12253.0 480.853   8
   0   5  -6 597.800 102.721  11
   0   5  -6 644.830 112.304   1
   0   5  -5 8532.05 379.716  11
   0   5  -5 8866.15 286.926   6
   0   5  -4 4229.78 197.547   6
   0   5  -4 4267.50 239.880  11
   0   5  -3 2270.96 158.054  11
   0   5  -3 2702.12 160.908   6
   0   5  -3 2468.38 112.151   9
   0   5  -2 9287.95 316.701  11
   0   5  -2 9038.01 335.212   6
   0   5  -2 8998.30 228.319   9
   0   5  -1 15685.7 485.788   6
   0   5  -1 15587.9 347.668   7
   0   5   0 1683.15 93.8734  11
   0   5   0 1508.09 140.903   6
   0   5   0 1545.08 76.4533   7
   0   5   1 5327.27 280.717   6
   0   5   2 2269.39 189.942   6
   0   5   3 2388.45 201.320   6
   0   5   3 2508.07 194.043   9
   0   5   4 1764.86 175.094   6
   0   6  -8 409.049 97.4543  11
   0   6  -8 361.563 89.6839   1
   0   6  -7 3242.97 261.320  11
   0   6  -7 2686.05 259.232   1
   0   6  -6 14383.3 561.230  11
   0   6  -6 15486.5 621.033   1
   0   6  -5 2291.07 155.450   6
   0   6  -5 2347.56 198.945  11
   0   6  -4 8092.21 323.484   6
   0   6  -4 7843.57 357.485  11
   0   6  -3 8270.93 343.708  11
   0   6  -3 8575.67 344.651   6
   0   6  -2 1832.47 139.903  11
   0   6  -2 1891.85 162.193   6
   0   6  -1 2257.83 136.791  11
   0   6  -1 2213.07 185.907   6
   0   6   0 3063.72 226.102   6
   0   6   1 3981.15 270.582   6
   0   6   2 3401.66 257.846   6
   0   7  -7 835.052 136.619  11
   0   7  -7 1121.34 177.680   1
   0   7  -6 2006.86 203.414  11
   0   7  -5 3787.67 229.147   6
   0   7  -5 3324.89 248.996  11
   0   7  -4 1647.83 157.732   6
   0   7  -4 1545.10 156.922  11
   0   7  -3 6482.11 335.785   6
   0   7  -3 6992.00 322.564  11
   0   7  -2 4703.68 288.952   6
   0   7  -1 1153.49 145.051   6
   0   7   0 4942.26 319.332   6
   0   8  -6 1276.14 166.095  11
   0   8  -5 6533.29 341.827   6
   0   8  -5 6144.57 351.348  11
   0   8  -4 3192.44 245.195   6
   0   8  -3 367.517 90.1599   6
   1  -8   3 2676.67 242.351   3
   1  -8   4 2961.75 266.403   3
   1  -7  -1 1122.54 151.318   3
   1  -7   0 3486.18 260.112   3
   1  -7   1 8202.26 402.421   3
   1  -7   2 1889.46 188.844   3
   1  -7   3 4153.34 285.995   3
   1  -7   4 2273.83 212.408   3
   1  -7   5 4703.77 320.644   3
   1  -7   6 2934.23 262.319   3
   1  -6  -2 4481.07 284.136   3
   1  -6  -1 112.573 61.1297   3
   1  -6   0 4318.79 260.451   3
   1  -6   1 11133.1 432.398   3
   1  -6   2 5543.32 297.737   3
   1  -6   2 5517.80 198.753   5
   1  -6   3 1086.29 137.437   3
   1  -6   4 15928.4 562.221   3
   1  -6   4 15610.4 417.195   9
   1  -6   5 2187.33 147.190   9
   1  -6   5 2140.15 199.925   3
   1  -6   6 261.311 66.2807   9
   1  -6   6 250.643 75.6513   3
   1  -6   7 4081.70 311.439   3
   1  -6   7 4315.46 256.463   9
   1  -6   8 8948.34 411.529   9
   1  -5  -3 381.234 85.6641   3
   1  -5  -2 3534.90 225.994   3
   1  -5  -1 16500.8 381.071   5
   1  -5  -1 16168.5 512.997   3
   1  -5   0 582.623 89.5862   3
   1  -5   0 422.888 45.6162   5
   1  -5   1 3290.28 203.926   3
   1  -5   1 3500.09 145.612   5
   1  -5   2 7929.04 329.499   3
   1  -5   3 7023.64 235.830   9
   1  -5   3 6492.49 304.317   3
   1  -5   4 6373.11 314.001   3
   1  -5   4 5953.92 235.177   9
   1  -5   5 12503.6 399.778   9
   1  -5   5 12507.1 366.743  12
   1  -5   6 4151.14 234.107   9
   1  -5   6 3869.22 193.472  12
   1  -5   7 2995.61 221.680   9
   1  -5   8 2489.25 219.422   9
   1  -4  -5 524.310 107.869  10
   1  -4  -4 3649.81 194.946   5
   1  -4  -3 4372.16 194.346   5
   1  -4  -3 4318.07 197.780   8
   1  -4  -3 4170.94 235.739   3
   1  -4  -2 2594.64 131.831   5
   1  -4  -2 2531.60 170.164   3
   1  -4  -1 16617.1 474.778   3
   1  -4  -1 17039.4 389.891   5
   1  -4   0 15615.7 436.458   3
   1  -4   0 15377.8 357.910   5
   1  -4   1 6402.90 257.912   3
   1  -4   2 31869.9 633.183   9
   1  -4   2 31141.6 727.689   3
   1  -4   3 7228.33 236.468  12
   1  -4   3 7006.91 236.088   9
   1  -4   3 6868.78 290.862   3
   1  -4   4 394.960 57.7219   9
   1  -4   4 339.099 51.0374  12
   1  -4   5 12658.4 406.559   9
   1  -4   5 12333.9 363.586  12
   1  -4   6 13406.1 409.265  12
   1  -4   6 14073.1 471.767   9
   1  -4   7 4898.23 289.554   9
   1  -4   7 5230.35 251.761  12
   1  -4   8 5473.80 336.875   9
   1  -3  -6 4745.74 328.464  10
   1  -3  -5 3318.64 248.695  10
   1  -3  -5 2861.65 187.037   5
   1  -3  -4 3420.30 184.139   5
   1  -3  -4 3082.57 170.252   8
   1  -3  -3 25567.8 582.915   5
   1  -3  -3 25494.7 573.330   8
   1  -3  -3 25793.7 634.005   3
   1  -3  -2 5734.40 232.044   3
   1  -3  -2 5825.29 201.161   5
   1  -3  -2 5667.85 193.981   8
   1  -3  -1 8150.44 229.047   5
   1  -3  -1 8107.36 265.893   3
   1  -3   0 33380.4 695.850   3
   1  -3   0 34408.7 649.529   5
   1  -3   1 23105.8 463.325   9
   1  -3   1 21846.4 510.841   3
   1  -3   1 22326.3 453.544   8
   1  -3   2 7197.35 216.850   9
   1  -3   2 7336.99 221.762   8
   1  -3   2 7517.52 222.431   2
   1  -3   2 7342.89 221.509  12
   1  -3   3 36748.9 742.026   9
   1  -3   3 36148.7 718.248  12
   1  -3   3 36932.7 685.999   2
   1  -3   4 13282.8 388.716   9
   1  -3   4 13150.0 288.678   2
   1  -3   4 13099.6 354.623  12
   1  -3   5 2170.05 133.856  12
   1  -3   5 1583.78 57.9953   2
   1  -3   5 1876.65 144.558   9
   1  -3   6 8122.89 351.702   9
   1  -3   6 8413.20 318.215  12
   1  -3   7 462.631 76.0459  12
   1  -3   7 487.776 94.8723   9
   1  -3   8 4588.98 311.970   9
   1  -3   8 4068.13 252.652  12
   1  -2  -6 1154.12 151.214  10
   1  -2  -6 1146.52 127.288   5
   1  -2  -6 1052.62 113.762   8
   1  -2  -5 6205.31 323.576  10
   1  -2  -5 6696.80 284.985   5
   1  -2  -5 6184.40 262.617   8
   1  -2  -4 3276.02 173.723   5
   1  -2  -4 3059.00 159.288   8
   1  -2  -3 6220.91 221.482   5
   1  -2  -3 5908.78 203.830   8
   1  -2  -2 34053.3 663.504   5
   1  -2  -2 34065.7 680.167   3
   1  -2  -2 33450.2 632.490   8
   1  -2  -1 6992.86 196.710   5
   1  -2  -1 6893.55 204.019   3
   1  -2   0 48545.3 859.406   3
   1  -2   0 47385.9 794.051   8
   1  -2   1 69746.1 1209.22   9
   1  -2   1 71512.7 1219.40  12
   1  -2   1 71784.1 1188.55   8
   1  -2   1 72461.6 1211.15   2
   1  -2   2 23838.3 448.195   2
   1  -2   2 24477.2 501.365   9
   1  -2   2 23991.8 487.379  12
   1  -2   3 21415.8 468.501  12
   1  -2   3 21756.6 493.472   9
   1  -2   3 20897.5 376.991   2
   1  -2   4 36554.2 755.930  12
   1  -2   4 36328.4 793.568   9
   1  -2   5 4811.23 247.119   9
   1  -2   5 5194.82 170.538   4
   1  -2   5 5370.79 235.198  12
   1  -2   6 3271.51 225.349   9
   1  -2   6 3215.67 198.706  12
   1  -2   7 16471.8 546.553  12
   1  -2   7 16558.4 600.609   9
   1  -2   8 376.754 98.4523   9
   1  -2   8 567.381 103.585  12
   1  -1  -7 2945.81 253.344  10
   1  -1  -7 2764.21 199.338   8
   1  -1  -6 3618.59 256.320  10
   1  -1  -6 3959.51 231.212   5
   1  -1  -6 3900.33 217.231   8
   1  -1  -5 10915.3 418.233  10
   1  -1  -5 12104.6 391.917   5
   1  -1  -5 11612.6 366.190   8
   1  -1  -4 15509.7 469.460  10
   1  -1  -4 16671.8 437.010   5
   1  -1  -4 16235.5 413.891   8
   1  -1  -3 5520.27 198.291   5
   1  -1  -3 5337.71 178.862   8
   1  -1  -2 45571.5 823.203   2
   1  -1  -2 45368.9 816.421   5
   1  -1  -2 43456.6 772.648   8
   1  -1  -1 91627.4 1498.59   5
   1  -1  -1 89842.0 1432.25   8
   1  -1  -1 90871.9 1467.11   3
   1  -1   0 12743.5 258.227   9
   1  -1   0 11947.7 240.126   3
   1  -1   0 12088.0 258.726  12
   1  -1   1 50509.5 819.911   2
   1  -1   1 49477.3 864.653   9
   1  -1   1 49413.7 862.732  12
   1  -1   2 137704. 2216.66  10
   1  -1   2 133923. 2245.20   9
   1  -1   2 134506. 2225.93  12
   1  -1   3 3692.28 160.533  12
   1  -1   3 3495.74 149.606  10
   1  -1   3 3347.22 148.078   1
   1  -1   3 3358.21 164.349   9
   1  -1   3 3546.64 118.959   4
   1  -1   4 13953.6 401.080  12
   1  -1   4 13906.1 424.009   9
   1  -1   4 14209.0 308.472   4
   1  -1   5 3532.37 216.888   9
   1  -1   5 3371.14 195.521  12
   1  -1   6 3430.80 219.657  12
   1  -1   6 3438.09 237.984   9
   1  -1   7 6107.45 328.657  12
   1  -1   7 6031.58 351.125   9
   1  -1   8 6843.33 410.462   9
   1  -1   8 6441.06 369.414  12
   1   0  -8 1321.50 182.652  10
   1   0  -8 1224.79 142.282   8
   1   0  -7 3783.96 277.106  10
   1   0  -7 3578.95 226.642   8
   1   0  -6 5523.93 303.666  10
   1   0  -6 6447.62 288.797   5
   1   0  -6 5608.72 262.240   8
   1   0  -5 3953.44 230.817  10
   1   0  -5 4244.37 209.230   5
   1   0  -5 4375.07 202.270   8
   1   0  -4 10997.0 300.459   2
   1   0  -4 10962.2 358.108  10
   1   0  -4 11340.5 333.831   5
   1   0  -4 10834.2 312.233   8
   1   0  -3 63685.6 1119.00   2
   1   0  -3 64487.2 1141.01   5
   1   0  -3 62268.5 1111.73   8
   1   0  -2 2060.26 91.5226   2
   1   0  -2 1965.04 90.9292   5
   1   0  -2 1919.29 78.9308   8
   1   0  -1 119708. 1893.94  10
   1   0  -1 116898. 1905.47   5
   1   0   0 3429.90 104.166   6
   1   0   0 3441.61 92.5701   9
   1   0   0 3310.29 93.4164  12
   1   0   1 4084.92 135.781  12
   1   0   1 4699.45 120.644   7
   1   0   1 4377.86 115.610   6
   1   0   1 4424.83 136.540   9
   1   0   1 4160.46 106.007   1
   1   0   1 4511.17 121.779   4
   1   0   2 75198.5 1332.96   1
   1   0   2 78293.0 1285.10   6
   1   0   2 78291.4 1372.65   9
   1   0   2 77723.7 1375.54  12
   1   0   2 82376.7 1326.19   7
   1   0   3 27995.4 641.298  12
   1   0   3 27914.3 519.559   6
   1   0   3 27941.8 638.230   9
   1   0   3 28909.6 611.839   1
   1   0   3 29424.6 586.692   7
   1   0   4 3811.35 207.113  12
   1   0   4 4124.39 216.755   9
   1   0   4 3903.57 126.715   6
   1   0   5 24868.5 703.050   9
   1   0   5 26275.2 491.805   6
   1   0   5 25550.7 696.619  12
   1   0   6 3392.84 243.950   9
   1   0   6 3515.11 242.199  12
   1   0   7 801.965 125.900  12
   1   0   7 860.400 136.818   9
   1   1  -8 6498.99 400.571  10
   1   1  -8 7058.18 354.422   8
   1   1  -7 9045.39 375.281   8
   1   1  -7 9001.38 434.475  10
   1   1  -6 10525.0 432.702  10
   1   1  -6 11999.4 406.641   5
   1   1  -6 11586.6 394.278   8
   1   1  -5 2877.68 189.256  10
   1   1  -5 3453.48 182.293   5
   1   1  -5 2932.98 167.429   8
   1   1  -4 2060.81 139.368  10
   1   1  -4 2048.17 127.904  11
   1   1  -4 2043.84 123.382   5
   1   1  -4 2092.03 122.256   8
   1   1  -3 34917.9 675.895   5
   1   1  -3 34655.7 676.101   8
   1   1  -2 32747.9 611.965   5
   1   1  -2 33514.8 621.058   8
   1   1  -2 34460.4 611.800   6
   1   1  -1 5648.51 129.736   5
   1   1  -1 5670.32 154.364   6
   1   1   0 278271. 4388.43   6
   1   1   0 283697. 4338.65   9
   1   1   0 276164. 4381.71  12
   1   1   1 19225.7 399.247   6
   1   1   1 18891.4 362.948   5
   1   1   1 19538.6 404.335   9
   1   1   1 19290.7 433.096  12
   1   1   1 19870.5 349.851   7
   1   1   2 332.416 40.3305   6
   1   1   2 357.652 49.3685   9
   1   1   2 299.260 34.7640   5
   1   1   2 321.075 31.8830   7
   1   1   2 324.750 52.3961  12
   1   1   3 5977.67 195.715   6
   1   1   3 5929.38 245.797   9
   1   1   3 6064.97 196.358   7
   1   1   3 6184.01 262.982  12
   1   1   4 11021.9 406.463  12
   1   1   4 11363.5 308.777   6
   1   1   4 11125.6 398.097   9
   1   1   5 1427.44 96.9120   6
   1   1   5 1617.81 164.787  12
   1   1   5 1410.82 148.987   9
   1   1   6 10543.1 473.789  12
   1   1   6 10611.5 471.107   9
   1   1   7 4621.41 330.102  12
   1   1   7 5081.46 343.219   9
   1   2  -8 3132.87 269.208  10
   1   2  -8 3042.65 228.676   8
   1   2  -7 5438.73 325.580  10
   1   2  -7 5639.27 289.372   8
   1   2  -6 10064.4 375.880  11
   1   2  -6 9384.97 396.924  10
   1   2  -6 9627.83 358.722   8
   1   2  -5 36216.3 830.144  11
   1   2  -5 36277.1 865.585  10
   1   2  -5 38477.4 804.620   5
   1   2  -5 36111.1 890.540   1
   1   2  -5 37408.8 813.586   8
   1   2  -4 21979.0 549.529  11
   1   2  -4 21994.3 563.534  10
   1   2  -4 23015.9 512.635   5
   1   2  -4 21600.7 583.498   1
   1   2  -4 22738.5 530.132   8
   1   2  -4 22192.8 457.875   6
   1   2  -3 4450.97 156.377   5
   1   2  -3 4339.10 172.980   8
   1   2  -3 4333.11 142.846   6
   1   2  -2 9561.26 214.655   5
   1   2  -2 9171.75 240.816   6
   1   2  -1 42995.3 785.878   6
   1   2  -1 44649.1 760.256  11
   1   2  -1 41622.9 681.181   5
   1   2   0 23746.6 504.343   6
   1   2   0 23845.2 430.421   9
   1   2   1 60508.5 1052.21   6
   1   2   1 56547.3 943.155   5
   1   2   1 58825.1 1014.07   9
   1   2   1 54990.9 913.851   7
   1   2   2 12061.9 337.510   6
   1   2   2 12279.5 289.779   5
   1   2   2 11920.6 346.872   9
   1   2   2 12089.3 266.796   7
   1   2   3 12509.8 361.072   6
   1   2   3 12182.1 436.026  12
   1   2   3 12281.3 400.103   9
   1   2   3 12579.9 310.446   7
   1   2   4 4249.07 263.516  12
   1   2   4 4782.32 211.718   6
   1   2   4 4456.19 251.594   9
   1   2   5 2233.15 146.191   6
   1   2   5 2364.71 200.214   9
   1   2   5 2349.72 209.538  12
   1   2   6 709.161 132.327  12
   1   2   6 816.561 133.169   9
   1   3  -9 6292.84 360.794   8
   1   3  -8 2360.40 202.692   8
   1   3  -7 5817.02 310.739  11
   1   3  -7 5823.24 348.766   1
   1   3  -7 6039.15 303.055   8
   1   3  -6 11595.8 430.147  11
   1   3  -6 11861.5 413.052   8
   1   3  -6 11691.1 477.410   1
   1   3  -5 13682.6 486.811   1
   1   3  -5 14147.3 456.639  11
   1   3  -5 14112.6 433.763   8
   1   3  -5 15306.6 355.303   6
   1   3  -4 29343.0 688.732  11
   1   3  -4 29422.4 587.523   6
   1   3  -4 27731.6 718.050   1
   1   3  -3 6717.44 217.024   6
   1   3  -3 6917.49 251.242  11
   1   3  -3 6416.45 136.648  12
   1   3  -2 19332.6 445.459   6
   1   3  -2 18779.1 363.063  12
   1   3  -1 28934.1 625.049   6
   1   3  -1 28934.5 566.324  11
   1   3   0 8302.44 278.621   6
   1   3   0 8320.58 203.499   9
   1   3   1 1012.93 94.8522   6
   1   3   1 932.417 75.0276   9
   1   3   1 1137.50 56.4852   5
   1   3   2 24145.2 593.336   6
   1   3   2 23079.0 570.366   9
   1   3   2 23750.1 486.846   5
   1   3   2 23527.7 438.586   7
   1   3   3 2323.57 158.753   6
   1   3   3 2285.32 164.574   9
   1   3   4 5134.17 253.167   6
   1   3   4 5171.56 285.310   9
   1   3   4 5217.31 321.755  12
   1   3   5 2390.62 231.118  12
   1   3   5 2083.91 198.478   9
   1   3   6 4124.56 301.507   9
   1   4  -8 3180.80 281.583   1
   1   4  -8 3289.09 257.160  11
   1   4  -8 3000.06 236.828   8
   1   4  -7 3761.41 257.220  11
   1   4  -7 4127.85 255.534   8
   1   4  -7 3766.08 283.437   1
   1   4  -6 22907.0 722.573   1
   1   4  -6 21517.0 655.035  11
   1   4  -6 22904.4 504.906   6
   1   4  -5 7674.15 331.378  11
   1   4  -5 8185.81 256.904   6
   1   4  -5 7296.70 354.150   1
   1   4  -4 4511.45 228.823  11
   1   4  -4 4756.31 195.851   6
   1   4  -4 4569.24 118.220  12
   1   4  -3 48603.6 969.543   6
   1   4  -3 48321.4 997.686  11
   1   4  -3 49630.2 849.696  12
   1   4  -2 7311.01 268.729   6
   1   4  -2 6997.73 206.848  12
   1   4  -1 6143.52 254.611   6
   1   4  -1 5939.68 194.005  11
   1   4   0 16422.6 478.722   6
   1   4   0 17224.6 347.462   9
   1   4   0 16502.7 360.858   9
   1   4   1 14289.1 452.986   6
   1   4   1 14713.3 383.046   9
   1   4   2 409.943 76.4093   6
   1   4   2 435.980 65.2259   9
   1   4   3 4069.82 243.403   6
   1   4   3 4548.36 247.026   9
   1   4   4 2111.55 221.246  12
   1   4   4 2316.85 187.365   6
   1   4   4 2128.49 184.238   9
   1   5  -8 18675.8 683.944  11
   1   5  -8 18899.2 753.030   1
   1   5  -7 4619.16 300.072  11
   1   5  -7 4616.76 330.386   1
   1   5  -6 952.522 127.349  11
   1   5  -6 1140.26 151.273   1
   1   5  -6 1127.42 98.8270   6
   1   5  -5 16626.1 454.542   6
   1   5  -5 15305.6 520.107  11
   1   5  -5 15146.1 565.961   1
   1   5  -4 12016.1 380.071   6
   1   5  -4 10856.0 397.620  11
   1   5  -3 69.2167 28.8544  11
   1   5  -3 24.8033 24.2092   6
   1   5  -2 25228.8 652.353   6
   1   5  -2 25124.9 588.308  11
   1   5  -1-17.8092 36.3349   6
   1   5   0 4591.67 253.386   6
   1   5   1 5544.73 293.594   6
   1   5   2 3037.22 223.503   6
   1   5   3 1428.69 179.543  12
   1   5   3 1396.88 158.150   6
   1   5   4 4230.87 283.388   6
   1   6  -8 2768.43 249.881  11
   1   6  -8 3015.18 291.628   1
   1   6  -7 15116.5 597.321  11
   1   6  -7 15688.1 670.885   1
   1   6  -6 1020.57 137.155  11
   1   6  -6 1194.05 113.789   6
   1   6  -6 735.761 130.374   1
   1   6  -5 5712.14 268.536   6
   1   6  -5 5084.83 289.612  11
   1   6  -4 10130.4 386.709   6
   1   6  -4 10618.5 405.359  11
   1   6  -3 2825.90 196.993   6
   1   6  -3 3113.32 190.394  11
   1   6  -2 2293.98 183.753   6
   1   6  -2 2413.40 146.733  11
   1   6  -1 21052.8 652.062   6
   1   6   0 344.801 82.3850   6
   1   6   1 1692.47 176.209   6
   1   6   2 1879.89 194.925   6
   1   7  -7 1118.09 153.580  11
   1   7  -7 1036.61 173.167   1
   1   7  -6 15014.0 586.470  11
   1   7  -6 16420.2 694.051   1
   1   7  -5 809.863 119.707  11
   1   7  -5 780.053 108.436   6
   1   7  -4 4159.35 263.741   6
   1   7  -4 4150.15 249.970  11
   1   7  -3 4185.01 272.655   6
   1   7  -2 1216.46 152.174   6
   1   7  -1 1359.91 165.576   6
   1   8  -6 1229.28 154.848  11
   1   8  -5 3733.92 264.866   6
   1   8  -4 177.406 65.5430   6
   2  -8   2 3445.33 271.465   3
   2  -8   3 1714.75 190.650   3
   2  -8   4 516.301 111.793   3
   2  -7  -1 4513.32 291.083   3
   2  -7   0 4182.19 276.578   3
   2  -7   1 1305.37 163.507   3
   2  -7   2 6548.84 350.913   3
   2  -7   3 10751.3 471.969   3
   2  -7   4 1212.46 156.092   3
   2  -7   5 189.117 73.7037   3
   2  -7   6 18626.9 711.847   3
   2  -6  -2 3268.00 230.709   3
   2  -6  -1 2140.86 180.101   3
   2  -6   0 6284.72 309.699   3
   2  -6   1 11336.9 432.104   3
   2  -6   1 12028.8 361.320   5
   2  -6   2 174.092 53.1552   3
   2  -6   3 8896.56 392.359   3
   2  -6   3 9265.05 318.556   9
   2  -6   4 4316.25 221.229   9
   2  -6   4 4790.43 290.722   3
   2  -6   5 2845.87 190.333   9
   2  -6   5 2560.62 224.961   3
   2  -6   6 5208.15 282.540   9
   2  -6   6 5514.19 351.625   3
   2  -6   6 5740.94 271.019  12
   2  -6   7 14312.8 531.965   9
   2  -6   8 1557.07 172.476   9
   2  -5  -3 1999.71 170.314   3
   2  -5  -2 7737.20 277.597   5
   2  -5  -2 7658.29 329.641   3
   2  -5  -1 330.377 68.3120   3
   2  -5  -1 392.312 55.5967   5
   2  -5   0 5136.37 246.139   3
   2  -5   0 4771.50 204.784   5
   2  -5   1 22679.1 611.801   3
   2  -5   2 13377.7 443.842   3
   2  -5   2 13427.7 383.462   9
   2  -5   3 598.395 73.7567   9
   2  -5   3 501.806 84.0399   3
   2  -5   4 19118.2 526.059   9
   2  -5   4 17978.3 591.458   3
   2  -5   4 19101.3 515.183  12
   2  -5   5 4183.93 234.883   9
   2  -5   5 3992.03 212.874  12
   2  -5   6 738.697 93.3325  12
   2  -5   6 786.674 110.422   9
   2  -5   7 3497.27 250.886   9
   2  -5   7 3449.23 217.717  12
   2  -5   8 13166.4 551.423   9
   2  -4  -5 1208.85 158.352  10
   2  -4  -4 13869.1 441.604   5
   2  -4  -3 3954.82 200.247   5
   2  -4  -3 4194.40 221.153   3
   2  -4  -2 2279.64 139.618   5
   2  -4  -2 2442.22 100.900   8
   2  -4  -2 2389.66 154.903   3
   2  -4  -1 16863.8 429.658   5
   2  -4  -1 16105.8 330.412   8
   2  -4  -1 16421.2 447.761   3
   2  -4   0 3340.48 175.173   3
   2  -4   0 3570.56 171.369   5
   2  -4   0 3540.59 119.597   8
   2  -4   1 3021.94 149.734   9
   2  -4   1 3116.36 172.179   3
   2  -4   1 2602.62 113.754   8
   2  -4   2 10072.4 310.044   9
   2  -4   2 10060.8 346.210   3
   2  -4   2 9692.37 316.255  12
   2  -4   3 20873.1 524.506   9
   2  -4   3 20618.9 519.589  12
   2  -4   4 6032.80 196.874   2
   2  -4   4 6269.02 265.899   9
   2  -4   4 5800.34 245.125  12
   2  -4   5 15668.6 498.898   9
   2  -4   5 15616.1 464.030  12
   2  -4   6 2005.42 175.247   9
   2  -4   6 1865.19 151.945  12
   2  -4   7 2910.97 233.257   9
   2  -4   7 2767.47 200.262  12
   2  -4   8 2778.07 249.849   9
   2  -4   8 2912.82 220.033  12
   2  -3  -6 6130.16 374.007  10
   2  -3  -6 5645.15 300.416   5
   2  -3  -5 2149.20 200.922  10
   2  -3  -5 2304.34 172.700   5
   2  -3  -4 1599.01 130.964   5
   2  -3  -3 5540.21 232.181   5
   2  -3  -3 5663.71 172.550   8
   2  -3  -2 11855.5 339.836   5
   2  -3  -2 11236.8 326.044   3
   2  -3  -2 10987.8 238.084   8
   2  -3  -1 23007.8 485.435   3
   2  -3  -1 23320.7 509.365   5
   2  -3  -1 19958.4 363.655   8
   2  -3  -1 20976.2 368.771   8
   2  -3   0 26546.6 548.950   3
   2  -3   0 24271.7 441.261   8
   2  -3   1 13118.6 343.237   9
   2  -3   1 12718.2 349.083   3
   2  -3   1 12698.9 288.169   8
   2  -3   1 13068.8 356.389  12
   2  -3   2 18215.4 407.893   2
   2  -3   2 18155.1 445.219   9
   2  -3   2 17866.0 410.974   8
   2  -3   2 17492.2 440.686  12
   2  -3   3 4680.01 152.538   2
   2  -3   3 4586.22 204.877   9
   2  -3   3 4958.07 205.660  12
   2  -3   4 4368.44 216.239   9
   2  -3   4 3836.28 112.492   2
   2  -3   4 4145.43 199.436  12
   2  -3   5 2843.90 177.055  12
   2  -3   5 2884.62 193.629   9
   2  -3   6 16709.4 563.996   9
   2  -3   6 17350.1 534.548  12
   2  -3   7 5087.82 287.097  12
   2  -3   7 4870.79 309.189   9
   2  -3   8 1445.53 161.987  12
   2  -3   8 1688.97 194.113   9
   2  -2  -7 947.299 127.447   5
   2  -2  -6 4455.37 298.418  10
   2  -2  -6 5008.33 276.034   5
   2  -2  -5 8886.96 396.831  10
   2  -2  -5 9888.45 369.409   5
   2  -2  -5 10217.3 312.251   8
   2  -2  -4 2606.44 181.740  10
   2  -2  -4 2598.54 160.412   5
   2  -2  -4 2624.40 126.608   8
   2  -2  -3 12392.1 359.356   5
   2  -2  -3 12171.3 278.490   8
   2  -2  -2 13719.6 319.251   3
   2  -2  -2 14276.2 364.036   5
   2  -2  -2 12719.8 248.007   8
   2  -2  -1 3670.48 126.601   3
   2  -2  -1 3891.41 163.480   5
   2  -2   0 13149.7 321.970   9
   2  -2   0 13116.5 292.615   3
   2  -2   0 12234.0 231.956   8
   2  -2   0 13322.9 332.437  12
   2  -2   1 46697.4 874.182   9
   2  -2   1 47223.7 841.280   2
   2  -2   1 45703.0 816.259   8
   2  -2   1 46568.7 875.707  12
   2  -2   2 34002.4 667.746  10
   2  -2   2 33072.3 686.992  12
   2  -2   2 33653.0 696.836   9
   2  -2   2 33422.2 610.691   2
   2  -2   2 34623.0 671.850   8
   2  -2   3 13991.7 400.532   9
   2  -2   3 13602.2 381.077  12
   2  -2   4 10231.5 343.391  12
   2  -2   4 10821.1 368.390   9
   2  -2   5 8744.92 360.449   9
   2  -2   5 9458.23 352.160  12
   2  -2   6 3381.46 235.016   9
   2  -2   6 3208.95 216.326  12
   2  -2   7 1942.24 194.661   9
   2  -2   7 2117.16 192.034  12
   2  -2   8 2491.33 220.412  12
   2  -1  -7 9689.25 483.382  10
   2  -1  -7 10592.4 438.626   5
   2  -1  -6 185.150 60.9822  10
   2  -1  -6 230.691 60.1651   5
   2  -1  -6 332.149 59.6954   8
   2  -1  -5 611.297 95.4925  10
   2  -1  -5 807.555 80.0115   8
   2  -1  -5 745.932 90.2998   5
   2  -1  -4 16393.9 481.131  10
   2  -1  -4 16888.7 454.086   5
   2  -1  -4 16180.9 390.644   8
   2  -1  -3 17008.8 471.429  10
   2  -1  -3 16987.7 387.663   8
   2  -1  -3 18163.5 368.863   4
   2  -1  -2 16331.0 383.592   5
   2  -1  -2 15057.1 287.752   8
   2  -1  -1 38201.5 724.173   5
   2  -1  -1 36593.7 603.500   3
   2  -1   0 54627.0 968.771   9
   2  -1   0 55093.2 964.725   2
   2  -1   0 54034.7 967.179  12
   2  -1   1 5387.59 155.496   2
   2  -1   1 5754.07 144.162  10
   2  -1   1 5636.69 187.587   9
   2  -1   1 5489.96 185.842  12
   2  -1   2 5341.11 162.171  10
   2  -1   2 5070.37 197.136   9
   2  -1   2 5439.05 178.057   4
   2  -1   2 4945.68 191.946  12
   2  -1   3 16838.9 394.155  10
   2  -1   3 16147.6 441.453   9
   2  -1   3 16694.0 383.801   4
   2  -1   3 15577.9 433.339  12
   2  -1   4 14194.4 444.880   9
   2  -1   4 14128.7 435.019  12
   2  -1   5 9223.63 365.430  12
   2  -1   5 9001.07 373.149   9
   2  -1   6 4056.45 267.140   9
   2  -1   6 4074.37 259.456  12
   2  -1   7 3047.24 244.128  12
   2  -1   7 3045.88 253.625   9
   2   0  -8 1900.24 215.722  10
   2   0  -8 1887.28 187.758   5
   2   0  -7 3952.35 282.439  10
   2   0  -7 3931.94 250.825   5
   2   0  -7 3823.82 222.759   8
   2   0  -6 10170.5 428.142  10
   2   0  -6 11010.6 400.114   5
   2   0  -6 10562.8 360.058   8
   2   0  -5 4661.16 247.255  10
   2   0  -5 4987.55 232.412   5
   2   0  -5 4859.20 206.515   8
   2   0  -4 12541.7 389.663  10
   2   0  -4 12381.3 364.232   5
   2   0  -4 12257.7 326.919   8
   2   0  -3 6200.97 222.997  10
   2   0  -3 5939.73 210.541   5
   2   0  -3 5777.81 178.464   8
   2   0  -2 7548.90 215.765  10
   2   0  -2 7520.89 224.662   5
   2   0  -1 51380.4 847.936  10
   2   0  -1 50095.3 909.977   5
   2   0  -1 49790.5 869.850  12
   2   0   0 72888.1 1240.49   9
   2   0   0 74087.6 1246.68  12
   2   0   0 73261.0 1291.04   6
   2   0   0 73370.7 1205.08   3
   2   0   1 33873.6 656.340   9
   2   0   1 34105.8 652.423   6
   2   0   1 34660.5 646.907   4
   2   0   1 34114.6 640.625   3
   2   0   1 32125.8 660.088  12
   2   0   2 17502.5 358.113   1
   2   0   2 17869.5 446.970  12
   2   0   2 18558.4 439.683   9
   2   0   2 18113.1 397.767   6
   2   0   3 18855.1 512.367  12
   2   0   3 19419.9 438.989   1
   2   0   3 19331.1 503.584   9
   2   0   3 19428.7 423.237   6
   2   0   4 13912.9 459.524   9
   2   0   4 14949.3 474.909  12
   2   0   4 15088.0 354.914   6
   2   0   5 643.525 96.3275   9
   2   0   5 632.847 96.8931  12
   2   0   6 6936.88 362.344  12
   2   0   6 5828.62 338.709   9
   2   0   7 5430.05 348.625  12
   2   0   7 5902.83 366.958   9
   2   1  -8 3120.58 271.852  10
   2   1  -8 3281.66 243.280   5
   2   1  -8 2895.67 213.140   8
   2   1  -7 174.412 63.6452  10
   2   1  -7 254.141 69.2448   5
   2   1  -7 122.777 49.6011   8
   2   1  -6 10437.8 429.280  10
   2   1  -6 11219.2 398.411   5
   2   1  -6 11696.0 384.173   8
   2   1  -5 21979.4 615.655  10
   2   1  -5 22241.2 563.298   5
   2   1  -5 21972.7 541.018   8
   2   1  -4 3480.61 187.087  10
   2   1  -4 4380.01 186.584   5
   2   1  -4 3869.90 169.022   8
   2   1  -3 54251.3 1040.99  10
   2   1  -3 55371.5 1009.17   5
   2   1  -2 37006.5 681.773  10
   2   1  -2 36730.8 721.166   6
   2   1  -2 33713.2 722.545   1
   2   1  -2 35194.6 668.579   5
   2   1  -1 10748.3 229.851   9
   2   1  -1 10801.8 251.868   3
   2   1  -1 10982.6 253.850   5
   2   1  -1 10930.2 268.451   1
   2   1  -1 10761.2 232.240  12
   2   1  -1 11059.2 291.377   6
   2   1   0 8332.73 244.566   6
   2   1   0 8730.89 232.146   3
   2   1   0 8738.35 209.212   9
   2   1   0 8775.52 232.333  12
   2   1   1 16617.5 389.448   6
   2   1   1 15643.1 398.745  12
   2   1   1 16042.4 369.682   9
   2   1   2 26157.1 532.556   5
   2   1   2 25755.5 618.096  12
   2   1   2 27000.4 590.193   9
   2   1   2 26303.8 566.017   6
   2   1   3 15054.3 386.791   6
   2   1   3 14915.6 464.456  12
   2   1   3 14347.1 432.302   9
   2   1   4 4993.88 202.899   6
   2   1   4 4453.34 258.755  12
   2   1   4 4893.62 256.433   9
   2   1   5 5911.01 328.974  12
   2   1   5 6363.11 327.543   9
   2   1   6 3512.01 265.508   9
   2   1   6 3467.56 272.487  12
   2   2  -9 442.104 92.6764   8
   2   2  -8 8004.41 442.945  10
   2   2  -8 8586.52 386.016   8
   2   2  -7 6034.19 346.759  10
   2   2  -7 6853.84 319.212   5
   2   2  -7 6403.69 304.517   8
   2   2  -6 3541.78 233.845  10
   2   2  -6 3635.73 206.321   5
   2   2  -6 3266.62 196.474   8
   2   2  -5 10040.0 379.272  10
   2   2  -5 10576.9 342.760   5
   2   2  -5 9775.05 401.176   1
   2   2  -5 10772.0 347.595   8
   2   2  -4 4957.55 193.554   5
   2   2  -4 4551.07 239.330   1
   2   2  -4 4406.35 192.443   6
   2   2  -3 6198.89 197.276   5
   2   2  -3 6398.08 224.247   6
   2   2  -2 72799.0 1168.05   6
   2   2  -2 71981.8 1074.47   5
   2   2  -1 10014.2 241.067  12
   2   2  -1 10535.0 301.472   6
   2   2  -1 10763.7 292.858   3
   2   2  -1 9825.58 210.928   5
   2   2   0 15767.6 390.242  12
   2   2   0 17027.8 419.093   6
   2   2   0 16042.0 327.196   9
   2   2   1 29793.9 660.604  12
   2   2   1 29375.2 639.905   6
   2   2   1 28157.8 528.561   5
   2   2   1 29130.2 586.759   9
   2   2   2 6315.32 276.972  12
   2   2   2 6630.62 248.698   6
   2   2   2 6104.10 189.232   5
   2   2   2 6180.32 237.039   9
   2   2   3 3334.94 214.255  12
   2   2   3 3163.45 174.395   6
   2   2   3 3091.41 186.633   9
   2   2   4 11875.2 476.277  12
   2   2   4 11716.5 435.337   9
   2   2   4 11761.3 384.152   6
   2   2   5 3086.37 252.323  12
   2   2   5 3591.33 251.664   9
   2   2   6 5127.16 330.764   9
   2   3  -6 8209.13 398.447   1
   2   3  -6 8383.27 320.026   5
   2   3  -5 16552.1 553.094   1
   2   3  -5 16318.5 443.388   5
   2   3  -5 16917.5 449.500   6
   2   3  -4 32727.9 762.716  11
   2   3  -4 33689.8 682.590   5
   2   3  -4 31640.5 818.884   1
   2   3  -4 34303.4 718.491   6
   2   3  -3 3861.46 177.785   6
   2   3  -3 3615.79 135.088   5
   2   3  -2 188.428 23.0910  12
   2   3  -2 170.028 41.9411   6
   2   3  -2 177.458 20.9573   5
   2   3  -1 39965.4 830.444   6
   2   3  -1 38647.5 756.731  12
   2   3   0 8023.98 282.641  12
   2   3   0 8145.17 295.981   6
   2   3   0 8190.96 197.217   9
   2   3   1 18322.5 494.882   6
   2   3   1 17645.9 411.301   9
   2   3   1 16644.3 326.253   5
   2   3   1 17730.6 503.612  12
   2   3   2 7806.11 342.628  12
   2   3   2 8677.80 327.018   6
   2   3   2 8440.04 295.292   9
   2   3   3 4944.68 290.033  12
   2   3   3 4689.38 244.518   6
   2   3   3 4730.11 242.025   9
   2   3   4 1769.63 187.279  12
   2   3   4 1714.63 151.577   6
   2   3   4 1764.93 162.745   9
   2   3   5 3597.39 295.618  12
   2   3   5 3536.65 255.352   9
   2   4  -8 1591.81 206.066   1
   2   4  -7 2163.43 217.912   1
   2   4  -6 7324.97 345.622  11
   2   4  -6 7025.88 379.340   1
   2   4  -6 7973.09 293.310   6
   2   4  -5 5590.41 278.121  11
   2   4  -5 5202.04 302.463   1
   2   4  -5 6284.74 251.742   6
   2   4  -4 24544.6 598.188   6
   2   4  -4 23742.7 622.946  11
   2   4  -4 24519.3 692.512   1
   2   4  -3 6634.36 143.796  12
   2   4  -3 7780.10 288.976   6
   2   4  -3 7445.73 274.220  11
   2   4  -3 6630.37 142.418  12
   2   4  -2 2567.88 119.997  12
   2   4  -2 2445.22 161.874   6
   2   4  -1 11305.5 341.723  12
   2   4  -1 11276.7 384.913   6
   2   4   0 11409.8 381.083  12
   2   4   0 11047.9 391.412   6
   2   4   0 10736.5 236.993   9
   2   4   1 1418.69 139.168  12
   2   4   1 1691.23 147.829   6
   2   4   1 1608.38 99.9628   9
   2   4   2 10802.5 450.797  12
   2   4   2 11305.9 428.047   6
   2   4   2 11485.1 364.120   9
   2   4   3 4031.46 286.798  12
   2   4   3 3752.87 244.883   6
   2   4   3 4055.27 227.298   9
   2   4   4 3143.94 272.134  12
   2   4   4 2737.10 214.876   6
   2   5  -8 2073.33 237.786   1
   2   5  -7 1922.02 216.631   1
   2   5  -6 12664.1 489.948  11
   2   5  -6 12608.3 547.550   1
   2   5  -6 13781.1 431.783   6
   2   5  -5 6696.55 286.492   6
   2   5  -5 6646.75 319.376  11
   2   5  -5 7029.75 372.572   1
   2   5  -4 3666.46 212.159   6
   2   5  -4 3622.52 211.464  11
   2   5  -3 22758.5 463.967  12
   2   5  -3 21539.4 612.983   6
   2   5  -2 3407.09 214.709   6
   2   5  -1 3551.08 225.515   6
   2   5   0 4605.75 256.267  12
   2   5   0 4759.67 271.485   6
   2   5   1 7499.96 366.489  12
   2   5   1 7292.78 357.841   6
   2   5   2 237.241 73.6917  12
   2   5   2 129.819 57.5892   6
   2   5   3 4059.43 309.620  12
   2   5   3 4524.42 294.850   6
   2   6  -7 1182.13 176.930   1
   2   6  -6 3682.97 257.910  11
   2   6  -6 3640.21 299.392   1
   2   6  -6 3958.95 229.443   6
   2   6  -5 5063.28 271.030   6
   2   6  -5 4911.84 281.257  11
   2   6  -4 7924.05 356.391   6
   2   6  -3 424.133 81.6730   6
   2   6  -2 12106.8 393.672  12
   2   6  -2 12282.5 478.007   6
   2   6  -1 244.349 56.8681  12
   2   6  -1 341.052 83.0034   6
   2   6   0 3446.93 242.239  12
   2   6   0 3281.75 251.980   6
   2   6   1 4032.93 285.267  12
   2   6   1 2783.13 239.682   6
   2   7  -6-41.6000 37.6375   6
   2   7  -6 58.5443 55.0655   1
   2   7  -5 2931.98 226.569   6
   2   7  -4 4264.14 280.881   6
   2   7  -3 2641.81 226.094   6
   2   7  -2 182.805 64.4531   6
   2   7  -1 7781.90 421.662   6
   3  -8   2 3035.94 246.132   3
   3  -8   3 1625.09 186.943   3
   3  -7   0 3321.87 235.684   3
   3  -7   1 4139.63 263.480   3
   3  -7   2 3176.67 238.768   3
   3  -7   3 2708.84 228.747   3
   3  -7   4 1063.74 118.009   9
   3  -7   4 952.712 141.680   3
   3  -7   5 12392.8 460.797   9
   3  -7   5 12823.6 556.252   3
   3  -7   6 1071.78 133.636   9
   3  -7   6 1247.22 177.254   3
   3  -6  -1 3799.03 231.907   3
   3  -6   0 5147.58 269.609   3
   3  -6   0 5380.60 250.265   5
   3  -6   1 2699.89 193.685   3
   3  -6   1 2778.99 184.731   5
   3  -6   2 3768.14 238.389   3
   3  -6   3 11597.2 406.091   9
   3  -6   3 11550.7 454.899   3
   3  -6   4 8169.27 344.111   9
   3  -6   4 7950.21 389.403   3
   3  -6   5 1657.49 160.700   9
   3  -6   5 1576.18 178.270   3
   3  -6   5 1565.25 148.861  12
   3  -6   6 10889.8 459.839   9
   3  -6   6 11113.8 436.246  12
   3  -6   7 387.462 97.3122   9
   3  -5  -3 1537.41 136.199   5
   3  -5  -2 6506.08 282.070   3
   3  -5  -2 6319.56 276.561   5
   3  -5  -1 8761.91 326.866   3
   3  -5  -1 8789.33 330.668   5
   3  -5   0 7262.05 294.283   3
   3  -5   0 8026.36 314.821   5
   3  -5   1 17674.0 513.490   3
   3  -5   2 2751.94 173.872   9
   3  -5   2 3134.94 198.559   3
   3  -5   3 7633.76 314.672   9
   3  -5   3 8553.57 362.158   3
   3  -5   3 8289.71 332.535  12
   3  -5   4 5848.32 280.482  12
   3  -5   4 6079.27 290.724   9
   3  -5   5 9552.83 397.644   9
   3  -5   5 10007.8 391.076  12
   3  -5   6 1867.55 180.251   9
   3  -5   6 1834.71 167.421  12
   3  -5   7 14055.5 565.915   9
   3  -5   7 14400.5 528.194  12
   3  -4  -5 4730.39 324.291  10
   3  -4  -5 4581.99 265.127   5
   3  -4  -4 6350.42 298.702   5
   3  -4  -3 2795.30 180.685   5
   3  -4  -2 3726.43 202.849   5
   3  -4  -2 3818.69 183.718   3
   3  -4  -1 5997.44 230.577   3
   3  -4  -1 5912.81 255.601   5
   3  -4   0 7574.13 266.732   3
   3  -4   0 7501.25 294.926   5
   3  -4   1 10869.7 350.859   9
   3  -4   1 11295.0 350.439   3
   3  -4   1 10860.6 265.923   8
   3  -4   2 47394.7 978.174   9
   3  -4   2 45421.1 985.930   3
   3  -4   2 47260.3 989.705  12
   3  -4   3 1620.93 138.956   9
   3  -4   3 1563.02 129.726  12
   3  -4   4 1553.40 136.357  12
   3  -4   4 1524.36 144.106   9
   3  -4   5 8864.63 378.764   9
   3  -4   5 8581.31 357.300  12
   3  -4   6 7633.34 378.710   9
   3  -4   6 8151.36 365.009  12
   3  -4   7 647.338 108.542  12
   3  -4   7 690.155 127.246   9
   3  -4   8 12528.4 520.783  12
   3  -3  -6 2689.35 245.021  10
   3  -3  -6 2323.47 195.990   5
   3  -3  -5 108.830 49.7301  10
   3  -3  -5 175.120 51.2327   5
   3  -3  -4 11328.1 400.560   5
   3  -3  -3 21145.0 567.210   5
   3  -3  -2 6038.42 253.910   5
   3  -3  -2 6067.66 203.171   3
   3  -3  -1 5092.57 174.761   3
   3  -3  -1 5097.99 229.087   5
   3  -3   0 24853.8 531.517   3
   3  -3   0 24821.2 583.056   9
   3  -3   1 12015.5 360.232   9
   3  -3   1 11811.9 338.873   3
   3  -3   1 11987.6 283.586   8
   3  -3   1 12422.7 371.279  12
   3  -3   2 9384.08 324.027   9
   3  -3   2 9039.27 315.354  12
   3  -3   3 62739.9 1271.72   9
   3  -3   3 64578.2 1271.12  12
   3  -3   3 64896.8 1132.96   2
   3  -3   4 6796.15 304.392   9
   3  -3   4 7210.13 300.731  12
   3  -3   5 4604.46 263.962   9
   3  -3   5 4212.96 246.998  12
   3  -3   6 4595.31 290.617   9
   3  -3   6 4452.34 269.915  12
   3  -3   7 3016.77 260.003   9
   3  -3   7 2864.29 232.422  12
   3  -3   8 536.506 109.364  12
   3  -2  -7 1954.53 187.785   5
   3  -2  -6 5227.82 327.303  10
   3  -2  -6 5532.31 299.695   5
   3  -2  -5 5700.06 308.514  10
   3  -2  -5 6322.56 297.818   5
   3  -2  -4 162.805 48.0381  10
   3  -2  -4 181.000 51.4282   5
   3  -2  -3 9363.32 327.968   5
   3  -2  -2 33572.8 741.194   5
   3  -2  -1 19332.3 367.331   3
   3  -2  -1 18981.3 661.149   5
   3  -2   0 32469.9 674.257   9
   3  -2   0 30748.8 587.857   3
   3  -2   0 31167.7 678.495  12
   3  -2   1 23523.4 552.422   9
   3  -2   1 23747.3 516.323   2
   3  -2   1 23883.9 559.072  12
   3  -2   2 1005.66 71.4693  10
   3  -2   2 1046.66 101.239   9
   3  -2   2 1027.15 94.7251  12
   3  -2   3 304.677 61.0749  12
   3  -2   3 364.103 47.1517  10
   3  -2   3 310.625 56.3283   9
   3  -2   4 34264.3 816.226   9
   3  -2   4 31730.6 785.522  12
   3  -2   5 4048.12 249.847   9
   3  -2   5 4223.82 246.703  12
   3  -2   6 10026.8 443.427   9
   3  -2   6 8593.92 398.230  12
   3  -2   7 7669.30 422.331   9
   3  -2   7 8122.65 414.433  12
   3  -1  -7 745.299 124.268  10
   3  -1  -7 892.970 122.602   5
   3  -1  -6 3360.27 249.263  10
   3  -1  -6 3719.68 233.343   5
   3  -1  -5 19162.3 590.095  10
   3  -1  -5 19355.3 559.154   5
   3  -1  -5 19724.1 459.105   8
   3  -1  -4 4997.12 239.374  10
   3  -1  -4 5405.70 244.641   5
   3  -1  -3 4753.10 205.309  10
   3  -1  -3 4900.48 219.672   5
   3  -1  -3 4846.75 160.462   4
   3  -1  -2 19042.6 428.488  10
   3  -1  -2 18451.8 470.052   5
   3  -1  -2 18215.3 411.863   4
   3  -1  -1 31517.0 642.074   9
   3  -1  -1 30381.2 665.618   5
   3  -1  -1 29990.6 625.662  12
   3  -1   0 45866.6 889.431   9
   3  -1   0 46633.7 888.558  12
   3  -1   1 49463.8 834.635  10
   3  -1   1 52048.4 982.172  12
   3  -1   1 52944.7 978.905   9
   3  -1   2 45739.1 802.237  10
   3  -1   2 45186.3 924.596   9
   3  -1   2 45546.3 929.607  12
   3  -1   3 3872.56 205.534   9
   3  -1   3 3781.33 203.225  12
   3  -1   4 5231.58 264.659   9
   3  -1   4 4780.29 253.969  12
   3  -1   5 14809.6 525.700   9
   3  -1   5 15034.9 524.428  12
   3  -1   6 2071.82 198.529  12
   3  -1   6 1704.77 182.218   9
   3  -1   7 3592.53 285.948   9
   3  -1   7 3439.70 273.237  12
   3   0  -7 12011.4 524.639  10
   3   0  -7 11941.5 473.441   5
   3   0  -7 12579.5 414.344   8
   3   0  -6 931.599 120.115  10
   3   0  -6 1217.23 126.071   5
   3   0  -6 1205.06 106.230   8
   3   0  -5 2615.30 183.683  10
   3   0  -5 2804.70 179.279   5
   3   0  -4 21756.6 560.701  10
   3   0  -4 21911.9 552.504   5
   3   0  -3 17326.3 438.493  10
   3   0  -3 17928.9 457.696   5
   3   0  -2 11370.5 279.789  10
   3   0  -2 10834.8 319.048   5
   3   0  -1 19017.3 350.511  10
   3   0  -1 18378.2 340.149   3
   3   0  -1 19014.0 421.283   9
   3   0  -1 19195.2 451.917   5
   3   0  -1 19388.1 416.593  12
   3   0   0 26011.5 537.450   9
   3   0   0 25489.2 598.476   6
   3   0   0 25729.1 545.213  12
   3   0   0 24650.2 486.657   3
   3   0   1 3829.24 170.270   9
   3   0   1 4060.37 184.230   6
   3   0   1 3670.44 150.976   3
   3   0   1 3791.77 176.409  12
   3   0   2 17309.5 460.793   9
   3   0   2 17409.7 450.006   6
   3   0   2 17863.8 483.939  12
   3   0   3 11056.5 375.903   9
   3   0   3 11283.8 339.837   6
   3   0   3 11118.9 390.539  12
   3   0   4 4650.91 262.555  12
   3   0   4 5070.43 212.732   6
   3   0   4 5158.09 265.055   9
   3   0   5 8781.62 402.851  12
   3   0   5 8761.94 393.090   9
   3   0   6 5921.99 354.117  12
   3   0   6 5816.80 344.556   9
   3   1  -8 2235.94 227.463  10
   3   1  -8 2648.63 218.930   5
   3   1  -7 5128.32 324.059  10
   3   1  -7 5400.95 293.362   5
   3   1  -6 11126.8 442.981  10
   3   1  -6 11151.3 403.202   5
   3   1  -5 7865.36 328.998  10
   3   1  -5 8043.43 307.402   5
   3   1  -4 6219.95 255.527  10
   3   1  -4 5807.42 237.373   5
   3   1  -3 13590.9 416.477   1
   3   1  -3 14262.8 374.284  10
   3   1  -3 14009.5 374.294   5
   3   1  -2 5559.11 213.740   1
   3   1  -2 5376.74 191.403   5
   3   1  -2 5403.91 155.528  12
   3   1  -2 5369.86 234.424   6
   3   1  -1 22671.3 473.167   1
   3   1  -1 22357.5 462.319   3
   3   1  -1 21965.2 453.318   9
   3   1  -1 23555.8 552.113   6
   3   1  -1 21816.2 483.157   5
   3   1  -1 21925.4 461.093  12
   3   1   0 38692.2 748.822   3
   3   1   0 39196.1 733.903   9
   3   1   0 37524.3 683.817   1
   3   1   0 39869.9 817.629   6
   3   1   0 38116.5 760.859  12
   3   1   1 12959.1 375.590  12
   3   1   1 12797.7 345.892   9
   3   1   1 13542.6 381.405   6
   3   1   2 1017.10 103.679  12
   3   1   2 1042.71 97.5226   9
   3   1   2 1062.77 95.5149   6
   3   1   3 11375.0 417.571  12
   3   1   3 11727.0 393.666   9
   3   1   3 11845.9 363.836   6
   3   1   4 7450.82 337.939   9
   3   1   4 7421.91 359.823  12
   3   1   4 7849.32 291.756   6
   3   1   5 1643.34 179.499  12
   3   1   5 1652.56 167.994   9
   3   1   6 3226.82 274.465  12
   3   1   6 3258.43 260.388   9
   3   2  -8 2882.72 260.396  10
   3   2  -8 3091.04 230.886   5
   3   2  -7 336.006 81.1379  10
   3   2  -7 422.210 80.8449   5
   3   2  -6 5888.75 310.220  10
   3   2  -6 6320.86 282.552   5
   3   2  -5 15972.3 490.829  10
   3   2  -5 14785.8 434.749   5
   3   2  -5 14692.4 523.457   1
   3   2  -4 8401.40 276.782   5
   3   2  -4 8335.24 345.940   1
   3   2  -4 7607.96 305.803   6
   3   2  -3 11543.9 378.453   1
   3   2  -3 10985.8 304.442   5
   3   2  -3 11757.0 371.515   6
   3   2  -2 11550.5 250.057  12
   3   2  -2 11316.1 320.177   3
   3   2  -2 11021.2 284.959   5
   3   2  -2 11970.6 365.568   6
   3   2  -1 4431.27 132.836   9
   3   2  -1 4122.76 146.754   5
   3   2  -1 4173.21 157.175  12
   3   2  -1 4718.06 211.065   6
   3   2   0 7395.79 254.574  12
   3   2   0 7940.84 288.488   6
   3   2   0 7174.78 208.889   9
   3   2   1 3751.71 196.584  12
   3   2   1 3811.17 200.339   6
   3   2   1 3580.94 160.171   9
   3   2   2 9930.75 378.568  12
   3   2   2 10666.1 364.369   6
   3   2   2 10596.7 340.523   9
   3   2   3 7444.27 306.577   6
   3   2   3 7371.14 348.629  12
   3   2   3 7398.88 308.172   9
   3   2   4 2623.98 223.831  12
   3   2   4 2682.29 199.425   9
   3   2   4 2503.08 173.996   6
   3   2   5 1189.54 165.398  12
   3   2   5 1522.55 165.573   9
   3   3  -8 3243.70 233.490   5
   3   3  -7 5508.39 281.867   5
   3   3  -6 4145.76 220.388   5
   3   3  -6 4113.22 284.143   1
   3   3  -5 4749.70 214.966   5
   3   3  -5 4698.68 281.000   1
   3   3  -5 5199.88 253.571   6
   3   3  -4 470.187 71.9018   6
   3   3  -4 407.871 84.0897   1
   3   3  -4 654.433 67.2534   5
   3   3  -3 12931.4 317.167   5
   3   3  -3 12723.1 426.109   1
   3   3  -3 12921.5 408.669   6
   3   3  -2 24847.8 627.600   6
   3   3  -2 25191.9 487.261  12
   3   3  -2 25042.3 478.112   5
   3   3  -1 1550.64 62.0241   5
   3   3  -1 1832.07 143.204   6
   3   3  -1 1735.94 107.484  12
   3   3   0 6305.57 251.228  12
   3   3   0 6800.53 286.892   6
   3   3   0 5422.90 134.208   5
   3   3   0 6229.74 174.828   9
   3   3   0 6009.02 145.694   5
   3   3   1 6347.30 287.623  12
   3   3   1 6348.70 288.973   6
   3   3   1 6678.08 227.072   9
   3   3   2 2343.13 187.560  12
   3   3   2 2280.58 174.607   6
   3   3   2 2315.99 147.192   9
   3   3   3 3736.05 261.795  12
   3   3   3 3752.47 235.576   6
   3   3   3 4016.95 224.204   9
   3   3   4 2832.14 207.109   6
   3   3   4 2837.38 249.227  12
   3   3   4 2611.56 201.248   9
   3   4  -7 7400.39 429.039   1
   3   4  -6 4146.10 212.302   5
   3   4  -6 3770.79 281.810   1
   3   4  -6 4033.51 234.619   6
   3   4  -5 6305.81 344.049   1
   3   4  -5 6421.42 244.109   5
   3   4  -5 6987.46 306.162   6
   3   4  -4 6160.54 207.800   5
   3   4  -4 6207.62 319.152   1
   3   4  -4 6277.71 283.309   6
   3   4  -3 1827.76 148.441   6
   3   4  -3 1824.80 83.3634   5
   3   4  -2 7714.19 233.678  12
   3   4  -2 8272.31 338.459   6
   3   4  -1 4286.65 198.693  12
   3   4  -1 4249.16 243.796   6
   3   4   0 2928.98 184.799  12
   3   4   0 2971.83 208.089   6
   3   4   1 14340.1 498.775  12
   3   4   1 14337.9 507.309   6
   3   4   2 1075.10 137.771  12
   3   4   2 963.204 127.885   6
   3   4   3 1754.77 194.833  12
   3   4   3 1774.79 178.741   6
   3   5  -8 3558.57 321.095   1
   3   5  -7 2883.32 275.253   1
   3   5  -6 1211.50 134.325   6
   3   5  -6 1235.20 168.775   1
   3   5  -5 2480.14 228.706   1
   3   5  -5 2888.30 203.098   6
   3   5  -4 15817.7 580.123   1
   3   5  -4 16526.9 532.984   6
   3   5  -3 1470.76 149.403   6
   3   5  -2 3833.58 174.909  12
   3   5  -2 3765.09 245.299   6
   3   5  -1 7972.40 310.780  12
   3   5  -1 7107.02 355.043   6
   3   5   0 3221.62 214.387  12
   3   5   0 2750.26 220.812   6
   3   5   1 286.198 83.6526  12
   3   5   1 343.407 87.4857   6
   3   5   2 5906.32 354.950  12
   3   5   2 5449.71 335.630   6
   3   6  -7 2516.24 265.110   1
   3   6  -6 3289.13 233.194   6
   3   6  -6 3205.55 288.484   1
   3   6  -5 4879.80 339.471   1
   3   6  -5 4536.34 277.672   6
   3   6  -4 976.848 131.300   6
   3   6  -3 6115.43 339.196   6
   3   6  -2 2060.63 198.044   6
   3   6  -1 3900.29 283.788   6
   3   6   0 2656.72 211.959  12
   3   6   0 2582.77 236.601   6
   3   6   1 1803.28 191.312  12
   3   7  -6 4876.07 308.066   6
   3   7  -5 1620.93 179.164   6
   3   7  -5 1630.84 207.856   1
   3   7  -4 5919.70 357.277   6
   3   7  -3 929.650 142.606   6
   4  -7   2 6875.07 348.104   3
   4  -7   2 5673.28 311.886   5
   4  -7   3 6939.67 366.451   3
   4  -7   3 6185.93 317.526   9
   4  -7   4 1068.85 134.486   9
   4  -7   4 1137.79 150.259   3
   4  -7   5 6217.80 339.420   9
   4  -7   5 6041.77 374.144   3
   4  -7   6 2573.52 225.917   9
   4  -6  -1 380.069 74.2459   5
   4  -6   0 9047.36 352.337   3
   4  -6   0 8962.08 379.961   5
   4  -6   1 6514.77 301.130   3
   4  -6   1 6187.23 317.408   5
   4  -6   2 672.518 97.7739   9
   4  -6   2 760.933 108.852   3
   4  -6   3 5793.14 299.790   9
   4  -6   3 5751.62 311.963   3
   4  -6   4 3490.12 238.814   9
   4  -6   4 3438.44 254.152   3
   4  -6   4 3377.77 237.218  12
   4  -6   5 4843.62 297.820   9
   4  -6   5 5318.15 337.427   3
   4  -6   5 4885.67 294.502  12
   4  -6   6 6046.40 351.876   9
   4  -6   6 5418.34 320.598  12
   4  -6   7 1298.96 154.759  12
   4  -5  -3 1476.18 145.460   5
   4  -5  -2 3418.57 220.383   5
   4  -5  -1 2389.85 183.378   5
   4  -5  -1 2776.08 160.304   3
   4  -5   0 4272.88 207.575   3
   4  -5   0 4298.50 249.311   5
   4  -5   1 14956.5 454.951   3
   4  -5   1 14481.1 475.702   9
   4  -5   2 4688.17 254.792   9
   4  -5   2 5228.73 261.646   3
   4  -5   3 7086.54 327.156   9
   4  -5   3 7060.11 335.652   3
   4  -5   3 7464.34 339.578  12
   4  -5   4 19810.5 620.889   9
   4  -5   4 19560.4 615.638  12
   4  -5   5 5107.11 305.636   9
   4  -5   5 5507.74 306.681  12
   4  -5   6 3119.29 249.386   9
   4  -5   6 2958.99 231.640  12
   4  -5   7 4035.09 282.930  12
   4  -4  -5 2359.67 199.077   5
   4  -4  -4 3569.86 233.726   5
   4  -4  -3 2871.16 200.134   5
   4  -4  -2 7345.21 321.694   5
   4  -4  -1 16872.4 412.230   3
   4  -4  -1 16553.9 520.749   5
   4  -4   0 7315.24 252.841   3
   4  -4   0 7103.87 317.429   5
   4  -4   1 9801.58 362.493   9
   4  -4   1 10103.6 328.589   3
   4  -4   2 7985.05 328.900   9
   4  -4   2 7737.25 309.784   3
   4  -4   2 8020.86 332.167  12
   4  -4   3 6682.96 308.710  12
   4  -4   3 6792.68 314.075   9
   4  -4   4 9770.75 402.599   9
   4  -4   4 9068.44 383.913  12
   4  -4   5 13356.9 515.443   9
   4  -4   5 13698.8 507.861  12
   4  -4   6 544.063 100.821  12
   4  -4   6 557.954 112.492   9
   4  -4   7 9647.87 459.614  12
   4  -3  -6 2247.09 200.408   5
   4  -3  -5 5753.71 334.335  10
   4  -3  -5 5747.62 308.842   5
   4  -3  -4 3184.68 220.588  10
   4  -3  -4 3100.54 210.986   5
   4  -3  -3 2072.33 164.724   5
   4  -3  -2 4326.63 233.330   5
   4  -3  -1 14877.4 326.693   3
   4  -3  -1 15231.3 477.660   5
   4  -3   0 9128.38 256.996   3
   4  -3   0 9123.11 329.891   9
   4  -3   1 3361.05 191.946   9
   4  -3   1 3503.90 198.117  12
   4  -3   2 43304.8 956.315   9
   4  -3   2 43025.1 963.240  12
   4  -3   3 3140.18 203.335   9
   4  -3   3 2956.79 194.220  12
   4  -3   4 569.916 89.2086  12
   4  -3   4 572.164 95.0265   9
   4  -3   5 9511.38 426.879   9
   4  -3   5 10420.2 430.405  12
   4  -3   6 10852.9 488.223   9
   4  -3   6 10723.7 472.700  12
   4  -3   7 800.978 132.699  12
   4  -2  -6 3963.26 287.652  10
   4  -2  -6 4156.04 268.322   5
   4  -2  -5 359.482 75.7477  10
   4  -2  -5 474.095 87.0762   5
   4  -2  -4 11096.0 407.408  10
   4  -2  -4 11412.8 413.203   5
   4  -2  -3 22716.3 581.532  10
   4  -2  -3 22643.8 617.421   5
   4  -2  -2 3141.50 190.586   5
   4  -2  -1 463.745 86.0787   5
   4  -2   0 15440.0 435.640   9
   4  -2   0 14820.3 430.567  12
   4  -2   1 9842.22 239.552  10
   4  -2   1 9785.04 339.503   9
   4  -2   1 9519.22 334.953  12
   4  -2   2 12027.4 284.006  10
   4  -2   2 11679.5 401.196   9
   4  -2   2 12210.6 402.628  12
   4  -2   3 37470.3 879.812  12
   4  -2   3 36588.6 874.780   9
   4  -2   4 2140.39 177.932   9
   4  -2   4 2026.23 171.187  12
   4  -2   5 2852.01 221.774   9
   4  -2   5 2768.72 218.609  12
   4  -2   6 3039.63 252.567   9
   4  -2   6 2668.08 229.591  12
   4  -1  -7 2371.52 231.892  10
   4  -1  -7 2338.81 206.999   5
   4  -1  -6 1401.54 159.431  10
   4  -1  -6 2055.86 179.562   5
   4  -1  -5 3081.87 215.320  10
   4  -1  -5 3527.82 219.639   5
   4  -1  -4 2893.33 181.720  10
   4  -1  -4 3100.01 196.101   5
   4  -1  -3 28614.7 647.263  10
   4  -1  -3 28907.1 701.510   5
   4  -1  -2 20127.8 449.384  10
   4  -1  -2 19829.2 539.364   5
   4  -1  -1 7293.52 184.105  10
   4  -1  -1 7343.67 264.735   9
   4  -1  -1 7249.29 290.125   5
   4  -1  -1 7059.71 256.026  12
   4  -1   0 18371.1 469.885   9
   4  -1   0 17244.0 358.663   3
   4  -1   0 17374.2 462.072  12
   4  -1   1 9923.89 330.459   9
   4  -1   1 9319.91 324.459  12
   4  -1   2 1597.06 134.278   9
   4  -1   2 1529.65 131.993  12
   4  -1   3 2554.28 177.023   9
   4  -1   3 2501.67 182.598  12
   4  -1   4 24659.2 700.745   9
   4  -1   4 24575.6 707.751  12
   4  -1   5 740.577 120.881  12
   4  -1   5 872.921 125.606   9
   4  -1   6 4479.05 309.703   9
   4  -1   6 4027.44 291.876  12
   4   0  -7 1489.80 178.746  10
   4   0  -7 1266.23 149.765   5
   4   0  -6 5481.67 309.110  10
   4   0  -6 5575.55 292.442   5
   4   0  -5 12509.7 443.844  10
   4   0  -5 13280.9 442.907   5
   4   0  -4 5575.07 245.448  10
   4   0  -4 5500.05 254.031   5
   4   0  -3 4874.03 198.919  10
   4   0  -3 5000.86 227.479   5
   4   0  -2 14082.9 365.547  12
   4   0  -2 14617.5 333.727  10
   4   0  -2 13890.0 413.445   5
   4   0  -1 24633.4 460.283   3
   4   0  -1 25170.4 562.466   9
   4   0  -1 24342.4 590.837   5
   4   0  -1 25243.1 558.895  12
   4   0   0 11631.7 292.955   3
   4   0   0 11721.4 341.099   9
   4   0   0 11783.1 349.118  12
   4   0   1 12445.1 374.607   9
   4   0   1 12201.6 414.812   6
   4   0   1 13408.3 401.735  12
   4   0   2 14478.5 440.300   9
   4   0   2 15586.2 472.828   6
   4   0   2 14450.8 460.584  12
   4   0   3 7011.62 309.396   9
   4   0   3 7465.63 311.053   6
   4   0   3 7491.60 335.545  12
   4   0   4 423.793 87.8492  12
   4   0   4 592.552 95.4780   9
   4   0   4 427.724 72.0225   6
   4   0   5 7664.94 386.830   9
   4   0   5 7603.09 406.087  12
   4   0   6 658.130 127.637  12
   4   0   6 480.551 107.904   9
   4   1  -8 529.024 115.595  10
   4   1  -7 4452.87 305.118  10
   4   1  -7 5387.88 301.072   5
   4   1  -6 6379.33 330.901  10
   4   1  -6 7090.33 322.030   5
   4   1  -5 11788.2 416.994  10
   4   1  -5 11166.4 391.446   5
   4   1  -4 6881.01 271.585  10
   4   1  -4 6392.59 266.346   5
   4   1  -3 18458.3 483.002   5
   4   1  -2 21149.2 520.644   5
   4   1  -2 22018.4 471.293  12
   4   1  -2 21075.8 607.612   6
   4   1  -1 8071.72 238.926   3
   4   1  -1 7932.40 246.199   9
   4   1  -1 7751.78 269.276   5
   4   1  -1 7961.92 326.872   6
   4   1  -1 7741.62 251.258  12
   4   1   0 25038.4 563.079   9
   4   1   0 26533.0 669.350   6
   4   1   0 25009.0 590.749  12
   4   1   1 5706.07 231.461   9
   4   1   1 6226.86 277.065   6
   4   1   1 5628.42 251.973  12
   4   1   2 9322.33 333.445   9
   4   1   2 9511.13 357.558   6
   4   1   2 8697.21 357.779  12
   4   1   3 2926.22 197.450   9
   4   1   3 3035.57 196.955   6
   4   1   3 2680.94 206.505  12
   4   1   4 6160.53 320.817   9
   4   1   4 6710.00 304.831   6
   4   1   4 6338.07 353.869  12
   4   1   5 1238.17 153.812   9
   4   1   5 1460.95 183.942  12
   4   2  -8 5453.17 359.043  10
   4   2  -8 5673.61 325.303   5
   4   2  -7 4304.33 292.027  10
   4   2  -7 4838.53 277.925   5
   4   2  -6 5721.73 278.579   5
   4   2  -5 16216.1 476.764   5
   4   2  -4 8202.08 291.726   5
   4   2  -4 8635.25 360.687   1
   4   2  -3 3448.91 166.817   5
   4   2  -3 3373.13 197.065   1
   4   2  -3 3475.78 220.376   6
   4   2  -2 6270.84 221.895   5
   4   2  -2 6289.84 197.395  12
   4   2  -2 6678.90 300.288   6
   4   2  -1 16524.6 382.631   9
   4   2  -1 16688.8 413.935   5
   4   2  -1 17443.3 427.639   1
   4   2  -1 17191.8 519.225   6
   4   2  -1 17074.7 424.979  12
   4   2   0 2302.90 123.735   9
   4   2   0 2506.44 176.662   6
   4   2   0 2144.46 142.618  12
   4   2   1 19900.9 492.510   9
   4   2   1 19846.5 574.251   6
   4   2   1 18725.5 546.387  12
   4   2   2 2376.43 187.348  12
   4   2   2 2690.51 166.990   9
   4   2   2 2741.21 192.344   6
   4   2   3 1866.24 181.541  12
   4   2   3 1749.87 152.238   9
   4   2   3 1913.10 166.201   6
   4   2   4 2963.57 250.255  12
   4   2   4 3023.67 223.333   9
   4   2   5 4293.92 289.718   9
   4   3  -8 2518.61 210.142   5
   4   3  -7 3518.32 229.050   5
   4   3  -6 1987.53 154.953   5
   4   3  -6 2206.68 214.023   1
   4   3  -5 5532.38 324.295   1
   4   3  -5 5334.22 237.202   5
   4   3  -5 5519.31 300.454   6
   4   3  -4 22740.5 544.736   5
   4   3  -4 23256.5 676.689   1
   4   3  -4 23445.0 677.211   6
   4   3  -3 7786.22 241.918   5
   4   3  -3 7193.49 157.301  12
   4   3  -3 8526.47 355.114   6
   4   3  -3 7657.94 325.124   1
   4   3  -2 4624.33 163.436   5
   4   3  -2 4455.25 225.928   1
   4   3  -2 4462.62 166.003  12
   4   3  -2 4883.68 264.355   6
   4   3  -1 9494.76 246.873   5
   4   3  -1 10462.4 320.615  12
   4   3  -1 10063.3 393.692   6
   4   3   0 13537.2 476.030   6
   4   3   0 13126.9 323.848   9
   4   3   0 13525.9 315.877   5
   4   3   0 13168.2 419.455  12
   4   3   1 8.25078 25.4469  12
   4   3   1 58.3290 40.3752   6
   4   3   1-22.3881 25.4554   9
   4   3   2 10894.1 440.745   6
   4   3   2 10885.6 448.596  12
   4   3   2 11179.3 367.741   9
   4   3   3 2803.44 237.643  12
   4   3   3 3268.29 233.924   6
   4   4  -8 2186.52 190.551   5
   4   4  -7 4723.03 256.402   5
   4   4  -7 4509.00 344.386   1
   4   4  -6 4376.68 224.023   5
   4   4  -6 4222.89 304.496   1
   4   4  -6 3917.86 263.762   6
   4   4  -5 3258.14 250.898   1
   4   4  -5 3291.08 172.675   5
   4   4  -5 3321.04 236.493   6
   4   4  -4 664.105 104.172   1
   4   4  -4 778.714 109.645   6
   4   4  -4 795.119 72.8152   5
   4   4  -3 13492.5 315.663   5
   4   4  -3 14102.3 495.151   1
   4   4  -3 13852.0 495.957   6
   4   4  -2 6391.74 219.617  12
   4   4  -2 6905.38 335.029   6
   4   4  -1 4008.67 256.150   6
   4   4  -1 3940.70 200.058  12
   4   4   0 4149.67 231.588  12
   4   4   0 3874.14 256.708   6
   4   4   1 1786.19 167.183  12
   4   4   1 1802.66 178.120   6
   4   4   2 1496.25 169.608  12
   4   4   2 996.231 141.183   6
   4   4   3 4544.90 302.342   6
   4   5  -7 3526.59 307.607   1
   4   5  -6 6259.82 393.897   1
   4   5  -6 7043.59 373.264   6
   4   5  -5 2931.68 229.952   6
   4   5  -5 2912.86 250.439   1
   4   5  -4 1195.54 145.655   6
   4   5  -4 1080.40 144.329   1
   4   5  -3 2196.47 197.057   6
   4   5  -2 8524.92 407.576   6
   4   5  -1 938.235 135.359   6
   4   5   0 3834.80 241.028  12
   4   5   0 4062.24 293.219   6
   4   5   1 5707.65 329.539  12
   4   5   1 6148.67 366.590   6
   4   6  -6 1210.70 156.038   6
   4   6  -6 1125.66 170.566   1
   4   6  -5 2273.57 234.467   1
   4   6  -5 2040.91 206.527   6
   4   6  -4 5444.39 354.142   1
   4   6  -4 5411.84 337.674   6
   4   6  -3 2193.74 213.156   6
   4   6  -2 913.544 145.000   6
   4   7  -4 637.337 131.536   1
   5  -7   2 4564.25 302.063   5
   5  -7   3 272.408 74.5100   9
   5  -7   4 2408.25 213.903   9
   5  -6  -1 3014.64 228.150   5
   5  -6   0 6134.52 339.728   5
   5  -6   1-12.3462 39.4666   5
   5  -6   2 5549.21 312.522   9
   5  -6   3 8608.28 407.266   9
   5  -6   3 9335.95 405.922   3
   5  -6   4 1301.63 160.180  12
   5  -6   4 1154.16 145.343   9
   5  -6   4 1116.19 144.453   3
   5  -6   5 4812.79 318.766   9
   5  -6   5 4432.35 313.833   3
   5  -6   5 5094.46 322.198  12
   5  -5  -3 2273.85 196.731   5
   5  -5  -2 5616.47 313.965   5
   5  -5  -1 2983.69 224.892   5
   5  -5   0 5478.15 315.359   5
   5  -5   1 4633.50 270.022   9
   5  -5   2 2669.04 203.788   9
   5  -5   2 2516.44 178.785   3
   5  -5   3 3686.82 252.167   9
   5  -5   3 4196.91 256.091   3
   5  -5   3 4096.80 270.859  12
   5  -5   4 1391.97 160.855  12
   5  -5   4 1226.79 152.972   9
   5  -5   5 4848.23 320.716   9
   5  -5   5 4635.41 307.035  12
   5  -5   6 7997.65 421.133  12
   5  -4  -4 5818.71 334.456  10
   5  -4  -4 5824.03 322.668   5
   5  -4  -3 1926.17 181.487   5
   5  -4  -2 1757.97 168.577   5
   5  -4  -1 1399.07 148.828   5
   5  -4   0 5218.31 292.268   5
   5  -4   1 12172.8 446.159   9
   5  -4   1 12829.7 376.553   3
   5  -4   1 12427.6 459.828  12
   5  -4   2 3333.28 224.138   9
   5  -4   2 3443.49 201.425   3
   5  -4   2 3458.90 230.642  12
   5  -4   3 5089.78 290.858   9
   5  -4   3 5249.02 295.900  12
   5  -4   4 7170.09 372.164   9
   5  -4   4 8329.43 392.840  12
   5  -4   5 885.511 134.984  12
   5  -4   5 605.722 114.221   9
   5  -4   6 3522.65 285.595   9
   5  -4   6 3381.37 269.128  12
   5  -3  -5 1503.57 166.393  10
   5  -3  -5 1762.77 176.860   5
   5  -3  -4 3207.54 224.087  10
   5  -3  -4 3471.52 241.279   5
   5  -3  -3 8974.64 354.158  10
   5  -3  -3 8932.19 384.981   5
   5  -3  -2 2624.12 198.128   5
   5  -3  -1 10120.8 407.674   5
   5  -3   0 5235.21 171.652   3
   5  -3   0 5084.44 260.927   9
   5  -3   0 5203.38 264.398  12
   5  -3   1 4716.18 257.465   9
   5  -3   1 4882.54 266.378  12
   5  -3   2 2815.89 199.733   9
   5  -3   2 2669.02 196.045  12
   5  -3   3 5081.69 285.098   9
   5  -3   3 4259.94 265.619  12
   5  -3   4 12586.5 502.368   9
   5  -3   4 13877.6 520.566  12
   5  -3   5 4160.12 293.766   9
   5  -3   5 4387.43 294.026  12
   5  -3   6 378.974 94.0020  12
   5  -3   6 458.633 109.388   9
   5  -2  -6 4059.13 287.828  10
   5  -2  -6 4477.49 290.068   5
   5  -2  -5 7428.83 363.850  10
   5  -2  -5 7517.82 364.929   5
   5  -2  -4 837.303 102.230  10
   5  -2  -4 1038.99 124.655   5
   5  -2  -3 3611.04 193.454  10
   5  -2  -3 3550.30 227.798   5
   5  -2  -2 11766.8 339.526  10
   5  -2  -2 11421.8 428.605   5
   5  -2  -1 14015.8 330.103  10
   5  -2  -1 12880.7 426.407  12
   5  -2  -1 13501.0 469.292   5
   5  -2   0 8524.87 332.041   9
   5  -2   0 8753.79 339.124  12
   5  -2   1 4549.30 243.032   9
   5  -2   1 4740.75 248.252  12
   5  -2   2 10938.6 406.329   9
   5  -2   2 10080.7 396.817  12
   5  -2   3 1861.01 172.234   9
   5  -2   3 2018.99 177.210  12
   5  -2   4 1448.97 161.614   9
   5  -2   4 1491.52 165.104  12
   5  -2   5 6425.29 369.670   9
   5  -2   5 6792.65 383.473  12
   5  -1  -7 3096.38 266.008  10
   5  -1  -6 2445.95 210.834  10
   5  -1  -6 3008.73 230.018   5
   5  -1  -5 3663.10 232.852  10
   5  -1  -5 4090.58 254.298   5
   5  -1  -4 10476.8 372.814  10
   5  -1  -4 11094.9 421.402   5
   5  -1  -3 5397.11 221.790  10
   5  -1  -3 5347.40 271.631   5
   5  -1  -2 12097.7 306.511  10
   5  -1  -2 12020.5 429.035   5
   5  -1  -1 10093.7 337.463   9
   5  -1  -1 10058.6 366.746   5
   5  -1  -1 10237.5 333.886  12
   5  -1   0 1979.31 94.6836   3
   5  -1   0 2001.26 150.474   9
   5  -1   0 2141.95 151.934  12
   5  -1   1 16016.5 486.845   9
   5  -1   1 16508.9 499.054  12
   5  -1   2 14639.9 480.365   9
   5  -1   2 14503.7 488.201  12
   5  -1   3 8835.53 376.826   9
   5  -1   3 8440.90 380.525  12
   5  -1   4 3626.77 252.993   9
   5  -1   4 3464.34 255.002  12
   5  -1   5 3607.90 269.277   9
   5  -1   5 3424.19 272.105  12
   5   0  -7 3792.89 286.201  10
   5   0  -7 4793.82 302.496   5
   5   0  -6 3102.44 231.342  10
   5   0  -6 3328.20 235.013   5
   5   0  -5 527.281 84.6292  10
   5   0  -5 692.940 98.4645   5
   5   0  -4 9512.41 337.280  10
   5   0  -4 9643.30 374.412   5
   5   0  -3 33551.7 691.978  10
   5   0  -3 31557.3 783.301   5
   5   0  -2 5968.36 273.815   5
   5   0  -2 5958.96 236.498  12
   5   0  -1 15598.1 338.821   3
   5   0  -1 16688.7 452.130   9
   5   0  -1 15903.1 481.599   5
   5   0  -1 16571.9 450.795  12
   5   0   0 9394.67 327.994   9
   5   0   0 9330.61 336.063  12
   5   0   1 2317.06 162.314   9
   5   0   1 2217.34 165.281  12
   5   0   2 6373.72 293.843   9
   5   0   2 6576.08 314.282  12
   5   0   3 4475.04 263.516   9
   5   0   3 4751.35 283.408  12
   5   0   4 10544.9 448.585   9
   5   0   4 11085.9 485.492  12
   5   0   5 1065.93 155.644  12
   5   0   5 1058.00 147.119   9
   5   1  -7 1330.53 162.659  10
   5   1  -7 1712.04 171.667   5
   5   1  -6 4874.26 285.081  10
   5   1  -6 5241.91 285.789   5
   5   1  -5 5610.64 272.862  10
   5   1  -5 5320.31 271.666   5
   5   1  -4 5688.86 265.393   5
   5   1  -3 5027.59 240.285   5
   5   1  -2 16169.4 469.250   5
   5   1  -2 16613.7 424.081  12
   5   1  -1 18710.8 474.957   9
   5   1  -1 18467.8 511.817   5
   5   1  -1 18062.5 602.152   6
   5   1  -1 18857.0 488.633  12
   5   1   0 11080.0 352.385   9
   5   1   0 10945.3 448.282   6
   5   1   0 11333.5 383.444  12
   5   1   1 4543.65 226.878   9
   5   1   1 5188.92 295.282   6
   5   1   1 4724.15 251.706  12
   5   1   2 4770.81 247.636   9
   5   1   2 4558.81 280.348   6
   5   1   2 4531.20 266.203  12
   5   1   3 9437.70 392.733   9
   5   1   3 10006.2 431.629   6
   5   1   3 9311.38 426.813  12
   5   1   4 2542.19 210.423   9
   5   1   4 2830.04 247.000  12
   5   1   5 2993.65 246.957   9
   5   2  -7 3464.36 241.391   5
   5   2  -6 6341.14 307.617   5
   5   2  -5 8700.51 342.416   5
   5   2  -4 3912.64 207.036   5
   5   2  -3 13301.6 436.677   1
   5   2  -3 12462.0 387.076   5
   5   2  -3 11707.2 484.398   6
   5   2  -2 14770.3 418.917   1
   5   2  -2 13172.3 394.166   5
   5   2  -2 13947.2 370.474  12
   5   2  -2 13338.3 515.943   6
   5   2  -1 10570.8 308.421   9
   5   2  -1 9926.50 331.372   5
   5   2  -1 10539.0 442.229   6
   5   2  -1 10577.6 343.941  12
   5   2  -1 10920.3 308.919   1
   5   2   0 11474.9 347.757   9
   5   2   0 12697.8 483.664   6
   5   2   0 12069.3 403.590  12
   5   2   1 2887.43 172.467   9
   5   2   1 2672.63 214.593   6
   5   2   1 3289.51 214.926  12
   5   2   2 4730.95 242.995   9
   5   2   2 4727.02 292.018   6
   5   2   2 4378.98 275.397  12
   5   2   3 2637.98 195.952   9
   5   2   3 2051.28 195.981   6
   5   2   3 2385.38 216.140  12
   5   3  -7 3061.05 220.338   5
   5   3  -6 7366.64 323.344   5
   5   3  -5 6255.62 273.109   5
   5   3  -5 6400.43 356.776   1
   5   3  -4 2313.72 193.037   1
   5   3  -4 2532.35 153.211   5
   5   3  -4 2328.70 214.340   6
   5   3  -3 3729.43 177.623   5
   5   3  -3 4467.12 245.320   1
   5   3  -3 4134.91 280.451   6
   5   3  -2 7947.08 312.568   1
   5   3  -2 7240.23 245.921   5
   5   3  -2 7391.29 249.126  12
   5   3  -2 7873.25 385.082   6
   5   3  -1 4685.19 213.585   1
   5   3  -1 5051.38 302.961   6
   5   3  -1 4880.48 226.510  12
   5   3   0 422.799 73.1693  12
   5   3   0 523.518 94.8814   6
   5   3   1 13809.5 544.319   6
   5   3   1 12824.8 486.017  12
   5   3   2 1835.99 195.139   6
   5   3   2 1959.93 197.387  12
   5   3   3 474.884 103.171  12
   5   3   3 693.654 121.434   6
   5   4  -8 2455.18 202.711   5
   5   4  -7 3632.74 230.204   5
   5   4  -6 999.122 109.185   5
   5   4  -6 1016.62 151.724   1
   5   4  -5 5275.80 335.049   1
   5   4  -5 5482.32 345.595   6
   5   4  -4 12522.0 496.603   1
   5   4  -4 11407.6 508.782   6
   5   4  -3 3133.14 221.637   1
   5   4  -3 3166.66 252.659   6
   5   4  -2 1085.13 147.690   6
   5   4  -2 914.976 111.666   1
   5   4  -1 3117.51 251.497   6
   5   4   0 5392.92 337.075   6
   5   4   0 4916.56 271.486  12
   5   4   1 556.110 98.5698  12
   5   4   1 520.808 112.983   6
   5   4   2 4208.83 309.714   6
   5   4   2 3894.56 286.135  12
   5   5  -6 604.086 120.288   6
   5   5  -6 432.751 101.205   1
   5   5  -5 3427.73 279.205   1
   5   5  -5 4026.77 304.602   6
   5   5  -4 5394.08 332.944   1
   5   5  -4 5789.22 362.311   6
   5   5  -3 3568.25 255.807   1
   5   5  -3 4209.45 307.659   6
   5   5  -2 1700.41 197.788   6
   5   5  -1 3387.21 279.254   6
   5   6  -5 549.383 116.880   1
   5   6  -4 1796.97 200.220   1
   6  -6   0 3632.53 279.354   5
   6  -6   1 6112.21 372.482   5
   6  -6   2 1213.98 155.179   9
   6  -5  -2 2287.48 214.577   5
   6  -5  -1 435.926 107.164   5
   6  -5   0 5595.83 347.658   5
   6  -5   1 1621.07 171.829   9
   6  -5   2 5862.37 338.250   9
   6  -5   2 6114.51 350.761  12
   6  -5   3 6012.87 350.290   9
   6  -5   3 5316.70 334.598  12
   6  -5   4 4627.77 316.602   9
   6  -5   4 4652.02 317.616  12
   6  -4  -3 1993.90 196.321   5
   6  -4  -2 8102.88 404.420   5
   6  -4  -1 8963.44 433.752   5
   6  -4   0 694.394 119.673   5
   6  -4   1 3029.70 226.154   9
   6  -4   1 2843.08 224.482  12
   6  -4   2 5995.49 332.405   9
   6  -4   2 5864.43 331.909  12
   6  -4   3 7978.61 399.649   9
   6  -4   3 7512.33 391.525  12
   6  -4   4 1285.16 166.788  12
   6  -4   4 1593.96 181.472   9
   6  -3  -4 7699.24 394.841   5
   6  -3  -3 775.016 123.581   5
   6  -3  -2 2214.33 197.437   5
   6  -3  -1 3295.32 247.046   5
   6  -3   0 6914.27 335.027   9
   6  -3   0 7283.16 345.631  12
   6  -3   1 5957.17 313.766   9
   6  -3   1 6211.02 321.749  12
   6  -3   2 4888.55 292.183   9
   6  -3   2 4849.85 291.779  12
   6  -3   3 4063.67 275.620   9
   6  -3   3 4019.83 279.748  12
   6  -3   4 879.437 135.219  12
   6  -3   4 985.395 152.971   9
   6  -2  -5 2318.07 211.663   5
   6  -2  -4 3266.66 246.096   5
   6  -2  -3 14529.0 534.674   5
   6  -2  -2 709.979 112.600   5
   6  -2  -1 3561.76 248.315   5
   6  -2  -1 3013.28 203.415  12
   6  -2   0 6791.46 321.857   9
   6  -2   0 7129.67 327.234  12
   6  -2   1 9374.65 389.221   9
   6  -2   1 8439.94 380.727  12
   6  -2   2 2002.23 179.013   9
   6  -2   2 1978.68 183.839  12
   6  -2   3 3833.97 267.982   9
   6  -2   3 4058.37 275.100  12
   6  -2   4 9393.83 451.103   9
   6  -2   4 9459.20 461.757  12
   6  -1  -5 4098.66 272.542   5
   6  -1  -4 3486.89 241.761   5
   6  -1  -3 1738.63 164.827   5
   6  -1  -2 8094.27 368.125   5
   6  -1  -1 6987.64 309.196   9
   6  -1  -1 7199.35 345.122   5
   6  -1  -1 7262.73 311.215  12
   6  -1   0 7439.66 324.458   9
   6  -1   0 7569.67 337.045  12
   6  -1   1 1790.96 159.765   9
   6  -1   1 1948.31 169.310  12
   6  -1   2 3044.84 217.775   9
   6  -1   2 2837.58 219.880  12
   6  -1   3 3693.68 258.236   9
   6  -1   3 3806.19 270.402  12
   6  -1   4 1308.50 171.858  12
   6  -1   4 1814.88 187.843   9
   6   0  -6 3252.95 243.417   5
   6   0  -5 5471.94 309.023   5
   6   0  -4 3150.50 220.127   5
   6   0  -3 2558.40 194.233   5
   6   0  -2 7814.64 346.914   5
   6   0  -2 8540.34 318.646  12
   6   0  -1 5826.10 266.772   9
   6   0  -1 5785.30 294.880   5
   6   0  -1 5862.14 269.074  12
   6   0   0 2853.62 188.464   9
   6   0   0 2986.50 198.191  12
   6   0   1 8928.97 363.971   9
   6   0   1 9712.60 395.851  12
   6   0   2 3652.00 237.494   9
   6   0   2 3775.17 259.116  12
   6   0   3 4287.80 274.959   9
   6   0   3 4594.40 303.925  12
   6   0   4 1832.60 192.173   9
   6   0   4 1698.24 196.084  12
   6   1  -6 2514.83 206.717   5
   6   1  -5 1567.35 154.150   5
   6   1  -4 3581.34 225.613   5
   6   1  -3 7749.69 331.803   5
   6   1  -2 7496.54 325.953   5
   6   1  -2 8111.72 297.176  12
   6   1  -1 4470.27 219.556   9
   6   1  -1 4349.79 240.687   5
   6   1  -1 4626.95 234.802  12
   6   1   0 703.006 98.6381  12
   6   1   0 648.799 85.3038   9
   6   1   0 657.097 122.428   6
   6   1   1 5867.79 279.649   9
   6   1   1 5501.59 350.806   6
   6   1   1 6062.93 314.250  12
   6   1   2 2845.82 205.019   9
   6   1   2 2346.09 226.359   6
   6   1   2 2928.26 229.991  12
   6   1   3 528.034 107.842  12
   6   1   3 556.578 99.8068   9
   6   2  -7 4248.19 278.647   5
   6   2  -6 1289.36 141.581   5
   6   2  -5 3076.40 207.827   5
   6   2  -4 5879.33 280.234   5
   6   2  -3 767.624 95.2220   5
   6   2  -2 2907.99 178.974   5
   6   2  -2 3015.82 259.814   6
   6   2  -2 2977.73 166.278  12
   6   2  -1 11075.1 345.369   9
   6   2  -1 10256.1 367.820   5
   6   2  -1 11201.4 515.413   6
   6   2  -1 11151.7 384.456  12
   6   2   0 3890.91 212.938   5
   6   2   0 3620.17 291.258   6
   6   2   0 4201.94 244.904  12
   6   2   1 801.428 116.388  12
   6   2   1 766.216 131.722   6
   6   2   2 3077.04 268.027   6
   6   2   2 2583.34 223.532  12
   6   3  -7 3429.37 238.847   5
   6   3  -6 1828.07 161.318   5
   6   3  -5 2064.61 160.701   5
   6   3  -4 4763.30 233.575   5
   6   3  -4 5039.09 350.856   6
   6   3  -3 3509.52 293.386   6
   6   3  -2 5027.25 347.620   6
   6   3  -1 3594.56 294.261   6
   6   3   0 5100.95 351.094   6
   6   3   0 4883.35 273.389  12
   6   3   1 51.0385 30.6767  12
   6   3   1 60.0570 55.7823   6
   6   3   2 2139.20 230.214   6
   6   3   2 2136.08 208.183  12
   6   4  -5 542.590 104.379   1
   6   4  -5 565.756 135.821   6
   6   4  -4 174.923 78.7664   6
   6   4  -3 5068.91 362.902   6
   6   4  -2 5270.58 368.641   6
   6   4  -1 1771.70 211.277   6
   7  -4  -1 173.476 84.6362   5
   7  -4   0 9105.70 471.497   5
   7  -4   1 2447.66 217.886   9
   7  -4   1 2354.20 220.042  12
   7  -4   2 4045.44 294.400   9
   7  -4   2 3916.81 291.694  12
   7  -3  -3 2647.36 238.591   5
   7  -3  -2 5680.15 349.596   5
   7  -3  -1 5284.06 345.120   5
   7  -3   0 787.194 119.370  12
   7  -3   0 774.267 118.577   9
   7  -3   0 722.331 129.188   5
   7  -3   1 3599.05 261.247   9
   7  -3   1 3487.64 259.529  12
   7  -3   2 3747.77 278.321   9
   7  -3   2 3606.01 273.493  12
   7  -3   3 6398.12 376.978   9
   7  -3   3 6373.75 381.136  12
   7  -2  -3 1677.53 181.915   5
   7  -2  -2 7574.25 398.842   5
   7  -2  -1 4086.77 289.763   5
   7  -2  -1 3877.71 252.879  12
   7  -2   0 1743.52 172.365   9
   7  -2   0 1867.02 192.626   5
   7  -2   0 1585.92 163.530  12
   7  -2   1 7013.63 362.734   9
   7  -2   1 7383.79 380.211  12
   7  -2   2 5122.78 315.202   9
   7  -2   2 4985.05 323.420  12
   7  -2   3 1639.00 183.458   9
   7  -2   3 1684.09 191.641  12
   7  -1  -4 2271.71 209.430   5
   7  -1  -3 8849.32 421.859   5
   7  -1  -2 1681.77 177.198   5
   7  -1  -1 4029.25 274.544   5
   7  -1  -1 3850.70 242.651  12
   7  -1   0 1075.62 131.753   9
   7  -1   0 1468.91 168.823   5
   7  -1   0 1475.97 153.725  12
   7  -1   1 3083.53 228.442   9
   7  -1   1 2928.49 231.817  12
   7  -1   2 5394.07 318.812   9
   7  -1   2 5950.43 348.148  12
   7  -1   3 725.533 125.198  12
   7  -1   3 605.503 114.679   9
   7   0  -5 1249.93 153.667   5
   7   0  -4 4629.94 292.608   5
   7   0  -3 2736.28 215.491   5
   7   0  -2 1947.91 181.437   5
   7   0  -2 2130.82 165.425  12
   7   0  -1 6776.66 353.902   5
   7   0  -1 7955.84 346.573  12
   7   0   0 10135.1 403.709   9
   7   0   0 9162.94 418.068   5
   7   0   0 10452.3 425.612  12
   7   0   1 49.2692 48.5488  12
   7   0   1-25.9745 39.0137   9
   7   0   2 1443.07 172.082  12
   7   0   2 1358.58 152.647   9
   7   0   3 4872.07 312.332   9
   7   1  -5 5024.17 298.140   5
   7   1  -4 856.019 118.542   5
   7   1  -3 2861.12 210.572   5
   7   1  -2 2485.04 195.815   5
   7   1  -1 1548.08 157.188   5
   7   1  -1 1400.09 139.821  12
   7   1   0 3813.21 229.491   9
   7   1   0 4213.31 260.798   5
   7   1   0 4269.75 262.083  12
   7   1   1 3889.77 241.784   9
   7   1   1 3892.66 269.368  12
   7   1   2 537.000 108.850  12
   7   2  -6 2429.48 205.876   5
   7   2  -5 2741.74 208.072   5
   7   2  -4 1021.55 120.654   5
   7   2  -3 2838.87 198.322   5
   7   2  -2 7947.43 338.035   5
   7   2   0 70.8922 40.1771  12
   7   2   0 168.701 72.8272   6
   7   2   1 5403.52 396.694   6
   7   2   1 5908.36 340.136  12
   7   3  -2 844.133 157.247   6
   8  -2   0 1918.21 196.303   9
   8  -2   0 2158.66 208.746  12
   8  -1  -2 6486.09 378.202   5
   8  -1  -1 4966.27 334.045   5
   8  -1  -1 5096.66 303.908  12
   8  -1   0 1009.80 139.205  12
   8  -1   0 843.957 126.514   9
   8  -1   0 991.043 152.467   5
   8  -1   1 4150.64 287.663   9
   8  -1   1 5101.69 329.663  12
   8   0  -3 5451.65 331.788   5
   8   0  -2 2036.15 200.897   5
   8   0  -1 3395.99 261.641   5
   8   0  -1 3761.44 252.241  12
   8   0   0 301.312 71.7251  12
   8   0   0 361.094 77.5348   9
   8   0   0 263.772 81.7047   5
   8   0   1 1839.24 177.595   9
   8   0   1 1908.08 198.130   5
   8   1  -3 1430.58 158.855   5
   8   1  -2 2644.75 215.553   5
;
_shelx_res_checksum              85625
_shelx_res_file
;
TITL Asp-Cl 100K in P1
CELL  0.71073   5.5888   5.6045   6.1697  114.570   97.752   95.720
ZERR     1.00   0.0005   0.0006   0.0007    0.010    0.009    0.008
LATT  -1
SFAC  C    H    CL   N    O
UNIT  4    8    1    1    4
MERG   2
EQIV $1 x, y+1, z
HTAB C2 Cl1_$1
EQIV $2 x+1, y, z
HTAB C2 O3_$2
EQIV $3 x-1, y, z-1
HTAB C3 Cl1_$3
EQIV $4 x-1, y, z
HTAB C3 O1_$4
HTAB N1 O4
EQIV $5 x, y, z-1
HTAB N1 O2_$5
HTAB O1 Cl1
EQIV $6 x-1, y+1, z
HTAB C3 Cl1_$6
EQIV $7 x-1, y+1, z-1
HTAB O3 Cl1_$7
HTAB N1 Cl1_$3
EQIV $8 x, y-1, z
HTAB N1 O4_$8
HTAB N1 Cl1_$5
HTAB N1 O4
HTAB N1 O2_$5
HTAB O1 Cl1
HTAB O3 Cl1_$7
HTAB N1 Cl1_$3
HTAB N1 O4_$8
HTAB N1 Cl1_$5
HTAB N1 O4
HTAB N1 O2_$5
HTAB O1 Cl1
HTAB O3 Cl1_$7
HTAB N1 Cl1_$3
HTAB N1 O4_$8
HTAB N1 Cl1_$5
EQIV $9 x+1, y, z+1
HTAB O1 Cl1_$9
EQIV $10 x+1, y+1, z+1
HTAB C2 Cl1_$10
HTAB C2 O3_$2
HTAB N1 Cl1_$2
HTAB N1 Cl1
HTAB N1 O4_$8
HTAB N1 O2_$5
HTAB N1 O4
EQIV $11 x, y+1, z+1
HTAB C3 Cl1_$11
HTAB C3 Cl1
HTAB C3 O1_$4
HTAB O3 Cl1_$1
FMAP   2
PLAN   10
SIZE     0.057   0.091   0.138
ACTA
HTAB    2.00000
BOND   $H
CONF
LIST   4
WPDB  -2
L.S.   4
TEMP  -173.00
WGHT    0.033000
FVAR      11.81502
MOLE    1
CL1   3    0.336937    0.192795    0.006412    11.00000    0.01271    0.01316 =
         0.01092    0.00671    0.00192    0.00439
MOLE    2
O1    5    1.198546    0.454161    0.669202    11.00000    0.01201    0.01983 =
         0.01442    0.01251    0.00298    0.00548
O2    5    0.878562    0.562081    0.855335    11.00000    0.02069    0.03522 =
         0.01650    0.01947    0.00950    0.01319
O3    5    0.378709    0.901966    0.336105    11.00000    0.01136    0.02113 =
         0.02231    0.01635    0.00407    0.00603
O4    5    0.772315    1.005813    0.323792    11.00000    0.01273    0.02086 =
         0.02503    0.01756    0.00405    0.00304
N1    4    0.923691    0.470174    0.270970    11.00000    0.01102    0.01226 =
         0.00779    0.00583    0.00311    0.00305
C1    1    0.995337    0.552742    0.701630    11.00000    0.01040    0.01393 =
         0.01034    0.00694    0.00118    0.00284
C2    1    0.921743    0.669626    0.522688    11.00000    0.00989    0.01015 =
         0.00722    0.00486    0.00171    0.00204
C3    1    0.674030    0.753626    0.541605    11.00000    0.01105    0.01439 =
         0.01229    0.00907    0.00443    0.00503
C4    1    0.615718    0.899830    0.388081    11.00000    0.01031    0.01014 =
         0.00996    0.00445    0.00190    0.00306
H1    2    1.228375    0.380969    0.756131    11.00000    0.03886
H2    2    1.049061    0.825598    0.561212    11.00000    0.00778
H3    2    1.073729    0.402883    0.259074    11.00000    0.02298
H4    2    0.805663    0.330877    0.226169    11.00000    0.02308
H5    2    0.893989    0.539314    0.159571    11.00000    0.02845
H6    2    0.669109    0.879591    0.712098    11.00000    0.01270
H7    2    0.543833    0.608868    0.497313    11.00000    0.02016
H8    2    0.353443    0.977799    0.245156    11.00000    0.02562
HKLF 4
REM  Asp-Cl 100K in P1
REM R1 =  0.0216 for    2259 Fo > 4sig(Fo)  and  0.0220 for all    2273 data
REM    123 parameters refined using      3 restraints
END
WGHT      0.0330      0.0000
REM Instructions for potential hydrogen bonds
HTAB O1 Cl1_$9
HTAB C2 Cl1_$10
HTAB C2 O3_$2
HTAB N1 Cl1_$2
HTAB N1 Cl1
HTAB N1 O4_$8
HTAB N1 O2_$5
HTAB N1 O4
HTAB C3 Cl1_$11
HTAB C3 Cl1
HTAB C3 O1_$4
HTAB O3 Cl1_$1
REM Highest difference peak  0.298,  deepest hole -0.176,  1-sigma level  0.047
Q1    1   0.9613  0.6078  0.5932  11.00000  0.05    0.30
Q2    1   0.3723  0.1818  0.1377  11.00000  0.05    0.28
Q3    1   0.6548  0.7898  0.4372  11.00000  0.05    0.27
Q4    1   0.2720  0.2987 -0.0353  11.00000  0.05    0.26
Q5    1   0.3982  0.0657  0.0145  11.00000  0.05    0.24
Q6    1   0.9179  0.5623  0.3951  11.00000  0.05    0.22
Q7    1   1.1236  0.5475  0.6926  11.00000  0.05    0.20
Q8    1   1.2089  0.6033  0.7633  11.00000  0.05    0.19
Q9    1   0.9107  0.4255  0.7791  11.00000  0.05    0.19
Q10   1   0.3088  0.0457 -0.1107  11.00000  0.05    0.18
;
_shelxl_version_number           2.014
#END Tags that were not found in dictionaries
loop_
_space_group_symop_operation_xyz
'x, y, z'
loop_
_atom_site_type_symbol
_atom_site_label
_atom_site_fract_x
_atom_site_fract_y
_atom_site_fract_z
_atom_site_U_iso_or_equiv
_atom_site_adp_type
_atom_site_calc_flag
_atom_site_occupancy
Cl Cl1 0.33694(3) 0.19280(4) 0.00641(3) 0.01163(9) Uani d 1
O O1 1.1985(2) 0.4542(3) 0.6692(2) 0.0134(2) Uani d 1
O O2 0.8786(3) 0.5621(3) 0.8553(2) 0.0200(3) Uani d 1
O O3 0.3787(2) 0.9020(3) 0.3361(2) 0.0156(3) Uani d 1
O O4 0.7723(2) 1.0058(3) 0.3238(2) 0.0169(3) Uani d 1
N N1 0.9237(3) 0.4702(3) 0.2710(2) 0.0096(2) Uani d 1
C C1 0.9953(3) 0.5527(4) 0.7016(3) 0.0110(3) Uani d 1
C C2 0.9217(3) 0.6696(3) 0.5227(3) 0.0087(3) Uani d 1
C C3 0.6740(3) 0.7536(3) 0.5416(3) 0.0110(3) Uani d 1
C C4 0.6157(3) 0.8998(3) 0.3881(3) 0.0100(3) Uani d 1
H H1 1.228(6) 0.381(7) 0.756(6) 0.039(9) Uiso d 1
H H2 1.049(4) 0.826(5) 0.561(4) 0.008(5) Uiso d 1
H H3 1.074(5) 0.403(6) 0.259(5) 0.023(7) Uiso d 1
H H4 0.806(5) 0.331(6) 0.226(5) 0.023(6) Uiso d 1
H H5 0.894(5) 0.539(6) 0.160(5) 0.028(7) Uiso d 1
H H6 0.669(5) 0.880(5) 0.712(4) 0.013(6) Uiso d 1
H H7 0.544(5) 0.609(6) 0.497(5) 0.020(6) Uiso d 1
H H8 0.353(5) 0.978(6) 0.245(5) 0.026(7) Uiso d 1
loop_
_atom_site_aniso_label
_atom_site_aniso_U_11
_atom_site_aniso_U_22
_atom_site_aniso_U_33
_atom_site_aniso_U_12
_atom_site_aniso_U_13
_atom_site_aniso_U_23
Cl1 0.01271(15) 0.01316(16) 0.01092(14) 0.00439(11) 0.00192(11) 0.00671(11)
O1 0.0120(6) 0.0198(6) 0.0144(5) 0.0055(5) 0.0030(4) 0.0125(5)
O2 0.0207(6) 0.0352(8) 0.0165(6) 0.0132(6) 0.0095(5) 0.0195(6)
O3 0.0114(6) 0.0211(6) 0.0223(6) 0.0060(5) 0.0041(5) 0.0163(5)
O4 0.0127(5) 0.0209(6) 0.0250(6) 0.0030(5) 0.0040(5) 0.0176(5)
N1 0.0110(5) 0.0123(6) 0.0078(5) 0.0030(5) 0.0031(5) 0.0058(5)
C1 0.0104(7) 0.0139(7) 0.0103(6) 0.0028(5) 0.0012(5) 0.0069(5)
C2 0.0099(6) 0.0101(7) 0.0072(6) 0.0020(5) 0.0017(5) 0.0049(5)
C3 0.0111(7) 0.0144(7) 0.0123(7) 0.0050(6) 0.0044(5) 0.0091(6)
C4 0.0103(7) 0.0101(7) 0.0100(7) 0.0031(5) 0.0019(5) 0.0045(6)
loop_
_atom_type_symbol
_atom_type_description
_atom_type_scat_dispersion_real
_atom_type_scat_dispersion_imag
_atom_type_scat_source
C C 0.0033 0.0016 'International Tables Vol C Tables 4.2.6.8 and 6.1.1.4'
H H 0.0000 0.0000 'International Tables Vol C Tables 4.2.6.8 and 6.1.1.4'
Cl Cl 0.1484 0.1585 'International Tables Vol C Tables 4.2.6.8 and 6.1.1.4'
N N 0.0061 0.0033 'International Tables Vol C Tables 4.2.6.8 and 6.1.1.4'
O O 0.0106 0.0060 'International Tables Vol C Tables 4.2.6.8 and 6.1.1.4'
loop_
_exptl_crystal_face_index_h
_exptl_crystal_face_index_k
_exptl_crystal_face_index_l
_exptl_crystal_face_perp_dist
0 1 -2 0.0413
1 2 0 0.0418
0 1 2 0.0443
1 -1 -1 0.0459
1 0 1 0.0340
0 -1 2 0.0443
-1 0 -1 0.0230
0 -2 1 0.0506
-1 -1 0 0.0228
0 2 -1 0.0406
-1 1 1 0.0439
loop_
_geom_angle_atom_site_label_1
_geom_angle_atom_site_label_2
_geom_angle_atom_site_label_3
_geom_angle
_geom_angle_publ_flag
C1 O1 H1 111(2) ?
C4 O3 H8 110(2) ?
C2 N1 H3 112.2(16) ?
C2 N1 H4 109.9(19) ?
H3 N1 H4 106(3) ?
C2 N1 H5 112(2) ?
H3 N1 H5 109(2) ?
H4 N1 H5 107(2) ?
O2 C1 O1 126.37(16) yes
O2 C1 C2 121.88(16) yes
O1 C1 C2 111.72(14) yes
N1 C2 C3 111.06(12) yes
N1 C2 C1 109.32(13) yes
C3 C2 C1 111.37(13) ?
N1 C2 H2 107.2(13) ?
C3 C2 H2 110.1(14) ?
C1 C2 H2 107.7(13) ?
C2 C3 C4 111.26(13) ?
C2 C3 H6 111.3(15) ?
C4 C3 H6 106.2(15) ?
C2 C3 H7 113.3(17) ?
C4 C3 H7 108.9(16) ?
H6 C3 H7 105(2) ?
O4 C4 O3 124.22(14) yes
O4 C4 C3 122.70(14) yes
O3 C4 C3 113.07(14) yes
loop_
_geom_bond_atom_site_label_1
_geom_bond_atom_site_label_2
_geom_bond_distance
_geom_bond_publ_flag
O1 C1 1.315(2) yes
O1 H1 0.81(3) ?
O2 C1 1.208(2) yes
O3 C4 1.323(2) yes
O3 H8 0.84(3) ?
O4 C4 1.209(2) yes
N1 C2 1.492(2) yes
N1 H3 0.95(3) ?
N1 H4 0.89(3) ?
N1 H5 0.92(3) ?
C1 C2 1.533(2) yes
C2 C3 1.510(3) yes
C2 H2 0.99(2) ?
C3 C4 1.513(2) yes
C3 H6 1.00(3) ?
C3 H7 0.95(3) ?
loop_
_geom_hbond_atom_site_label_D
_geom_hbond_atom_site_label_H
_geom_hbond_atom_site_label_A
_geom_hbond_site_symmetry_A
_geom_hbond_distance_DH
_geom_hbond_distance_HA
_geom_hbond_distance_DA
_geom_hbond_angle_DHA
N1 H5 O2 1_554 0.92(3) 1.93(3) 2.8030(19) 158(3)
N1 H4 O4 1_545 0.89(3) 2.14(3) 2.817(2) 132(2)
O1 H1 Cl1 1_656 0.81(3) 2.26(3) 3.0657(13) 176(3)
O3 H8 Cl1 1_565 0.84(3) 2.26(3) 3.0909(14) 173(3)
N1 H5 O4 . 0.92(3) 2.58(3) 3.099(2) 116(2)
N1 H3 Cl1 1_655 0.95(3) 2.33(3) 3.1682(15) 147(2)
N1 H4 Cl1 . 0.89(3) 2.66(3) 3.3562(15) 136(2)
C2 H2 O3 1_655 0.99(2) 2.56(2) 3.305(2) 132.1(18)
C3 H7 O1 1_455 0.95(3) 2.57(3) 3.357(2) 141(2)
loop_
_geom_torsion_atom_site_label_1
_geom_torsion_atom_site_label_2
_geom_torsion_atom_site_label_3
_geom_torsion_atom_site_label_4
_geom_torsion
_geom_torsion_publ_flag
O2 C1 C2 N1 -131.63(18) ?
O1 C1 C2 N1 50.39(19) ?
O2 C1 C2 C3 -8.5(2) ?
O1 C1 C2 C3 173.49(14) ?
N1 C2 C3 C4 -64.97(17) ?
C1 C2 C3 C4 172.92(13) yes
C2 C3 C4 O4 -21.3(2) ?
C2 C3 C4 O3 159.64(14) ?
