#------------------------------------------------------------------------------
#$Date: 2016-02-20 00:18:51 +0200 (Sat, 20 Feb 2016) $
#$Revision: 176760 $
#$URL: svn://www.crystallography.net/cod/cif/2/01/96/2019669.cif $
#------------------------------------------------------------------------------
#
# This file is available in the Crystallography Open Database (COD),
# http://www.crystallography.net/. The original data for this entry
# were provided by IUCr Journals, http://journals.iucr.org/.
#
# The file may be used within the scientific community so long as
# proper attribution is given to the journal article from which the
# data were obtained.
#
data_2019669
loop_
_publ_author_name
'Harvey, Miguel Angel'
'Suarez, Sebasti\'an'
'Cukiernik, Fabio D.'
'Baggio, Ricardo'
_publ_section_title
;
 The topotactic dehydration of monoclinic
 {[Co(pht)(bpy)(H~2~O)~2~]&#x00B7;2H~2~O}~<i>n~</i> into orthorhombic
 [Co(pht)(bpy)(H~2~O)~2~]~<i>n~</i> (pht is phthalate and bpy is
 4,4'-bipyridine)
;
_journal_coeditor_code           SK3564
_journal_issue                   10
_journal_name_full               'Acta Crystallographica Section C'
_journal_page_first              978
_journal_page_last               982
_journal_paper_doi               10.1107/S2053229614020427
_journal_volume                  70
_journal_year                    2014
_chemical_formula_iupac          '[Co (C8 H4 O4) (C10 H8 N2) (H2 O)2]'
_chemical_formula_moiety         'C18 H16 Co N2 O6'
_chemical_formula_sum            'C18 H16 Co N2 O6'
_chemical_formula_weight         415.27
_chemical_name_systematic
Poly[diaqua(\m~2~-benzene-1,2-dicarboxylato-\k^2^<i>O</i>^1^:<i>O</i>^2^)(\m~2~-4,4'-bipyridine-\k^2^<i>N</i>:<i>N</i>')cobalt(II)]
_space_group_crystal_system      orthorhombic
_space_group_IT_number           31
_space_group_name_Hall           'P 2ac -2'
_space_group_name_H-M_alt        'P m n 21'
_symmetry_space_group_name_Hall  'P 2ac -2'
_symmetry_space_group_name_H-M   'P m n 21'
_atom_sites_solution_hydrogens   geom
_audit_creation_method           SHELXL2013
_cell_angle_alpha                90.000
_cell_angle_beta                 90.000
_cell_angle_gamma                90.000
_cell_formula_units_Z            2
_cell_length_a                   7.575(5)
_cell_length_b                   11.410(5)
_cell_length_c                   10.106(5)
_cell_measurement_reflns_used    902
_cell_measurement_temperature    294(2)
_cell_measurement_theta_max      24.16
_cell_measurement_theta_min      3.82
_cell_volume                     873.5(8)
_computing_cell_refinement       'CrysAlis PRO (Oxford Diffraction, 2009)'
_computing_data_collection       'CrysAlis PRO (Oxford Diffraction, 2009)'
_computing_data_reduction        'CrysAlis PRO (Oxford Diffraction, 2009)'
_computing_molecular_graphics    'SHELXTL (Sheldrick, 2008)'
_computing_publication_material
;
SHELXL97 (Sheldrick, 2008) and PLATON (Spek, 2009)
;
_computing_structure_refinement  'SHELXL2013 (Sheldrick, 2013)'
_computing_structure_solution    'SHELXS97 (Sheldrick, 2008)'
_diffrn_ambient_temperature      294(2)
_diffrn_measured_fraction_theta_full 0.994
_diffrn_measured_fraction_theta_max 0.904
_diffrn_measurement_device_type  'Oxford Gemini S Ultra CCD area-detector'
_diffrn_measurement_method       '\w scans, thick slices'
_diffrn_radiation_monochromator  graphite
_diffrn_radiation_source         'fine-focus sealed tube'
_diffrn_radiation_type           MoK\a
_diffrn_radiation_wavelength     0.71073
_diffrn_reflns_av_R_equivalents  0.0780
_diffrn_reflns_limit_h_max       10
_diffrn_reflns_limit_h_min       -10
_diffrn_reflns_limit_k_max       14
_diffrn_reflns_limit_k_min       -13
_diffrn_reflns_limit_l_max       12
_diffrn_reflns_limit_l_min       -12
_diffrn_reflns_number            6622
_diffrn_reflns_theta_full        26.000
_diffrn_reflns_theta_max         29.218
_diffrn_reflns_theta_min         3.806
_exptl_absorpt_coefficient_mu    1.021
_exptl_absorpt_correction_T_max  0.74
_exptl_absorpt_correction_T_min  0.65
_exptl_absorpt_correction_type   multi-scan
_exptl_absorpt_process_details   '(CrysAlis PRO; Oxford Diffraction, 2009)'
_exptl_crystal_colour            violet
_exptl_crystal_density_diffrn    1.579
_exptl_crystal_density_method    'not measured'
_exptl_crystal_description       prism
_exptl_crystal_F_000             426
_exptl_crystal_size_max          0.40
_exptl_crystal_size_mid          0.35
_exptl_crystal_size_min          0.30
_refine_diff_density_max         0.714
_refine_diff_density_min         -0.415
_refine_ls_abs_structure_details
;
Flack (1983); refined as an inversion twin
;
_refine_ls_abs_structure_Flack   0.33(10)
_refine_ls_extinction_method     none
_refine_ls_goodness_of_fit_ref   1.003
_refine_ls_hydrogen_treatment    constr
_refine_ls_matrix_type           full
_refine_ls_number_parameters     230
_refine_ls_number_reflns         1973
_refine_ls_number_restraints     435
_refine_ls_restrained_S_all      0.923
_refine_ls_R_factor_all          0.0979
_refine_ls_R_factor_gt           0.0635
_refine_ls_shift/su_max          0.000
_refine_ls_shift/su_mean         0.000
_refine_ls_structure_factor_coef Fsqd
_refine_ls_weighting_details
'w = 1/[\s^2^(Fo^2^)+(0.0843P)^2^+0.9480P] where P=(Fo^2^+2Fc^2^)/3'
_refine_ls_weighting_scheme      calc
_refine_ls_wR_factor_gt          0.1484
_refine_ls_wR_factor_ref         0.1705
_reflns_number_gt                1427
_reflns_number_total             1973
_reflns_threshold_expression     I>2\s(I)
_cod_data_source_file            sk3564sup1.cf
_cod_data_source_block           I
_cod_depositor_comments          'Adding full bibliography for 2019669.cif.'
_cod_database_code               2019669
_cod_database_fobs_code          2019669
#BEGIN Tags that were not found in dictionaries:
_shelx_space_group_comment
;
The symmetry employed for this shelxl refinement is uniquely defined
by the following loop, which should always be used as a source of
symmetry information in preference to the above space-group names.
They are only intended as comments.
;
_shelx_hkl_file
;
   9   0   0-1328.49  908.23   7
   8   0   010304.30 1382.59   7
   7   0   0 1316.71  774.08   7
   6   0   020052.78 1370.54   7
   5   0   0  684.94  496.51   7
   3   0   0   50.51  126.53   8
   2   0   0266113.1  2671.8   8
  -2   0   0289539.1  3197.3   4
  -2   0   0283668.1  2955.5   2
  -3   0   0   85.15  178.39   2
  -3   0   0  133.39  113.13   8
  -3   0   0 -163.66  162.58   4
  -4   0   032924.49 1452.48   8
  -4   0   029713.54 1477.80   4
  -4   0   028557.84 1210.83   5
  -4   0   028029.14 1251.98   2
  -5   0   0  572.72  407.98   5
  -5   0   0  528.49  422.78   2
  -5   0   0 -580.07  283.06   4
  -6   0   018287.63 1088.99   5
  -6   0   020043.43 1339.94   2
  -6   0   021116.18 1478.61   4
  -7   0   0  610.01  405.55   5
  -7   0   0  874.91  517.04   4
  -8   0   0 8164.68  866.97   5
  -9   0   0  350.26  356.27   5
   9  -1   0 1513.09  741.34   7
   8  -1   012525.66 1397.59   7
   8   1   0 8986.49  688.08   7
   7   1   0 -817.64  688.63   7
   7  -1   0  516.04  494.22   7
   6  -1   022632.99 1336.38   7
   6   1   021448.19 1483.54   7
   5   1   013476.64 1228.18   7
   5  -1   011357.29  877.76   7
   3  -1   0 7229.11  452.11   8
   2   1   0 2018.15  274.98   8
   2  -1   0 1899.24  204.17   8
  -2  -1   0 2753.88  356.00   7
  -2  -1   0 2266.87  286.66   4
  -2  -1   0 2733.98  340.39   2
  -2   1   0 1654.96  138.59   1
  -2   1   0 2024.05  210.11   5
  -2  -1   0 1890.36  142.89   1
  -2   1   0 2115.35  240.34   8
  -2   1   0 1917.37  230.15   4
  -3   1   0 7629.68  586.59   4
  -3   1   0 6590.77  275.31   1
  -3  -1   0 6940.72  521.03   4
  -3   1   0 7827.26  523.22   5
  -3  -1   0 7428.90  540.53   2
  -3  -1   0 6093.80  201.31   1
  -4  -1   018015.19 1054.58   8
  -4   1   016615.69  858.63   5
  -4  -1   017523.79  975.77   2
  -4  -1   017119.04 1024.89   4
  -4   1   016173.54  989.99   4
  -5   1   010847.94  798.42   5
  -5  -1   013251.79 1053.49   8
  -5  -1   012135.99 1017.47   4
  -5  -1   011580.04  952.04   2
  -5   1   011688.19  997.20   4
  -6   1   020289.74 1072.36   5
  -6   1   022840.69 1485.80   4
  -6  -1   024602.79 1511.49   2
  -6  -1   021938.34 1208.66   5
  -6  -1   024281.74 1541.93   4
  -7   1   0  269.73  326.14   4
  -7  -1   0 -465.92  390.79   5
  -7   1   0  -54.56  281.17   5
  -7  -1   0  513.55  488.87   2
  -8  -1   010212.13  932.80   5
  -9  -1   0  707.15  402.73   5
 -10  -1   0 1552.39  565.58   5
   9  -2   0 2998.95  839.19   7
   8  -2   0 1100.64  628.48   7
   7  -2   0 1931.19  564.34   7
   6  -2   0  581.61  235.96   7
   5  -2   015044.15  936.20   7
   4  -2   0 6529.33  170.13   3
   3   2   0   14.92  110.42   4
   3  -2   0   69.55   81.36   8
   3   2   0   83.88   57.41   1
   2   2   018777.50  666.22   1
   2  -2   015327.10  543.93   1
   2   2   017400.36  678.81   4
   2   2   016790.61  726.93   8
   2  -2   015754.45  456.90   8
   1   2   011099.33  370.65   4
   1   2   011425.48  532.79   8
   1   2   011271.88  522.39   1
  -1   2   012030.88  572.14   6
  -1   2   0 9937.93  486.45   1
  -1   2   011262.78  526.24   4
  -2  -2   014577.15  649.37   2
  -2  -2   018341.15  717.53   4
  -2   2   017432.70  787.22   4
  -2  -2   017737.80  590.87   1
  -2  -2   014753.90  668.70   7
  -2   2   015606.85  583.51   1
  -3   2   0   95.48   73.61   1
  -3  -2   0  129.62   74.62   1
  -3  -2   0  383.41  260.25   2
  -3   2   0   -3.09  210.42   4
  -3  -2   0  223.19  159.95   4
  -4  -2   0 9287.34  383.78   1
  -4  -2   010114.68  782.89   4
  -4   2   0 9241.70  438.99   1
  -4   2   0 8247.64  602.07   4
  -5  -2   018160.00 1232.46   8
  -5  -2   015995.50 1079.62   4
  -5  -2   015268.50  991.83   2
  -5   2   013625.10  491.34   1
  -5   2   016699.75 1240.35   4
  -5  -2   013600.10  452.54   3
  -6   2   0  518.88  399.54   4
  -6  -2   0 1017.98  532.61   2
  -6   2   0  236.39   92.36   1
  -6  -2   0  973.91  374.59   4
  -7  -2   0 2749.13  689.92   2
  -7   2   0 2018.42  543.71   4
  -8  -2   0  162.64  317.02   5
  -8  -2   0 1693.63  760.95   2
  -9  -2   0 1844.53  405.23   5
 -10  -2   0  864.99  475.89   5
   9  -3   0  313.04  239.17   6
   9  -3   0 1065.85  710.28   7
   8  -3   0 1151.07  600.79   7
   7  -3   0   95.74  186.87   7
   5  -3   0 2603.60  102.36   3
   4   3   0  154.58  133.42   1
   4  -3   0  -26.22   69.54   8
   3  -3   0 5255.81  441.43   1
   3  -3   0 4753.42  291.03   8
   3   3   0 6763.63  521.35   1
   3   3   0 5688.48  437.76   4
   3  -3   0 6453.68  547.54   6
   2   3   0  329.91  128.47   1
   2  -3   0  224.95   93.04   4
   2   3   0  223.39  103.31   4
   2  -3   0  240.15   72.67   8
   2  -3   0  157.77   68.57   1
   1   3   0 8280.83  543.77   1
   1   3   0 7435.86  446.01   8
   1  -3   0 7120.01  379.31   4
   0  -3   039463.91  817.97   8
   0   3   041623.06 1268.35   1
  -1   3   0 7236.44  492.32   1
  -1   3   0 8388.66  561.79   6
  -1   3   0 7446.34  434.51   4
  -2  -3   0  362.45  115.99   1
  -2   3   0  396.00  130.91   1
  -2   3   0  304.82   89.61   4
  -3   3   0 4804.49  376.79   1
  -3  -3   0 5949.12  426.99   1
  -3   3   0 5348.50  560.31   4
  -3  -3   0 6202.05  542.78   4
  -4  -3   0  423.78  278.57   2
  -4   3   0 -259.47  314.89   4
  -4   3   0    3.04   93.97   1
  -4  -3   0 -205.22  172.43   4
  -4  -3   0  155.78  125.92   1
  -5  -3   0 4073.88  517.47   2
  -5  -3   0 4052.50  559.03   8
  -5   3   0 3566.42  495.90   4
  -5   3   0 3526.87  304.62   1
  -5  -3   0 3537.35  247.26   1
  -6   3   0  940.22  174.54   1
  -6  -3   0  657.97  171.34   2
  -6   3   0 1026.80  460.78   4
  -6  -3   0  983.41  299.40   8
  -7  -3   0  139.23  292.30   2
  -7   3   0  600.22  440.28   4
  -8  -3   0  914.34  517.15   2
  -9  -3   0 -121.22  377.06   5
  -9  -3   0 1109.73  662.63   2
   9  -4   0 1263.34  747.17   7
   8  -4   0 9109.29  977.10   6
   8  -4   0 9724.99 1275.26   7
   7  -4   0  326.09  407.81   7
   7  -4   0  810.68  364.29   6
   6  -4   0 6101.30  690.27   6
   5  -4   0 1559.14  495.07   6
   5  -4   0  148.73  144.26   3
   4  -4   0 2577.22  383.78   6
   4   4   0 2392.99  327.66   1
   3   4   0  606.38  105.85   4
   3  -4   0  463.75   91.49   8
   3   4   0  758.61  174.25   1
   2  -4   0  318.58  180.77   6
   2  -4   0  417.45  149.41   4
   2   4   0  175.19   75.55   4
   2   4   0  386.04  149.55   1
   1   4   0 1473.21  217.85   8
   1   4   0 1366.82  230.88   1
   1  -4   0 1227.72  120.07   4
   0  -4   0139721.7  1749.5   8
   0   4   0139300.2  2557.4   1
  -1   4   0 1724.86  307.78   6
  -1   4   0 1248.36  198.89   1
  -1   4   0 1334.23  174.40   4
  -1  -4   0 1217.48  174.87   8
  -2   4   0  244.01   86.73   4
  -2  -4   0  342.11  163.90   1
  -2   4   0  100.90   74.78   1
  -3   4   0  338.77  206.78   4
  -3   4   0  575.75  158.23   1
  -3  -4   0  162.26  156.25   2
  -4   4   0 2013.66  268.50   1
  -4  -4   0 2861.52  487.83   2
  -4   4   0 1964.90  333.48   4
  -4  -4   0 2365.00  296.49   1
  -5   4   0  278.29   72.74   1
  -5  -4   0   62.11  136.25   1
  -6   4   0 6013.55  877.04   4
  -6  -4   0 6746.60  938.21   8
  -6  -4   0 6383.91  787.66   2
  -6   4   0 4646.53  384.50   1
  -7  -4   0  165.53  167.90   2
  -7   4   0  -79.17  191.16   4
  -8  -4   0 9168.23 1103.66   2
  -9  -4   0  898.38  495.78   2
  -9  -4   0   69.86  339.18   5
   8  -5   0 8004.49  858.57   6
   8  -5   010061.15 1380.06   7
   7  -5   0  957.82  413.68   6
   6  -5   011803.21  883.77   6
   5   5   019001.35 1106.67   1
   5  -5   018536.00 1198.09   6
   4   5   015466.30  972.88   1
   4  -5   014834.25  986.34   6
   3  -5   035115.64 1432.22   6
   3   5   032422.59 1017.12   4
   3   5   033827.49 1333.35   1
   2  -5   017995.53  974.43   6
   2   5   017397.43  944.93   1
   1  -5   036857.55  547.49   8
   1   5   055074.35 1790.76   1
   0   5   0321992.6  4477.5   1
   0  -5   0322905.6  3085.1   8
  -1   5   048976.35 1213.58   4
  -1  -5   052589.80 1471.98   8
  -1   5   050256.85 1699.32   1
  -2   5   015723.08  912.01   1
  -2  -5   018477.63 1087.69   8
  -2   5   016067.38  862.65   4
  -3   5   031382.59 1403.70   4
  -3  -5   034635.69 1578.74   8
  -3   5   031666.49 1385.90   1
  -4  -5   013840.35 1030.47   2
  -4   5   012841.20  873.49   1
  -4  -5   015586.85 1214.39   8
  -4   5   013735.85 1109.72   4
  -5  -5   017549.75 1177.27   2
  -5   5   015238.40 1243.32   4
  -5   5   016089.80  986.26   1
  -5  -5   018786.65 1404.05   8
  -6   5   012440.66 1250.48   4
  -6   5   010927.07  735.86   1
  -6  -5   013405.91 1294.45   8
  -6  -5   011686.41  964.22   2
  -7   5   0  913.14  593.22   4
  -7  -5   0  887.03  457.31   2
  -8  -5   0 9276.80 1106.73   2
  -9  -5   0  368.74  276.51   2
   8  -6   0 1774.74  574.38   6
   7  -6   0 3750.18  699.10   6
   6  -6   0 6021.17  700.01   6
   5  -6   021428.28 1334.30   6
   5   6   019700.38 1147.62   1
   4  -6   010154.04  873.59   6
   4   6   0 9030.76  735.24   1
   3   6   014505.65  939.42   1
   3  -6   015262.05  998.36   6
   2   6   0 1115.94  246.21   1
   1   6   021764.58 1221.98   1
   0   6   025003.59 1376.23   1
   0  -6   024188.64  916.26   8
  -1  -6   022674.98 1115.83   8
  -1   6   020749.28 1213.73   1
  -1   6   019279.08  750.28   4
  -2  -6   0  874.27  140.62   8
  -2   6   0  880.22  121.32   1
  -2   6   0  929.07  211.48   4
  -3   6   014480.75 1050.03   4
  -3   6   014009.75  998.48   1
  -3  -6   016041.75 1154.38   8
  -4   6   0 8787.34  771.59   1
  -4   6   0 8261.01  770.41   4
  -4  -6   0 6881.70  544.15   2
  -5  -6   017786.03 1003.93   2
  -5   6   020004.68 1500.60   4
  -5   6   018891.73 1161.71   1
  -6   6   0 6043.65  929.99   4
  -6  -6   0 5275.67  560.03   2
  -6  -6   0 7133.52 1022.26   8
  -6   6   0 5180.03  570.41   1
  -7  -6   0 3206.44  592.52   2
  -7   6   0 3682.96  859.23   4
  -8  -6   0  364.12  218.51   2
  -9  -6   0 3555.55  692.55   2
   8  -7   0 1272.73  526.43   6
   7  -7   0 4891.40  824.01   6
   6  -7   0 2706.25  557.33   6
   5  -7   017738.63 1183.06   6
   5   7   017861.83 1124.81   1
   4   7   0  575.66  234.00   1
   4  -7   0 1743.80  510.65   6
   3  -7   010666.43  874.34   6
   3   7   011092.88  919.03   1
   2   7   0 3517.57  496.14   1
   1   7   028051.86 1515.22   1
   0   7   0 1777.50  465.79   1
   0  -7   0  921.48  126.76   8
  -1  -7   027064.46 1279.92   8
  -1   7   027768.96 1562.19   1
  -2   7   0 3265.56  363.57   4
  -2  -7   0 3161.19  412.44   8
  -2   7   0 3292.09  503.98   1
  -3  -7   011506.68 1012.36   8
  -3   7   010452.58  883.65   4
  -3   7   010775.08  991.46   1
  -4   7   0  927.04  407.13   4
  -4  -7   0  801.84  261.65   8
  -4   7   0  948.34  443.88   1
  -5  -7   017158.88 1125.10   2
  -5   7   017960.38 1240.46   1
  -5   7   019161.98 1521.23   4
  -5  -7   020573.88 1564.56   8
  -6   7   0 2217.21  460.73   1
  -6   7   0 2705.55  701.89   4
  -7  -7   0 2848.82  350.87   2
  -8  -7   0  780.78  343.07   2
  -9  -7   0 3849.64  714.50   2
   7  -8   0  691.63  309.18   6
   6  -8   0  222.24  244.21   6
   5  -8   0 2558.47  518.59   6
   5   8   0 2265.32  439.65   1
   4  -8   0  862.67  348.86   6
   4   8   0 1758.20  352.91   1
   3   8   0  464.00  180.83   1
   2   8   0  248.25  215.51   1
   1   8   0 6151.28  810.80   1
   0   8   037414.40 1931.88   1
   0  -8   032272.50 1109.11   8
  -1  -8   0 5751.46  581.47   8
  -1   8   0 6467.06  882.63   1
  -2   8   0   -2.73  119.45   1
  -2  -8   0  235.24  162.90   8
  -3   8   0  704.66  252.33   4
  -3  -8   0 1014.37  388.81   8
  -3   8   0  476.11  176.81   1
  -4   8   0 2114.76  520.80   1
  -4   8   0 1376.51  209.94   4
  -4  -8   0 1973.09  515.61   8
  -5  -8   0 2646.29  693.79   8
  -5   8   0 2522.31  655.09   4
  -5   8   0 2780.68  600.32   1
  -5  -8   0 2696.27  615.64   2
  -6   8   0  202.30  303.22   1
  -6  -8   0    4.53  206.97   2
  -7  -8   0  700.30  198.73   2
  -8  -8   0   -1.57  294.55   2
   7  -9   0 1928.20  579.38   6
   6  -9   0 1364.61  302.58   6
   5   9   0  946.11  459.87   1
   5  -9   0 2302.68  718.68   6
   4   9   0 3361.31  578.75   1
   3   9   0 3548.34  533.15   1
   2   9   0 4418.91  634.77   1
   1   9   0 1610.51  430.76   1
   0   9   046175.23 2315.20   1
  -1   9   0 1523.33  428.20   1
  -1  -9   0 1402.76  260.58   8
  -2   9   0 5095.07  791.34   1
  -2  -9   0 4945.23  647.96   8
  -3  -9   0 4339.28  694.97   8
  -3   9   0 4435.55  751.67   1
  -4   9   0 3204.12  578.12   1
  -4  -9   0 3658.08  660.30   8
  -5   9   0 1262.28  641.46   1
  -5  -9   0  818.96  438.61   2
  -6  -9   0   24.14  404.05   2
  -6   9   0 1418.65  366.73   1
  -7  -9   0  249.81  338.93   2
  -8  -9   0 1482.08  360.95   2
   7 -10   0 2810.30  607.92   6
   5  10   0 9003.96  993.85   1
   4  10   0 3904.42  650.28   1
   3  10   0 2435.30  523.04   1
   2  10   0 -194.71  324.15   1
   1  10   0 1011.62  463.39   1
   0  10   0  314.34  354.44   1
  -1  10   0 1724.03  587.48   1
  -2  10   0  688.21  405.28   1
  -3  10   0 3174.88  733.95   1
  -4  10   0 3802.20  684.47   1
  -5 -10   0 7236.92  897.15   2
  -5  10   0 8904.63 1152.57   1
  -6 -10   0 1479.46  395.62   2
  -6  10   0 1104.74  352.72   1
  -7 -10   0 2254.48  337.70   2
   5  11   0 7359.79  967.54   1
   4  11   0  282.31  346.43   1
   3  11   0 5153.87  821.87   1
   2  11   0 -290.67  358.52   1
   1  11   032534.19 2081.12   1
   0  11   0 1545.34  731.06   1
  -1  11   034772.04 2293.39   1
  -2  11   0  638.24  465.98   1
  -3  11   0 4550.76  744.84   1
  -4  11   0  694.09  463.86   1
  -5  11   0 6614.92  935.95   1
  -5 -11   0 4397.60  321.40   2
  -6 -11   0  639.72  361.23   2
  -6  11   0  690.78  445.49   1
   5  12   0 4781.88  788.32   1
   4  12   0 1110.77  450.87   1
   3  12   0 2215.00  647.73   1
   2  12   0 1994.75  471.71   1
   1  12   0 6280.80 1012.01   1
   0  12   0 4880.60  919.52   1
  -1  12   0 6019.91  969.26   1
  -2  12   0 1562.46  372.64   1
  -3  12   0 2207.61  719.83   1
  -4  12   0 1147.96  527.29   1
  -5  12   0 5046.50  962.16   1
  -5 -12   0 5362.46  896.55   2
  -6 -12   0 2179.42  648.93   2
   4  13   0 -160.35  362.62   1
   3  13   0  188.53  384.76   1
   2  13   0  391.95  371.47   1
   1  13   0 1345.40  499.75   1
   0  13   0 7072.63 1049.34   1
  -1  13   0 1480.74  527.71   1
  -2  13   0  227.82  430.09   1
  -3  13   0 -179.64  299.70   1
  -4  13   0   10.16  209.85   1
  -5 -13   0 3963.65 1216.91   2
  -5  13   0   83.10  362.19   1
   4  14   0 3351.12  896.23   1
   3  14   0 2847.07  830.52   1
   2  14   0 1386.39  647.98   1
   1  14   0  402.52  339.07   1
   0  14   0 4849.01  919.54   1
  -1  14   0  756.53  492.31   1
  -2  14   0  869.40  336.23   1
   9   0   1 1375.29  483.81   7
   9   0  -1 1013.35  774.05   7
   8   0   1  932.71  659.83   7
   8   0  -1 1243.91  704.43   7
   7   0   117073.34 1630.15   7
   7   0  -116337.67 1591.01   7
   6   0   1  504.53  519.59   7
   6   0  -1  816.76  546.15   7
   5   0  -142658.59 1776.16   7
   2   0   1   90.08   42.88   3
   2   0  -1  376.68  173.25   3
  -2   0  -1   37.47   42.88   3
  -2   0  -1  129.71   86.18   2
  -3   0  -1 6299.77  503.68   2
  -3   0  -1 4880.45  176.73   3
  -3   0  -1 7133.85  556.55   5
  -3   0   1 6365.33  490.46   8
  -3   0   1 6091.76  499.49   4
  -3   0   1 5926.15  453.49   2
  -4   0   1   20.18  187.46   8
  -4   0   1  272.27  267.59   4
  -4   0  -1  366.96  230.15   2
  -4   0  -1 -228.18  216.03   5
  -5   0   141760.04 1831.68   4
  -5   0  -143356.80 1819.69   2
  -5   0  -140230.70 1599.04   5
  -5   0   141047.59 1527.78   5
  -6   0   1  127.38  316.25   4
  -6   0  -1   97.85  198.17   5
  -6   0   1  926.42  600.79   8
  -6   0   1  -67.52  210.01   5
  -6   0  -1 1332.09  627.18   2
  -7   0   114046.27 1302.05   4
  -7   0  -115245.19 1288.27   2
  -7   0  -114083.19 1123.28   5
  -7   0   113264.37 1029.61   5
  -8   0  -1  356.60  382.39   5
  -8   0   1   57.33  167.75   5
  -9   0   1 2480.01  579.05   5
  -9   0   1 2929.72  762.84   4
  -9   0  -1 2671.48  617.06   5
   9  -1   1 1702.85  869.00   7
   9  -1  -1 1611.75  737.23   7
   8   1   1-1519.24 1169.03   7
   8  -1   1 1683.57  805.03   7
   8   1  -1-1494.35 1037.26   7
   8  -1  -1 2288.27  868.78   7
   7   1  -1  821.86  639.16   7
   7  -1   1 2258.95  540.37   7
   7   1   1 1431.81  439.59   7
   7  -1  -1 2698.37  674.30   7
   6   1   1   46.28  405.51   7
   6   1  -1 -486.49  577.09   7
   6  -1  -1  596.78  376.88   7
   6  -1   1  442.87  397.82   7
   5   1  -1 7352.49  801.15   7
   5  -1  -1 6671.86  614.44   7
   5  -1   1 6984.37  672.93   7
   3  -1  -1  390.68  111.34   3
   3  -1   1  528.05  153.43   8
   3  -1   1  448.69   74.14   1
   3  -1   1  420.08   43.25   3
   2  -1   150646.55  801.46   1
   2   1   150773.64  678.64   1
   2  -1   153384.14  798.08   3
   2  -1  -152426.07  761.89   3
  -1  -1   1 5353.25  331.53   2
  -2  -1  -157472.75 1314.23   7
  -2  -1   153431.13 1209.90   4
  -2   1   152042.97  971.00   8
  -2  -1   154238.22 1044.27   1
  -2   1  -154353.50 1182.64   5
  -2  -1  -156330.70 1402.46   2
  -2  -1  -155199.70  941.10   3
  -2   1   151993.17  918.60   5
  -2  -1   151189.13 1083.30   2
  -2   1  -153673.30 1257.89   2
  -2   1  -154649.64  902.06   1
  -2   1   153305.77 1314.70   4
  -2   1   152623.13  881.52   3
  -2  -1   158035.92 1313.33   7
  -3  -1  -1  444.27   78.76   3
  -3   1   1   56.88   93.74   8
  -3   1   1  626.65  251.24   5
  -3  -1  -1  384.24  109.98   2
  -3   1  -1  394.14   57.61   1
  -3   1   1  383.69  237.21   4
  -3   1  -1  348.42   69.30   5
  -3  -1   1  428.07  145.28   3
  -3  -1   1  635.94  268.19   2
  -3  -1   1  744.31  199.33   1
  -3   1  -1  565.15  185.73   2
  -3  -1   1  426.78  257.90   4
  -4   1   111736.90  771.14   8
  -4  -1  -112189.16  820.96   2
  -4  -1   111137.15  790.14   4
  -4   1  -111889.76  779.16   5
  -4  -1   111467.95  785.02   8
  -4   1   112067.85  639.63   1
  -4   1   111670.35  712.18   5
  -4  -1   110054.16  440.25   1
  -4  -1   111891.70  823.31   2
  -4   1  -113207.56  890.41   2
  -4  -1  -111269.76  361.99   3
  -4  -1   111339.85  416.98   3
  -4   1   110760.80  800.15   4
  -5  -1   1 8451.00  865.63   2
  -5   1   1 6753.35  707.56   4
  -5   1   1 6267.63  379.14   1
  -5  -1   1 5821.99  282.54   1
  -5   1   1 7478.37  733.10   8
  -5   1  -1 6382.17  567.39   5
  -5   1   1 6478.51  536.91   5
  -5  -1   1 7433.17  742.45   4
  -5  -1   1 7977.46  802.18   8
  -5  -1  -1 7820.11  797.68   2
  -5   1  -1 7300.79  731.54   2
  -6   1   1  696.41  522.33   4
  -6  -1   1 1928.01  667.48   2
  -6   1   1  368.72  105.02   5
  -6   1   1  246.47   62.27   1
  -6  -1  -1  424.22  366.71   2
  -6  -1   1  660.52  426.45   4
  -6  -1   1 1425.65  665.62   8
  -6   1   1 2251.15  796.83   8
  -6  -1  -1  485.00  121.57   5
  -6   1  -1  180.73  160.81   5
  -7  -1   1 2521.76  624.22   8
  -7   1   1 2058.48  658.13   4
  -7   1   1 1630.30  300.22   5
  -7  -1  -1 2868.24  730.88   2
  -7   1  -1 1734.37  385.13   5
  -7  -1  -1 1576.52  297.81   5
  -7  -1   1 1632.42  305.17   5
  -7  -1   1 1827.78  482.79   4
  -8   1   1 1769.69  924.47   4
  -8  -1  -1 2156.33  805.98   2
  -8  -1   1 2296.61  925.67   4
  -8  -1   1  603.88  220.50   5
  -8  -1  -1  710.56  330.00   5
  -9   1   1  832.31  594.29   4
  -9  -1   1  687.86  338.17   5
  -9  -1  -1  637.17  395.30   5
   9  -2   1 1244.86  782.81   7
   9  -2  -1 1551.51  859.45   7
   8  -2  -1 8139.05 1162.29   7
   8  -2   1 7626.92 1099.66   7
   7  -2   1  926.59  389.47   7
   7  -2  -1 1170.97  352.46   7
   6  -2   111007.79  969.14   7
   6  -2  -111592.20  975.18   7
   5  -2   1 1064.00  325.69   7
   5  -2  -1  285.77  290.89   7
   4   2   126189.11  600.26   1
   4  -2   126469.11  725.63   1
   4  -2  -126345.34  587.89   3
   4  -2   125234.76  559.62   3
   3  -2   1 1191.24  144.35   1
   3  -2  -1 1026.55   93.40   3
   3  -2  -1 1276.25  222.70   5
   3   2   1 1278.37  142.67   1
   3  -2   1 1320.96  208.78   8
   2   2   1 5060.19  442.24   8
   2   2  -1 4560.84  372.78   1
   2  -2  -1 4819.72  295.44   5
   2  -2  -1 3949.53  228.10   3
   2   2   1 4662.60  277.68   1
   2   2   1 4817.34  351.52   4
   2  -2  -1 4605.08  281.19   6
   2  -2   1 4011.76  250.00   1
   1   2  -1  199.90  134.02   1
   1   2   1  434.32  133.61   1
   0   2   132707.97  985.09   1
   0   2  -131956.08  881.53   6
  -1   2  -1  411.04  131.13   1
  -1   2   1  688.78  168.13   6
  -1   2   1  242.26  157.64   1
  -1   2  -1  681.59  218.74   6
  -2  -2  -1 2720.73  427.11   2
  -2  -2   1 2930.51  202.25   7
  -2  -2   1 4972.76  397.21   1
  -2   2   1 3635.50  178.82   8
  -2  -2  -1 3670.33  217.91   7
  -2  -2   1 4841.03  394.74   2
  -2   2  -1 4229.70  298.92   1
  -2   2   1 4353.69  363.31   1
  -2  -2  -1 4840.43  309.67   1
  -2   2   1 3980.12  333.54   4
  -2  -2   1 4217.63  310.61   4
  -2  -2  -1 5158.62  382.83   3
  -3   2  -1 1144.69  158.11   1
  -3  -2  -1 1247.60  187.45   3
  -3   2   1 1288.25  194.93   1
  -3   2  -1 1760.44  414.66   4
  -3   2   1 1039.43  164.61   8
  -3  -2   1 1615.33  252.24   2
  -3  -2   1 1288.10  249.45   4
  -3   2   1 1125.14  213.46   4
  -3  -2   1 1503.65  228.72   1
  -3  -2  -1 1918.42  391.96   2
  -4   2  -126475.11 1268.72   4
  -4  -2   128603.74 1294.21   4
  -4  -2   128545.29 1222.84   2
  -4   2   128141.14 1050.75   1
  -4  -2   126762.59  830.43   1
  -4   2   126844.95 1279.79   4
  -4  -2  -128211.26 1255.94   2
  -4  -2  -129347.21  873.31   3
  -4   2  -126626.31  787.20   1
  -4   2   129370.04 1181.41   8
  -5  -2   1  214.10  234.93   4
  -5  -2  -1 1323.89  426.83   2
  -5  -2   1  149.09   50.16   1
  -5  -2   1  665.93  424.42   8
  -5   2   1  590.83  224.51   1
  -5   2   1  490.78  272.17   4
  -5   2   1  816.25  479.14   8
  -5   2  -1  486.91  154.26   1
  -5  -2   1  999.78  490.88   2
  -5  -2  -1  724.55  158.25   3
  -5  -2   1   68.34   88.41   3
  -6  -2   112873.00 1164.81   4
  -6   2   1 9167.85  417.47   1
  -6  -2   112846.05 1160.94   8
  -6  -2   111604.95 1007.15   2
  -6   2   111164.80 1030.87   4
  -6  -2  -112073.64 1047.24   2
  -7  -2   1 1891.88  589.61   2
  -7  -2  -1 1082.63  367.08   2
  -7  -2  -1  563.12  406.36   5
  -7  -2   1  885.79  300.89   4
  -7  -2   1 1750.19  624.67   8
  -7   2   1 1246.12  529.22   4
  -8  -2  -1 5966.82  767.78   5
  -8   2   1 7992.07 1258.44   4
  -8  -2   1 6112.61  680.01   5
  -8  -2  -1 8193.28 1102.98   2
  -8  -2   1 8797.95 1260.68   4
  -9  -2  -1  132.52  225.34   5
  -9  -2  -1  556.62  448.06   2
  -9   2   1  847.35  581.58   4
  -9  -2   1  403.73  299.01   5
 -10  -2   1 1437.18  650.40   5
   9  -3  -1 1644.35  594.26   7
   9  -3   1 1699.50  649.90   7
   8  -3  -1 2182.55  476.89   6
   8  -3   1 2994.88  844.14   7
   8  -3  -1 3627.29  880.59   7
   7  -3  -1 1568.09  328.00   6
   7  -3  -1 1397.05  446.34   7
   7  -3   1 2051.04  479.39   7
   6  -3   1 3712.27  598.01   7
   5  -3  -1 2244.93  198.48   3
   5  -3   1 1853.30  140.16   3
   4  -3  -1 3050.73  221.10   3
   4  -3   1 3130.19  262.66   1
   4   3   1 3586.08  315.01   1
   3   3   1  220.24   63.93   1
   3   3  -1  310.96  195.28   1
   3  -3  -1  197.60   76.02   6
   3  -3  -1  194.81   99.34   5
   3   3   1  290.87  153.47   4
   3  -3  -1  130.70   63.25   3
   3  -3   1  239.70   81.54   1
   2   3  -1 4085.51  438.93   1
   2   3   1 3494.42  302.18   1
   2  -3   1 3730.29  405.16   4
   2  -3   1 2941.18  269.68   1
   2   3   1 3675.81  309.50   4
   2  -3  -1 4499.23  384.47   6
   1   3  -1 7016.37  534.01   1
   1  -3   1 6468.23  412.09   4
   1   3   1 6850.88  480.02   1
   1   3   1 7039.23  492.53   8
   0   3  -1132857.8  2105.7   6
   0   3  -1133925.3  2392.6   1
   0   3   1133854.1  2332.3   1
   0   3   1129471.6  1604.0   8
  -1   3   1 6667.01  513.37   1
  -1   3  -1 6451.05  462.66   1
  -1   3   1 6368.76  410.35   6
  -1   3  -1 6942.38  500.28   6
  -2   3   1 4126.58  442.75   1
  -2   3  -1 3191.60  291.18   1
  -2  -3   1 3912.52  323.46   4
  -2   3   1 3785.72  389.09   4
  -2  -3  -1 3332.38  288.09   1
  -2   3   1 2621.55  136.80   8
  -2  -3   1 4352.91  455.96   1
  -2   3   1 4113.58  405.86   6
  -3   3   1  283.13  130.01   8
  -3  -3   1  -16.62  129.02   4
  -3   3   1  293.14  140.69   1
  -3  -3   1  396.73  179.30   1
  -3  -3  -1  380.91  122.94   1
  -3   3   1  263.91  197.52   4
  -3   3  -1  348.14  196.42   4
  -3   3  -1  249.69   75.87   1
  -4   3  -1 3243.18  308.35   1
  -4   3  -1 3754.50  568.60   4
  -4  -3   1 3589.36  460.29   4
  -4  -3  -1 3911.45  411.19   3
  -4   3   1 3857.93  450.94   1
  -4  -3  -1 3789.27  530.16   2
  -4  -3   1 3913.33  386.35   1
  -4  -3   1 3728.55  436.64   2
  -4   3   1 3498.38  444.33   4
  -5  -3   1 2417.60  407.16   2
  -5  -3  -1 2225.00  261.68   3
  -5  -3   1 1802.84  305.45   8
  -5   3   1 2381.54  321.40   1
  -5  -3   1 2343.58  355.52   4
  -5   3  -1 2104.20  236.69   1
  -5  -3   1 2003.70  220.81   1
  -5   3   1 1915.68  412.34   4
  -5  -3  -1 2468.50  465.92   2
  -6   3   1 3556.70  531.57   4
  -6   3   1 3345.70  332.88   1
  -6   3  -1 2789.93  222.98   1
  -6  -3  -1 3838.71  618.65   2
  -6  -3   1 3662.02  311.54   3
  -6  -3   1 4138.33  641.80   2
  -6  -3   1 3837.86  596.22   4
  -6  -3   1 3929.64  644.66   8
  -7  -3   1 1787.04  523.52   2
  -7  -3   1 1989.03  497.22   8
  -7   3   1 1691.18  518.33   4
  -7  -3   1 1284.59  338.39   4
  -7  -3  -1 1690.52  474.36   2
  -8   3   1 3055.84  861.99   4
  -8  -3   1 3774.48  844.07   2
  -8  -3  -1 2269.71  520.16   5
  -8  -3  -1 2726.72  706.30   2
  -9  -3   1 1024.38  409.53   5
  -9   3   1 1332.95  522.97   4
  -9  -3  -1  211.88  375.81   5
  -9  -3  -1 1374.14  494.18   2
 -10  -3   1  515.07  213.54   5
   9  -4   1  496.70  481.30   7
   9  -4   1  538.37  398.36   6
   9  -4  -1 1264.12  670.20   7
   8  -4   1 3353.64  822.09   7
   8  -4  -1 3884.10  703.69   6
   8  -4  -1 3582.56  928.01   7
   8  -4   1 2671.92  592.41   6
   7  -4   1 2274.47  553.36   7
   7  -4  -1 2241.29  472.45   6
   7  -4   1 1874.69  421.34   6
   7  -4  -1 2527.95  654.14   7
   6  -4  -1 3099.19  541.11   6
   6  -4   1 2908.74  566.12   6
   5  -4  -120448.41 1029.78   6
   5  -4   120788.48 1158.59   6
   5   4   121917.93  945.70   1
   4   4  -1 1516.65  320.03   1
   4  -4  -1 1774.82  357.33   6
   4  -4   1 1021.56  193.47   8
   4   4   1 1081.45  159.73   1
   4  -4   1 1478.08  377.94   6
   4  -4  -1  847.80  142.73   3
   3   4  -123791.13 1116.57   1
   3  -4  -125918.38 1063.08   6
   3   4   124062.74  984.38   4
   3  -4   124546.99 1094.22   6
   3   4   123900.84  934.29   1
   2   4   1 1473.64  194.35   4
   2  -4  -1 1899.18  274.23   6
   2   4   1 1347.61  210.00   1
   2  -4   1 1612.27  262.45   4
   2   4  -1 1983.67  368.45   1
   1  -4   153665.95 1307.69   4
   1   4   152993.45 1572.77   1
   1   4   155659.50 1523.44   8
   1   4  -155006.59 1719.78   1
   0   4  -115569.98  892.40   1
   0   4   114276.74  803.64   1
  -1   4   150470.70 1628.38   1
  -1  -4   152296.64 1339.47   8
  -1   4   150598.95 1359.28   6
  -1   4   151980.39 1276.56   4
  -1   4  -150548.30 1571.35   1
  -2   4   1 2241.94  379.05   6
  -2  -4   1 1282.69  169.62   4
  -2   4   1 2062.09  408.17   1
  -2   4  -1 1268.66  192.38   1
  -2  -4  -1 1392.75  226.69   1
  -2   4   1 1627.13  267.71   4
  -3   4   122938.38 1201.21   4
  -3  -4   123407.08  953.31   4
  -3   4   123354.58 1171.31   1
  -3  -4   122778.13 1132.29   2
  -3   4  -121594.74  948.54   1
  -3  -4  -123459.89  968.65   1
  -4  -4  -1 1230.83  226.06   1
  -4  -4   1 1769.84  411.94   2
  -4  -4  -1 1658.17  422.61   2
  -4   4   1  946.35  240.80   4
  -4   4   1 1227.68  305.49   1
  -4   4  -1  984.60  165.74   1
  -4  -4   1 1338.72  309.70   4
  -5  -4   119405.75  857.57   1
  -5  -4   123302.05 1540.14   8
  -5   4  -117247.28  777.03   1
  -5   4   120201.96 1375.39   4
  -5   4   119542.11 1059.29   1
  -5  -4  -121820.33 1273.22   2
  -5  -4   121815.91 1271.83   2
  -5  -4   121924.21 1315.57   4
  -6  -4  -1 3062.98  682.03   2
  -6  -4   1 2742.39  582.70   2
  -6   4   1 2510.97  657.02   4
  -6  -4   1 2828.80  631.72   8
  -6   4   1 2494.50  384.96   1
  -6   4  -1 1883.43  292.29   1
  -6  -4   1 2955.15  600.23   4
  -7  -4   1 2646.26  684.29   8
  -7   4   1 1571.14  456.27   4
  -7  -4   1 2693.00  723.54   2
  -7  -4  -1 1857.03  469.06   2
  -8  -4   1 2770.81  669.91   2
  -8   4   1 3518.85  961.66   4
  -8  -4  -1 3123.46  704.79   2
  -9  -4   1 1346.86  674.66   2
  -9  -4  -1  522.53  374.27   2
  -9  -4  -1   -1.93  303.13   5
  -9   4   1 1332.69  743.99   4
   9  -5   1 1944.70  524.35   6
   8  -5   1 2303.77  774.96   7
   8  -5  -1 2985.08  881.67   7
   8  -5   1 2943.94  732.13   6
   7  -5   1 5078.03  669.09   6
   7  -5  -1 5264.74  698.06   6
   6  -5  -1 2112.89  597.43   6
   6  -5   1 1240.62  476.32   6
   5  -5   120937.24 1210.76   6
   5  -5  -122479.05 1210.56   6
   5   5   122678.69 1065.82   1
   4  -5   1  120.30  117.75   8
   4  -5   1  936.67  394.07   6
   4   5  -1  293.67  263.71   1
   4   5   1   71.81  102.89   1
   4  -5  -1  831.40  361.47   6
   3  -5   116851.53 1021.23   6
   3  -5  -118685.44 1067.10   6
   3   5   116935.68  840.59   4
   3   5   114816.53  803.91   1
   3   5  -119169.19 1200.72   1
   2   5   1  255.34   82.92   4
   2   5  -1  166.85  135.84   1
   2   5   1  278.70  106.43   1
   1   5   180545.17 2230.50   1
   1   5   180530.31 1946.21   8
   1  -5   178059.22 1622.27   4
   1   5  -179393.52 2260.24   1
   0   5   1 5415.85  578.81   1
   0   5   1 4211.83  301.58   8
   0   5  -1 5436.41  586.56   1
  -1   5  -177530.97 2231.30   1
  -1  -5   177458.11 1808.83   8
  -1   5   176738.47 2265.25   1
  -1   5   175991.72 1694.19   4
  -2   5   1  438.45  219.01   4
  -2   5  -1  151.31   82.62   1
  -2   5   1  334.89  201.85   1
  -2  -5   1  273.42  168.64   8
  -3  -5   117144.59 1094.51   8
  -3   5   116741.79 1150.56   1
  -3   5   115109.44 1012.69   4
  -3   5  -115084.18  924.35   1
  -3  -5   117460.04  863.45   4
  -4  -5   1  168.57  156.90   4
  -4   5   1  114.01  183.60   1
  -4   5   1 -192.04  125.12   4
  -4  -5   1   44.19  206.86   8
  -4   5  -1 -100.59  225.61   1
  -5  -5  -119336.49 1107.08   2
  -5   5   119262.55 1334.86   4
  -5  -5   122156.60 1485.00   8
  -5  -5   120646.90 1155.37   2
  -5   5   121206.80 1245.40   1
  -5  -5   123102.80 1385.17   4
  -5   5  -117847.64  864.17   1
  -6  -5   1  933.25  424.75   2
  -6  -5  -1 1000.47  403.72   2
  -6   5   1  738.63  417.42   4
  -6   5   1 1569.49  459.50   1
  -6  -5   1  849.05  425.05   8
  -6   5  -1  605.10  187.52   1
  -7  -5  -1 5289.96  697.53   2
  -7  -5   1 6424.43 1048.76   8
  -7   5   1 5410.17  952.30   4
  -7  -5   1 5456.42  763.56   2
  -8   5   1 3535.09 1081.35   4
  -8  -5  -1 2659.11  668.89   2
  -8  -5   1 2655.33  699.03   2
  -9  -5   1 2690.36  780.34   2
  -9  -5  -1 2195.74  578.52   2
   9  -6   1 2402.04  677.66   6
   8  -6   1 1494.49  475.53   6
   7  -6   1 2261.43  503.93   6
   7  -6  -1 2956.71  670.03   6
   6  -6   1 1894.22  458.06   6
   6  -6  -1 2876.26  627.78   6
   5   6   1 1867.63  339.13   1
   5  -6   1 2587.90  608.64   6
   5   6  -1 1760.13  353.72   1
   4  -6   1 7819.24  434.79   8
   4   6  -1 9152.40  823.68   1
   4  -6   110221.39  933.61   6
   4   6   1 8814.86  667.78   1
   4  -6  -1 9995.73  818.03   6
   3  -6  -1 1810.00  451.38   6
   3   6   1 1235.10  234.83   1
   3   6   1 1326.65  211.25   4
   3   6  -1 1127.17  360.94   1
   3  -6   1 1456.03  416.06   6
   2   6   1 7270.82  671.67   1
   2   6  -1 7374.20  715.01   1
   2   6   1 5944.65  336.59   4
   1  -6   1  399.16   79.89   4
   1   6   1  327.49   97.73   1
   0   6   117533.70 1159.61   1
   0  -6   115707.42  683.00   8
   0   6   116640.49  608.36   4
   0   6  -117684.42 1123.51   1
   0   6   116477.95  694.66   8
  -1  -6   1  427.34  181.54   8
  -1   6   1  138.33   87.74   4
  -1   6  -1  490.13  152.95   1
  -1   6   1  107.71  109.39   1
  -2   6   1 6879.83  703.85   1
  -2   6   1 6946.74  601.82   4
  -2   6  -1 6865.96  653.99   1
  -2  -6   1 7096.74  627.51   8
  -3  -6   1 1295.45  302.81   8
  -3   6   1  698.16  183.02   4
  -3   6  -1  926.93  182.44   1
  -4  -6   1 8603.08  782.10   2
  -4  -6   1 9015.32  847.46   8
  -4   6   1 9587.68  929.83   1
  -4   6  -1 8608.24  763.02   1
  -4   6   1 8947.04  883.57   4
  -5  -6   1  717.04  652.99   2
  -5  -6   1 2226.87  534.97   8
  -5   6  -1 1460.08  248.16   1
  -5   6   1 2926.52  653.17   1
  -5  -6  -1 3690.64  830.14   2
  -5   6   1 2496.38  690.95   4
  -6  -6   1 2044.66  643.93   8
  -6   6   1 1798.91  437.75   1
  -6  -6  -1 1463.00  233.28   2
  -6  -6   1 1610.92  360.23   2
  -6   6   1 2074.16  729.54   4
  -6   6  -1 1335.14  320.54   1
  -7  -6   1 2029.12  429.86   2
  -7  -6  -1 2097.36  420.62   2
  -7  -6   1 2774.65  766.47   8
  -7   6   1 2595.07  779.51   4
  -8  -6   1 2010.60  608.50   2
  -8  -6  -1 1581.10  447.64   2
  -8   6   1 2755.15  945.47   4
  -9  -6   1 1870.11  487.75   2
  -9  -6  -1 2393.49  733.04   2
   8  -7   1 2915.64  658.37   6
   7  -7   1 3122.69  585.65   6
   7  -7  -1 3525.66  641.26   6
   6  -7  -1 3265.58  563.72   6
   6  -7   1 3430.25  680.46   6
   5   7   1 2126.73  455.79   1
   5  -7  -1 2799.07  629.34   6
   5   7  -1 1845.39  465.17   1
   5  -7   1 3053.09  723.05   6
   4  -7  -1 9926.53  729.91   6
   4  -7   111144.63  931.22   6
   4   7   110505.32  800.51   1
   4   7  -110544.30  871.33   1
   3   7   1  408.77  181.79   1
   3   7  -1  135.33  102.11   1
   3   7   1  370.98  162.70   4
   2   7   1 6528.54  734.15   1
   2   7  -1 6281.80  719.30   1
   2   7   1 4666.60  258.06   4
   1   7   1 1943.63  391.18   1
   1  -7   1 1769.43  192.02   8
   1   7  -1 1771.75  361.50   1
   0  -7   120357.16  889.86   8
   0   7  -120693.06 1283.86   1
   0   7   119078.29  641.28   4
   0   7   121924.89 1380.94   1
  -1  -7   1 1402.87  223.09   8
  -1   7   1 1413.22  187.70   4
  -1   7   1 2194.60  505.24   1
  -1   7  -1 2191.99  430.68   1
  -2   7   1 5781.93  702.41   1
  -2   7   1 5744.79  560.58   4
  -2  -7   1 5713.46  589.11   8
  -2   7  -1 5801.70  687.28   1
  -3  -7   1  217.72  169.64   8
  -3   7   1  148.29  259.53   4
  -3   7   1  680.08  440.94   1
  -3   7  -1  289.54  176.79   1
  -4  -7   1 7758.76  550.07   2
  -4   7   111307.71 1057.75   1
  -4  -7   112195.06 1155.94   8
  -4   7  -110203.24  868.30   1
  -4   7   110600.37  991.34   4
  -5   7   1 2256.52  783.56   4
  -5  -7   1 2008.62  502.39   2
  -5   7  -1 2082.53  428.76   1
  -5   7   1 2603.91  677.36   1
  -5  -7  -1 2408.73  648.60   2
  -5  -7   1 1696.93  563.99   8
  -6  -7   1 3734.14  720.92   8
  -6   7  -1 2352.39  392.97   1
  -6   7   1 3139.66  625.06   1
  -6  -7   1 2208.83  216.03   2
  -6  -7  -1 1887.60  161.68   2
  -6   7   1 2879.57  692.15   4
  -7  -7   1 2465.52  319.53   2
  -7   7   1 3058.03  855.07   4
  -7  -7   1 3475.52  853.22   8
  -7  -7  -1 1155.83  400.65   2
  -8   7   1 2773.53  960.20   4
  -8  -7  -1 2289.31  440.68   2
  -8  -7   1 2362.53  477.82   2
   8  -8   1  231.58  242.70   6
   7  -8  -1  615.91  131.24   6
   7  -8   1 1113.63  403.76   6
   6  -8   1  158.84  297.97   6
   6  -8  -1  -55.89  267.64   6
   5   8   1 3436.18  544.36   1
   5  -8  -1 3092.95  452.17   6
   5  -8   1 3316.60  564.17   6
   5   8  -1 3549.76  602.49   1
   4   8   1  189.61  228.92   1
   4   8  -1  123.36  143.76   1
   4  -8   1  514.64  219.43   6
   3   8  -1  300.84  135.05   1
   3  -8   1   10.32  339.28   6
   3   8   1  645.58  332.19   1
   2   8  -1 1229.59  317.06   1
   2   8   1 1196.99  332.20   1
   2  -8   1  772.21  107.82   8
   1  -8   110331.04  552.04   8
   1   8  -111745.94  993.15   1
   1   8   112028.03 1077.98   1
   0   8  -131964.85 1740.33   1
   0  -8   129712.10 1148.10   8
   0   8   132195.19 1822.35   1
  -1   8   110730.39  600.04   4
  -1   8   111660.34 1063.80   1
  -1  -8   110874.74  769.11   8
  -1   8  -111290.48 1019.48   1
  -2  -8   1 1268.63  329.43   8
  -2   8   1  880.45  213.88   1
  -2   8  -1 1004.34  343.15   1
  -2   8   1 1151.24  272.32   4
  -3   8  -1  331.42  179.27   1
  -3   8   1  194.03  233.40   1
  -3  -8   1  262.47  320.42   8
  -3   8   1  363.53  215.26   4
  -4   8   1  123.57  151.98   4
  -4  -8   1 -181.62  291.04   8
  -4   8  -1   40.17  228.57   1
  -4   8   1  157.07  189.44   1
  -5   8   1 3716.35  679.43   1
  -5   8   1 3858.25  796.76   4
  -5  -8   1 3640.14  733.17   8
  -5  -8  -1 3537.33  698.77   2
  -5  -8   1 3810.15  577.33   2
  -5   8  -1 2898.46  462.04   1
  -6  -8   1   56.37  161.09   2
  -6  -8   1 1168.87  643.79   8
  -6   8   1  412.99  503.98   4
  -6   8   1  385.06  298.85   1
  -6   8  -1  212.47  260.29   1
  -6  -8  -1  481.47  271.64   2
  -7   8   1  958.59  572.49   4
  -7  -8   1  355.54   95.39   2
  -7  -8  -1  572.82  157.78   2
  -8  -8  -1 -117.65  187.42   2
  -8  -8   1  -87.03  239.56   2
   8  -9   1  242.20  229.20   6
   7  -9   1 4128.89  677.82   6
   6  -9   1 3031.68  657.41   6
   5  -9   114588.24 1208.46   6
   5   9   115279.99 1203.96   1
   5   9  -114464.37 1204.66   1
   4   9   1  187.31  109.75   1
   4   9  -1  404.59  283.96   1
   3   9  -1 8898.79  909.41   1
   3   9   1 9998.38 1011.57   1
   2   9  -1 4740.47  671.61   1
   2   9   1 4375.47  666.47   1
   1   9   1 6296.83  818.75   1
   1   9  -1 6036.52  755.30   1
   1  -9   1 5352.93  388.03   8
   0   9   1 3162.27  832.86   1
   0  -9   1  952.95  241.42   8
   0   9  -1 2424.68  565.91   1
  -1   9   1 5674.77  439.26   4
  -1   9   1 5877.36  763.13   1
  -1  -9   1 6026.43  633.91   8
  -1   9  -1 6038.62  779.61   1
  -2   9  -1 4197.10  590.13   1
  -2   9   1 4290.46  478.02   4
  -2  -9   1 4467.99  580.74   8
  -2   9   1 4720.69  714.63   1
  -3   9  -1 8819.34  957.73   1
  -3  -9   1 9604.92  946.61   8
  -3   9   1 9739.61 1124.72   1
  -3   9   1 9394.66  936.85   4
  -4   9  -1  319.52  335.37   1
  -4  -9   1 -206.34  294.08   8
  -4   9   1    1.38  219.68   4
  -5  -9   116396.42 1544.66   8
  -5   9  -114293.84 1209.39   1
  -5   9   115395.37 1495.78   1
  -5   9   116322.97 1587.57   4
  -5  -9   112748.17  945.68   2
  -6   9  -1 1930.83  451.48   1
  -6  -9   1  780.61  397.86   2
  -6  -9   1 2980.04  798.31   8
  -6   9   1 2770.12  837.23   4
  -6   9   1 2081.61  497.40   1
  -6  -9  -1 1914.75  350.46   2
  -7  -9   1 3329.99  408.14   2
  -7  -9  -1 2476.53  216.20   2
  -8  -9  -1 -362.11  435.96   2
   7 -10   1  456.13  369.32   6
   6 -10   1 1576.42  485.85   6
   5  10  -1 2937.74  585.61   1
   5  10   1 2836.30  616.11   1
   5 -10   1 2883.71  575.00   6
   4  10   1 1787.38  432.70   1
   4  10  -1 1557.47  475.90   1
   3  10   1 8751.71 1016.89   1
   3  10  -1 8439.76  991.03   1
   2  10  -1 2051.02  499.51   1
   2  10   1 2540.13  618.76   1
   1  10  -114401.16 1321.69   1
   1  10   114671.14 1339.62   1
   0 -10   1 7241.99  642.95   8
   0  10  -1 7169.58  901.18   1
   0  10   1 8101.21 1077.68   1
  -1  10   115086.46 1452.62   1
  -1 -10   114518.76 1100.77   8
  -1  10  -113584.69 1259.14   1
  -2 -10   1 2291.27  586.63   8
  -2  10   1 1686.12  475.18   1
  -2  10   1 1860.90  399.88   4
  -2  10  -1 1818.37  430.34   1
  -3  10  -1 7748.07  886.67   1
  -3  10   1 9025.08 1195.52   1
  -3  10   1 8421.84  839.71   4
  -3 -10   1 9183.00 1026.40   8
  -4  10   1 2733.95  790.08   1
  -4  10  -1 1834.88  507.85   1
  -4  10   1 2101.29  570.37   4
  -4 -10   1 1521.62  407.59   8
  -5 -10   1 4001.67  945.26   8
  -5  10  -1 2137.58  449.86   1
  -5  10   1 3949.59  896.59   1
  -5 -10   1 3890.71  767.00   2
  -5 -10  -1 3574.26  790.77   2
  -5  10   1 4238.90  959.56   4
  -6  10   1 1372.98  458.64   1
  -6  10  -1 1596.79  462.14   1
  -6 -10   1 1402.30  302.17   2
  -6 -10  -1 2286.25  567.16   2
  -6 -10   1 3043.76  846.27   8
  -6  10   1 2226.30  764.81   4
  -7 -10  -1 -203.95  249.11   2
   5  11  -1  604.48  377.56   1
   5  11   1  476.15  412.38   1
   4  11   1 4409.92  796.09   1
   4  11  -1 4343.64  782.83   1
   3  11  -1  417.36  336.80   1
   3  11   1  -17.87  171.56   1
   2  11   1 3562.96  709.45   1
   2  11  -1 4047.27  775.82   1
   1  11   1 2604.28  877.47   1
   1  11  -1 1891.96  693.93   1
   0  11   115387.33 1380.30   1
   0  11  -115876.83 1425.19   1
  -1  11  -1 1556.96  633.36   1
  -1 -11   1 2588.64  752.53   8
  -2  11   1 3337.99  674.36   1
  -2 -11   1 3465.19  584.22   8
  -2  11  -1 3541.35  688.73   1
  -3  11  -1 -236.36  371.11   1
  -3  11   1  970.74  555.51   1
  -3 -11   1  777.09  524.68   8
  -4  11  -1 4128.21  811.35   1
  -4  11   1 4089.76  836.87   1
  -4 -11   1 4851.49  908.79   8
  -5 -11   1  451.24  353.32   2
  -5  11  -1   61.16  196.55   1
  -5 -11   1  929.99  707.92   8
  -5  11   1  832.16  583.01   1
  -5 -11  -1 -280.17  383.31   2
  -6  11   1 5134.83  919.29   1
  -6 -11  -1 4666.41  687.49   2
  -7 -11  -1 -775.25  465.44   2
   5  12  -1 1152.06  499.27   1
   4  12  -1  883.42  422.39   1
   4  12   1 1902.28  686.58   1
   3  12   1  675.16  246.10   1
   3  12  -1  672.19  193.10   1
   2  12  -1 1046.62  484.64   1
   2  12   1 1383.57  567.03   1
   1  12  -1 1076.34  374.35   1
   1  12   1 1226.87  512.41   1
   0  12   1 7093.42 1066.69   1
   0  12  -1 6303.83  931.85   1
  -1  12   1 1774.08  673.07   1
  -1  12  -1 1023.56  470.78   1
  -2  12   1 1501.64  709.49   1
  -2  12  -1  815.19  415.14   1
  -2 -12   1 1730.76  599.17   8
  -3  12  -1  569.26  297.23   1
  -3  12   1 1373.47  590.72   1
  -3 -12   1 1465.02  500.70   8
  -4  12  -1  818.67  423.48   1
  -4 -12   1 1441.18  557.84   8
  -4  12   1  966.89  544.35   1
  -5 -12  -1 2151.37  817.32   2
  -5  12  -1  559.35  250.45   1
  -5  12   1 1445.68  697.20   1
  -6 -12  -1 3809.97 1076.20   2
  -6  12   1 1234.68  717.25   1
   4  13   1  776.77  561.91   1
   4  13  -1   82.90  309.67   1
   3  13  -1 1128.94  405.22   1
   3  13   1 1481.61  553.97   1
   2  13  -1   77.47  264.68   1
   2  13   1  183.38  167.23   1
   1  13  -1 2135.21  549.97   1
   1  13   1 3033.41  805.18   1
   0  13   1  852.33  626.89   1
   0  13  -1  282.72  275.28   1
  -1  13   1 3421.71  880.09   1
  -1  13  -1 3306.99  828.36   1
  -2  13   1  127.13  381.58   1
  -2  13  -1  860.14  617.29   1
  -3  13  -1 1603.92  683.78   1
  -3  13   1 1291.03  621.21   1
  -4  13   1   64.10  364.79   1
  -4  13  -1   28.56  214.16   1
  -5  13   1 2099.28  721.22   1
  -5  13  -1 1948.99  710.91   1
   4  14   1  461.05  476.17   1
   3  14  -1 1282.43  621.26   1
   3  14   1 1192.47  658.93   1
   2  14   1  889.24  517.90   1
   2  14  -1  836.26  565.53   1
   1  14  -1 1327.29  562.64   1
   1  14   1 1103.88  344.69   1
   0  14  -1  389.54  378.98   1
   0  14   1  944.47  587.05   1
  -1  14  -1 1608.47  617.88   1
  -1  14   1 1408.45  626.49   1
  -2  14   1 1038.12  657.67   1
  -2  14  -1  393.14  211.30   1
   9   0   2-1538.66 1075.04   7
   9   0  -2-1494.91  978.77   7
   8   0   2 2342.38  558.49   7
   8   0  -2 1918.12  264.12   7
   7   0   2 1183.29  840.86   7
   7   0  -2 1160.51  752.13   7
   6   0  -212818.49 1116.93   7
   6   0   212692.40 1217.49   7
   5   0   2 -366.28  351.67   7
   5   0  -2 -564.16  267.96   7
   4   0  -235013.43 1427.14   7
   4   0   226624.41  590.22   3
   3   0  -2  -72.97   94.93   3
   3   0  -2 -190.05  137.98   7
   3   0   2   -9.41   36.83   1
   3   0   2   47.69   68.42   3
   3   0  -2  -37.04   75.26   2
   2   0  -2126460.0  1797.4   7
   2   0  -2127171.5  1614.5   2
   2   0   2128228.4  1618.0   3
   1   0  -2  -18.77   64.50   7
   1   0   2  -31.23   56.19   3
  -1   0  -2  190.26  132.55   2
  -1   0  -2   -7.49   85.92   5
  -2   0   2122230.0  1624.1   3
  -2   0  -2122861.4  1630.9   3
  -2   0  -2123281.4  1981.2   5
  -2   0  -2123720.9  2036.3   2
  -3   0  -2  -74.29  125.20   2
  -3   0  -2 -248.65  130.94   3
  -3   0   2   73.65  113.65   8
  -3   0  -2 -166.84  261.93   5
  -3   0   2   18.82  167.85   4
  -3   0   2 -367.52  155.19   3
  -4   0  -229362.02  685.03   3
  -4   0  -233222.02 1436.34   2
  -4   0   233792.58 1379.14   8
  -4   0  -232404.07 1355.02   5
  -4   0   234280.73 1568.93   4
  -5   0   2 -273.34  212.25   5
  -5   0   2    8.15  223.85   8
  -5   0  -2  -59.63  197.69   5
  -5   0   2  -78.37   80.30   3
  -5   0   2  105.42  338.56   4
  -5   0  -2  -83.83  163.48   2
  -6   0   212724.64 1090.16   8
  -6   0  -211899.80 1011.20   5
  -6   0  -211805.40 1013.65   2
  -6   0   210163.80  702.66   5
  -6   0   211469.24 1076.56   4
  -7   0   2  311.77  375.52   4
  -7   0  -2 1903.90  738.39   2
  -7   0   2  397.75  510.96   8
  -7   0  -2  732.29  559.95   5
  -7   0   2  656.34  423.25   5
  -8   0   2 3590.10  881.16   4
  -8   0  -2 2810.11  465.03   5
  -8   0  -2 4726.79  921.92   2
  -8   0   2 2804.72  545.77   5
  -8   0   2 4756.10  921.07   8
  -9   0   2  548.46  712.26   4
  -9   0  -2  643.99  534.25   5
   9  -1   2 3834.23 1051.73   7
   9  -1  -2 3406.75  944.45   7
   8  -1   2 2769.02  848.21   7
   8  -1  -2 2408.49  769.23   7
   8   1   2 -610.43 1156.11   7
   8   1  -2-1346.72 1234.04   7
   7   1  -2 -961.34  931.42   7
   7  -1  -2  918.66  485.61   7
   7   1   2 -396.48  845.57   7
   7  -1   2  992.83  390.66   7
   6  -1   2 2753.04  544.72   7
   6  -1  -2 3045.11  569.35   7
   6   1   2 1955.91  229.83   7
   5  -1   2 5655.15  582.42   7
   5   1  -2 5031.08  686.63   7
   5  -1   2 4029.21  165.81   3
   5  -1  -2 4691.20  402.80   7
   4  -1   2 2458.63   49.80   3
   4  -1  -2 2131.92  267.86   7
   4  -1  -2 2354.74   55.83   3
   4  -1   2 2773.82  132.37   1
   3  -1   232174.12  830.24   3
   3  -1  -230428.43  827.64   3
   3  -1   230494.62  806.82   1
   3   1  -230221.08  997.84   2
   3   1   231789.62  876.96   3
   3   1  -229877.83 1282.60   7
   2   1   2  568.76  112.75   3
   2  -1  -2  338.62   78.04   3
   2  -1   2  162.98  194.73   3
   2  -1   2  207.02   94.33   1
   2   1  -2  154.70  177.76   2
   1   1  -2 1810.89  132.66   6
   1   1   2 2008.44  181.84   3
   0   1   2  362.52  106.43   3
   0  -1   2  364.61  156.52   3
  -1   1  -2 2478.06  233.94   2
  -1   1   2 1731.63  179.94   3
  -1  -1  -2 1618.97   96.24   7
  -1  -1   2 2125.53  255.99   3
  -2  -1   2 1730.52  400.85   3
  -2   1   2  540.34  168.63   3
  -2  -1  -2 1017.04  255.03   7
  -2  -1  -2  523.11  205.11   2
  -2  -1   2 1978.48  421.05   7
  -2   1  -2   79.79  236.18   3
  -2  -1  -2  938.02  199.72   3
  -2   1  -2  724.37  272.45   2
  -3  -1   231682.53  968.80   3
  -3  -1   229201.43  986.01   2
  -3   1   231212.78 1303.60   4
  -3   1  -230560.87 1162.51   5
  -3  -1  -234255.57 1343.48   2
  -3   1   229462.13  852.28   5
  -3   1   230881.73  858.13   3
  -3  -1  -231693.07  890.17   3
  -3  -1   231546.78 1230.65   4
  -3   1   229842.63  980.65   8
  -3   1  -230899.62 1221.15   2
  -4   1   2 3027.39  200.50   3
  -4  -1  -2 3135.30  301.31   2
  -4   1  -2 3090.46  301.85   5
  -4  -1   2 4330.05  610.09   4
  -4   1   2 3140.95  299.32   5
  -4   1  -2 3989.47  555.36   2
  -4  -1  -2 3462.17  231.20   3
  -4   1   2 4160.45  577.98   4
  -4  -1   2 4811.98  659.86   8
  -4   1   2 3961.33  485.26   8
  -4  -1   2 2386.74  114.01   3
  -5  -1   2 5113.31  300.87   3
  -5  -1   2 6572.14  734.14   8
  -5   1   2 6022.10  643.02   8
  -5  -1  -2 6406.08  730.89   5
  -5  -1   2 6307.95  774.16   4
  -5  -1   2 4837.67  359.77   1
  -5   1  -2 5604.39  590.04   5
  -5   1   2 5117.47  454.73   5
  -5  -1  -2 6410.18  755.78   2
  -5  -1  -2 5085.79  304.31   3
  -5   1   2 6242.84  772.23   4
  -5   1  -2 7102.56  812.74   2
  -6   1  -2 2558.49  392.93   5
  -6   1   2 3629.69  635.30   8
  -6   1   2 2255.76  274.02   1
  -6   1  -2 3109.40  630.97   2
  -6  -1  -2 3728.40  748.56   2
  -6  -1   2 3179.63  589.91   8
  -6  -1   2 2916.37  572.41   4
  -6  -1  -2 3060.65  518.34   5
  -6   1   2 2734.43  527.32   4
  -6   1   2 2293.79  295.44   5
  -7   1   2 1003.27  442.96   8
  -7  -1  -2 1100.99  571.65   2
  -7   1  -2  598.86  167.47   5
  -7   1   2  503.44  233.02   4
  -7  -1   2 1178.89  513.39   8
  -7   1   2  135.47  192.80   5
  -7  -1  -2  418.17  189.20   5
  -7  -1   2  286.38  247.89   5
  -7  -1   2  832.50  441.94   4
  -8  -1   2 1262.42  298.07   5
  -8  -1  -2 1618.74  503.01   5
  -8  -1   2 2594.40  789.35   8
  -8  -1  -2 2421.04  689.92   2
  -8  -1   2 2563.12  798.00   4
  -8   1   2 2015.44  741.69   4
  -9   1   2 2490.64  725.95   4
  -9  -1  -2 3936.28  955.67   2
  -9  -1   2 2195.43  496.32   5
  -9  -1  -2 2715.86  599.55   5
  -9  -1   2 3006.52  841.11   4
   9  -2  -2 4146.63  994.37   7
   9  -2   2 4416.09 1064.07   7
   8  -2   2 1066.77  679.43   7
   8  -2  -2  593.25  578.41   7
   7  -2   2 2819.90  538.85   7
   7  -2  -2 2081.37  450.39   7
   6  -2   2  511.69  441.21   7
   6  -2  -2  541.31  369.26   7
   5  -2   2 9675.57  395.95   1
   5  -2  -210512.38  743.58   7
   5  -2   210169.26  375.86   3
   5  -2  -210073.88  424.14   3
   4   2   2 1984.18  185.36   1
   4  -2   2 2095.12  231.15   3
   4  -2   2 1936.63  226.04   1
   3  -2   253693.64 1265.24   1
   3  -2  -250922.95 1073.59   3
   3   2   254740.44 1127.43   1
   3  -2   255370.59 1183.34   3
   3   2  -252425.70 1533.71   2
   3  -2  -255384.89 1118.61   6
   2  -2   2 2056.92  305.74   1
   2  -2  -2  723.00  139.27   3
   2  -2  -2  653.84  100.45   5
   2  -2   2 1404.36  188.50   3
   2  -2  -2  588.26   48.83   6
   2   2   2 1975.68  285.52   1
   1   2  -214418.40  526.73   6
   1   2   217043.51  707.53   3
   1  -2   215021.06  506.26   2
   1  -2   216418.71  678.28   3
   0   2  -211220.34  643.84   1
   0   2  -210859.84  519.27   6
   0   2   210826.66  575.97   3
  -1   2   216418.85  711.96   3
  -1   2  -216076.31  718.72   1
  -1  -2   214165.40  351.42   2
  -2  -2   2  -22.16  333.50   7
  -2  -2   2  663.82  138.39   1
  -2   2   2  715.12  143.14   3
  -2  -2  -2 1921.27  288.38   3
  -2  -2   2  698.24   88.56   2
  -2  -2  -2 1010.85  137.47   7
  -2   2  -2 1591.18  250.49   1
  -3  -2   253580.05 1435.81   1
  -3  -2   256568.59 1466.77   3
  -3   2   254579.55 1750.50   4
  -3   2  -253898.14 1280.53   1
  -3   2   253771.59 1210.84   8
  -3  -2   255594.24 1609.32   4
  -3  -2   256837.59 1472.68   2
  -3  -2  -256067.19 1356.64   3
  -4  -2   2 1466.13  217.32   3
  -4  -2  -2 3065.88  541.78   2
  -4  -2   2 1638.91  352.65   4
  -4  -2   2 1483.89  298.07   2
  -4   2   2 1588.60  297.36   8
  -4   2   2 1834.05  411.90   4
  -4  -2  -2 2681.26  331.61   3
  -4   2   2 1675.37  336.01   1
  -4  -2   2  947.44  125.84   1
  -5  -2   212877.32 1055.55   8
  -5  -2   211149.52  597.91   3
  -5  -2   212221.57 1039.70   4
  -5  -2   212590.22  994.54   2
  -5  -2   210700.87  648.61   1
  -5   2   211500.22  796.64   1
  -5   2   212813.47  960.81   8
  -5  -2  -211932.49  973.77   2
  -5   2   212181.87 1123.29   4
  -5  -2  -211391.94  540.88   3
  -6   2   2  978.84  532.13   8
  -6  -2   2  192.57  145.33   4
  -6  -2   2  315.86  113.56   3
  -6  -2  -2 1675.70  639.16   2
  -6   2   2  609.45  389.33   4
  -6   2   2  161.58  176.88   1
  -6  -2   2 1170.54  603.91   2
  -6  -2   2 1042.75  567.68   8
  -7  -2   2 2775.76  603.66   8
  -7  -2   2 2086.09  561.53   4
  -7  -2  -2 2008.38  234.73   5
  -7  -2  -2 2853.81  554.06   2
  -7   2   2 2624.63  620.32   4
  -8  -2   2  461.04  391.01   5
  -8  -2  -2  179.49  409.33   5
  -8  -2  -2  310.38  432.14   2
  -8  -2   2  711.18  691.98   4
  -8   2   2  511.60  615.29   4
  -8  -2   2  840.97  634.98   8
  -9  -2  -2 4103.43  923.86   2
  -9  -2   2 2919.22  623.09   5
  -9  -2  -2 2871.46  528.07   5
  -9  -2   2 3832.05  972.18   4
  -9   2   2 3979.53 1076.97   4
  10  -3   2  149.62  312.15   6
   9  -3  -2 1385.57  719.71   7
   9  -3   2 1358.29  630.16   7
   8  -3   2 1251.61  658.83   7
   8  -3  -2 1122.86  603.59   7
   7  -3   2 1231.53  427.51   7
   7  -3  -2 1177.83  324.77   6
   7  -3  -2 1044.97  395.58   7
   6  -3  -2 1100.02  295.74   6
   6  -3  -2 1384.23  461.50   7
   6  -3   2 1145.35  438.22   7
   5  -3   2 4603.61  334.05   3
   5  -3   2 4253.96  330.32   1
   5   3   2 4828.16  337.56   1
   5  -3  -2 4744.22  458.64   6
   5  -3  -2 4033.71  285.15   3
   4  -3  -2 1720.58  221.93   6
   4  -3   2 1561.51  193.95   1
   4  -3  -2 1567.87  201.03   3
   4  -3   2 1584.64  169.17   3
   4   3   2 1595.58  161.03   1
   3  -3  -210691.13  500.27   3
   3   3   212672.75  633.37   1
   3  -3  -212589.71  584.95   6
   3  -3   211283.52  612.77   1
   3  -3  -212333.11  570.93   5
   2  -3  -2 5450.59  371.27   3
   2   3   2 6406.58  472.31   1
   2  -3   2 6281.31  532.37   1
   2   3  -2 6475.18  590.69   1
   1   3  -210886.18  574.38   6
   1   3  -212680.83  817.59   1
   1   3   212756.94  739.36   1
   0   3   212303.31  737.76   1
   0   3  -213034.22  699.97   6
   0   3  -213304.82  823.52   1
  -1   3  -212287.09  765.56   1
  -1   3   211418.18  749.05   1
  -1   3  -211868.99  699.70   6
  -2  -3   2 6147.27  548.45   1
  -2   3   2 6804.76  458.16   6
  -2   3  -2 6178.41  525.71   1
  -2  -3   2 6646.09  450.47   2
  -2   3   2 5859.70  567.81   1
  -2  -3  -2 6822.92  551.15   3
  -3  -3   211604.06  479.29   2
  -3   3   212520.01  852.46   4
  -3   3   211093.53  457.07   8
  -3   3   212226.16  849.93   1
  -3  -3  -213801.80  799.66   3
  -3  -3   212172.06  705.49   4
  -3  -3   211803.81  745.80   1
  -3   3  -212503.65  704.47   1
  -4  -3  -2 2238.02  444.09   2
  -4  -3   2 1919.29  273.46   2
  -4   3   2 1693.62  311.97   1
  -4   3   2 1864.20  403.77   4
  -4   3  -2 1562.96  199.08   1
  -4  -3  -2 1503.95  166.99   3
  -4  -3   2 2134.59  410.37   4
  -4   3   2 1738.61  242.55   8
  -5   3   2 5043.30  558.43   8
  -5  -3  -2 5256.97  465.35   3
  -5  -3   2 4631.26  636.46   4
  -5  -3   2 4722.48  588.67   2
  -5  -3   2 4280.05  422.90   1
  -5  -3   2 4764.43  638.57   8
  -5  -3   2 4417.68  446.72   3
  -5   3   2 4446.90  636.59   4
  -5   3   2 3983.50  446.27   1
  -5  -3  -2 4991.38  625.35   2
  -6  -3  -2 1469.90  495.43   2
  -6  -3   2  994.22  220.39   4
  -6  -3   2 1502.09  486.96   8
  -6  -3   2 1679.24  517.55   2
  -6   3   2 1029.97  410.52   4
  -6   3   2 1141.78  300.19   1
  -6   3   2 1871.57  542.96   8
  -6  -3   2 1367.95  260.24   3
  -7  -3   2 1498.90  554.13   4
  -7  -3   2 1504.06  472.56   2
  -7   3   2 1047.07  320.70   4
  -7  -3   2 1367.94  588.86   8
  -7  -3  -2  952.98  313.13   2
  -8  -3  -2  673.93  375.13   2
  -8   3   2  969.46  632.13   4
  -8  -3   2  931.18  611.48   8
  -8  -3  -2  701.89  475.00   5
  -8  -3   2  816.38  549.38   4
  -9  -3  -2  357.41  218.87   5
  -9  -3   2  252.97  139.30   5
  -9  -3   2 1533.49  767.40   4
  -9   3   2  597.29  461.54   4
  -9  -3  -2 1000.59  500.79   2
   9  -4  -2 1228.86  766.50   7
   9  -4   2  702.60  381.57   6
   8  -4   2 4077.56  690.02   6
   8  -4   2 4970.60  957.89   7
   8  -4  -2 4527.89  903.54   7
   7  -4   2  339.87  204.56   6
   7  -4  -2  776.17  560.26   7
   7  -4  -2  710.05  324.23   6
   7  -4   2  701.01  368.22   7
   6  -4  -2 4106.46  475.40   6
   6  -4   2 3895.46  553.74   6
   5  -4  -2 3182.56  466.78   6
   5   4   2 3070.65  321.15   1
   5  -4   2 2959.56  480.67   6
   5  -4   2 2381.79  275.57   3
   4  -4  -213553.29  749.02   6
   4  -4   212622.70  843.80   6
   4   4   213584.35  697.27   1
   3   4  -210505.54  858.66   1
   3  -4  -2 9874.89  611.86   6
   3   4   2 9685.86  627.07   1
   2   4  -216989.24 1038.46   1
   2   4   215942.80  816.14   1
   1   4   215077.83  947.35   1
   1   4   215280.13  870.82   8
   1   4  -212760.89  905.48   1
   0   4   2 4493.40  442.58   1
   0   4  -2 5233.48  525.91   1
  -1   4  -214256.48  977.69   1
  -1   4   211613.89  842.18   1
  -2   4   215783.44 1008.41   1
  -2   4   216273.94  897.58   4
  -2   4  -216011.30  917.68   1
  -2   4   216754.29  827.71   6
  -3   4  -2 9918.25  711.51   1
  -3   4   210001.79  829.42   4
  -3   4   2 9333.87  418.86   8
  -3   4   2 9611.80  857.16   1
  -3  -4   2 9562.20  654.22   2
  -3  -4   2 9618.02  628.22   4
  -4   4   214051.48  747.02   8
  -4   4   212263.08  928.45   4
  -4   4  -212475.60  763.80   1
  -4  -4   213613.73  901.05   4
  -4   4   213852.44 1030.34   1
  -4  -4   213006.94  816.41   2
  -4  -4  -212767.95  923.69   2
  -5  -4  -2 2839.61  458.08   2
  -5  -4   2 2258.72  324.93   4
  -5   4   2 3384.98  594.05   1
  -5   4   2 2373.76  559.30   4
  -5   4  -2 2702.36  365.67   1
  -5  -4   2 2419.66  411.35   8
  -5  -4   2 2607.37  437.43   2
  -6  -4  -2 4341.10  613.86   2
  -6  -4   2 4287.54  736.38   8
  -6  -4   2 4157.15  615.24   4
  -6  -4   2 3760.06  419.38   3
  -6  -4   2 4543.02  706.95   2
  -6   4   2 4263.76  717.12   4
  -6   4   2 4088.06  491.12   1
  -7  -4   2  819.75  548.84   8
  -7   4   2  648.24  547.27   4
  -7  -4  -2  787.74  467.63   2
  -7  -4   2  448.83  342.93   4
  -7  -4   2 1179.89  536.07   2
  -8  -4   2 5258.68  984.33   4
  -8  -4   2 5160.85 1007.91   8
  -8  -4   2 5097.57  855.66   2
  -8   4   2 4119.66  901.67   4
  -8  -4  -2 4177.46  758.91   2
  -9  -4  -2  291.52  322.81   5
  -9  -4  -2  430.51  499.68   2
  -9   4   2   99.07  407.62   4
   9  -5  -2 1412.52  797.11   7
   9  -5   2  660.73  481.30   6
   8  -5  -2 4917.48  966.29   7
   8  -5   2 4537.49  878.85   7
   8  -5   2 4030.22  688.03   6
   7  -5   2  115.33  263.40   6
   7  -5  -2 1151.67  472.74   6
   6  -5   2 8388.04  904.28   6
   6  -5  -2 8160.40  760.20   6
   5   5   2 1506.79  205.89   1
   5  -5  -2 1953.98  426.50   6
   5  -5   2 1658.65  392.89   6
   4  -5  -221459.97 1024.27   6
   4   5   221683.25 1035.29   1
   4  -5   221290.00 1197.44   6
   3   5  -2 7736.63  776.37   1
   3   5   2 7287.67  613.95   1
   2   5  -232536.78 1532.44   1
   2   5   232332.25 1385.86   1
   1   5  -212687.59  990.51   1
   1   5   211907.10  884.34   1
   1  -5   211838.60  683.82   4
   0   5   239518.13 1182.09   8
   0   5   239721.63 1655.19   1
   0   5  -240692.46 1766.23   1
  -1   5   212545.04 1004.16   1
  -1   5  -211582.40  879.66   1
  -2   5   232321.63 1647.84   1
  -2  -5   233488.78 1400.32   8
  -2   5  -230251.20 1407.55   1
  -2  -5   230480.68  810.78   4
  -2   5   231671.63 1308.84   4
  -3   5   2 7332.80  838.83   1
  -3   5  -2 6594.79  608.03   1
  -3   5   2 5472.37  245.14   8
  -3  -5   2 6190.80  533.28   2
  -3  -5   2 7065.86  544.43   4
  -3   5   2 7174.92  721.70   4
  -4  -5   222026.52 1141.57   4
  -4   5   221564.37 1427.95   4
  -4   5  -220575.60 1132.60   1
  -4  -5  -219335.20 1255.58   2
  -4   5   222310.92 1469.92   1
  -4  -5   223030.32 1452.32   8
  -4  -5   220209.57 1025.35   2
  -5  -5   2 1663.41  417.69   2
  -5  -5   2 1453.11  223.17   8
  -5  -5   2 1421.92  377.40   4
  -5  -5  -2 2120.17  519.49   2
  -5   5   2 2152.29  522.70   1
  -5   5   2 1763.07  556.10   4
  -5   5  -2 1369.92  298.82   1
  -6   5   2 7012.53  724.91   1
  -6  -5   2 8542.27 1064.91   8
  -6   5  -2 6673.81  588.86   1
  -6  -5   2 8584.52  922.09   4
  -6   5   2 7034.78  895.16   4
  -6  -5  -2 6615.61  594.56   2
  -6  -5   2 7849.76  835.41   2
  -6  -5   2 6620.99  647.58   3
  -7   5   2  537.49  477.40   4
  -7  -5   2 1144.28  580.57   2
  -7  -5   2 -160.17  339.54   8
  -7  -5  -2   82.82  255.49   2
  -7  -5   2  605.69  392.93   4
  -8  -5   2 5032.63  967.98   8
  -8   5   2 4543.82 1006.22   4
  -8  -5   2 4179.56  676.59   2
  -8  -5  -2 3633.95  637.31   2
  -9  -5   2 1155.15  644.39   2
   9  -6   2 1952.80  561.48   6
   8  -6   2  746.34  548.41   7
   8  -6   2   20.02  275.12   6
   7  -6   2  773.30  267.71   6
   6  -6  -2 1031.83  377.84   6
   6  -6   2  591.89  274.87   6
   5  -6   2 4386.23  653.77   6
   5  -6  -2 3973.75  509.14   6
   5   6   2 4233.54  478.04   1
   4  -6  -2 1841.34  165.63   6
   4   6   2 2217.70  324.89   1
   4  -6   2 2425.22  469.07   6
   4   6  -2 2652.25  510.82   1
   3  -6   218115.62 1135.04   6
   3   6   218114.71 1086.04   1
   3   6  -217044.16 1175.72   1
   2   6   2 3007.06  405.31   1
   2   6  -2 3091.02  442.05   1
   1   6   2 2692.86  506.48   1
   1   6  -2 1886.87  377.55   1
   1  -6   2 1656.88  253.95   4
   0   6  -2 3796.33  532.66   1
   0   6   2 4382.58  603.47   1
   0  -6   2 2888.98  208.94   4
   0   6   2 4447.48  434.20   8
  -1   6   2 1687.07  198.48   8
  -1   6   2 1904.36  444.12   1
  -1   6  -2 2326.00  446.86   1
  -2   6  -2 3106.83  469.76   1
  -2  -6   2 3835.00  482.19   8
  -2   6   2 3744.67  632.52   1
  -2  -6   2 2948.43  223.10   4
  -2   6   2 3817.54  495.73   4
  -3   6   217539.81 1329.90   1
  -3  -6   217398.16 1133.17   8
  -3   6   217223.01 1127.65   4
  -3   6  -216264.02 1057.50   1
  -3  -6   216620.76  758.75   4
  -4   6  -2 1875.47  244.07   1
  -4   6   2 2761.37  589.39   1
  -4  -6   2 2392.67  327.47   4
  -4  -6   2 2771.73  487.80   2
  -4  -6   2 2844.19  561.10   8
  -4   6   2 2433.45  551.06   4
  -5   6   2 4175.95  669.96   1
  -5  -6   2 4455.89  718.51   8
  -5  -6   2 4191.37  530.29   4
  -5   6  -2 4673.25  645.66   1
  -5   6   2 4560.77  794.63   4
  -6  -6   2  850.36  343.39   2
  -6  -6  -2   87.32  326.58   2
  -6   6  -2  590.90  257.29   1
  -6  -6   2 1026.89  414.29   4
  -6  -6   2 1114.68  578.22   8
  -6   6   2  535.58  390.38   4
  -6   6   2  440.79  304.55   1
  -7  -6   2  556.50  333.67   8
  -7   6   2  479.41  335.80   4
  -7  -6  -2  423.25  153.31   2
  -7  -6   2 1122.20  435.42   2
  -8  -6  -2  171.19  270.38   2
  -8   6   2  254.68  404.89   4
  -8  -6   2  704.25  724.39   8
  -8  -6   2  504.66  456.42   2
   9  -7   2 2648.84  665.60   6
   8  -7   2  900.90  466.78   6
   7  -7   2 1500.11  432.46   6
   6  -7  -2 1828.49  396.89   6
   6  -7   2 2218.41  465.40   6
   5   7   2 5162.29  568.45   1
   5  -7  -2 4524.49  472.77   6
   5  -7   2 6410.25  822.76   6
   4   7  -2  569.73  312.03   1
   4  -7   2 1235.84  397.08   6
   4   7   2 1123.50  327.83   1
   3   7  -221318.58 1340.30   1
   3  -7   221857.81 1307.49   6
   3   7   219965.86  932.79   4
   3   7   222202.36 1333.59   1
   2   7  -2  672.19  229.35   1
   2  -7   2  766.76  114.70   6
   2   7   2  821.82  108.04   1
   1   7  -2 6630.61  825.22   1
   1   7   2 6299.21  735.93   1
   1  -7   2 6595.88  528.15   4
   0   7  -2 6539.80  729.28   1
   0   7   2 6314.43  511.89   8
   0   7   2 6141.00  728.18   1
   0  -7   2 5332.39  306.82   4
  -1   7  -2 6062.63  729.32   1
  -1   7   2 5147.43  284.59   8
  -1   7   2 6784.44  859.41   1
  -1  -7   2 6090.00  588.30   8
  -1   7   2 6327.92  586.34   4
  -2  -7   2 1018.12  315.91   8
  -2   7  -2 1214.29  325.72   1
  -2   7   2 1483.49  554.82   1
  -2   7   2 1068.39  350.34   4
  -3  -7   223466.63 1453.29   8
  -3   7   223780.53 1698.78   1
  -3   7  -219987.27 1279.95   1
  -3   7   223075.68 1477.30   4
  -4   7  -2  424.54  109.05   1
  -4  -7   2 1202.53  477.89   2
  -4   7   2 1126.61  553.28   1
  -4  -7   2   96.67  228.74   8
  -4   7   2  674.68  319.67   4
  -5   7  -2 5362.54  675.36   1
  -5   7   2 6121.21  889.18   1
  -5   7   2 5470.28  849.32   4
  -5  -7  -2 6220.69  893.02   2
  -5  -7   2 5172.09  552.03   2
  -5  -7   2 6533.19  934.41   8
  -6  -7   2 1802.92  319.48   2
  -6  -7  -2 1914.62  357.95   2
  -6   7   2 2082.46  378.92   4
  -6  -7   2 2355.46  637.91   8
  -6   7   2 2248.99  528.72   1
  -6   7  -2 2175.06  467.09   1
  -7   7   2 1369.19  614.27   4
  -7  -7   2 2100.04  677.99   8
  -7  -7  -2   41.84  466.55   2
  -7  -7   2 1514.73  402.40   2
  -8  -7  -2  554.66  166.36   2
  -8  -7   2 1094.49  598.27   8
  -8   7   2 1567.09  849.88   4
   8  -8   2  745.48  445.50   6
   7  -8   2  583.84  303.62   6
   6  -8   2 1293.91  352.55   6
   5   8  -2  136.61  119.42   1
   5   8   2  278.81  233.68   1
   5  -8   2   69.55  260.60   6
   4   8   2  634.73  250.56   1
   4  -8   2  515.56  261.03   6
   4   8  -2  325.22  172.32   1
   3   8  -2 -100.75  212.89   1
   3  -8   2 -137.74  334.18   6
   3   8   2  -75.70  190.74   1
   2   8  -2 3534.56  614.57   1
   2   8   2 3263.89  502.86   1
   1   8   2  265.93  207.92   1
   1   8  -2  109.10  216.95   1
   1  -8   2  527.26  163.29   4
   0   8   2 8802.97  919.96   1
   0   8  -2 9212.67  919.51   1
   0  -8   2 8394.11  614.72   8
  -1   8   2  178.10  172.83   1
  -1  -8   2  441.11  221.83   8
  -1   8  -2  548.66  219.35   1
  -1   8   2  350.41  165.38   4
  -2   8   2 2816.86  544.84   1
  -2   8  -2 3299.25  551.39   1
  -2  -8   2 3426.67  516.90   8
  -2   8   2 3057.59  466.85   4
  -3   8   2 -261.98  285.79   1
  -3   8  -2   10.51  151.05   1
  -3  -8   2  635.44  403.93   8
  -3   8   2  247.87  364.35   4
  -4   8  -2  780.55  331.69   1
  -4   8   2  872.65  428.88   4
  -4  -8   2 1062.35  413.80   8
  -4   8   2  432.23  172.68   1
  -4  -8   2   64.23  256.30   2
  -5   8  -2  360.73  232.13   1
  -5  -8   2   44.03  245.33   2
  -5  -8   2  450.80  308.37   8
  -5   8   2 -185.23  311.65   4
  -5   8   2  448.91  202.05   1
  -6  -8   2  912.31   96.51   2
  -6   8   2 1857.76  658.94   4
  -6  -8  -2 1754.15  493.07   2
  -6  -8   2 1225.51  466.06   8
  -6   8   2 1325.21  452.70   1
  -7  -8  -2  249.11  111.99   2
  -7   8   2  274.45  418.57   4
  -7  -8   2 -139.04  275.87   2
  -8   8   2  609.15  636.60   4
  -8  -8  -2  194.84  149.21   2
   8  -9   2 1576.45  572.01   6
   7  -9   2  369.43  332.07   6
   6  -9   2 2409.02  574.37   6
   5   9   2  -59.93  214.92   1
   5  -9   2   -3.74  214.68   6
   5   9  -2  315.57  261.01   1
   4  -9   213896.07 1216.43   6
   4   9   215134.52 1266.60   1
   4   9  -213019.36 1150.65   1
   3  -9   2  767.82  414.28   6
   3   9   2  576.67  237.48   1
   3   9  -2  633.13  263.92   1
   2   9   221627.03 1539.94   1
   2   9  -222794.68 1648.59   1
   1   9  -2  867.58  301.72   1
   1  -9   2  944.07  196.35   8
   1   9   2  910.94  362.36   1
   0   9  -213926.77 1270.30   1
   0   9   212664.38  655.91   4
   0   9   214208.88 1307.79   1
   0  -9   213437.57  869.58   8
  -1  -9   2 1041.57  328.45   8
  -1   9  -2  915.44  256.89   1
  -1   9   2 1049.04  292.46   4
  -1   9   2  967.48  248.69   1
  -2  -9   223543.53 1522.31   8
  -2   9  -220551.98 1502.15   1
  -2   9   222811.88 1799.55   1
  -2   9   223118.13 1430.26   4
  -3   9  -2  427.97  201.32   1
  -3  -9   2  732.46  328.89   8
  -3   9   2  990.98  428.30   1
  -3   9   2  800.74  410.87   4
  -4  -9   214865.81 1354.70   8
  -4   9   213608.01 1377.34   1
  -4   9  -213245.27 1199.98   1
  -4   9   214534.86 1328.30   4
  -5   9  -2 -139.53  388.36   1
  -5  -9   2 1350.81  463.45   2
  -5  -9   2  359.83  312.14   8
  -5  -9  -2 -194.28  241.10   2
  -5   9   2 1256.34  704.11   1
  -5   9   2  813.79  648.72   4
  -6   9   2 2626.60  783.91   4
  -6  -9  -2 2824.90  578.22   2
  -6  -9   2 3030.28  867.64   8
  -6   9   2 2197.30  587.16   1
  -6  -9   2 1670.31  225.94   2
  -7  -9   2  235.79  541.20   8
  -7   9   2  794.78  618.97   4
   7 -10   2  926.23  389.83   6
   6 -10   2 1270.11  464.46   6
   5  10   2 2021.93  473.49   1
   5 -10   2 2585.03  700.11   6
   5  10  -2 1555.31  318.69   1
   4  10   2 7492.59  914.81   1
   4  10  -2 6322.17  771.28   1
   3  10   2 3587.20  702.10   1
   3  10  -2 3009.98  624.46   1
   2  10  -2 3408.08  578.97   1
   2  10   2 3597.40  655.46   1
   1  10  -2 1415.27  352.65   1
   1  10   2 1515.32  516.61   1
   0 -10   2  119.13  170.85   8
   0  10  -2 -133.58  252.21   1
   0  10   2  297.75  353.54   1
  -1 -10   2 1737.30  435.29   8
  -1  10  -2 1242.63  321.17   1
  -1  10   2 2072.27  685.06   1
  -2  10   2 3280.07  455.07   4
  -2  10  -2 3627.29  665.67   1
  -2 -10   2 3224.23  483.80   8
  -2  10   2 3497.00  613.08   1
  -3  10  -2 3281.06  719.45   1
  -3 -10   2 2565.66  481.41   8
  -3  10   2 3546.26  840.66   1
  -3  10   2 3505.08  700.03   4
  -4 -10   2 7627.84 1072.66   8
  -4  10  -2 6150.91  843.13   1
  -4  10   2 7024.81 1031.14   1
  -4  10   2 6786.58  894.95   4
  -5 -10   2 2728.03  580.72   2
  -5  10  -2 2049.27  471.10   1
  -5 -10  -2 3879.78  913.19   2
  -5  10   2 2100.44  600.86   1
  -5  10   2 2626.26  688.54   4
  -5 -10   2 2514.02  724.60   8
  -6  10   2  990.78  494.80   1
  -6 -10  -2 1549.47  533.36   2
  -6 -10   2 1666.73  755.48   8
  -6  10   2 1913.31  830.76   4
  -7 -10  -2    2.76  408.50   2
  -7  10   2 1568.83  809.38   4
   6 -11   2  448.77  440.67   6
   5  11   2 4107.27  795.79   1
   5  11  -2 3167.15  620.52   1
   4  11   2  334.30  212.68   1
   4  11  -2  578.46  354.21   1
   3  11  -2 7175.36  999.60   1
   3  11   2 7714.34 1065.05   1
   2  11  -2 1043.93  481.20   1
   2  11   2  615.86  282.76   1
   1  11  -211570.42 1257.84   1
   1  11   212419.87 1365.00   1
   0  11  -2  550.18  310.58   1
   0  11   2 1225.82  733.98   1
  -1  11  -210652.13 1102.27   1
  -1  11   211329.22 1261.59   1
  -1 -11   211087.57  966.27   8
  -2  11  -2 1021.76  493.33   1
  -2 -11   2  787.68  400.72   8
  -2  11   2  779.28  345.09   1
  -3  11  -2 6724.58 1018.84   1
  -3 -11   2 7322.02  990.01   8
  -3  11   2 7274.06 1103.83   1
  -4  11   2  698.09  444.30   1
  -4 -11   2  713.38  413.44   8
  -4  11  -2  760.97  402.37   1
  -5 -11   2 4717.07 1062.64   8
  -5  11   2 3881.53  925.46   1
  -5  11  -2 3593.79  755.08   1
  -6  11   2 1605.05  799.27   1
  -6 -11  -2 1596.61  689.80   2
  -6 -11   2  954.88  698.05   8
   5  12  -2 1500.08  579.40   1
   4  12   2 1188.61  452.20   1
   4  12  -2 1358.45  495.69   1
   3  12   2 2557.60  567.50   1
   3  12  -2 2462.34  549.65   1
   2  12  -2 1588.95  449.32   1
   2  12   2 1755.11  517.14   1
   1  12  -2 1864.92  622.06   1
   1  12   2 2048.42  683.15   1
   0  12   2 1323.68  553.17   1
   0  12  -2 1111.32  413.15   1
  -1  12  -2 1548.54  482.39   1
  -1  12   2 2097.98  717.89   1
  -2  12  -2 2243.66  719.41   1
  -2  12   2 2290.37  795.47   1
  -2 -12   2 2073.59  660.72   8
  -3  12  -2 2808.45  660.14   1
  -3 -12   2 2758.84  601.72   8
  -3  12   2 2994.21  847.76   1
  -4  12   2 1809.44  764.24   1
  -4  12  -2 1365.94  486.01   1
  -4 -12   2 1081.21  482.44   8
  -5 -12   2 1886.05  693.83   8
  -5  12  -2 1515.53  612.46   1
  -5  12   2 1261.05  631.35   1
  -6  12   2  453.84  346.87   1
   5  13  -2   19.61  282.17   1
   4  13   2  222.73  234.73   1
   4  13  -2  918.12  512.54   1
   3  13  -2  359.00  386.62   1
   3  13   2 -256.32  321.83   1
   2  13   2  895.09  467.53   1
   2  13  -2  504.59  142.95   1
   1  13  -2 -346.06  431.27   1
   1  13   2  171.51  326.06   1
   0  13  -2  558.68  429.35   1
   0  13   2  748.84  377.96   1
  -1  13   2  427.74  521.13   1
  -1  13  -2  423.36  445.64   1
  -2  13  -2    2.22  328.48   1
  -2  13   2  919.45  533.89   1
  -3  13  -2  377.95  478.01   1
  -3  13   2 1036.94  694.27   1
  -4  13  -2  739.39  286.57   1
  -4 -13   2 1220.24  571.70   8
  -4  13   2  528.48  382.63   1
  -5  13   2  224.47  407.38   1
  -5 -13   2  588.81  540.70   8
  -5  13  -2 -197.61  425.68   1
   4  14   2 3988.46  976.52   1
   3  14   2 2516.98  744.22   1
   2  14   2 3402.56  645.29   1
   2  14  -2 3741.39  918.97   1
   1  14  -2 1714.75  662.23   1
   1  14   2 1472.33  588.58   1
   0  14  -2 2345.57  719.04   1
   0  14   2 2579.74  747.24   1
  -1  14  -2 1489.16  642.17   1
  -1  14   2 1019.73  494.88   1
  -2  14  -2 4576.69 1099.99   1
   9   0  -3 6271.73  725.15   7
   9   0   3 7462.93  888.62   7
   8   0  -3 -427.26  382.35   7
   8   0   3  118.71  218.26   7
   7   0   332949.58 2330.39   7
   7   0  -330631.04 2073.42   7
   6   0   3  481.18  434.73   7
   6   0  -3  914.86  545.78   7
   5   0   324441.73  812.36   3
   5   0  -326392.67 1447.36   7
   5   0   327859.54 1602.98   7
   4   0   3 -427.04  213.64   3
   4   0   3 -375.28  187.50   1
   4   0   3  -29.43  231.47   7
   3   0   370580.95 1460.06   3
   3   0  -368149.39 1514.19   3
   3   0  -366779.75 1458.89   2
   3   0  -365129.59 1497.07   7
   2   0   3  140.04  172.95   7
   2   0  -3   22.81   69.41   3
   2   0  -3  124.22  130.02   7
   1   0   3125424.0  2112.2   3
   1   0   3124130.0  1578.8   7
   0   0   3   41.17   76.61   5
   0   0   3  185.93  144.76   3
  -1   0   3114479.9  1962.8   3
  -1   0  -3110962.0  1794.2   2
  -1   0   3113514.4   992.5   6
  -2   0  -3  130.75  170.45   2
  -2   0  -3 -265.49  202.56   3
  -2   0   3 -117.53  140.84   3
  -2   0  -3  -84.40  127.15   5
  -3   0   365869.59 1447.35   3
  -3   0  -372133.95 1936.03   5
  -3   0  -369427.70 1801.64   2
  -3   0  -369232.61 1505.28   3
  -4   0   3 -532.78  250.87   3
  -4   0  -3 -482.75  372.93   5
  -4   0   3  830.97  430.31   8
  -4   0  -3 -746.22  247.62   3
  -4   0   3 1108.44  492.45   4
  -4   0  -3 -180.28  110.01   2
  -5   0  -326717.38 1462.97   5
  -5   0   325113.96 1269.26   8
  -5   0   324135.52 1040.60   5
  -5   0   325270.92 1483.64   4
  -5   0   323177.21  770.51   3
  -5   0  -327345.94 1497.16   2
  -6   0   3  278.63  328.24   4
  -6   0   3  279.65  337.95   8
  -6   0  -3  220.78  317.34   5
  -6   0   3  -49.51   93.10   5
  -6   0  -3  852.57  475.91   2
  -7   0   329819.89 1825.22   8
  -7   0  -333080.38 2007.87   2
  -7   0  -326798.08 1584.85   5
  -7   0   327872.49 1415.28   5
  -7   0   329157.79 2015.36   4
  -8   0   3 -201.79  222.02   8
  -8   0  -3   62.27  179.55   5
  -8   0  -3  -24.83  195.81   2
  -8   0   3   98.58  235.29   4
  -9   0   3 8728.37 1054.48   8
  -9   0   3 9614.84 1372.53   4
  -9   0  -310803.39 1305.31   5
   9  -1   3 1263.10  677.02   7
   9  -1  -3  961.74  506.88   7
   8  -1   3  705.61  659.59   7
   8  -1  -3  419.28  332.87   7
   7  -1  -3 3881.51  737.18   7
   7   1   3 1479.86  820.34   7
   7   1  -3  935.05  763.63   7
   7  -1   3 4331.89  870.46   7
   6   1   3 -183.83  463.13   7
   6  -1   3  506.12  298.45   7
   6  -1  -3  459.97  265.40   7
   5  -1   3 4301.74  311.70   3
   5  -1  -3 3944.04  311.78   3
   5  -1  -3 4172.72  416.50   7
   5  -1   3 4669.81  590.22   7
   5  -1   3 3222.35  174.30   1
   5   1   3 3999.55  437.48   7
   5   1  -3 3424.73  391.59   7
   4   1   315184.74  685.14   3
   4  -1   315671.19  639.43   3
   4  -1  -313769.55  604.52   3
   4  -1   315561.29  954.17   7
   4   1   315015.69 1072.76   7
   4  -1   314381.74  582.77   1
   4  -1  -314004.65  773.49   7
   3   1   343140.06 1155.77   3
   3  -1   342961.61 1143.28   3
   3  -1  -341841.33 1151.46   3
   3   1   345589.31 1847.82   7
   3  -1   346233.36 1336.03   1
   3  -1   345078.86 1441.08   7
   3   1  -343728.03 1097.30   2
   2   1   322782.78  865.70   3
   2  -1  -320491.73  775.09   3
   2  -1   323516.78  928.93   3
   2   1  -323508.48  966.53   3
   2  -1   322658.83  895.99   1
   2   1  -322228.63  633.42   2
   1   1   354882.83 1350.62   3
   1  -1   354147.98 1377.35   3
   1   1  -350420.14  836.59   6
   1  -1   347445.78 1160.02   2
   0   1   340451.23 1149.96   3
   0  -1   341979.29 1244.21   3
   0  -1  -340585.82  741.34   5
   0  -1   341157.89  896.86   6
  -1   1   350982.64 1286.39   3
  -1  -1   352260.04 1354.40   3
  -1  -1   348935.19  858.79   7
  -1  -1  -352555.28 1032.74   7
  -1   1  -352051.53 1019.69   2
  -2   1   320063.43  779.22   3
  -2  -1  -323893.18  933.14   3
  -2  -1   321744.73  900.98   3
  -2   1  -324047.93  946.49   3
  -2  -1   322517.83  746.72   7
  -2  -1  -322543.43  845.06   7
  -2   1  -322900.93  906.68   2
  -2  -1  -321636.28  977.06   2
  -3   1   341708.58 1148.05   3
  -3  -1  -342492.51 1167.88   3
  -3  -1   341409.03 1204.05   3
  -3   1  -340997.36 1146.07   3
  -3   1   339684.68  794.09   5
  -3   1  -343214.91 1421.90   5
  -3  -1  -344637.96 1529.56   5
  -3   1  -345527.11 1513.55   2
  -4   1   314386.35  628.95   3
  -4  -1   313220.45  606.02   3
  -4  -1  -314459.44  628.65   3
  -4   1   315559.70  849.45   8
  -4  -1  -316298.99 1031.78   5
  -4  -1   316807.25 1053.20   8
  -4  -1  -315902.54 1010.38   2
  -4   1  -314854.44  882.76   5
  -4   1   313160.00  549.40   5
  -4   1  -316479.29 1050.15   2
  -4   1   316314.85 1097.82   4
  -4  -1   316333.80 1087.56   4
  -5  -1   3 4331.90  355.23   3
  -5   1   3 4324.17  347.66   3
  -5   1  -3 4512.49  590.79   2
  -5  -1  -3 3993.77  317.70   3
  -5   1   3 4679.00  541.23   8
  -5  -1  -3 4977.58  663.13   2
  -5  -1  -3 5006.53  661.01   5
  -5   1  -3 4722.01  576.53   5
  -5   1   3 3790.55  333.28   5
  -5   1   3 4733.16  677.88   4
  -5  -1   3 5528.65  700.62   8
  -5  -1   3 4900.81  654.73   4
  -6  -1   3 -300.01  295.67   4
  -6  -1  -3   74.17  123.82   2
  -6  -1   3  349.81  376.31   8
  -6  -1   3  155.54   95.65   3
  -6   1   3  139.48  168.14   5
  -6   1  -3  427.90  343.18   5
  -6  -1  -3   29.36  338.64   5
  -6   1  -3  963.21  460.46   2
  -6   1   3  593.31  446.84   4
  -6   1   3  357.83  302.58   8
  -7  -1   3 4944.95  926.43   8
  -7   1   3 3823.81  722.09   8
  -7   1  -3 3735.80  717.49   2
  -7  -1  -3 3485.72  721.88   2
  -7   1  -3 3229.99  619.65   5
  -7  -1  -3 3656.38  706.41   5
  -7  -1   3 2680.11  397.03   5
  -7  -1   3 3965.86  825.84   4
  -7   1   3 3749.45  804.65   4
  -8  -1   3  315.92  412.61   4
  -8  -1  -3  148.95  284.54   2
  -8  -1  -3 -139.78  154.44   5
  -8  -1   3   -7.21  151.33   5
  -8  -1   3 -119.59  321.11   8
  -8   1   3  430.22  406.46   8
  -8   1   3 -117.62  222.67   4
  -9   1   3 1568.36  793.97   4
  -9  -1  -3  888.96  429.53   5
  -9  -1  -3 2367.63  864.61   2
  -9  -1   3 1317.46  715.96   4
  -9  -1   3 1956.21  687.66   8
   9  -2   3 1665.66  870.41   7
   9  -2  -3 1059.21  641.09   7
   8  -2   3  860.44  557.38   7
   8  -2  -3  455.65  374.64   7
   7  -2  -3   20.30  258.29   7
   7  -2   3  440.18  317.12   7
   6  -2  -3  -54.52  264.64   7
   6  -2   3  210.17  187.43   7
   5  -2  -3 1753.62  269.04   6
   5  -2   3 1670.37  173.79   3
   5  -2  -3 1527.29  160.86   3
   5  -2   3 1617.72  301.22   7
   5   2   3 1437.84  116.91   1
   5  -2   3 1496.49  161.66   1
   5  -2  -3 1615.35  269.82   7
   4  -2   310465.29  565.00   3
   4  -2  -3 8781.57  482.55   3
   4  -2  -3 8929.58  401.59   6
   4  -2   310086.65  585.51   1
   4   2   3 9892.69  480.06   1
   3   2   317449.73  864.86   3
   3  -2  -312615.75  542.54   3
   3  -2   315836.78  757.64   3
   3  -2   316704.33  896.16   1
   3   2  -316209.80  816.38   2
   3  -2  -312904.50  392.87   6
   2   2   333992.80 1168.80   3
   2  -2   332153.45 1217.07   1
   2  -2   334309.75 1212.02   3
   1  -2   3  575.21  193.21   2
   1   2   3  803.72  285.39   3
   1   2  -3  332.32  149.79   6
   1  -2   3  712.75  251.12   3
   0   2   3 8463.27  556.42   3
   0  -2   3 8001.26  560.38   3
   0  -2   3 6804.51  231.19   2
   0   2  -3 8197.11  505.36   6
   0  -2   3 9275.29  545.42   6
  -1   2   3  -51.60  234.95   3
  -1  -2   3  155.98  180.02   3
  -2   2   331251.36 1126.05   3
  -2  -2  -333139.50 1170.20   3
  -2  -2   333504.00 1262.14   3
  -2  -2  -334337.15 1220.43   7
  -2  -2   330341.90 1139.14   7
  -2   2  -334312.95 1141.43   2
  -3   2   314579.00  764.55   3
  -3  -2  -317228.98  867.29   3
  -3  -2   314233.65  777.43   3
  -3   2  -316947.18  935.20   2
  -3  -2  -316752.23 1063.57   2
  -4  -2  -310009.49  599.48   3
  -4   2   3 9577.32  573.10   3
  -4  -2   310932.87  718.14   3
  -4   2   3 9583.10  600.24   8
  -4  -2   310833.07  868.67   8
  -4   2  -310227.85  773.06   2
  -4  -2  -311622.74  916.84   2
  -4  -2   311115.17  888.22   4
  -4   2   310106.07  860.09   4
  -5  -2  -3 1481.64  138.23   2
  -5  -2  -3 1677.01  250.81   3
  -5  -2   3 1656.72  222.55   3
  -5   2  -3 2193.57  429.34   2
  -5   2   3 1795.41  338.21   8
  -5  -2   3 2137.06  503.68   8
  -5  -2   3 1585.31  349.56   4
  -5   2   3 1771.78  381.34   4
  -6  -2  -3  375.34  176.98   2
  -6   2   3  994.92  364.92   8
  -6  -2   3  268.61  135.46   4
  -6  -2   3  593.48  357.08   8
  -6  -2   3  606.75  155.59   3
  -6  -2  -3  507.98  132.62   5
  -6   2   3  308.18   94.71   1
  -6   2   3  923.64  420.67   4
  -7  -2   3  370.54  347.22   8
  -7  -2  -3 -193.02  430.97   5
  -7  -2   3   84.95  328.85   4
  -7   2   3 -208.87  275.00   4
  -7  -2  -3  175.10  227.10   2
  -7   2   3  468.10  396.44   8
  -8  -2   3  335.45  243.29   8
  -8  -2   3  545.31  517.15   4
  -8   2   3 1070.58  548.61   8
  -8  -2  -3  385.35  373.45   5
  -8  -2   3  127.58  200.08   5
  -8   2   3  675.36  457.68   4
  -8  -2  -3  896.03  584.67   2
  -9  -2   3  860.21  628.45   8
  -9  -2  -3  505.03  319.01   5
  -9  -2   3  754.61  555.54   4
  -9   2   3  910.94  733.84   4
  -9  -2  -3 1767.26  746.69   2
   9  -3   3  905.54  698.67   7
   9  -3  -3  520.95  535.38   7
   8  -3  -3  884.58  553.99   7
   8  -3   3  766.97  611.78   7
   7  -3  -3  774.77  426.25   7
   7  -3   3  735.26  421.31   7
   6  -3   3  536.27  208.66   7
   6  -3  -3  911.37  233.77   6
   6  -3  -3  369.96  166.44   7
   5  -3   3   59.36   94.53   1
   5   3   3   71.76   53.88   1
   5  -3  -3   54.02  112.33   6
   5  -3   3  202.84  124.03   3
   4   3   3 1034.33  174.25   1
   4  -3   3  894.79  132.38   3
   4  -3  -3  943.85  169.57   6
   3  -3   3  403.56  155.13   3
   3   3   3  298.81  109.29   1
   3  -3  -3  395.02  131.14   5
   2   3   3 1871.55  275.62   3
   2   3   3 2175.65  309.67   1
   2  -3   3 1679.76  210.96   3
   1   3   3  997.96  282.18   3
   1  -3   3  783.10  161.34   2
   1  -3   3  932.65  242.30   3
   1   3  -3  849.83  205.14   6
   0   3   328185.12 1199.71   3
   0  -3   328441.83 1224.29   3
   0   3  -328568.43 1302.89   1
   0   3  -327627.28 1061.81   6
  -1   3   3  710.90  142.56   3
  -1  -3   3  632.82  155.54   3
  -2   3   3 1503.98  158.41   3
  -2   3  -3 1659.32  223.02   1
  -2  -3   3 1355.65  174.28   3
  -2   3   3 1942.68  241.77   6
  -2  -3   3 1749.68  145.38   2
  -3  -3   3  263.55  132.45   3
  -3  -3   3  398.58  113.80   2
  -3   3   3  503.82  305.70   4
  -4  -3  -3 1629.94  443.36   2
  -4   3   3  935.80  206.58   8
  -4  -3   3  866.75  115.30   2
  -4  -3   3  765.03  170.66   3
  -4   3   3  601.24  184.05   1
  -4   3   3  832.63  224.25   4
  -4  -3   3 1011.52  287.34   8
  -4  -3   3  966.18  292.74   4
  -5   3   3 -244.73  226.77   1
  -5   3   3   37.62  193.48   8
  -5  -3   3  439.45  382.47   8
  -5  -3   3 -251.49  180.41   3
  -5  -3   3  -30.56  161.05   2
  -5  -3  -3 -213.99  249.27   2
  -5  -3   3 -220.57  265.02   4
  -5   3   3  141.33  333.48   4
  -6  -3  -3  613.17  289.81   2
  -6   3   3  538.28  191.92   1
  -6  -3   3 1011.75  453.30   8
  -6   3   3  809.59  428.42   4
  -6  -3   3 1102.21  421.29   4
  -6   3   3 1110.86  439.22   8
  -6  -3   3  822.90  228.66   3
  -7   3   3 1043.72  440.06   8
  -7  -3   3  641.56  306.19   8
  -7  -3  -3 -293.31  503.18   5
  -7  -3   3 1063.91  447.45   4
  -7   3   3 1378.70  548.30   4
  -7  -3  -3  719.37  310.60   2
  -8  -3   3  335.40  372.78   8
  -8  -3  -3 -209.34  358.47   5
  -8   3   3  225.31  373.29   4
  -8  -3   3  -74.41  293.37   4
  -8  -3  -3  535.88  459.11   2
  -9  -3   3  439.65  548.77   8
  -9  -3  -3  698.33  555.26   2
  -9  -3  -3   93.12  199.46   5
  -9  -3   3  349.33  461.86   4
  -9   3   3  457.99  548.72   4
   9  -4  -3 2412.42  821.39   7
   9  -4   3 1084.81  308.87   6
   8  -4  -3  471.22  460.32   7
   8  -4   3  868.38  593.21   7
   8  -4   3  114.76  323.41   6
   7  -4   3 2354.00  502.10   7
   7  -4  -3 3042.74  677.77   7
   7  -4   3 3019.02  601.70   6
   6  -4   3  353.04  289.65   6
   6  -4  -3  336.62  269.80   6
   5  -4  -3 1358.02  300.02   6
   5   4   3 1563.51  255.87   1
   5  -4   3 1077.71  184.37   3
   5  -4   3 1021.47  115.55   6
   4   4   3  200.82   85.53   1
   4  -4   3  106.08  188.53   6
   4  -4   3  235.90  100.10   3
   4  -4  -3  123.68  146.55   6
   3   4   327846.71 1208.55   1
   3  -4   323565.07  951.90   3
   2   4   3  138.69  101.04   1
   1   4  -323896.97 1253.74   1
   1   4   323953.04 1173.41   1
   0   4  -318540.89 1121.14   1
   0   4   318021.31 1086.05   1
  -1   4  -323291.99 1189.11   1
  -1   4   322907.17 1201.07   1
  -2   4   3  -42.26  201.99   1
  -2  -4   3  360.23  193.50   2
  -2   4  -3  432.05  214.87   1
  -2   4   3  272.58  204.99   6
  -3   4   326351.14 1275.19   4
  -3   4   326537.99 1473.83   1
  -3  -4   326816.84  952.49   2
  -3  -4   327774.54 1152.97   4
  -3   4  -325364.62 1185.75   1
  -4   4   3  104.08  169.13   8
  -4   4  -3   75.55   74.82   1
  -4  -4   3   73.05  132.74   3
  -4  -4   3  133.83  144.89   2
  -4  -4   3  138.10  191.27   8
  -4   4   3   37.70  192.74   1
  -4  -4   3  369.78  238.33   4
  -4   4   3  249.06  148.68   4
  -5  -4  -3  794.19  193.16   2
  -5   4   3 1625.61  460.99   1
  -5  -4   3 1522.42  523.45   8
  -5  -4   3 1302.73  342.18   2
  -5   4   3 1257.91  354.44   4
  -5  -4   3 1443.82  363.77   3
  -5  -4   3 1601.69  452.05   4
  -5   4   3 1206.84  284.16   8
  -6  -4  -3  211.11  274.25   2
  -6   4   3  207.78  369.04   8
  -6  -4   3  190.24  325.75   8
  -6  -4   3  -57.32  114.31   3
  -6   4   3  298.07  306.92   1
  -6  -4   3  374.65  331.95   2
  -6  -4   3  242.98  289.75   4
  -6   4   3  300.91  463.02   4
  -7  -4  -3 2499.14  536.28   2
  -7  -4   3 3134.53  795.67   8
  -7  -4   3 3449.62  692.06   2
  -7  -4   3 2441.83  560.98   4
  -7   4   3 2167.13  529.29   4
  -8   4   3  557.07  581.32   4
  -8  -4   3  419.25  621.66   8
  -8  -4   3  361.86  406.82   4
  -8  -4  -3  243.05  294.25   5
  -8  -4  -3  352.98  293.90   2
  -9  -4   3 1624.63  610.50   8
  -9  -4   3 2042.59  761.96   4
   9  -5  -3 3921.31 1038.34   7
   9  -5   3 2852.45  677.45   6
   8  -5  -3 2205.47  663.90   7
   8  -5   3 1982.41  611.48   6
   8  -5   3 1764.70  636.51   7
   7  -5   3 7160.94  855.70   6
   6  -5   3 5548.82  799.21   6
   6  -5  -3 5069.94  541.31   6
   5  -5   3 6632.84  480.77   3
   5  -5   3 8925.42  905.18   6
   5  -5  -3 7669.74  578.66   6
   5   5   3 8038.71  619.08   1
   4  -5   311811.81  942.46   6
   4   5   311354.11  791.57   1
   4  -5   3 9394.06  557.51   3
   3  -5   342175.07 1653.92   6
   3   5   341310.02 1627.54   1
   2   5   3 8723.30  722.28   1
   2   5  -3 8610.79  806.43   1
   1   5  -331613.85 1596.48   1
   1   5   330221.00 1443.63   1
   0   5  -3  484.70  239.38   1
   0   5   3  192.98  179.72   1
  -1   5  -330930.55 1514.69   1
  -1   5   329652.70 1562.64   1
  -2   5  -3 8185.78  700.40   1
  -2   5   3 7624.17  740.73   1
  -3   5  -339864.77 1677.79   1
  -3  -5   342503.42 1767.85   8
  -3   5   338795.52 1627.08   4
  -3  -5   338854.47 1221.42   2
  -3   5   340040.92 1969.05   1
  -3  -5   339514.77 1308.26   4
  -4  -5   311428.50  829.87   4
  -4  -5   312046.85 1039.69   8
  -4  -5  -3 8292.72  513.45   2
  -4   5   310592.99  570.45   8
  -4   5  -310606.27  796.32   1
  -4   5   310190.87  910.73   1
  -4  -5   311323.40  742.32   2
  -4   5   310856.25  933.28   4
  -5  -5   3 8409.62  791.46   3
  -5   5   3 8871.90  686.53   8
  -5   5  -3 7487.43  662.82   1
  -5   5   3 8145.59  967.61   4
  -5  -5   3 8753.37  846.16   4
  -5  -5   3 9487.70 1079.35   8
  -5   5   3 8385.55  945.70   1
  -5  -5   3 8059.59  711.83   2
  -5  -5  -3 9173.46  926.35   2
  -6  -5  -3 4408.91  487.27   2
  -6  -5   3 4709.85  824.76   8
  -6   5   3 4709.70  710.02   1
  -6   5   3 5102.82  872.08   4
  -6  -5   3 4135.95  462.51   3
  -6  -5   3 4757.95  633.39   4
  -6  -5   3 5471.67  713.86   2
  -7  -5  -3 6482.30  736.26   2
  -7  -5   3 7288.44 1089.41   8
  -7  -5   3 7253.31  873.69   2
  -7  -5   3 7197.84  955.34   4
  -7   5   3 6612.53 1029.19   4
  -8  -5   3 1596.88  558.28   8
  -8  -5   3 1070.63  451.25   4
  -8   5   3 1311.83  551.78   4
  -8  -5  -3 1314.29  327.72   2
   8  -6  -3 1543.51  709.44   7
   8  -6   3 1545.39  462.29   6
   8  -6   3 1580.54  597.46   7
   7  -6   3 1686.64  531.88   6
   6  -6   3 2518.10  449.58   6
   5   6   3 2177.06  381.95   1
   5  -6   3 1834.82  388.54   6
   5  -6   3 1724.03  262.89   3
   4  -6   319956.95 1253.48   6
   4   6   320476.40 1192.51   1
   3   6   3 8436.51  775.39   1
   3   6  -3 8652.23  882.54   1
   3  -6   3 8316.04  753.63   6
   2   6  -339599.04 1889.44   1
   2   6   340051.29 1751.31   1
   1   6  -3 3121.31  494.37   1
   1   6   3 2837.49  445.63   1
   0   6   3 1453.34  244.37   1
   0   6  -3 1366.21  268.80   1
  -1   6   3 2535.30  318.77   1
  -1   6  -3 2580.61  421.48   1
  -2   6  -336938.29 1696.81   1
  -2   6   336973.89 1831.53   1
  -3  -6   3 9170.65  893.26   8
  -3   6   3 8040.82  897.06   1
  -3   6  -3 8240.01  790.01   1
  -3  -6   3 7738.71  529.92   4
  -3   6   3 8295.29  778.41   4
  -3  -6   3 7881.00  629.23   2
  -4  -6   319498.94  957.57   2
  -4  -6   321644.19 1460.77   8
  -4   6   317304.54  618.97   8
  -4   6  -319544.95 1197.28   1
  -4   6   321891.89 1654.95   1
  -4  -6   320491.89 1081.63   4
  -4   6   320542.79 1392.30   4
  -5  -6   3 1946.68  349.57   2
  -5  -6   3 2419.05  572.82   8
  -5  -6  -3 2591.72  558.84   2
  -5   6  -3 1592.81  278.58   1
  -5   6   3 1787.99  426.91   1
  -5   6   3 1852.47  473.10   4
  -5  -6   3 1936.64  401.78   4
  -6  -6  -3  963.12  515.98   2
  -6   6   3 3325.52  672.62   1
  -6  -6   3 2827.54  648.78   8
  -6  -6   3 2445.72  377.90   3
  -6  -6   3 3113.60  581.86   4
  -6   6   3 3151.99  735.72   4
  -6  -6   3 2981.78  487.79   2
  -7  -6  -3  -51.60  498.14   2
  -7  -6   3 2307.57  800.83   8
  -7  -6   3 1730.43  582.80   4
  -7   6   3 1420.35  604.59   4
  -7  -6   3 1373.17  405.18   2
  -8  -6  -3  825.28  286.45   2
  -8  -6   3 1448.02  742.16   8
  -8   6   3 1028.53  522.32   4
   8  -7   3 1949.53  617.28   6
   7  -7   3  390.31  324.15   6
   6  -7   3 2306.80  453.77   6
   5  -7   3  107.94  163.69   6
   5   7   3  457.32  221.95   1
   4  -7   317093.10 1283.08   6
   4   7  -315828.86 1281.38   1
   4   7   316478.50 1196.07   1
   3  -7   3 1619.85  393.73   6
   3   7  -3  873.03  334.12   1
   3   7   3 1714.47  402.70   1
   2   7  -334187.92 1857.10   1
   2   7   333680.70 1712.70   1
   2  -7   335610.05 1718.14   6
   1  -7   3 1028.87  285.56   4
   1   7  -3  830.57  238.98   1
   1   7   3 1318.36  383.25   1
   0   7   3 2505.31  593.05   1
   0   7  -3 2032.56  464.82   1
  -1   7   3  839.39  192.92   8
  -1   7   3 1131.98  386.16   1
  -1   7  -3 1334.40  372.47   1
  -2  -7   334549.47 1566.27   8
  -2   7  -332567.55 1725.30   1
  -2   7   334590.32 2004.84   1
  -2  -7   329668.47  775.83   4
  -2   7   333912.67 1509.35   4
  -3  -7   3 1418.45  490.84   8
  -3   7   3 1575.20  629.13   1
  -3  -7   3  998.11  241.71   4
  -3   7   3  943.28  309.16   4
  -3   7  -3 1500.56  339.11   1
  -4  -7   316151.76 1306.76   8
  -4   7  -315304.60 1140.94   1
  -4   7   316771.46 1556.98   1
  -4  -7   315480.56  892.08   4
  -4   7   315818.86 1290.78   4
  -5  -7   3  178.81  112.26   2
  -5   7   3  278.61  145.63   1
  -5  -7   3  124.15  316.21   8
  -5  -7   3  224.71  185.00   4
  -5   7  -3  297.49  160.38   1
  -5   7   3  121.84  289.43   4
  -6   7   3 2587.07  652.65   1
  -6  -7  -3 3066.56  579.93   2
  -6  -7   3 3214.89  761.22   8
  -6  -7   3 2318.97  490.23   3
  -6   7   3 2203.36  589.83   4
  -6  -7   3 1813.41  284.79   2
  -7  -7  -3  -27.59  162.94   2
  -7  -7   3  158.57  243.73   8
  -7   7   3  358.51  401.09   4
  -8  -7  -3 1416.10  378.36   2
  -8   7   3 1743.02  727.39   4
  -8  -7   3 2020.37  715.15   8
   8  -8   3  671.33  426.57   6
   7  -8   3  749.01  398.61   6
   6  -8   3 1306.54  482.96   6
   5   8   3  329.16  180.95   1
   5  -8   3 -171.68  243.00   6
   4   8  -3  856.53  346.28   1
   4  -8   3  573.05  332.64   6
   4   8   3  897.11  329.16   1
   3   8  -3   50.19  126.49   1
   3  -8   3 -215.93  332.47   6
   3   8   3   18.35  132.87   1
   2   8   3 2283.18  469.66   1
   2  -8   3 2416.65  417.72   6
   2   8  -3 2651.70  600.45   1
   1   8   3   26.72  164.66   1
   1  -8   3    8.30  130.08   4
   1   8  -3  233.58  118.15   1
   0   8   3  140.87  207.38   1
   0  -8   3  103.40  106.68   4
   0   8  -3   85.78  210.41   1
  -1   8   3  424.63  306.22   1
  -1   8  -3   65.57  117.92   1
  -1  -8   3  261.06  180.78   8
  -1   8   3  365.74  164.17   8
  -2   8  -3 1745.49  298.40   1
  -2  -8   3 3023.63  579.89   8
  -2   8   3 3268.50  760.86   1
  -2  -8   3 1822.31  133.50   4
  -2   8   3 3017.49  543.86   4
  -3   8  -3  346.87  229.16   1
  -3  -8   3  327.02  277.20   8
  -3   8   3    2.27  194.08   1
  -3   8   3   15.73  158.87   4
  -4   8   3 1186.80  515.59   1
  -4  -8   3 1391.69  407.44   2
  -4  -8   3 1427.55  541.15   8
  -4   8   3  748.79  346.37   4
  -4   8  -3  672.06  316.71   1
  -5  -8   3 -450.49  351.32   2
  -5   8   3 -254.13  383.46   1
  -5  -8   3  556.29  247.92   8
  -5   8   3  -38.76  236.02   4
  -5   8  -3 -250.94  295.64   1
  -6  -8  -3 1677.49  522.72   2
  -6  -8   3 1913.48  663.92   8
  -6   8   3 1102.04  390.84   4
  -6   8   3  571.72  299.40   1
  -7   8   3  699.77  466.83   4
  -7  -8  -3   84.01  406.62   2
  -7  -8   3 1558.99  795.16   8
   7  -9   3  922.75  292.64   6
   6  -9   3  412.89  391.88   6
   5   9   3  997.98  360.70   1
   5  -9   3  916.41  450.36   6
   4   9   3 1769.20  473.63   1
   4   9  -3 1510.28  446.45   1
   4  -9   3 1629.65  414.47   6
   3   9  -3 8869.94 1001.40   1
   3   9   3 9654.45 1064.19   1
   3  -9   3 9011.21  907.77   6
   2   9   3  569.21  313.70   1
   2   9  -3  104.84  196.42   1
   1   9   3 2948.15  531.13   1
   1   9  -3 2724.12  524.21   1
   0   9  -3  546.32  145.66   1
   0   9   3  791.06  331.15   1
  -1   9  -3 3280.10  689.38   1
  -1   9   3 3112.65  678.49   1
  -1  -9   3 2572.26  395.91   8
  -1   9   3 2404.71  268.27   4
  -2   9  -3  452.56  209.17   1
  -2   9   3  310.68  398.40   1
  -2  -9   3  208.41  287.18   8
  -2   9   3  418.64  267.46   4
  -3   9  -3 9428.51 1066.39   1
  -3   9   3 9660.80 1265.97   1
  -3   9   3 8349.80  881.01   4
  -3  -9   3 8334.77  801.91   8
  -4   9   3 2085.95  695.77   1
  -4  -9   3 2978.64  625.91   2
  -4   9   3 3337.30  929.80   4
  -4  -9   3 2356.09  699.20   8
  -4   9  -3 1823.66  524.52   1
  -5  -9   3  530.64  353.97   8
  -5   9   3 1004.63  457.55   4
  -5   9  -3  822.96  313.93   1
  -5  -9  -3  -20.17  354.45   2
  -5   9   3  869.37  480.81   1
  -6  -9  -3 1235.65  601.98   2
  -6  -9   3  272.10  291.26   8
  -6   9   3  -76.07  409.65   1
  -6   9   3  452.15  545.43   4
  -7  -9  -3  179.40  490.05   2
  -7  -9   3 1981.76  895.99   8
  -7   9   3 1241.34  595.84   4
   6 -10   3 1473.96  609.48   6
   5  10   3  864.99  384.45   1
   5  10  -3 1027.24  439.98   1
   5 -10   3  707.44  262.30   6
   4 -10   3 5066.92  830.77   6
   4  10   3 5957.56  961.53   1
   4  10  -3 4165.12  641.38   1
   3  10  -3 9743.83 1090.04   1
   3  10   310657.87 1216.32   1
   2  10  -3 7148.28  956.50   1
   2  10   3 7533.56  976.74   1
   1 -10   3  756.31  258.16   8
   1  10   3  394.41  168.15   1
   1  10  -3   85.99  261.18   1
   0  10   3 2128.43  457.52   1
   0  10  -3 2130.51  431.22   1
   0 -10   3 2202.58  402.74   8
  -1  10  -3  181.37  311.41   1
  -1 -10   3  481.12  224.92   8
  -1  10   3  305.12  187.66   1
  -2  10   3 6717.43  971.24   1
  -2  10  -3 7935.48 1056.41   1
  -2 -10   3 6820.90  788.61   8
  -2  10   3 7437.75  834.66   4
  -3 -10   311464.21 1198.90   8
  -3  10   310403.21 1398.22   1
  -3  10   311103.06 1189.02   4
  -3  10  -310526.47 1221.16   1
  -4  10   3 5729.32 1068.69   1
  -4 -10   3 5298.51  883.02   8
  -4  10   3 4944.49  962.25   4
  -4  10  -3 4954.09  795.02   1
  -5 -10   3 1026.12  443.95   8
  -5 -10  -3  724.39  382.85   2
  -5  10   3  729.24  497.10   4
  -5  10   3  777.48  425.66   1
  -5  10  -3  452.04  237.47   1
  -6 -10   3  685.79  582.26   8
  -6  10   3 1126.49  539.97   1
  -6  10   3  621.43  233.08   4
  -7  10   3  277.58  595.09   4
   6 -11   3 4929.16  894.91   6
   5  11  -3  293.24  366.05   1
   5 -11   3  126.61  356.63   6
   4  11   3 6202.10 1011.70   1
   4  11  -3 5638.60  878.37   1
   3  11   3  422.81  432.59   1
   3  11  -3  439.85  297.94   1
   2  11  -3 9911.14 1097.86   1
   2  11   310421.77 1201.86   1
   1  11   3  180.27  203.04   1
   1  11  -3  518.59  277.46   1
   0  11  -3 5506.73  985.09   1
   0  11   3 5041.22  877.21   1
  -1  11  -3   85.51  292.52   1
  -1  11   3  484.46  166.71   1
  -1 -11   3  353.29  210.84   8
  -2 -11   310599.97 1013.40   8
  -2  11  -310587.42 1240.29   1
  -2  11   311365.22 1402.40   1
  -3  11  -3 -174.74  128.40   1
  -3  11   3 -160.42  264.09   1
  -4  11   3 5888.30 1100.31   1
  -4 -11   3 6051.09 1008.53   8
  -4  11  -3 5672.92  933.70   1
  -5  11   3  589.33  550.64   1
  -5  11  -3  600.99  499.02   1
  -5 -11   3  -80.89  247.50   8
  -6 -11   3 6120.50 1251.91   8
  -6 -11  -3 4902.22  889.60   2
  -6  11   3 3704.93  713.82   1
   5  12  -3  490.80  248.12   1
   4  12   3 3587.88  886.05   1
   4  12  -3 2554.77  606.61   1
   3  12  -3 1083.57  239.21   1
   3  12   3 1746.82  586.78   1
   2  12   3 5926.27  993.66   1
   2  12  -3 4921.08  773.79   1
   1  12   3 1396.43  527.10   1
   1  12  -3 1072.74  268.35   1
   0  12   3  406.91  154.23   1
   0  12  -3  810.57  447.32   1
  -1  12  -3 1449.35  451.11   1
  -1  12   3 1249.47  455.76   1
  -2  12  -3 4806.26  785.83   1
  -2 -12   3 4888.68  645.84   8
  -2  12   3 4755.20  908.67   1
  -3  12  -3 1810.49  542.85   1
  -3 -12   3 1849.95  535.24   8
  -3  12   3 1769.19  630.38   1
  -4 -12   3 3443.93  854.28   8
  -4  12   3 2889.11  803.08   1
  -4  12  -3 2743.74  620.71   1
  -5 -12   3 1095.47  610.92   8
  -5  12  -3  448.02  264.54   1
  -5  12   3  487.11  471.70   1
  -6  12   3 1744.67  823.76   1
   5  13  -3  255.02  271.63   1
   4  13   3   61.78  269.17   1
   4  13  -3  218.57  425.63   1
   3  13   3 1554.12  554.13   1
   3  13  -3 1613.82  531.09   1
   2  13   3  623.78  414.06   1
   2  13  -3  667.55  266.41   1
   1  13   3 1982.43  644.71   1
   1  13  -3 2120.03  659.09   1
   0  13  -3  132.65  262.94   1
   0  13   3   66.34  290.35   1
  -1  13   3 1409.53  404.87   1
  -1  13  -3 1579.11  503.64   1
  -2  13   3  932.86  546.18   1
  -2  13  -3  791.79  513.01   1
  -3 -13   3 1331.55  434.92   8
  -3  13   3 1499.35  599.19   1
  -3  13  -3 1460.61  492.09   1
  -4 -13   3  348.95  485.83   8
  -4  13   3 -388.88  357.55   1
  -4  13  -3  405.44  472.25   1
  -5  13  -3 -350.82  422.84   1
   3  14   3 4109.85 1006.40   1
   2  14   3  297.63  480.11   1
   1  14   3  685.59  440.72   1
   0  14   3  273.50  204.58   1
   9   0   4-1647.18 1196.45   7
   8   0   4 3573.02  733.27   7
   8   0  -4 3099.90  578.31   7
   7   0  -4  332.17  443.76   7
   7   0   4    2.85  243.88   7
   6   0   436896.52 2398.36   7
   6   0  -433571.09 2048.69   7
   5   0   4  135.32  210.66   3
   5   0  -4  484.44  394.70   7
   5   0   4  280.30  421.99   7
   5   0   4  129.29  158.41   1
   4   0   419526.41  795.67   3
   4   0  -421208.68 1081.65   7
   4   0   418930.66  785.46   1
   3   0   4 -563.09  266.97   3
   3   0   4 -535.84  283.61   7
   3   0  -4 -127.14  139.96   7
   3   0  -4   74.95   59.06   2
   2   0   432159.10 1178.81   3
   2   0  -428914.79  831.89   7
   2   0   432224.00 1088.01   7
   1   0   4 -202.23  247.38   7
   1   0   4  -67.79   97.06   3
   0   0   4  246.68  133.46   3
   0   0   4  483.09   95.85   5
  -1   0   4  -93.92  146.96   3
  -1   0   4  116.79   65.00   6
  -2   0   427647.29 1016.09   3
  -2   0  -429937.55 1053.84   5
  -2   0  -430895.90  979.58   2
  -3   0  -4 -416.83  328.40   2
  -3   0   4 -430.95  277.34   3
  -3   0  -4 -295.89  315.05   5
  -4   0   421319.48  970.02   3
  -4   0  -423169.66 1261.35   5
  -4   0  -423391.16 1282.27   2
  -4   0   422005.68 1259.70   4
  -5   0   4   66.74  164.28   3
  -5   0   4  430.71  307.30   8
  -5   0  -4  123.38  211.16   5
  -5   0   4  149.33  172.68   5
  -5   0   4  -93.99  198.49   4
  -5   0  -4  398.29  357.16   2
  -6   0   426148.14  925.54   3
  -6   0   427674.94 1470.32   8
  -6   0  -429329.77 1672.96   5
  -6   0   427426.94 1202.59   5
  -6   0  -432796.07 1870.52   2
  -6   0   428260.94 1795.92   4
  -7   0   4  141.29  394.78   8
  -7   0  -4  698.55  492.53   5
  -7   0  -4 1389.53  563.50   2
  -7   0   4  440.42  457.59   4
  -8   0   4 4180.48  752.42   8
  -8   0  -4 4419.25  800.18   5
  -8   0  -4 5560.89  966.94   2
  -8   0   4 3638.23  782.17   4
  -9   0   4  603.09  470.26   8
  -9   0   4  459.39  510.55   4
   9  -1   4 2558.95  739.79   7
   9  -1  -4 1403.12  345.27   7
   8  -1  -4  449.34  513.26   7
   8  -1   4  144.32  414.13   7
   7  -1   4 3120.64  827.76   7
   7  -1  -4 2931.58  755.92   7
   6   1  -4-1249.36  647.63   7
   6  -1  -4  986.61  458.50   7
   6  -1   4  826.23  561.78   7
   6   1   4-1054.93  924.53   7
   5   1   4  172.79   92.21   3
   5  -1   4  169.69  129.51   1
   5  -1   4   57.85  128.78   3
   5   1   4   18.33  131.14   1
   5  -1   4  621.04  418.69   7
   5   1   4-1321.08  804.96   7
   5   1  -4-1404.88  771.70   7
   5   1   4  115.29   65.21   1
   5  -1  -4  494.26  297.93   7
   4   1   4  583.64  189.13   3
   4  -1  -4 -314.18  278.57   7
   4  -1  -4    3.75   37.85   6
   4  -1   4  834.24  397.22   7
   4  -1   4  269.30  149.51   1
   3   1   413417.71  781.82   3
   3  -1   412606.51  729.45   3
   3  -1   414183.46  901.85   7
   3  -1  -410973.00  580.44   7
   3  -1   412353.56  773.28   1
   3   1   410751.28  744.27   7
   3   1  -411501.21  555.59   2
   2   1   417717.23  866.91   3
   2  -1   418656.98  944.92   3
   2  -1   415395.88  616.79   7
   2   1  -414823.40  404.19   6
   2   1  -417072.00  531.24   2
   1   1   4 3300.41  476.23   3
   1  -1   4 3203.37  498.03   3
   0   1  -4 3257.90  176.72   2
   0  -1   4 4026.11  313.69   6
   0   1   4 3989.12  419.79   3
   0  -1   4 3928.80  419.27   3
   0  -1  -4 3905.09  247.37   5
  -1   1   4 2856.02  403.62   3
  -1  -1   4 2125.35  310.38   3
  -1  -1   4 2706.10  297.46   6
  -1  -1  -4 2800.83  278.73   7
  -1  -1  -4 2889.06  340.00   5
  -1   1  -4 2930.33  325.81   2
  -1  -1   4 1735.86  118.71   7
  -2   1   417329.55  885.23   3
  -2  -1   415042.50  747.83   3
  -2  -1  -416921.68  722.30   7
  -2  -1  -416900.13  827.00   5
  -2   1  -418706.53  851.77   2
  -3   1   410853.76  620.65   3
  -3  -1   410814.94  649.12   3
  -3  -1  -413841.21  935.96   5
  -3   1  -413040.91  832.46   2
  -3  -1  -411352.01  722.84   2
  -4   1  -4  317.59  208.36   5
  -4  -1  -4  463.96  303.01   2
  -4   1   4  -11.07  189.51   3
  -4  -1   4  786.96  335.17   3
  -4  -1  -4 -204.20  264.94   5
  -4   1  -4  549.84  233.93   2
  -4  -1   4  808.87  391.15   4
  -4   1   4  217.93  177.03   4
  -5  -1  -4  -35.11  163.14   2
  -5   1   4  409.13  217.69   8
  -5   1   4  164.09  113.81   3
  -5  -1   4  638.40  338.95   8
  -5  -1   4    3.00   79.86   3
  -5   1  -4  124.11  176.02   5
  -5  -1  -4  400.39  150.41   5
  -5   1  -4    0.64  111.43   2
  -5  -1   4  623.23  297.31   4
  -5   1   4  213.33  227.87   4
  -6  -1   4 -318.56  205.04   3
  -6  -1   4  918.89  494.18   8
  -6   1   4  863.51  438.02   8
  -6  -1  -4  448.08  326.48   5
  -6   1  -4  576.32  373.65   2
  -6  -1   4 1270.70  567.47   4
  -6   1   4  500.81  364.67   4
  -6  -1  -4  540.84  329.57   2
  -7  -1  -4 2720.10  644.26   5
  -7  -1   4 2214.46  595.10   8
  -7   1   4 2234.06  577.68   8
  -7  -1   4 1624.42  294.04   5
  -7   1  -4 3199.98  721.89   2
  -7  -1   4 3209.66  835.32   4
  -7   1   4 2396.06  691.51   4
  -7  -1  -4 2782.00  631.40   2
  -8  -1   4  617.04  430.43   8
  -8   1   4  487.20  375.15   8
  -8  -1  -4  343.69  386.28   5
  -8  -1   4  378.81  588.10   4
  -8   1   4  336.81  455.88   4
  -8  -1  -4 -102.03  223.10   2
  -9  -1   4 2435.63  607.64   8
  -9   1   4 3256.46  715.20   8
  -9  -1  -4 2770.48  711.82   5
  -9  -1   4 2705.57  746.69   4
  -9  -1  -4 4076.16  955.21   2
  -9   1   4 2225.24  629.59   4
   9  -2   4 1704.58  824.77   7
   9  -2  -4 1284.01  712.75   7
   8  -2   4 1210.70  672.02   7
   8  -2  -4  658.61  547.27   7
   7  -2   4 4937.74  889.04   7
   7  -2  -4 4028.77  676.84   7
   6  -2  -4  143.23  193.51   7
   6  -2   4   -9.38  219.28   7
   5  -2  -4 3255.29  466.21   7
   5  -2   4 2831.47  352.56   3
   5  -2   4 3203.82  508.22   7
   5   2   4 2778.96  299.77   1
   5  -2  -4 2710.09  230.48   6
   5  -2   4 3113.85  375.27   1
   4   2   4  252.35  209.60   3
   4  -2   4   63.78  170.65   7
   4  -2  -4  -13.86   52.86   6
   4  -2   4  150.04  150.84   3
   3   2   439166.06 1400.92   3
   3  -2   436052.46 1292.48   3
   3   2  -436101.97 1016.31   2
   2   2   4  784.41  325.98   3
   2  -2   4  729.55  292.91   3
   2   2  -4  146.14  102.46   6
   1   2   427208.11 1137.12   3
   1  -2   427059.11  990.85   6
   1  -2   428409.26 1257.33   3
   1   2  -426128.81  835.84   6
   1  -2   426445.01  937.84   2
   0   2   410251.66  651.81   3
   0  -2   410947.78  750.17   3
   0  -2   410993.13  566.60   6
  -1   2   425692.91 1102.80   3
  -1  -2   428129.06 1299.20   3
  -1  -2   428416.56 1059.36   6
  -1   2  -427555.16  841.63   2
  -2   2   4 -255.15  253.98   3
  -2  -2   4  532.23  206.54   7
  -2  -2   4   95.60  186.81   3
  -2   2  -4  831.98  278.82   2
  -3   2   435843.42 1329.49   3
  -3  -2   437631.62 1470.96   3
  -3   2  -438008.46 1409.55   2
  -3  -2  -435923.61 1491.10   2
  -4  -2  -4 -237.44  277.94   2
  -4   2   4  178.69  197.08   3
  -4  -2   4  -19.11  186.58   3
  -4   2  -4  211.85  121.45   2
  -4  -2   4  104.73  210.04   4
  -4   2   4   88.32  115.31   4
  -5  -2   4 3152.33  494.73   8
  -5  -2  -4 2714.16  377.24   2
  -5   2   4 2788.91  371.60   3
  -5   2   4 3152.26  426.86   8
  -5  -2   4 2897.62  396.88   3
  -5  -2  -4 3159.74  451.63   5
  -5   2  -4 3577.22  539.33   2
  -5  -2   4 3209.27  545.29   4
  -5   2   4 2867.73  557.05   4
  -6  -2  -4  126.04  180.90   2
  -6   2  -4 -100.63  274.92   2
  -6  -2   4  153.10  253.27   8
  -6   2   4  381.11  240.06   8
  -6  -2   4  203.02  159.78   3
  -6  -2  -4 -580.09  423.38   5
  -6  -2   4  -97.72  186.48   4
  -6   2   4   41.36  136.08   4
  -7  -2   4 4258.76  774.52   8
  -7   2   4 3862.53  642.03   8
  -7  -2  -4 3251.47  486.45   5
  -7  -2   4 4006.23  837.63   4
  -7   2   4 4059.65  837.61   4
  -7  -2  -4 4216.38  744.36   2
  -8  -2   4  399.42  442.61   4
  -8  -2   4  324.84  461.96   8
  -8   2   4  314.88  395.50   8
  -8  -2  -4  -81.81  280.88   5
  -8   2   4 -173.18  329.01   4
  -8  -2  -4  140.76  280.10   2
  -9  -2   4 1616.67  755.27   8
  -9  -2  -4  821.90  499.98   5
  -9  -2   4 1087.42  622.17   4
   9  -3  -4 1098.79  627.38   7
   8  -3  -4 1025.05  471.79   7
   8  -3   4 1114.89  585.89   7
   7  -3  -4 5043.37  763.07   7
   7  -3   4 4938.23  786.03   7
   6  -3   4 1516.28  421.63   7
   6  -3  -4 1575.74  427.30   7
   5   3   4  889.73  223.44   1
   5  -3   4  773.36  234.29   3
   5  -3  -4  672.75  152.00   6
   4   3   4  575.13  169.25   1
   4  -3   4  604.27  145.94   3
   3   3   4 7207.01  669.82   3
   3  -3   4 5829.25  496.80   3
   3   3   4 5551.31  479.39   1
   2   3   4 6793.47  607.40   3
   2  -3   4 6252.36  552.42   3
   2   3  -4 5921.50  428.72   6
   1   3   4 6710.12  594.03   3
   1  -3   4 6017.80  284.74   2
   1  -3   4 6609.02  555.85   3
   0  -3   4 1769.06   94.72   2
   0   3   4 2723.59  397.06   3
   0  -3   4 2911.97  407.38   6
   0  -3   4 2215.83  350.55   3
  -1  -3   4 3464.95  627.10   3
  -1   3   4 6339.26  566.38   3
  -2   3   4 6958.41  643.09   3
  -2  -3   4 6560.46  620.41   3
  -2   3   4 6450.17  363.13   6
  -3   3   4 5851.78  528.63   3
  -3  -3   4 2928.39  579.63   3
  -4   3   4  406.77  104.77   3
  -4  -3   4  548.17  183.43   8
  -4  -3  -4 1137.53  448.61   2
  -4  -3   4  972.73  234.42   3
  -4  -3   4  785.64  324.22   4
  -4   3   4  629.90  266.44   4
  -5  -3  -4  112.48  350.28   2
  -5  -3   4  881.67  356.97   8
  -5  -3   4  335.71  196.87   3
  -5   3   4  802.35  263.57   8
  -5  -3   4  892.10  297.27   4
  -5   3   4  969.29  406.63   4
  -6  -3  -4 1142.54  317.57   2
  -6   3   4 1383.56  432.41   1
  -6  -3   4 1198.34  289.44   3
  -6   3   4 1403.52  449.33   8
  -6  -3   4 1658.95  468.00   8
  -6  -3  -4 1043.95  207.70   5
  -6  -3   4 1046.53  298.38   4
  -6   3   4 1439.06  486.64   4
  -7  -3   4 4925.23  852.22   8
  -7   3   4 4651.31  659.72   8
  -7  -3  -4 4421.92  663.06   5
  -7   3   4 5158.98  982.28   4
  -7  -3   4 5421.21  931.49   4
  -7  -3  -4 4767.55  673.71   2
  -8  -3   4  806.24  560.91   8
  -8  -3  -4  -59.36  382.66   5
  -8  -3   4  525.11  468.68   4
  -8   3   4  343.24  388.72   4
  -8  -3  -4  608.00  407.59   2
  -9  -3   4 1736.83  826.69   8
  -9  -3   4  654.25  425.38   4
   9  -4   4  335.47  291.33   6
   9  -4  -4 1505.63  748.14   7
   8  -4  -4 2227.01  728.39   7
   8  -4   4 1322.58  577.76   7
   8  -4   4 1183.84  431.32   6
   7  -4  -4  921.04  378.74   7
   7  -4   4 1365.09  483.67   7
   7  -4   4 1339.81  433.26   6
   6  -4   4 7246.81  869.59   6
   5  -4   4  692.58  307.78   6
   5  -4   4  499.58  189.41   3
   5   4   4  621.07  190.90   1
   4  -4   410171.37  694.41   3
   4  -4   410854.63  879.42   6
   4   4   411243.83  813.68   1
   3  -4  -4 4293.04  279.53   5
   3  -4   4 4463.23  426.78   3
   3   4   4 4976.30  556.51   1
   2  -4   422863.58 1100.51   3
   2   4   422673.58 1157.25   1
   1   4   410840.65  891.47   3
   1  -4   4 9426.70  770.28   3
   1   4   4 8444.27  673.34   1
   1  -4   4 8924.85  489.67   2
   0   4   4 -377.22  295.04   3
   0  -4   4 -186.89  185.87   6
   0  -4   4 -102.36  206.45   3
   0  -4   4  139.87   73.89   2
  -1   4   410067.15  867.86   3
  -1  -4   4 4828.77  810.08   3
  -2   4   425161.88 1391.82   3
  -2  -4   412007.95 1302.24   3
  -2   4   421035.93  730.08   6
  -2  -4   4 8191.85  471.70   2
  -3   4   4 4402.87  545.02   1
  -3  -4   4 4539.58  552.48   3
  -3  -4   4 4314.53  293.88   2
  -4  -4   411306.47  903.72   3
  -4  -4   410439.42  897.33   8
  -4  -4   411007.47  677.91   2
  -4   4   410374.95  967.24   1
  -4  -4   411358.82  864.28   4
  -4   4   4 9800.84  807.16   4
  -4  -4  -4 9536.57  794.58   2
  -5  -4  -4  -88.93  372.73   2
  -5   4   4    5.99  286.69   1
  -5  -4   4 1194.31  543.14   8
  -5   4   4  691.55  280.21   8
  -5  -4   4  264.90  178.17   3
  -5  -4   4 1025.90  407.67   4
  -5   4   4  669.55  324.82   4
  -6  -4  -4 6391.32  683.25   2
  -6  -4   4 6120.87  643.65   3
  -6  -4   4 7169.39 1012.03   8
  -6   4   4 6785.70  670.93   8
  -6   4   4 6731.39  827.84   1
  -6  -4   4 7746.62  995.15   4
  -6   4   4 6204.79  858.66   4
  -7  -4  -4 1481.42  425.92   2
  -7  -4   4 2157.92  767.42   8
  -7  -4   4 1541.71  519.78   4
  -7   4   4 1334.24  492.03   4
  -8  -4   4 1234.49  637.57   8
  -8  -4  -4 1022.54  316.83   5
  -8  -4   4  647.61  294.00   4
  -8   4   4 1220.90  574.14   4
  -8  -4  -4 1112.93  420.01   2
  -9  -4   4  774.69  554.43   4
   8  -5   4 2937.50  729.23   6
   8  -5   4 3048.26  828.37   7
   8  -5  -4 3170.59  816.03   7
   7  -5   4 1194.92  518.11   7
   7  -5   4  777.20  411.14   6
   6  -5   410898.59 1038.75   6
   5  -5   4  513.95  294.67   6
   5  -5   4  239.04  120.43   3
   5   5   4  139.08  163.61   1
   4  -5   410348.92  694.45   3
   4  -5   411980.43  986.60   6
   4   5   410906.91  808.17   1
   3  -5   4  425.08  152.43   6
   3  -5   4  153.20  139.99   3
   3   5   4  311.67  112.19   1
   2  -5   427671.41 1292.75   3
   2   5   429768.66 1470.92   1
   1   5   4 4150.46  544.65   1
   1  -5   4 3630.83  334.52   2
   0   5  -4 5096.78  705.29   1
   0  -5   4 5327.90  591.83   6
   0   5   4 4524.54  625.57   1
  -1   5  -4 4974.91  680.07   1
  -1   5   4 4361.12  648.57   1
  -2   5  -430200.11 1584.77   1
  -2   5   428276.74 1631.81   1
  -2  -5   426368.09  715.16   2
  -3   5  -4   84.36  206.89   1
  -3   5   4  303.48  242.86   1
  -3  -5   4  515.62  258.85   3
  -3  -5   4  610.29  176.01   2
  -4  -5   411599.83  978.55   3
  -4  -5   412854.73 1134.39   8
  -4   5   411471.93 1116.73   1
  -4  -5   412206.83  764.52   2
  -4  -5   411993.83  916.75   4
  -4   5   410822.03  902.97   4
  -4  -5  -411345.68  976.70   2
  -5   5   4  165.78   90.35   8
  -5  -5  -4  530.15  394.30   2
  -5  -5   4  379.09  320.58   4
  -5   5   4   10.78  221.82   1
  -5  -5   4  221.75  299.28   8
  -5  -5   4  296.16  253.46   3
  -5  -5   4  369.18  299.37   2
  -5   5   4   46.88  164.74   4
  -6  -5   4 9866.58  887.96   3
  -6  -5  -4 7125.66  394.73   2
  -6  -5   411352.67 1305.16   8
  -6   5   410205.75 1061.10   1
  -6  -5   411508.97  969.33   2
  -6  -5   411026.32 1126.27   4
  -6   5   4 8974.68 1022.60   4
  -7  -5  -4  271.75  281.63   2
  -7  -5   4 1156.39  645.31   8
  -7  -5   4  851.24  350.36   4
  -7   5   4  603.34  376.16   4
  -8  -5  -4 2416.73  584.21   2
  -8  -5   4 2890.70  890.17   8
  -8  -5  -4 2100.27  476.74   5
  -8  -5   4 2703.86  606.53   4
  -8   5   4 2133.05  619.59   4
   8  -6  -4  457.84  478.01   7
   8  -6   4 -146.36  318.14   7
   8  -6   4  141.81  214.73   6
   7  -6   4 1796.05  611.07   6
   6  -6   4  204.63  250.45   6
   5  -6   4  404.00  181.73   6
   5  -6   4  396.82  122.94   3
   5   6   4  -24.13  237.49   1
   4   6   4  269.41  213.72   1
   4  -6   4  229.35  254.73   6
   4  -6   4  199.78  155.82   3
   3  -6   4 8372.06  695.89   3
   3  -6   4 9656.26  884.88   6
   3   6   4 9355.97  895.61   1
   2   6  -4 7445.33  825.42   1
   2  -6   4 8086.75  778.09   6
   2   6   4 7579.70  781.38   1
   1   6   4 2967.36  394.20   1
   1  -6   4 3286.99  423.34   6
   1   6  -4 3517.37  631.84   1
   0   6  -4 6155.91  761.16   1
   0   6   4 5666.89  690.35   1
  -1   6   4 2351.88  339.18   1
  -1   6  -4 3204.58  503.39   1
  -2   6  -4 7256.79  781.68   1
  -2   6   4 7760.43  925.70   1
  -3   6  -4 9298.83  897.42   1
  -3   6   4 8406.01  882.89   1
  -3  -6   4 9139.29  563.41   2
  -3   6   4 8329.68  722.99   4
  -4   6   4 -224.10  209.92   1
  -4  -6   4  -43.89  172.62   8
  -4   6   4  134.32  123.61   8
  -4  -6   4 -585.43  381.48   3
  -4   6  -4  261.06  166.04   1
  -4  -6   4  249.29  223.14   4
  -4   6   4  255.39  336.73   4
  -4  -6   4  257.57  110.40   2
  -5  -6   4  498.12  394.13   8
  -5  -6   4  -39.38  298.53   3
  -5  -6   4  644.64  373.41   4
  -5  -6   4  183.82  197.82   2
  -5   6   4  306.96  207.62   1
  -5   6   4  280.96  249.57   4
  -6  -6   4  316.14  327.60   4
  -6  -6  -4  214.72  180.17   2
  -6  -6   4  534.55  485.09   8
  -6  -6   4  141.45  187.43   3
  -6   6   4  -21.98  219.48   1
  -6   6   4  -33.27  155.46   4
  -7  -6  -4  610.49  231.63   2
  -7  -6   4 1659.57  666.03   8
  -7   6   4 1103.93  381.17   4
  -8  -6  -4   -2.21  149.87   2
  -8  -6   4  221.23  419.26   8
  -8   6   4  134.70  379.98   4
   8  -7   4  246.88  154.44   6
   7  -7   4 1699.25  312.87   6
   6  -7   4  389.74  338.09   6
   5  -7   4 1323.99  407.49   6
   5  -7   4 1136.15  297.25   3
   5   7   4 1316.43  414.30   1
   4  -7   4  702.62  361.68   6
   4  -7   4  114.72  161.82   3
   4   7   4  646.96  305.30   1
   3  -7   412861.83 1067.32   6
   3   7   413831.48 1181.46   1
   2   7   4 3817.53  686.97   1
   2  -7   4 4171.31  621.06   6
   2   7  -4 2987.23  548.15   1
   1   7  -4 6154.65  830.45   1
   1  -7   4 6164.49  659.65   6
   1   7   4 5706.19  715.02   1
   0   7  -412255.31 1081.01   1
   0   7   410652.35  911.97   1
  -1   7   4 5574.29  742.47   1
  -1   7  -4 6216.47  776.06   1
  -2   7   4 3133.75  561.65   1
  -2   7  -4 4237.27  716.33   1
  -3  -7   412942.37 1087.65   8
  -3   7  -412384.23 1101.56   1
  -3   7   413568.57 1407.46   1
  -3  -7   412124.57  710.15   4
  -3  -7   412248.62  724.45   2
  -3   7   412472.87 1012.61   4
  -4  -7   4  321.65  193.78   2
  -4   7  -4  376.12  224.60   1
  -4   7   4 -476.98  319.90   1
  -4  -7   4  630.55  451.66   8
  -4  -7   4  296.17  193.17   4
  -4   7   4   63.99  194.70   4
  -5  -7   4 1423.83  498.53   8
  -5   7   4 1335.89  493.87   1
  -5   7  -4 1138.36  403.21   1
  -5  -7   4 1241.23  412.36   3
  -5  -7   4 1029.75  330.57   4
  -5   7   4  676.03  140.75   4
  -6  -7  -4  407.54  296.49   2
  -6   7   4  421.00  452.57   1
  -6  -7   4 -404.59  372.89   3
  -6  -7   4 -125.72  308.55   8
  -6   7   4  349.18  162.23   4
  -7  -7  -4 1819.93  354.59   2
  -7  -7   4 2345.85  751.24   8
  -7   7   4 2278.87  672.44   4
   7  -8   4 1196.77  424.28   6
   6  -8   4 3481.88  677.47   6
   5   8   4   33.52  109.31   1
   5  -8   4   96.82  164.67   3
   4  -8   4 1181.48  478.70   6
   4   8   4  807.44  290.63   1
   3   8   4   71.29  168.78   1
   3   8  -4   94.26  225.79   1
   3  -8   4   -1.47  240.37   6
   2  -8   4 1291.55  348.07   6
   2   8   4  793.80  223.61   1
   2   8  -4 1018.53  178.13   1
   1   8   4  403.99  317.98   1
   1   8  -4  388.05  277.96   1
   0   8   4 -512.63  367.10   1
   0   8  -4   28.08  360.76   1
  -1   8   4  -45.49  221.57   1
  -1   8  -4  -96.58  292.67   1
  -2  -8   4 1454.27  384.35   8
  -2   8   4  851.28  253.42   1
  -2   8  -4  924.99  187.38   1
  -2   8   4 1318.28  334.88   4
  -3  -8   4  -22.66  103.00   2
  -3  -8   4 -139.26  140.43   8
  -3   8   4 -169.77  402.09   1
  -3   8  -4   55.15  186.47   1
  -3   8   4   28.06  213.84   4
  -4   8   4  607.00  300.49   1
  -4  -8   4 1302.17  456.56   8
  -4   8  -4  826.76  258.75   1
  -4   8   4 1701.07  560.13   4
  -5  -8  -4 -329.99  295.31   2
  -5  -8   4  258.27  295.05   8
  -5   8   4  306.79  271.03   1
  -5   8  -4  394.10  355.94   1
  -5   8   4  183.95  375.33   4
  -6  -8  -4 3686.76  622.28   2
  -6   8   4 3062.02  619.34   1
  -6  -8   4 4102.47  869.77   8
  -6  -8   4 2983.60  512.78   3
  -6   8   4 3004.22  748.78   4
  -7  -8  -4 -101.43  582.72   2
  -7  -8   4 1458.82  654.79   8
  -7   8   4 1353.20  586.07   4
   7  -9   4  204.59  348.88   6
   6  -9   4 4219.91  693.95   6
   5  -9   4  -69.76  360.47   6
   5  -9   4   35.80  160.75   3
   4   9   410300.92 1129.27   1
   4  -9   410176.27 1069.53   6
   3  -9   4  111.16  149.93   6
   3   9  -4  116.84  152.10   1
   3   9   4   50.87  187.19   1
   2   9  -418767.64 1558.69   1
   2   9   418720.62 1515.18   1
   1   9   4  769.88  411.45   1
   1   9  -4  337.81  255.59   1
   0   9   4 3725.97  753.81   1
   0   9  -4 3306.84  672.97   1
  -1   9   4  550.66  321.93   1
  -1   9  -4  858.57  443.45   1
  -2  -9   418494.84 1271.33   8
  -2   9  -419075.87 1524.68   1
  -2   9   418868.49 1680.13   1
  -2   9   417453.84 1145.76   4
  -3  -9   4  401.64  406.56   8
  -3   9   4 -177.33  218.49   1
  -3   9  -4  208.81  265.45   1
  -3   9   4    6.35  257.26   4
  -4   9   410387.73 1372.55   1
  -4  -9   410750.03 1244.13   8
  -4   9  -4 9251.05  986.52   1
  -4   9   4 9633.21 1100.40   4
  -5   9   4  -87.47  316.70   1
  -5  -9   4  305.11  441.49   8
  -5   9  -4  338.94  367.97   1
  -5   9   4  251.27  232.76   4
  -6   9   4 4524.44  879.05   1
  -6  -9   4 5496.96 1046.06   8
  -6  -9  -4 5043.60  822.12   2
  -6  -9   4 3612.41  554.24   3
  -6   9   4 4351.41  895.09   4
  -7   9   4   -3.90  208.60   4
   6 -10   4  774.78  377.58   6
   5 -10   4   80.51  247.61   3
   5 -10   4  526.47  185.32   6
   4  10  -4 1984.81  502.08   1
   4 -10   4 2294.81  489.64   6
   4  10   4 2277.33  589.14   1
   3  10  -4 2142.09  500.64   1
   3  10   4 3219.60  712.40   1
   3 -10   4 2956.98  660.61   6
   2  10   4 9275.98 1158.92   1
   2  10  -4 8449.47 1040.89   1
   1  10   4 7273.16  977.66   1
   1  10  -4 6993.64  965.65   1
   0  10   4 1274.80  482.35   1
   0  10  -4 1445.69  485.06   1
  -1 -10   4 7023.50  738.64   8
  -1  10   4 7321.69 1078.94   1
  -1  10  -4 6794.64  891.95   1
  -2 -10   4 8949.24  923.51   8
  -2  10  -4 8863.03 1094.59   1
  -2  10   4 9094.35 1286.64   1
  -2  10   4 8878.58  926.72   4
  -3  10   4 2409.76  686.92   1
  -3 -10   4 2221.65  492.98   8
  -3  10  -4 2707.27  609.88   1
  -3  10   4 2076.28  438.76   4
  -4  10   4 2299.48  660.39   1
  -4 -10   4 2540.65  646.55   8
  -4  10  -4 2218.52  593.51   1
  -4  10   4 2207.46  582.90   4
  -5  10   4  298.78  346.37   1
  -5 -10   4  110.45  239.51   8
  -5  10  -4   57.19  191.29   1
  -5  10   4  164.06  236.01   4
  -6  10   4  376.57  234.46   1
  -6 -10  -4 2382.15  820.59   2
  -6 -10   4 1524.43  818.46   8
  -6  10   4  850.11  514.77   4
  -7  10   4  652.73  548.06   4
   5 -11   4 2954.95  625.45   6
   4  11  -4  344.00  402.52   1
   4  11   4  244.34  369.97   1
   3  11   4 4955.97  885.55   1
   3  11  -4 4375.51  779.95   1
   2  11  -4   50.79  320.69   1
   2  11   4  457.59  246.48   1
   1  11  -4 4106.88  801.41   1
   1  11   4 3674.83  605.47   1
   0  11   4  467.03  423.43   1
   0 -11   4  278.10  297.12   8
   0  11  -4   25.40  276.05   1
  -1  11   4 3426.31  675.66   1
  -1 -11   4 3951.08  605.53   8
  -1  11  -4 4367.55  792.96   1
  -2  11   4  580.93  417.31   1
  -2 -11   4  814.89  376.94   8
  -2  11  -4  570.19  311.76   1
  -3  11   4 4691.76  981.77   1
  -3  11  -4 4471.42  796.50   1
  -3 -11   4 4730.60  747.10   8
  -4  11   4  402.03  370.10   1
  -4 -11   4  191.10  190.85   8
  -4  11  -4  371.44  395.96   1
  -5 -11   4 3077.02  848.40   8
  -5  11  -4 2533.38  628.14   1
  -5  11   4 3187.55  886.02   1
  -6  11   4  341.06  474.80   1
   4  12  -4  951.85  530.21   1
   4  12   4 1327.54  647.13   1
   3  12   4 1666.70  677.83   1
   3  12  -4 1831.73  655.91   1
   2  12   4  664.17  289.03   1
   2  12  -4  908.50  433.24   1
   1  12   4 2515.77  711.46   1
   1  12  -4 1505.82  465.68   1
   0  12   4  277.93  295.87   1
   0  12  -4  -48.64  298.98   1
  -1  12  -4 1909.72  603.69   1
  -1  12   4 1429.52  511.87   1
  -2 -12   4 1004.97  503.84   8
  -2  12  -4  846.17  428.75   1
  -2  12   4 1055.59  562.17   1
  -3 -12   4 1513.76  531.74   8
  -3  12  -4 1357.82  508.55   1
  -3  12   4 1699.46  665.44   1
  -4 -12   4 1027.07  568.60   8
  -4  12   4  453.04  383.59   1
  -4  12  -4  359.76  331.48   1
  -5 -12   4  608.27  497.93   8
  -5  12   4  161.78  334.77   1
  -5  12  -4  117.13  182.37   1
   4  13  -4 1208.64  528.78   1
   4  13   4  849.90  489.84   1
   3  13   4  482.93  492.22   1
   3  13  -4  462.69  453.76   1
   2  13   4  753.30  422.83   1
   2  13  -4 1062.87  534.05   1
   1  13   4   57.85  259.08   1
   1  13  -4  179.31  143.98   1
   0  13   4  484.34  303.97   1
   0  13  -4  479.50  418.39   1
  -1  13   4   -2.41  180.61   1
  -1  13  -4   60.05  177.48   1
  -2  13   4  405.61  211.95   1
  -2  13  -4  507.53  259.92   1
  -3  13   4 -426.58  441.18   1
  -3  13  -4 -144.26  222.06   1
  -4 -13   4  767.36  348.47   8
  -4  13  -4  760.29  353.95   1
   8   0   5-1825.91 1140.41   7
   7   0   519904.40 1870.87   7
   7   0  -514776.17 1086.39   7
   6   0   5 -480.10  232.47   7
   6   0  -5  549.97  549.12   7
   5   0   5 5302.65  520.67   3
   5   0   5 5996.51  856.73   7
   5   0  -5 4808.34  622.82   7
   4   0   5 -445.48  267.72   3
   4   0   5  -67.50  147.22   7
   4   0  -5  -35.81  218.34   7
   3   0   5 4460.21  446.11   3
   3   0   5 5389.00  650.42   7
   2   0   5 -199.27  180.49   3
   2   0   5 -336.19  257.76   7
   1   0   560454.19 1912.02   3
   0   0   5  115.03  258.37   3
   0   0   5  -73.74   73.10   5
  -1   0   558916.54 1861.69   3
  -1   0   555972.13 1009.29   6
  -1   0   555325.09  973.24   5
  -2   0  -5 -661.66  339.37   2
  -2   0   5 -407.43  295.65   3
  -2   0  -5  -34.69  167.06   5
  -3   0   5 4508.30  484.62   3
  -3   0  -5 4606.25  485.46   5
  -3   0  -5 5573.26  599.63   2
  -4   0  -5  262.08  138.22   2
  -4   0   5 -117.76  191.33   3
  -4   0  -5 -224.82  251.00   5
  -5   0   5 4451.65  448.23   3
  -5   0  -5 5810.64  753.06   5
  -5   0   5 4042.37  315.05   5
  -5   0  -5 5521.18  686.16   2
  -5   0   5 4729.42  598.54   4
  -6   0   5   53.08  240.94   3
  -6   0   5 1191.59  618.14   8
  -6   0  -5  458.70  473.70   5
  -6   0  -5  304.45  478.13   2
  -6   0   5 1295.83  643.87   4
  -7   0   518469.42 1366.47   8
  -7   0  -520706.15 1622.45   5
  -7   0  -521023.35 1610.01   2
  -7   0   518630.47 1612.33   4
  -8   0   5  440.92  300.51   8
  -8   0  -5  884.15  660.71   2
  -8   0   5  -60.70  215.85   4
  -9   0   5 2654.71  577.96   8
   9  -1  -5-1684.74  943.73   7
   8  -1   5 1551.54  761.05   7
   8  -1  -5  601.99  328.18   7
   7  -1   5 3555.41  972.71   7
   7  -1  -5 2295.73  608.51   7
   6  -1   5 5303.24  866.09   7
   6  -1  -5 5076.72  711.23   7
   5  -1   5  449.81  343.17   7
   5   1   5  306.85  168.91   3
   5  -1   5  -16.31  194.73   3
   5  -1  -5  485.30  314.16   7
   4   1   5 5845.14  575.42   3
   4  -1   5 5291.44  516.68   3
   4  -1   5 6342.14  749.33   7
   4   1   5 3083.63  666.31   7
   4   1  -5 3945.31  181.23   6
   4  -1  -5 5191.14  466.52   7
   3   1   5 1517.87  267.33   3
   3  -1   5 2037.33  387.65   3
   3  -1  -5 1133.84  112.52   7
   3  -1   5 1452.65  231.03   7
   3   1  -5 1398.91  107.27   6
   3   1  -5 1594.00  218.91   2
   2   1   5 3372.72  455.75   3
   2  -1  -5 2508.50  184.46   7
   2  -1   5 3532.88  401.32   7
   2  -1   5 3459.07  450.72   3
   1   1   517763.21 1015.08   3
   1  -1   517473.26  990.23   3
   1  -1   514867.81  468.20   7
   0   1   5 2443.32  349.58   3
   0  -1   5 1853.46  265.44   3
   0  -1   5 2483.86  274.26   6
   0  -1   5 2201.78  221.19   5
  -1   1   517343.18 1009.23   3
  -1  -1   515935.03  917.66   3
  -1  -1  -516443.91  703.93   5
  -1   1  -515605.01  580.15   2
  -2   1  -5 3381.56  354.99   2
  -2   1   5 3074.65  425.85   3
  -2  -1   5 3796.11  515.17   3
  -2  -1  -5 3402.34  422.26   5
  -3  -1  -5 1526.83  277.99   2
  -3   1   5 1367.13  230.23   3
  -3  -1   5 1722.61  296.66   3
  -3  -1  -5 1360.47  234.90   5
  -3   1  -5 1690.51  358.92   2
  -4   1   5 5267.65  532.93   3
  -4  -1  -5 5722.80  674.33   5
  -4  -1   5 5386.80  549.31   3
  -4  -1  -5 6215.35  651.97   2
  -4   1  -5 5364.97  574.79   2
  -5  -1  -5   90.29  143.39   2
  -5   1   5 -285.97  273.96   3
  -5  -1   5  462.94  345.94   8
  -5  -1   5  407.18  219.83   3
  -5  -1  -5  389.70  290.93   5
  -5   1  -5  147.27  159.90   2
  -5  -1   5  696.39  394.39   4
  -5   1   5  425.78  282.34   4
  -6  -1   5 4508.86  713.63   8
  -6   1   5 4186.52  577.15   8
  -6  -1   5 2854.76  170.78   3
  -6  -1  -5 5044.24  784.30   5
  -6   1  -5 4654.68  685.63   2
  -6  -1   5 4744.30  843.73   4
  -6   1   5 4860.63  813.52   4
  -6  -1  -5 4290.22  656.84   2
  -7  -1   5 2556.39  680.24   8
  -7   1   5 1734.91  390.85   8
  -7  -1  -5 1678.41  471.09   5
  -7   1  -5 2716.18  697.43   2
  -7  -1   5 2612.82  812.08   4
  -7   1   5 2108.75  587.23   4
  -7  -1  -5 2295.29  679.34   2
  -8  -1   5  685.91  310.76   8
  -8   1   5 1043.86  372.83   8
  -8  -1  -5 1299.03  598.41   5
  -8   1  -5 1890.58  702.00   2
  -8  -1   5  826.08  397.40   4
  -8   1   5 1370.01  671.44   4
  -8  -1  -5 1588.00  627.16   2
  -9  -1   5  650.71  577.34   8
  -9  -1   5  327.84  455.68   4
   9  -2  -5  391.15  417.48   7
   8  -2   5 1381.73  690.06   7
   8  -2  -5 1755.52  679.14   7
   7  -2   5  430.63  461.41   7
   7  -2  -5  141.53  257.73   7
   6  -2  -5 2878.38  443.89   7
   6  -2   5 3473.55  608.16   7
   5   2   5  242.69  190.66   3
   5  -2   5  174.50   93.06   3
   5  -2  -5   45.05  157.89   7
   5  -2   5  455.99  327.91   7
   5   2   5  271.96  174.31   1
   4   2   5 3792.34  506.48   3
   4  -2   5 3590.48  463.44   3
   4  -2   5 3821.76  543.66   7
   4  -2  -5 3218.99  356.14   7
   4   2  -5 2443.25  198.00   6
   3   2  -5  531.27  204.05   2
   3   2   5  496.39  186.25   3
   3  -2   5  415.78  149.43   3
   3   2  -5  411.33  152.87   6
   2   2   530423.16 1373.14   3
   2  -2   529176.96 1333.20   3
   2   2  -527040.13  829.17   6
   1   2   5  777.84  163.33   3
   1  -2   5  692.84  160.79   3
   0   2   521562.04 1132.32   3
   0  -2   520985.19 1115.69   3
   0  -2  -520600.19  655.51   5
   0  -2   522980.89  912.78   6
   0   2  -518753.29  449.20   2
  -1   2   5  898.03   96.24   3
  -1  -2  -5 1009.28  216.27   7
  -1  -2   5  733.33  100.35   6
  -1  -2  -5  630.19   71.43   5
  -1   2  -5  975.82  179.08   2
  -2   2   529505.13 1392.46   3
  -2  -2   530131.98 1459.83   3
  -2  -2   530190.93  944.40   7
  -2  -2  -530116.76 1264.43   5
  -2   2  -531502.46 1216.24   2
  -3   2   5  -66.04  277.43   3
  -3  -2   5   89.73  169.44   3
  -3  -2  -5  399.79  183.39   5
  -3   2  -5  253.20  161.28   2
  -4  -2  -5 4022.65  594.41   2
  -4   2   5 3054.56  375.96   3
  -4  -2   5 3069.97  363.56   3
  -4  -2  -5 4034.45  575.81   5
  -4   2  -5 3913.49  505.92   2
  -5   2   5  143.98  148.38   3
  -5  -2   5  174.03  273.34   8
  -5  -2   5  115.84  180.86   3
  -5  -2  -5  195.64  209.93   5
  -5   2  -5  219.21  157.25   2
  -5  -2   5  242.38  179.32   4
  -5   2   5   87.55  156.82   4
  -6  -2  -5 3240.37  511.86   2
  -6  -2   5 3715.46  759.28   8
  -6   2   5 3393.12  522.78   8
  -6  -2   5 2602.46  355.68   3
  -6  -2  -5 2793.83  404.59   5
  -6   2  -5 3190.38  537.27   2
  -6  -2   5 3513.04  698.82   4
  -6   2   5 3577.46  735.22   4
  -7  -2   5  170.54  159.26   8
  -7  -2  -5  160.67  227.48   5
  -7  -2   5   18.11  326.34   4
  -7   2   5  323.33  360.97   4
  -7   2   5   59.86  170.51   8
  -7  -2  -5  408.71  284.48   2
  -8  -2   5 1161.10  557.74   8
  -8   2   5  809.65  358.44   8
  -8  -2  -5  882.94  462.06   5
  -8  -2   5 1433.04  583.29   4
  -8   2   5  507.60  358.13   4
  -8  -2  -5  534.68  246.06   2
  -9  -2   5  251.19  385.19   8
  -9  -2   5  373.28  422.26   4
   9  -3  -5  -22.74  236.97   7
   8  -3   5 1493.39  604.42   7
   8  -3  -5 1289.17  528.58   7
   7  -3   5 1585.33  631.60   7
   7  -3  -5 1646.97  507.32   7
   6  -3   5 6789.02  865.15   7
   6  -3  -5 5904.22  676.80   7
   5  -3   5  641.19  328.60   7
   5  -3   5  513.22  234.78   3
   5   3   5  675.51  254.20   1
   4   3   5 1163.76  319.33   3
   4  -3   5  820.17  169.58   3
   4   3   5  950.70  202.02   1
   3   3   5   93.96  139.75   3
   3  -3   5   10.32  166.00   3
   2   3   5 2872.29  424.83   3
   2  -3   5 3147.71  415.15   6
   2  -3   5 2294.02  267.75   3
   1   3   5 2034.83  310.26   3
   1  -3   5 1657.49  104.19   2
   1  -3   5 2388.81  324.97   6
   1  -3   5 2166.90  359.39   3
   0   3   5  551.95  160.36   3
   0  -3   5  584.09  136.18   3
   0  -3   5  976.68  283.37   6
  -1   3   5 1931.02  253.05   3
  -1  -3   5  881.40  303.81   3
  -1  -3   5 1172.60  321.02   6
  -2   3   5 3059.79  475.51   3
  -2  -3   5 1169.77  343.23   3
  -2   3   5 2070.80  169.46   6
  -3   3   5  329.02  118.99   3
  -3  -3  -5  -50.36  105.09   2
  -3  -3   5  227.11  221.56   3
  -4   3   5  833.20  150.72   3
  -4  -3   5  419.56  263.67   3
  -5   3   5  833.92  358.37   3
  -5  -3  -5 -463.59  502.35   2
  -5  -3   5 1135.51  401.39   8
  -5  -3   5  889.17  317.09   3
  -5  -3  -5  625.90  369.93   5
  -5  -3   5  728.71  342.81   4
  -5   3   5  609.93  347.76   4
  -6  -3  -5 5201.43  537.62   2
  -6   3   5 5549.24  593.34   8
  -6  -3   5 6542.51  957.32   8
  -6  -3   5 5464.72  599.83   3
  -6  -3  -5 5738.90  753.48   5
  -6  -3   5 6425.60  946.74   4
  -6   3   5 5738.36  817.47   4
  -6   3   5 5289.25  699.83   1
  -7  -3  -5 2202.63  575.03   2
  -7  -3   5 2170.61  746.42   8
  -7   3   5 1083.73  303.30   8
  -7  -3  -5 1184.26  327.61   5
  -7  -3   5 1287.49  447.66   4
  -7   3   5 1085.60  466.99   4
  -8  -3   5  849.64  371.91   8
  -8  -3  -5  443.17  149.92   5
  -8  -3   5 1276.97  555.57   4
  -8   3   5  786.19  422.24   4
  -8  -3  -5  891.46  412.02   2
  -9  -3   5  555.82  552.92   4
   9  -4  -5 1819.34  646.07   7
   8  -4  -5  940.02  557.27   7
   8  -4   5 1440.65  687.80   7
   8  -4   5  581.29  390.60   6
   7  -4   5 6140.64  936.74   7
   7  -4  -5 5333.81  758.28   7
   7  -4   5 5515.62  798.72   6
   6  -4   5 1721.46  389.93   7
   6  -4   5 1560.33  489.31   6
   6  -4  -5 1357.35  366.83   7
   5  -4   5  542.31  154.32   3
   5  -4   5  618.83  238.51   6
   5   4   5  816.54  251.28   1
   4   4   5  653.86  236.65   1
   4  -4   5  320.61  154.09   3
   4  -4   5  914.14  298.89   6
   3   4   5 2894.14  472.53   3
   3  -4   5 2820.17  463.77   6
   3   4   5 2579.36  401.22   1
   3  -4   5 2446.54  344.53   3
   2   4   5 3140.24  577.26   3
   2  -4   5 3086.09  473.14   6
   2  -4   5 2146.58  334.48   3
   1   4   519541.43 1253.88   3
   1  -4   517921.79 1097.58   3
   1  -4   519128.29 1026.60   6
   1  -4   518473.48  790.93   2
   0  -4   5 1598.01  127.36   2
   0   4   5 2631.28  518.27   3
   0  -4   5 2230.52  346.76   6
   0  -4   5 2153.19  427.49   3
  -1   4   518609.33 1207.54   3
  -1  -4   5 9444.40 1204.02   3
  -2   4   5 2864.69  518.08   3
  -2   4   5 2243.47  249.40   6
  -2  -4   5  882.56  347.92   3
  -3   4   5 2741.62  469.81   3
  -3  -4   5 1104.54  432.02   3
  -4   4   5  284.18  196.23   4
  -4   4   5  813.89  368.85   3
  -4  -4   5 -478.43  410.00   3
  -5  -4  -5  635.58  253.22   2
  -5   4   5  478.44  147.36   8
  -5  -4   5  653.57  336.53   8
  -5  -4   5 1196.33  418.70   3
  -5   4   5  495.26  294.56   1
  -5  -4   5  925.49  347.32   4
  -5   4   5  329.69  141.98   4
  -6   4   5  770.73  163.44   1
  -6   4   5  997.00  313.60   8
  -6  -4   5 1512.24  526.24   8
  -6  -4   5 1862.74  478.88   3
  -6  -4   5 1299.66  327.04   4
  -6   4   5 1332.17  408.45   4
  -7  -4  -5 4781.40  612.64   2
  -7  -4   5 6617.93 1074.83   8
  -7  -4  -5 5890.64  885.95   5
  -7  -4   5 5035.43  786.16   4
  -7   4   5 5039.15  755.13   4
  -8  -4   5  387.39  370.64   8
  -8  -4  -5  -29.26  225.07   5
  -8  -4   5  132.34  307.42   4
  -8   4   5  -90.23  158.91   4
  -8  -4  -5 -116.56  331.68   2
  -9  -4   5 1342.45  438.57   4
   8  -5   5  -48.38  217.64   6
   8  -5  -5 1312.57  628.14   7
   8  -5   5 1082.08  716.25   7
   7  -5  -5 9443.38 1140.72   7
   7  -5   5 8568.01 1039.28   6
   7  -5   5 9287.77 1122.10   7
   6  -5   5 2360.05  601.77   6
   5   5   5 3665.59  570.16   1
   5  -5   5 3635.37  526.16   3
   5  -5   5 3935.31  603.18   6
   4  -5   5 2696.86  509.01   6
   4  -5   5 2399.31  384.03   3
   4   5   5 2519.25  459.12   1
   3  -5   5 5929.01  653.45   6
   3  -5   5 5393.15  565.36   3
   3   5   5 5463.16  679.35   1
   2   5   5  451.34  162.00   1
   2  -5   5  426.94  142.88   3
   1  -5   521963.84 1234.13   3
   1  -5   524756.89 1256.76   6
   1   5   522167.74 1337.83   1
   1  -5   521000.99  834.18   2
   0   5   5  181.09  235.42   1
   0   5   5  596.65  323.33   3
   0  -5   5 -243.82  165.93   6
   0  -5   5  476.83  290.53   3
   0  -5   5  117.21   60.19   2
  -1   5   524511.49 1528.24   3
  -1  -5   510985.50 1351.78   3
  -1   5   522910.49 1520.61   1
  -2   5   5  930.50  183.18   6
  -2   5   5  632.25  214.77   1
  -2  -5   5  372.17  344.51   3
  -3   5   5 5061.90  710.14   1
  -3   5   5 5316.94  442.29   6
  -3  -5   5 3291.08  776.00   3
  -4  -5   5 1510.44  567.48   3
  -4   5   5 2727.96  638.34   1
  -4  -5   5  778.66  288.92   4
  -4   5   5 1853.51  273.86   4
  -5  -5   5 4104.52  752.91   8
  -5   5   5 3600.81  747.97   1
  -5   5   5 3075.30  325.32   8
  -5  -5  -5 4026.76  628.98   2
  -5  -5   5 3845.90  679.50   3
  -5  -5   5 3620.43  577.38   4
  -5   5   5 3295.12  547.08   4
  -6  -5  -5 2025.23  468.03   2
  -6  -5   5 2010.33  592.27   8
  -6   5   5 1644.22  459.27   1
  -6  -5   5 1932.27  467.22   3
  -6  -5   5 1340.18  294.69   4
  -6   5   5 1703.41  469.10   4
  -7  -5  -5 7694.97  806.23   2
  -7  -5   5 9967.08 1381.88   8
  -7  -5   5 8803.56 1116.10   4
  -7   5   5 8009.52 1047.74   4
  -8  -5  -5  263.25  202.50   2
  -8  -5   5  909.46  775.70   8
  -8  -5  -5  313.79  336.32   5
  -8  -5   5  407.25  431.31   4
  -8   5   5  113.75  196.67   4
   8  -6  -5  655.32  377.19   7
   8  -6   5  657.15  436.04   7
   8  -6   5  602.84  460.74   6
   7  -6   5  214.71  158.77   6
   6  -6   5 2540.70  602.34   6
   5   6   5  275.12  114.03   1
   5  -6   5  341.15  192.42   6
   5  -6   5  286.33   92.56   3
   4   6   5 3536.29  611.53   1
   4  -6   5 3526.59  621.91   6
   4  -6   5 3179.53  484.11   3
   3  -6   5 1089.57  369.42   6
   3  -6   5  803.74  181.80   3
   3   6   5  900.09  280.38   1
   2  -6   5 9734.69  901.29   6
   2  -6   5 7625.23  684.86   3
   2   6   5 8910.79  904.91   1
   1  -6   5 3546.30  459.27   6
   1  -6   5 2782.45  393.19   3
   1   6   5 2521.17  352.44   1
   0   6   5 2634.82  420.31   1
   0  -6   5 3254.34  393.26   6
   0  -6   5 2626.56  255.93   3
  -1   6   5 2438.34  341.46   1
  -1  -6   5 1158.62  431.13   3
  -2  -6   5 4527.13  935.36   3
  -2   6   5 8423.26  967.86   1
  -2  -6   5 2827.53  301.03   2
  -3   6   5 1211.76  322.98   1
  -3  -6   5  437.97  344.73   3
  -3  -6   5  364.31  145.59   2
  -4  -6   5 1647.35  598.96   8
  -4  -6   5 1376.67  559.51   3
  -4   6   5 2836.18  584.85   1
  -4  -6   5 1811.65  484.33   4
  -4   6   5 2894.26  487.32   4
  -5   6   5  298.16  158.29   1
  -5  -6   5  624.70  525.52   8
  -5  -6   5  325.82  273.97   3
  -5  -6   5  407.77  329.08   4
  -5   6   5  499.02  275.87   4
  -6   6   5 1562.74  382.32   1
  -6  -6  -5 2223.76  435.63   2
  -6  -6   5 2233.24  552.29   3
  -6  -6   5 2032.84  535.49   8
  -6  -6   5 2496.23  562.64   4
  -6   6   5 1662.55  394.58   4
  -7  -6  -5  313.36  104.49   2
  -7  -6   5  465.75  313.27   8
  -7   6   5  388.03  309.43   4
   8  -7  -5  704.02  325.42   7
   7  -7   5  217.50  305.49   6
   6  -7   5 2621.69  587.85   6
   5  -7   5  449.50  331.98   6
   5  -7   5  437.46  293.92   3
   5   7   5  221.27  241.56   1
   4   7   5 2791.08  534.79   1
   4  -7   5 3359.96  649.31   6
   4  -7   5 2690.96  496.11   3
   3  -7   5  863.01  356.80   6
   3   7   5  874.32  363.03   1
   3  -7   5  323.71  237.93   3
   2  -7   510420.87  920.77   3
   2  -7   512258.42 1035.05   6
   2   7   511163.07 1028.30   1
   1   7   5 4056.99  546.95   1
   1  -7   5 4600.13  509.50   6
   1  -7   5 4466.59  565.40   3
   0   7  -5 7593.87 1014.63   1
   0   7   5 6010.82  759.32   1
  -1   7   5 4213.57  616.36   1
  -1   7  -5 5405.83  812.19   1
  -2  -7   512923.07 1283.76   3
  -2   7  -511615.77 1151.42   1
  -2   7   511535.42 1247.28   1
  -3   7  -5  472.83  286.74   1
  -3   7   5  238.39  301.84   1
  -3  -7   5  -47.68  392.88   3
  -4  -7   5 1865.34  654.92   8
  -4   7   5 3060.57  747.48   1
  -4  -7   5 1945.10  666.42   3
  -4  -7   5 1741.75  491.61   4
  -4   7   5 2588.87  550.04   4
  -5  -7   5 -127.94  238.17   8
  -5  -7  -5  392.13  266.65   2
  -5  -7   5  -99.57  335.66   3
  -5   7   5  305.67  325.06   4
  -5   7   5 -137.49  345.22   1
  -6  -7  -5 2122.17  237.90   2
  -6  -7   5 3735.17  805.77   8
  -6  -7   5 2495.88  507.02   3
  -6   7   5 2757.89  727.92   1
  -6   7   5 2573.42  599.06   4
  -7  -7   5  741.60  670.56   8
  -7   7   5  453.03  316.49   4
   7  -8   5 2775.39  629.66   6
   6  -8   5 3869.73  877.67   6
   5  -8   5  293.86  367.07   6
   5  -8   5  404.55  239.05   3
   4   8   5  229.92  186.71   1
   4  -8   5  345.98  289.78   6
   4  -8   5   13.19  190.18   3
   3   8   5  -17.61  128.89   1
   3  -8   5 -209.23  237.15   6
   3  -8   5 -103.63  185.27   3
   2  -8   5   13.48  161.79   6
   2   8   5 -146.43  284.70   1
   1   8  -5 1741.56  585.82   1
   1   8   5 1177.22  349.46   1
   0   8  -5  206.82  325.91   1
   0   8   5 -140.47  436.11   1
  -1   8   5  585.59  411.80   1
  -1   8  -5 1094.19  385.75   1
  -2   8   5  -17.06  307.11   1
  -2   8  -5 -212.82  411.50   1
  -3  -8   5 -207.80  397.72   8
  -3   8  -5   26.68  141.21   1
  -3   8   5 -470.26  437.61   1
  -3   8   5  137.92  201.58   4
  -4  -8   5  398.91  441.36   8
  -4   8  -5 -218.98  295.09   1
  -4  -8   5   52.79  235.51   3
  -4   8   5   66.61  241.11   1
  -4   8   5  121.99  124.48   4
  -5  -8   5  537.40  426.46   8
  -5  -8  -5  300.93  317.65   2
  -5  -8   5 -222.44  302.73   3
  -5   8   5   72.71  430.15   1
  -5   8   5  176.18  214.63   4
  -6  -8  -5 3044.17  634.79   2
  -6  -8   5 3089.42  711.20   8
  -6   8   5 2745.22  704.60   1
  -6  -8   5 2381.98  500.23   3
  -6   8   5 2434.07  575.09   4
  -7   8   5 2741.87  742.22   4
   6  -9   5  909.51  517.41   6
   5  -9   5 1570.96  564.86   6
   5  -9   5  696.04  209.52   3
   4  -9   5  820.21  293.92   6
   4  -9   5 1148.75  361.51   3
   4   9   5 1161.79  417.98   1
   3   9   5 4303.19  732.48   1
   3  -9   5 4487.08  691.38   6
   3  -9   5 4723.34  724.04   3
   2   9  -5  354.77  202.38   1
   2   9   5  394.80  195.29   1
   2  -9   5 1002.42  353.50   6
   1   9  -513734.74 1370.02   1
   1   9   514644.85 1387.86   1
   0   9   5 5602.31  827.33   1
   0   9  -5 5910.53  889.96   1
  -1   9  -514242.10 1354.72   1
  -1   9   514006.09 1438.18   1
  -2   9   5  784.82  359.91   1
  -2   9  -5  321.07  223.57   1
  -3  -9   5 3611.29  492.16   8
  -3   9   5 4368.61  872.82   1
  -3   9  -5 4354.10  682.67   1
  -3   9   5 4002.18  568.23   4
  -4  -9   5 1243.25  347.39   8
  -4   9   5 1634.12  690.51   1
  -4  -9   5  973.35  376.93   3
  -4   9  -5  959.56  322.80   1
  -4   9   5 1122.35  364.57   4
  -5  -9  -5  546.67  139.05   2
  -5   9  -5  987.17  346.94   1
  -5   9   5 1305.16  631.51   1
  -5  -9   5 1104.41  559.03   8
  -5  -9   5  713.19  282.91   3
  -5   9   5  755.37  365.51   4
  -6   9   5  323.12  451.27   1
  -6  -9   5  445.52  211.12   8
  -6  -9   5   40.72  150.39   3
  -6   9   5  383.30  312.84   4
  -7   9   5 1925.05  538.86   4
   5 -10   5 1347.63  339.12   6
   4 -10   5 1522.78  513.90   6
   4 -10   5 1502.44  456.67   3
   4  10   5 1783.74  576.85   1
   3  10   5 3594.46  713.66   1
   3 -10   5 2864.71  582.18   6
   2  10   5 2891.19  564.55   1
   2  10  -5 2452.10  476.10   1
   1  10   5 1445.01  463.24   1
   1  10  -5 1638.88  534.11   1
   0  10   5 2269.10  465.69   1
   0  10  -5 2458.81  589.24   1
  -1  10   5 2140.80  709.97   1
  -1  10  -5 1297.42  415.78   1
  -2 -10   5 2878.00  432.22   8
  -2  10   5 3064.98  752.93   1
  -2  10  -5 2270.31  470.96   1
  -2  10   5 2739.28  433.64   4
  -3 -10   5 3565.43  648.74   8
  -3  10   5 4097.73 1051.39   1
  -3  10  -5 2721.61  586.45   1
  -3  10   5 3074.04  549.36   4
  -4  10   5 1250.74  442.74   1
  -4 -10   5  920.29  300.04   8
  -4  10  -5 1424.33  490.19   1
  -4  10   5 1196.51  286.46   4
  -5  10   5 1259.77  404.23   1
  -5 -10   5 2115.80  716.03   8
  -5  10  -5 1030.57  274.42   1
  -5 -10  -5 1199.76  507.42   2
  -5 -10   5 1652.66  481.31   3
  -5  10   5 1260.79  421.61   4
  -6  10   5  121.75  253.70   1
  -6  10   5  330.84  299.13   4
   4 -11   5 1246.76  380.07   6
   4 -11   5 1264.39  472.99   3
   4  11   5 1347.87  461.74   1
   3  11  -5   66.49  174.18   1
   3  11   5  -10.68  138.58   1
   2  11   5 3610.87  686.81   1
   2  11  -5 4381.15  878.16   1
   1  11   5  253.15  377.66   1
   1  11  -5  373.94  370.66   1
   0  11   5 5450.87 1014.34   1
   0  11  -5 4765.94  852.92   1
  -1 -11   5  251.90  304.01   8
  -1  11   5  372.38  353.83   1
  -1  11  -5  230.46  311.64   1
  -2 -11   5 3813.43  580.02   8
  -2  11   5 4121.85  933.22   1
  -2  11  -5 3510.29  664.61   1
  -3  11   5 -222.94  524.66   1
  -3 -11   5  699.55  475.39   8
  -3  11  -5   58.20  235.36   1
  -4  11   5 1017.72  460.77   1
  -4 -11   5 1335.06  479.19   8
  -4  11  -5 1348.65  558.22   1
  -5  11   5  307.23  443.70   1
  -5 -11   5   74.68  272.96   8
  -5 -11   5 -148.10  313.48   3
  -5  11  -5  210.01  233.55   1
  -6  11   5 3471.82 1029.06   1
   4  12   5  118.42  211.82   1
   4 -12   5 -298.15  395.62   3
   3  12  -5  645.62  368.53   1
   3  12   5  401.86  207.88   1
   2  12  -5 1747.12  678.07   1
   2  12   5  853.86  301.06   1
   1  12  -5 1069.71  401.43   1
   1  12   5 1436.54  559.26   1
   0  12   5 1113.28  514.95   1
   0  12  -5  793.53  332.81   1
  -1  12   5 1333.96  595.93   1
  -1  12  -5 1097.15  500.28   1
  -2  12   5  898.72  262.77   1
  -2 -12   5 1641.67  612.58   8
  -2  12  -5 1458.86  611.32   1
  -3  12   5  896.22  585.02   1
  -3 -12   5  -48.56  327.89   8
  -3  12  -5  526.59  324.61   1
  -4  12   5  770.15  508.45   1
  -4 -12   5 1116.60  526.44   8
  -4  12  -5  131.24  223.58   1
  -5 -12   5  249.97  237.93   3
  -5  12  -5  409.22  394.58   1
   4  13   5  560.78  503.52   1
   3  13   5 -106.09  302.33   1
   2  13   5  476.20  443.33   1
   2  13  -5  230.37  362.75   1
   1  13  -5 1689.10  730.35   1
   1  13   5 1708.35  666.57   1
   0  13  -5  485.05  466.66   1
   0  13   5  454.49  386.80   1
  -1  13  -5 1436.53  602.64   1
  -1  13   5 1374.09  664.60   1
  -2  13  -5  545.53  553.29   1
  -3 -13   5  155.54  429.94   8
  -4 -13   5  364.08  443.44   8
   8   0   6 6616.21  502.83   7
   7   0   6-1557.03 1028.26   7
   6   0   627095.70 2034.64   7
   6   0  -620924.53 1282.63   7
   5   0   6   16.48   92.32   3
   5   0   6 -683.68  528.72   7
   4   0   614391.58  978.37   3
   4   0   616435.33 1328.94   7
   3   0   6  -47.67  121.14   7
   3   0   6  320.20  214.53   3
   2   0   614135.88  983.18   3
   1   0   6  790.42  472.28   3
   0   0   640196.27 1701.32   3
  -1   0   6  -11.66  191.98   3
  -1   0   6 -147.88   75.69   6
  -2   0   613393.54  953.22   3
  -2   0  -613714.93  785.22   2
  -3   0  -6 -683.30  390.98   2
  -3   0   6  -67.28  131.72   3
  -4   0   613727.70 1003.17   3
  -4   0  -615521.18 1146.09   5
  -4   0  -616119.03 1115.54   2
  -5   0   6  553.53  360.59   3
  -5   0  -6  470.36  330.63   5
  -5   0  -6  350.17  308.55   2
  -5   0   6 -675.71  458.74   4
  -6   0   624459.43 1220.01   3
  -6   0   625907.03 1579.17   8
  -6   0  -629679.00 1878.82   5
  -6   0  -630860.35 1881.16   2
  -6   0   626189.28 1803.01   4
  -7   0   6  191.31  270.14   8
  -7   0  -6  791.41  525.96   2
  -7   0   6  326.55  405.06   4
  -8   0   6 7822.66  909.05   8
  -8   0  -610567.98 1304.91   2
  -8   0   6 8811.70 1291.10   4
  -9   0   6  387.85  277.33   8
   8  -1   6 -499.05  618.22   7
   8  -1  -6 -724.16  660.92   7
   7  -1   6  549.28  411.62   7
   7  -1  -6  101.22  198.18   7
   6  -1   6 3135.30  819.59   7
   6  -1  -6 3600.58  792.08   7
   5   1   6  287.86  149.88   3
   5  -1   6  453.06  249.92   3
   5  -1   6 1230.96  552.79   7
   5  -1  -6 1248.60  492.23   7
   4   1   6 1616.64  133.37   3
   4  -1   6 1554.94   96.68   3
   4  -1   6 2912.39  505.21   7
   4  -1  -6 2583.47  379.18   7
   3  -1  -6 1219.06  284.26   7
   3   1   6 1039.21  280.89   3
   3  -1   6 1360.69  376.09   3
   3  -1   6  951.58  229.44   7
   3   1  -6  896.16  176.24   2
   2   1   613176.99  952.68   3
   2  -1   612676.29  920.04   3
   2  -1   611987.44  639.67   7
   2  -1  -610448.82  391.46   7
   1   1   6 4357.02  704.03   3
   1  -1   6 3075.19  277.55   7
   1  -1   6 3809.06  606.07   3
   0   1   639447.88 1716.29   3
   0  -1   638973.36 1676.51   3
   0  -1   638393.31 1154.32   6
   0   1  -637231.31  934.57   2
  -1   1   6 2780.46  464.87   3
  -1  -1   6 3512.62  563.92   3
  -1  -1   6 4648.73  463.17   6
  -1   1  -6 3973.49  401.79   2
  -2   1   613041.26  956.49   3
  -2  -1   612698.06  941.35   3
  -2  -1  -612647.39  762.84   5
  -2   1  -612863.64  717.08   2
  -2  -1  -611515.03  734.03   2
  -3  -1  -6  329.48  278.96   2
  -3   1   6  928.27  321.19   3
  -3  -1   6 1353.02  392.72   3
  -3  -1  -6 1438.12  371.26   5
  -3   1  -6 1037.50  234.10   2
  -4  -1  -6 2056.04  298.58   2
  -4   1   6 1760.01  197.79   3
  -4  -1  -6 2485.82  459.32   5
  -4   1  -6 2623.62  448.02   2
  -5  -1  -6  587.43  281.27   2
  -5  -1   6  256.61  169.90   3
  -5   1   6  149.03  152.41   3
  -5  -1  -6  310.90  280.13   5
  -5   1  -6   73.54  184.64   2
  -5  -1   6   32.97  302.14   4
  -5   1   6  253.28  214.10   4
  -6  -1   6 2503.82  609.68   8
  -6   1   6 1974.20  425.63   8
  -6  -1   6 1208.27  221.07   3
  -6  -1  -6 2329.53  616.87   5
  -6   1  -6 2617.83  591.98   2
  -6  -1   6 3054.44  769.26   4
  -6   1   6 2455.51  601.27   4
  -6  -1  -6 2067.40  509.04   2
  -7  -1   6 1013.71  452.88   8
  -7   1   6  622.59  428.27   8
  -7  -1  -6  205.15  297.24   5
  -7   1  -6 1459.31  596.82   2
  -7  -1   6  923.91  566.56   4
  -7   1   6 1194.87  540.82   4
  -7  -1  -6  652.42  390.86   2
  -8  -1   6  824.11  436.70   8
  -8   1   6  335.00  152.08   8
  -8  -1  -6 1393.32  659.71   5
  -8   1  -6 1501.63  695.22   2
  -8  -1  -6  175.84  229.61   2
  -8  -1   6 1011.54  603.18   4
  -8   1   6 1149.57  580.10   4
  -9  -1   6  221.92  409.21   8
   8  -2   6 1523.49  733.91   7
   8  -2  -6  986.68  548.29   7
   7  -2   6 1842.92  619.87   7
   7  -2  -6 1974.19  574.18   7
   6  -2   6  679.02  421.83   7
   6  -2  -6  448.81  214.22   7
   5   2   6 1907.87  398.17   3
   5  -2   6 1838.16  355.53   3
   5  -2  -6 2157.93  379.51   7
   5  -2   6 3183.78  634.53   7
   4   2   6  923.90  316.71   3
   4  -2   6  942.96  311.83   3
   4  -2  -6  775.48  148.46   7
   4  -2   6 1185.72  319.28   7
   3   2  -6 1481.13  182.36   2
   3   2   6 1566.89  310.24   3
   3  -2   6 1457.40  281.53   7
   3  -2   6 1628.35  330.59   3
   2   2   6  615.41  172.21   3
   2  -2   6  822.94  212.06   3
   1   2   6 8713.15  791.91   3
   1  -2   6 8879.10  809.13   3
   1  -2   6 9292.00  673.36   6
   0   2   6  297.27  188.04   3
   0  -2   6  337.05   94.30   6
   0  -2  -6  647.92  161.16   5
   0   2  -6  424.31   62.20   2
  -1   2   6 8679.51  807.09   3
  -1  -2   6 8514.28  812.66   3
  -1  -2  -6 8840.30  494.99   7
  -1  -2   6 6709.71  286.11   7
  -1  -2   6 9814.46  697.98   6
  -1  -2  -6 8539.60  557.54   5
  -1   2  -6 8353.73  490.42   2
  -2   2   6  672.69  108.16   3
  -2  -2   6  542.19  201.47   3
  -2  -2  -6  908.05  186.46   5
  -2   2  -6  903.70  192.95   2
  -3  -2  -6 2267.04  495.13   2
  -3   2   6 1477.94  283.76   3
  -3  -2   6 1954.47  467.08   3
  -3  -2  -6 1626.31  374.48   5
  -3   2  -6 2009.62  375.07   2
  -4  -2  -6  743.52  120.39   2
  -4   2   6  357.46  290.14   3
  -4  -2   6 1025.81  296.91   3
  -4  -2  -6 1047.34  263.89   5
  -4   2  -6  935.41  255.99   2
  -5  -2  -6 1637.46  276.18   2
  -5   2   6 1911.15  415.53   3
  -5  -2   6 2164.98  435.27   3
  -5  -2  -6 2230.33  561.31   5
  -5   2  -6 2695.39  506.42   2
  -5  -2   6 2222.61  585.53   4
  -5   2   6 1878.64  422.46   4
  -6  -2  -6   42.24  278.16   2
  -6   2   6  566.41  327.49   8
  -6  -2   6  799.92  512.81   8
  -6  -2   6  -99.91  280.39   3
  -6  -2  -6  296.06  137.81   5
  -6   2  -6  886.48  384.44   2
  -6  -2   6  268.68  201.04   4
  -6   2   6  428.34  353.08   4
  -7  -2   6 1828.57  650.22   8
  -7   2   6 1884.70  540.60   8
  -7  -2  -6 1498.92  525.65   5
  -7  -2   6 1751.40  677.98   4
  -7   2   6 1698.73  658.08   4
  -7  -2  -6  967.35  351.01   2
  -8  -2   6  614.81  317.95   8
  -8  -2  -6  585.71  500.48   5
  -8  -2   6  411.82  397.67   4
  -8   2   6  815.34  508.27   4
  -8  -2  -6  412.63  188.54   2
   8  -3   6  736.31  643.62   7
   8  -3  -6 1453.20  630.33   7
   7  -3   6 1786.63  619.54   7
   7  -3  -6 1225.48  425.94   7
   6  -3  -6  459.92  235.31   7
   6  -3   6 1208.34  566.00   7
   5  -3   6  913.66  375.66   7
   5  -3  -6  331.36  144.59   7
   5  -3   6  456.27  154.57   3
   5   3   6  399.28  205.94   1
   4   3   6  154.60  246.09   3
   4  -3   6  229.13  114.44   7
   4  -3   6  516.63  270.66   3
   3   3   6  672.14  261.82   3
   3  -3   6  666.72  199.36   3
   2   3   6  -25.11  223.39   3
   2  -3   6 -354.88  270.96   3
   2  -3   6  138.96  201.19   6
   1   3   6  -27.54  273.30   3
   1  -3   6  394.93  136.65   3
   1  -3   6  438.90  198.48   6
   1  -3  -6  276.49   52.13   5
   0   3   6  544.50  133.87   3
   0  -3   6  353.43  255.69   3
   0  -3  -6  999.71  150.41   5
  -1   3   6  460.09  185.75   3
  -1  -3   6  390.64  195.82   3
  -1  -3   6  827.23  264.10   6
  -2   3   6 -153.01  278.82   3
  -2  -3   6   62.82  142.59   3
  -3   3   6  185.97  212.39   3
  -3  -3  -6 -207.42  398.37   2
  -3  -3   6   92.89  269.45   3
  -3  -3  -6  605.94  206.84   5
  -4   3   6  -53.45  223.98   3
  -4  -3   6  209.19  249.52   3
  -4  -3  -6 -215.46  236.20   5
  -5   3   6  123.80  114.36   3
  -5  -3  -6 -323.33  423.14   2
  -5  -3   6  539.62  222.61   3
  -5  -3  -6  379.82  133.13   5
  -5  -3   6  731.70  427.22   4
  -5   3   6  119.85  131.80   4
  -6  -3  -6  -72.86  237.35   2
  -6   3   6  284.82  219.16   8
  -6  -3   6  973.43  505.30   8
  -6  -3   6  320.41  242.40   3
  -6  -3  -6  529.78  365.24   5
  -6  -3   6  551.99  396.17   4
  -6   3   6  539.78  286.45   4
  -7  -3  -6 1120.15  437.63   2
  -7  -3   6 1290.67  598.98   8
  -7  -3  -6 1232.62  460.83   5
  -7  -3   6 1551.34  651.20   4
  -7   3   6 1712.52  662.20   4
  -8  -3   6  255.00  299.18   8
  -8  -3  -6  153.45  206.54   5
  -8  -3   6  102.86  224.30   4
  -8   3   6  289.54  398.79   4
  -8  -3  -6 -192.38  251.67   2
   8  -4  -6 1290.63  505.93   7
   8  -4   6 1506.90  635.00   7
   8  -4   6  759.95  395.03   6
   7  -4  -6  910.66  459.07   7
   7  -4   6  798.96  586.88   7
   7  -4   6  266.24  265.10   6
   6  -4  -6 3720.58  585.48   7
   6  -4   6 3976.61  674.97   7
   6  -4   6 3418.98  639.86   6
   5   4   6  291.07  228.68   1
   5  -4   6    1.61  115.89   3
   5  -4   6  246.10  205.35   6
   4   4   6 2507.63  463.86   1
   4  -4   6 2414.61  437.11   3
   4  -4   6 2651.65  442.77   6
   3   4   6  498.89  198.53   3
   3  -4   6  571.60  219.39   3
   3  -4   6  500.32  132.91   6
   2   4   6 5676.58  720.15   3
   2  -4   6 5388.88  594.52   6
   2  -4   6 5046.46  608.05   3
   1   4   6   72.85  159.96   3
   1  -4   6  590.56  319.73   6
   1  -4   6  259.62  238.95   3
   0   4   614288.76 1134.36   3
   0  -4   613768.01 1105.65   3
   0  -4   613912.01  911.36   6
  -1   4   6  298.35  186.35   3
  -1  -4   6 -154.93  204.15   3
  -2   4   6 5506.67  746.32   3
  -2  -4   6 2392.16  674.84   3
  -3   4   6  511.34  236.39   3
  -3  -4   6 -153.02  313.05   3
  -4   4   6 2944.31  549.79   3
  -4  -4   6 1381.32  559.74   3
  -5  -4   6 -190.73  440.83   8
  -5  -4  -6  -54.61  286.87   2
  -5  -4   6 -384.43  358.27   3
  -5  -4  -6 -490.20  468.80   5
  -5  -4   6 -110.02  171.66   4
  -5   4   6 -162.66  252.55   4
  -6  -4  -6 3363.36  534.20   2
  -6  -4   6 4147.81  863.53   8
  -6   4   6 3166.90  419.45   8
  -6   4   6 2976.09  646.21   1
  -6  -4   6 3550.87  555.24   3
  -6  -4  -6 3820.27  724.41   5
  -6  -4   6 3598.62  702.07   4
  -6   4   6 3123.07  601.02   4
  -7  -4  -6  143.17  233.65   2
  -7  -4   6  752.63  557.49   8
  -7  -4  -6  275.52  268.80   5
  -7  -4   6  328.34  478.79   4
  -7   4   6  262.19  254.33   4
  -8  -4   6  782.24  228.44   8
  -8  -4   6  834.73  460.50   4
  -9  -4   6  360.43  404.48   4
   8  -5  -6 3060.31  721.52   7
   8  -5   6 3091.04  721.66   7
   7  -5  -6 2505.67  600.85   7
   7  -5   6 2560.52  657.01   7
   7  -5   6 3175.50  745.29   6
   6  -5   6 7154.13  905.64   6
   6  -5   6 7858.47  960.27   7
   5  -5   6 1572.59  329.59   3
   5  -5   6 2054.88  530.02   6
   5   5   6 1965.54  492.06   1
   4   5   6 4776.51  678.49   1
   4  -5   6 5781.65  788.03   6
   4  -5   6 4442.91  544.04   3
   3   5   6 1326.04  347.78   1
   3  -5   6 1393.19  301.09   3
   3  -5   6 1504.25  357.39   6
   2   5   610529.32 1035.92   3
   2  -5   6 9191.47  842.41   3
   2  -5   610205.72  862.86   6
   2   5   6 9023.03  852.69   1
   1   5   6 3634.57  654.21   3
   1  -5   6 3616.07  545.10   6
   1  -5   6 3559.65  605.71   3
   1  -5   6 3651.65  469.27   2
   0   5   626142.96 1653.38   3
   0  -5   625130.26 1541.90   3
   0  -5   628532.41 1549.40   6
  -1   5   6 3191.18  539.60   3
  -1  -5   6 2213.36  655.05   3
  -2   5   610380.72 1090.01   3
  -2  -5   6 4548.52  971.78   3
  -3   5   6 1390.55  428.36   3
  -3  -5   6  627.34  280.73   3
  -4  -5  -6 5088.66  690.77   2
  -4  -5   6 5487.70  829.84   3
  -4   5   6 5008.01  854.67   1
  -5  -5  -6 2236.98  497.27   2
  -5  -5   6  748.71  301.73   8
  -5  -5   6 1872.74  518.45   3
  -5  -5   6 1974.09  503.95   4
  -5   5   6 1206.83  280.86   4
  -5   5   6 2032.46  662.51   1
  -6   5   6 6078.69  823.63   1
  -6  -5  -6 6055.44  612.22   2
  -6  -5   6 8171.77 1179.23   8
  -6  -5   6 7018.38  869.07   3
  -6  -5   6 6511.32  885.77   4
  -6   5   6 6070.23  790.57   4
  -7  -5  -6 2136.35  496.93   2
  -7  -5   6 2327.50  739.80   8
  -7  -5  -6 2938.63  737.59   5
  -7  -5   6 2309.89  644.90   4
  -7   5   6 1877.74  540.91   4
   8  -6  -6  815.23  463.49   7
   7  -6  -6 2071.65  600.16   7
   7  -6   6 2071.29  571.30   7
   7  -6   6 1912.67  622.86   6
   6  -6   6  950.07  480.03   6
   5  -6   6 2106.08  240.65   3
   5  -6   6 3028.53  498.51   6
   4  -6   6    8.97  275.04   3
   4   6   6  114.74  130.34   1
   3   6   6 4429.00  620.55   1
   3  -6   6 5420.58  717.57   6
   3  -6   6 4687.68  577.39   3
   2   6   6 1443.89  275.73   1
   2  -6   6 1546.21  315.86   3
   1  -6   610170.18  920.06   3
   1  -6   611252.41  953.41   6
   1   6   6 9789.82  971.51   1
   0   6   6 5824.96  671.18   1
   0  -6   6 7148.34  754.10   6
   0  -6   6 7108.77  799.54   3
  -1  -6   6 6006.85 1126.83   3
  -1   6   6 9235.16 1047.84   1
  -2   6   6 1362.67  236.73   1
  -2  -6   6  622.85  384.80   3
  -3   6   6 4877.84  863.13   1
  -3  -6   6 2805.44  840.47   3
  -4   6   6  505.70  264.23   4
  -4   6   6  169.91  258.98   1
  -4  -6   6  235.03  312.76   3
  -5  -6  -6 3692.21  660.71   2
  -5  -6   6 2869.48  656.38   8
  -5  -6   6 3682.75  743.07   3
  -5   6   6 2717.00  569.29   1
  -5  -6   6 3519.60  641.32   4
  -5   6   6 2368.50  434.42   4
  -6  -6  -6 -318.56  475.22   2
  -6  -6   6 1952.13  814.35   8
  -6   6   6  354.29  200.86   1
  -6  -6   6  925.89  390.04   3
  -6  -6   6  968.25  423.84   4
  -6   6   6 1100.41  494.97   4
  -7  -6  -6  435.35  423.71   2
  -7  -6   6 1839.23  614.30   8
  -7   6   6 2104.61  676.47   4
   7  -7   6 2650.26  634.70   6
   6  -7   6  165.58  203.46   6
   5  -7   6 2566.93  437.45   3
   5  -7   6 3829.98  722.85   6
   4   7   6   92.86  251.31   1
   4  -7   6  234.98  204.79   6
   4  -7   6  -56.81  276.71   3
   3  -7   6 4460.92  677.93   6
   3  -7   6 4072.92  618.38   3
   3   7   6 4258.86  682.07   1
   2   7   6  -18.97  213.93   1
   2  -7   6  592.93  327.20   6
   2  -7   6  176.60  214.64   3
   1  -7   6 9496.23  925.43   3
   1  -7   611142.88 1021.53   6
   1   7   610051.68 1088.61   1
   0  -7   6 1812.58  408.07   3
   0   7   6 1941.20  537.96   1
  -1  -7   6 4673.38 1034.66   3
  -1   7   610522.54 1228.94   1
  -2   7   6  -49.80  383.61   1
  -2  -7   6 -558.52  445.51   3
  -3  -7   6 2636.05  779.88   3
  -3   7   6 4722.59  957.10   1
  -4  -7   6  -42.41  238.33   8
  -4  -7   6 -340.43  304.36   3
  -4   7   6 -108.02  421.37   1
  -4  -7   6  134.98  234.68   4
  -4   7   6  103.85  177.32   4
  -5  -7  -6 2738.33  504.99   2
  -5  -7   6 3329.88  775.54   8
  -5   7   6 2170.87  529.09   1
  -5  -7   6 2775.25  591.78   3
  -5   7   6 2585.58  505.65   4
  -6  -7  -6  388.33  325.72   2
  -6  -7   6  413.68  328.15   8
  -6  -7   6   97.67  194.46   3
  -6   7   6  -23.52  253.12   4
  -6   7   6  223.95  357.36   1
  -7  -7   6 2223.05  992.07   8
  -7   7   6 2291.57  640.97   4
   6  -8   6 1462.16  619.11   6
   5  -8   6  346.22  326.65   3
   5  -8   6  534.87  415.12   6
   4   8   6  222.46  162.04   1
   4  -8   6  271.35  138.63   6
   4  -8   6   16.04  222.31   3
   3  -8   6  -92.24  236.65   6
   3   8   6 -237.86  363.11   1
   3  -8   6 -102.28  218.79   3
   2  -8   6  512.21  282.95   6
   2  -8   6  359.72  248.40   3
   2   8   6  145.29  188.01   1
   1   8   6  734.08  183.88   1
   1  -8   6  947.89  195.27   6
   1  -8   6  636.74  170.07   3
   0   8   6 -150.05  294.80   1
   0  -8   6  -46.60  175.47   3
  -1   8   6  712.56  194.77   1
  -1  -8   6  -68.73  303.44   3
  -2   8   6   72.39  183.24   1
  -2  -8   6  176.60  162.52   3
  -3   8   6  364.59  382.93   1
  -3  -8   6 -256.63  350.78   3
  -4   8   6  103.78  279.31   1
  -4  -8   6  181.24  298.03   8
  -4  -8   6   48.21  300.44   3
  -4   8   6  192.96  109.09   4
  -5  -8   6 1046.83  692.63   8
  -5  -8   6  263.12  356.10   3
  -5   8   6  254.94  210.07   1
  -5   8   6  102.82  213.97   4
  -6  -8  -6 1257.89  494.20   2
  -6  -8   6 1369.33  791.89   8
  -6  -8   6 1055.28  445.48   3
  -6   8   6 1001.92  475.82   1
  -6   8   6 1159.07  553.86   4
   5  -9   6   72.31  165.78   3
   5  -9   6  284.29  430.73   6
   4   9   6 1565.65  493.27   1
   4  -9   6 1671.86  473.97   6
   4  -9   6 1465.98  458.26   3
   3   9   6   39.46  184.38   1
   3  -9   6  127.88  180.71   6
   3  -9   6 -141.76  355.31   3
   2   9   6 1661.91  448.10   1
   2  -9   6 2169.86  466.42   6
   2  -9   6 1587.46  435.64   3
   1  -9   6  266.57  253.46   3
   1   9   6   96.60  186.80   1
   0  -9   6 4257.34  810.29   3
   0   9   6 4042.87  835.56   1
  -1   9  -6  603.89  463.27   1
  -1  -9   6   34.49  163.51   3
  -1   9   6  151.41  238.26   1
  -2   9  -6 2128.25  600.03   1
  -2  -9   6 2604.78  761.96   3
  -2   9   6 2347.03  715.59   1
  -3  -9   6   36.94  227.18   8
  -3  -9   6 -345.30  357.38   3
  -3   9   6  237.81  364.32   1
  -3   9   6  380.69  196.89   4
  -4  -9   6  599.73  468.62   8
  -4  -9   6 1112.12  541.05   3
  -4   9   6  938.46  345.28   1
  -4   9   6 1275.70  368.25   4
  -5  -9   6    3.29  346.93   8
  -5  -9  -6  478.86  343.88   2
  -5  -9   6 -362.57  302.54   3
  -5   9   6  518.10  601.47   1
  -5   9   6  562.87  405.13   4
  -6   9   6 2185.79  793.18   1
  -6   9   6 2038.46  539.76   4
   5 -10   6  987.12  554.37   6
   4 -10   6  589.09  266.39   6
   4 -10   6  251.93  194.94   3
   4  10   6  353.76  342.05   1
   3  10   6 1729.59  531.04   1
   3 -10   6 1675.71  469.88   6
   3 -10   6 1449.82  403.70   3
   2  10   6 2069.96  671.86   1
   2 -10   6 1823.35  541.41   3
   1  10   6 5241.32  907.28   1
   1 -10   6 5047.43  834.10   3
   0  10  -6 3508.52  769.52   1
   0  10   6 3336.83  778.86   1
   0 -10   6 4097.76  921.35   3
  -1  10  -6 5297.30  907.84   1
  -1  10   6 5203.87  995.30   1
  -1 -10   6 5205.50  915.47   3
  -2  10  -6 1448.55  487.92   1
  -2  10   6 2245.55  762.66   1
  -2 -10   6 2433.28  792.69   3
  -3  10  -6 1579.78  504.96   1
  -3 -10   6 1650.97  425.70   8
  -3  10   6 2002.05  781.54   1
  -3 -10   6 1589.82  535.55   3
  -3  10   6 1673.11  486.11   4
  -4 -10   6  706.93  494.22   8
  -4  10   6  216.74  369.28   1
  -4 -10   6  762.58  587.10   3
  -4  10   6   35.85  280.80   4
  -5 -10   6  412.12  523.06   8
  -5  10   6  714.17  500.49   1
  -5 -10   6 -191.36  325.48   3
  -5  10   6  591.68  354.04   4
  -6  10   6  556.09  411.06   1
  -6  10   6  404.95  573.82   4
   4 -11   6 -551.63  455.41   6
   4 -11   6  482.77  312.17   3
   4  11   6    1.62  367.86   1
   3  11   6 2263.17  654.91   1
   3 -11   6 1800.41  498.29   3
   2  11   6  383.95  444.43   1
   2 -11   6 -150.81  343.58   3
   1  11   6 4151.31  804.23   1
   1  11  -6 4521.41  933.69   1
   1 -11   6 4800.02  929.67   3
   0  11  -6  434.08  441.83   1
   0  11   6  783.69  568.53   1
  -1  11  -6 4454.21  890.48   1
  -1  11   6 4798.46 1041.11   1
  -2 -11   6  235.59  316.52   8
  -2  11  -6  390.37  457.25   1
  -2  11   6  396.99  418.59   1
  -2 -11   6  389.83  318.15   3
  -3 -11   6 1859.03  457.41   8
  -3  11  -6 2059.08  631.15   1
  -3  11   6 2287.48  809.35   1
  -3 -11   6 1656.82  498.30   3
  -4 -11   6  173.05  246.58   8
  -4  11  -6   10.20  196.43   1
  -4  11   6  232.73  258.33   1
  -4 -11   6 -312.50  370.58   3
  -5  11   6 3581.18 1007.28   1
  -5 -11   6 1755.47  750.22   3
   4 -12   6  483.53  383.74   3
   4  12   6  366.49  287.47   1
   3 -12   6  732.57  457.82   3
   3  12   6  653.79  413.95   1
   2  12   6  351.57  270.78   1
   2 -12   6  829.17  449.68   3
   1  12   6 2966.26  835.69   1
   1  12  -6 3026.14  856.22   1
   0  12   6  835.51  532.53   1
   0  12  -6 1082.32  537.48   1
  -1  12   6 2722.46  750.64   1
  -1  12  -6 2998.98  771.87   1
  -2  12   6  518.21  442.68   1
  -2 -12   6  608.37  400.37   8
  -2  12  -6  461.78  234.79   1
  -3  12   6  711.63  502.85   1
  -3 -12   6  998.53  545.48   8
  -3  12  -6  845.93  488.91   1
  -3 -12   6 1031.59  565.98   3
  -4 -12   6   35.88  263.02   8
  -4  12  -6  532.55  344.82   1
  -3 -13   6 -124.37  350.05   8
   5   0   7 9352.35  944.39   3
   5   0   7 8067.02  999.57   7
   4   0   7   69.55  190.68   3
   4   0   7  -52.27  396.41   7
   3   0   7 7935.03  771.61   3
   2   0   7 -446.91  278.04   3
   1   0   721301.58 1384.03   3
   0   0   7  417.17  337.05   3
  -1   0   720619.49 1355.13   3
  -1   0   719884.59  736.47   6
  -1   0  -721884.18 1068.57   2
  -2   0  -7  448.62  263.00   2
  -2   0   7 -170.79  285.24   3
  -3   0   7 8803.16  900.78   3
  -3   0  -7 7892.78  650.49   2
  -4   0  -7  327.29  240.22   2
  -4   0   7 -109.71  128.25   3
  -5   0   7 8356.97  887.05   3
  -5   0  -710274.40 1039.70   2
  -6   0   7  -32.93  239.60   8
  -6   0  -7  201.58  230.06   2
  -6   0   7 -157.00  263.27   4
  -7   0   7 1601.29  534.85   8
  -7   0  -7 1261.38  453.90   2
  -7   0   7 1681.07  600.82   4
  -8   0   7  851.64  548.48   8
  -8   0  -7  743.22  543.89   2
  -8   0   7  350.52  500.83   4
   8  -1   7 -491.16  962.18   7
   7  -1   7 -938.65  830.13   7
   6  -1   7  178.51  275.14   7
   5   1   7 1818.97  531.14   3
   5  -1   7  913.64  249.95   3
   5  -1   7 1634.72  594.83   7
   5  -1  -7  810.49  256.97   7
   4   1   7 1598.13  377.09   3
   4  -1   7 1306.01  259.45   3
   4  -1   7 1773.53  477.48   7
   3   1   7   59.69  145.75   3
   3  -1   7  121.44  134.18   3
   3  -1   7  369.43  306.41   7
   2  -1   7  224.65  155.34   3
   2  -1   7  337.76  128.62   7
   1   1   7  448.28  300.94   3
   1  -1   7 1553.64  587.33   3
   0   1  -7 1356.49  198.13   2
   0   1   7 1422.67  218.35   3
   0  -1   7 1712.07  262.60   3
   0  -1   7 1456.53  179.89   6
  -1   1  -7  -11.10  233.99   2
  -1   1   7 1036.44  486.89   3
  -1  -1   7 1536.19  539.02   3
  -1  -1   7 1811.13  417.93   6
  -1  -1   7  501.66  129.99   5
  -2   1  -7  547.17  157.41   2
  -2  -1  -7 1025.40  343.88   2
  -2   1   7  496.60  232.94   3
  -2  -1   7  578.65  311.29   3
  -3  -1  -7 -332.83  241.51   2
  -3   1   7  241.34  225.66   3
  -3  -1   7  691.37  386.60   3
  -3  -1  -7  488.18  313.15   5
  -3   1  -7  588.05  298.58   2
  -4  -1  -7 1052.58  113.59   2
  -4   1   7 1331.06  285.03   3
  -4  -1   7 1281.35  293.34   3
  -4  -1  -7 1215.06  294.01   5
  -4   1  -7 1905.04  392.73   2
  -5  -1  -7 1218.02  349.75   2
  -5   1   7  793.95  245.32   3
  -5  -1   7  531.58  177.45   3
  -5  -1  -7 2188.16  638.53   5
  -5   1  -7 2085.34  585.29   2
  -6   1   7   72.14  231.32   8
  -6  -1   7  784.52  428.59   8
  -6  -1  -7  717.76  376.40   5
  -6   1  -7  751.82  319.11   2
  -6  -1   7  679.48  340.60   4
  -6   1   7  735.38  402.94   4
  -6  -1  -7  703.46  336.57   2
  -7   1   7  392.68  404.23   8
  -7  -1   7 1108.80  563.66   8
  -7  -1  -7  567.51  421.62   5
  -7   1  -7  533.30  390.61   2
  -7  -1   7  360.53  451.79   4
  -7  -1  -7  576.33  369.30   2
  -7   1   7  400.11  352.06   4
  -8  -1   7 1982.81  608.23   8
  -8   1   7 1249.99  430.16   8
  -8   1  -7 2101.18  692.26   2
  -8  -1  -7 1296.06  394.16   2
  -8  -1   7 1299.97  518.12   4
  -8   1   7 1988.68  722.45   4
   8  -2   7  469.55  284.40   7
   7  -2   7 1079.14  576.14   7
   6  -2   7 1966.98  690.97   7
   5   2   7   35.48  193.91   3
   5  -2   7  424.34  356.98   7
   5  -2  -7  623.65  313.49   7
   4   2   7 5719.81  740.18   3
   4  -2   7 5152.36  652.00   3
   4  -2  -7 5119.78  432.22   7
   4  -2   7 6343.97  752.50   7
   3   2   7 -178.70  253.88   3
   3  -2   7 -132.23  143.61   3
   3  -2  -7  213.05  149.39   7
   3  -2   7  113.02  234.44   7
   2   2   7 4905.26  635.98   3
   2  -2  -7 3609.28  196.58   7
   2  -2   7 5118.54  490.12   7
   2  -2   7 4636.91  611.09   3
   1   2   7  570.28  367.92   3
   1  -2   7  346.44  173.40   7
   1  -2   7  813.45  470.96   3
   1  -2   7  718.31  337.53   6
   0   2   715492.65 1182.81   3
   0  -2   715523.80 1183.39   3
   0  -2   715892.00  847.91   6
  -1   2   7  -78.34  162.98   3
  -1  -2   7  720.60  425.54   3
  -1  -2   7  714.62  350.03   6
  -1  -2  -7  749.27  287.45   5
  -1   2  -7  329.74  195.16   2
  -2   2   7 4602.69  622.02   3
  -2  -2  -7 2744.28  227.26   2
  -2  -2   7 4628.71  666.09   3
  -2  -2  -7 4602.63  512.17   5
  -2   2  -7 4802.95  507.27   2
  -3   2   7 -335.71  217.21   3
  -3  -2   7  148.87  245.73   3
  -3  -2  -7 -112.72  116.11   5
  -3   2  -7  259.39  258.51   2
  -4  -2  -7 4710.53  485.07   2
  -4   2   7 5132.21  638.80   3
  -4  -2   7 5576.39  767.72   3
  -4  -2  -7 6119.62  799.60   5
  -4   2  -7 5847.69  674.14   2
  -5  -2  -7 -719.80  447.45   2
  -5   2   7 -364.35  366.13   3
  -5  -2   7  171.66  261.85   3
  -5  -2  -7  251.00  323.92   5
  -5   2  -7 -213.51  251.15   2
  -6  -2  -7 1205.56  380.00   2
  -6   2   7 1169.46  360.40   8
  -6  -2   7 1497.71  556.57   8
  -6  -2   7 1304.57  389.61   3
  -6  -2  -7 1407.97  522.90   5
  -6   2  -7 1245.37  419.09   2
  -6  -2   7 1657.05  522.53   4
  -6   2   7 1464.30  500.83   4
  -7   2   7   67.13  287.22   8
  -7  -2   7  149.33  312.64   8
  -7  -2  -7   66.64  132.93   5
  -7  -2   7  101.69  256.32   4
  -7   2   7  156.25  208.73   4
  -7  -2  -7  145.18  158.07   2
  -8  -2   7  832.92  626.60   8
  -8  -2   7 1286.93  828.21   4
   8  -3   7 1272.02  700.99   7
   7  -3   7  914.72  602.42   7
   6  -3   7 1638.64  611.14   7
   5   3   7  399.15  165.17   3
   5  -3   7  775.87  323.46   3
   5  -3  -7  323.31  113.34   7
   4   3   7 1731.91  434.74   3
   4  -3  -7 1554.77  242.18   7
   4  -3   7 2197.96  468.48   7
   4  -3   7 1359.14  256.70   3
   3   3   7  608.20  290.63   3
   3  -3   7  795.24  328.37   3
   3  -3   7  716.03  259.77   6
   2   3   7  732.15  231.80   3
   2  -3   7 1127.94  337.37   3
   2  -3   7  791.30  230.59   6
   1   3   7 2628.18  562.17   3
   1  -3   7 2823.44  602.96   3
   1  -3   7 2501.59  421.51   6
   0   3   7 8076.17  889.60   3
   0  -3   7 7809.40  896.55   3
   0  -3   7 9071.36  777.13   6
   0  -3  -7 7241.15  457.44   5
  -1   3   7 2355.30  460.78   3
  -1  -3  -7 1968.78  304.38   7
  -1  -3   7 2515.67  522.06   3
  -1  -3   7 3070.44  505.91   6
  -1  -3  -7 2262.17  337.52   5
  -2   3   7  958.89  179.32   3
  -2  -3   7 1257.74  367.81   3
  -2  -3  -7 1117.82  295.94   5
  -3   3   7  368.14  124.43   3
  -3  -3   7  215.42  125.73   3
  -3  -3  -7  605.33  235.06   5
  -4   3   7 1930.33  475.30   3
  -4  -3  -7 2458.18  508.09   2
  -4  -3   7 1678.44  417.90   3
  -4  -3  -7 1742.28  411.28   5
  -5   3   7  571.20  310.88   4
  -5   3   7  952.82  407.94   3
  -5  -3   7  508.19  357.29   3
  -5  -3  -7  661.16  249.04   5
  -6  -3  -7 -158.93  343.45   2
  -6   3   7  673.10  272.61   8
  -6  -3   7  364.86  192.01   8
  -6  -3   7  371.85  141.11   3
  -6  -3  -7  451.27  155.32   5
  -6  -3   7  776.77  480.04   4
  -6   3   7  587.15  371.19   4
  -7  -3  -7    9.62  207.77   2
  -7  -3   7  288.28  442.86   8
  -7  -3  -7  176.40  241.91   5
  -7  -3   7  734.85  563.25   4
  -7   3   7  623.16  506.50   4
  -8  -3   7  928.98  599.94   8
  -8  -3   7  420.78  485.35   4
   8  -4   7  405.20  451.08   7
   7  -4   7 2435.04  702.67   7
   7  -4   7 1566.47  563.67   6
   6  -4   7 1227.26  594.32   7
   6  -4   7  438.60  320.50   6
   5  -4  -7 4295.89  533.86   7
   5  -4   7 4710.49  666.26   7
   5  -4   7 3952.16  568.09   3
   5  -4   7 4876.62  777.41   6
   4   4   7 1646.48  546.53   3
   4   4   7  903.37  279.71   1
   4  -4   7 1168.53  346.60   3
   4  -4   7 1505.57  483.86   6
   3   4   7 2510.56  504.45   3
   3  -4   7 2010.63  423.29   3
   3  -4   7 2371.13  468.75   6
   2   4   7 1627.35  372.04   3
   2  -4   7 1480.40  383.00   3
   2  -4   7 1839.66  383.91   6
   1   4   7 2496.80  515.68   3
   1  -4   7 2874.58  574.01   3
   1  -4   7 2954.49  484.28   6
   1  -4  -7 1833.70  157.27   5
   0   4   7 4598.10  609.68   3
   0  -4   7 5479.22  801.16   3
   0  -4   7 5272.53  612.40   6
   0  -4  -7 4571.68  393.52   5
  -1   4   7 1873.11  366.52   3
  -1  -4   7 2991.66  604.22   3
  -2   4   7 1341.24  321.90   3
  -2  -4   7  793.34  482.35   3
  -3   4   7 2688.17  575.50   3
  -3  -4   7 2094.08  465.37   3
  -3  -4  -7 2236.67  434.43   5
  -4   4   7 1238.62  357.62   3
  -4  -4   7 1004.48  280.55   3
  -4  -4  -7 1332.73  471.07   5
  -5   4   7 3626.18  541.90   4
  -5   4   7 4460.69  699.89   3
  -5  -4  -7 3983.78  536.53   2
  -5  -4   7 4781.00  759.23   3
  -5  -4  -7 5029.00  811.23   5
  -5  -4   7 4966.11  856.24   4
  -6   4   7  157.94  245.52   1
  -6  -4   7  177.09  271.22   8
  -6  -4   7  256.62  206.60   3
  -6  -4  -7  365.69  264.19   5
  -6  -4   7 -160.78  350.34   4
  -6   4   7 -163.05  339.45   4
  -7  -4  -7  452.08  224.90   2
  -7  -4   7 1772.24  716.51   8
  -7  -4  -7 1656.29  530.37   5
  -7  -4   7 1549.47  645.60   4
  -7   4   7 1297.68  420.71   4
  -8  -4   7  177.10  214.21   4
   7  -5   7 2500.70  737.26   7
   7  -5   7 2439.25  720.64   6
   6  -5   7  383.14  311.42   7
   6  -5   7  405.99  359.95   6
   5  -5   7 5330.05  705.38   3
   5  -5   7 6568.72  920.62   6
   4  -5   7  604.22  301.47   3
   4  -5   7  712.83  443.19   6
   4   5   7  334.57  306.90   1
   3   5   7 4252.67  649.59   3
   3   5   7 4755.19  715.36   1
   3  -5   7 4103.85  524.51   3
   3  -5   7 4463.43  620.17   6
   2   5   7  889.19  384.76   3
   2  -5   7  466.45  114.06   3
   2  -5   7 1074.42  329.80   6
   1   5   7 9178.47 1087.19   3
   1  -5   7 8138.65  910.17   3
   1  -5   7 8337.37  775.22   6
   0   5   7 2619.48  560.63   3
   0  -5   7 3243.86  630.79   3
   0  -5   7 3703.58  591.20   6
  -1   5   7 8948.17 1093.34   3
  -1  -5   7 3427.92  880.25   3
  -2   5   7 1073.59  393.63   3
  -2  -5   7  134.02  211.90   3
  -3   5   7 4422.12  656.68   3
  -3  -5   7 2531.21  786.45   3
  -4   5   7  605.57  412.88   3
  -4  -5   7   97.70  250.01   3
  -5   5   7 5513.85 1024.89   1
  -5  -5   7 5320.11  782.02   3
  -5  -5  -7 5995.98  863.38   5
  -5  -5  -7 6281.13  796.61   2
  -5  -5   7 5424.52  840.20   4
  -5   5   7 5072.57  686.17   4
  -6  -5  -7 -517.56  361.56   2
  -6  -5   7  -24.28  347.45   8
  -6  -5   7  687.72  406.32   3
  -6   5   7  204.31  326.34   1
  -6  -5  -7  -11.72  153.88   5
  -6  -5   7  618.69  491.09   4
  -6   5   7  160.66  138.40   4
  -7  -5  -7  925.42  105.40   2
  -7  -5  -7 1114.85  568.20   5
  -7  -5   7 2009.73  741.38   4
  -7   5   7 1351.62  478.70   4
   7  -6   7  421.36  393.81   7
   6  -6   7  385.35  420.30   6
   5  -6   7  414.98  266.29   3
   5  -6   7  295.36  295.45   6
   4   6   7 1568.49  441.12   1
   4  -6   7  838.92  223.16   3
   4  -6   7 1510.75  439.12   6
   3  -6   7  211.95  137.93   3
   3  -6   7  577.43  279.20   6
   3   6   7  385.96  271.67   1
   2  -6   7 1038.90  421.02   3
   2  -6   7  810.64  229.06   6
   2   6   7 1352.03  517.52   1
   1  -6   7 1735.09  394.09   3
   1  -6   7 2507.78  493.90   6
   1   6   7 1909.67  520.96   1
   0   6   7 2780.96  531.67   3
   0  -6   7 2943.34  567.71   3
   0  -6   7 2907.61  426.62   6
   0   6   7 3109.59  709.95   1
  -1   6   7 2406.09  670.77   3
  -1  -6   7 1018.40  503.45   3
  -1   6   7 1798.97  621.35   1
  -2   6   7 1327.15  599.03   1
  -2  -6   7  239.61  350.94   3
  -3   6   7  673.84  452.54   1
  -3  -6   7 -331.33  401.30   3
  -4   6   7 1367.05  538.24   1
  -4  -6  -7  351.76  273.33   2
  -4  -6   7 1611.41  560.85   3
  -5   6   7  245.12  341.73   1
  -5  -6   7  139.70  341.19   8
  -5  -6   7  610.54  392.36   3
  -5  -6   7  556.21  362.00   4
  -5   6   7  109.52  206.19   4
  -6  -6  -7  122.67  110.44   2
  -6  -6   7  227.02  456.74   8
  -6  -6   7  284.06  255.51   3
  -6  -6  -7  937.86  504.16   5
  -6   6   7  337.18  301.71   1
  -6   6   7  321.56  303.55   4
  -7  -6  -7  380.21  318.43   5
  -7   6   7  618.73  412.74   4
   7  -7   7  786.58  513.35   7
   6  -7   7  643.06  326.88   6
   5  -7   7   95.93  222.94   3
   5  -7   7  791.04  431.89   6
   4  -7   7 1793.86  454.23   3
   4  -7   7 2634.58  630.09   6
   4   7   7 1721.48  343.31   1
   3   7   7  438.34  307.22   1
   3  -7   7  294.49  237.46   3
   3  -7   7  486.85  281.94   6
   2  -7   7 1007.16  269.03   3
   2   7   7  792.51  226.95   1
   1   7   7  867.98  425.06   1
   1  -7   7 1011.02  326.47   3
   1  -7   7  749.11  245.05   6
   0   7   7 3805.98  695.58   1
   0  -7   7 4420.67  754.21   3
  -1  -7   7  833.03  555.72   3
  -1   7   7  444.33  176.21   1
  -2  -7   7  965.43  506.98   3
  -2   7   7 1573.43  563.72   1
  -3   7   7  255.20  197.07   1
  -3  -7   7  418.29  408.68   3
  -4   7   7 1860.05  400.66   4
  -4   7   7 2081.00  681.81   1
  -4  -7   7 1153.30  649.49   3
  -5  -7   7  -93.39  333.50   8
  -5  -7   7  110.48  299.96   3
  -5   7   7  511.88  509.11   1
  -5   7   7  -94.48  270.77   4
  -6  -7  -7  147.29  360.37   2
  -6   7   7  343.37  237.48   1
  -6  -7   7  915.02  623.83   8
  -6   7   7  802.96  427.95   4
   5  -8   7  854.74  303.78   3
   5  -8   7 1790.81  612.85   6
   4   8   7  316.79  411.55   1
   4  -8   7 -241.81  329.88   3
   4  -8   7  387.23  335.65   6
   3  -8   7   -4.03  194.01   3
   3  -8   7  248.44  168.06   6
   3   8   7   26.18  214.02   1
   2   8   7 -440.11  459.04   1
   2  -8   7    2.21  217.12   6
   2  -8   7 -438.23  416.55   3
   1   8   7  603.16  293.52   1
   1  -8   7  896.21  403.98   3
   1  -8   7 1177.82  459.35   6
   0  -8   7  -11.71  211.38   3
   0   8   7  -67.52  280.20   1
  -1  -8   7  307.20  379.75   3
  -1   8   7  693.36  346.73   1
  -2  -8   7  752.93  493.73   3
  -2   8   7   72.81  253.12   1
  -3  -8   7  -25.91  345.74   3
  -3   8   7  162.68  226.84   1
  -4  -8   7 -219.07  303.33   8
  -4   8   7 -400.70  475.91   1
  -4  -8   7  -83.04  212.70   3
  -4   8   7  196.64  205.02   4
  -5   8   7  248.34  467.12   1
  -5  -8  -7 1314.33  543.65   2
  -5  -8   7  941.04  287.50   8
  -5  -8   7 1241.16  494.40   3
  -5   8   7  625.41  310.68   4
  -6   8   7  388.59  215.28   1
  -6   8   7   14.34  264.94   4
   5  -9   7 3432.28  726.66   6
   4   9   7   10.32  302.50   1
   4  -9   7  698.35  410.83   3
   4  -9   7  -47.76  187.92   6
   3   9   7 3917.01  788.57   1
   3  -9   7 4150.41  691.52   6
   3  -9   7 3831.71  633.09   3
   2  -9   7   -8.23  275.36   6
   2  -9   7  141.02  236.11   3
   2   9   7  -81.42  176.70   1
   1   9   7 5720.01  940.36   1
   1  -9   7 5807.84  818.84   3
   0   9   7  771.63  580.72   1
   0  -9   7  548.25  429.63   3
  -1   9   7 5610.40  953.76   1
  -1  -9   7 3349.51 1009.01   3
  -2   9   7 -117.70  252.82   1
  -2  -9   7 -166.81  308.41   3
  -3   9   7 4229.35  942.98   1
  -3  -9   7 2367.02  862.05   3
  -4   9   7   -1.36  310.81   1
  -4  -9   7  125.19  293.95   8
  -4  -9   7   48.68  164.68   3
  -4   9   7   65.30  217.44   4
  -5  -9   7 4061.58  994.74   8
  -5  -9  -7 4329.97  940.80   2
  -5  -9   7 2986.21  683.30   3
  -5   9   7 3357.67  950.59   1
  -5   9   7 2395.42  515.13   4
  -6   9   7  958.52  756.43   1
  -6   9   7  494.81  450.60   4
   4  10   7  979.53  476.81   1
   4 -10   7  581.72  369.53   3
   4 -10   7  772.98  487.80   6
   3  10   7 1204.99  522.59   1
   3 -10   7  824.05  287.22   3
   3 -10   7  779.95  230.18   6
   2  10   7  896.86  495.03   1
   2 -10   7  732.50  418.73   3
   1 -10   7  919.15  395.72   3
   1  10   7 1239.13  546.96   1
   0 -10   7 1641.79  560.43   3
   0  10   7 1314.49  492.97   1
  -1 -10   7 1303.58  662.66   3
  -1  10   7  850.03  354.25   1
  -2 -10   7  321.92  398.43   3
  -2  10   7 1358.56  718.50   1
  -3 -10   7  554.97  435.43   8
  -3 -10   7  952.60  589.83   3
  -3  10   7 1155.69  580.98   1
  -3  10   7 1262.50  418.75   4
  -4 -10   7  342.39  247.93   8
  -4 -10   7  324.71  322.13   3
  -4  10   7  804.68  575.82   1
  -4  10   7  171.78  277.71   4
  -5  10   7 1584.49  707.94   1
  -5 -10   7  956.39  601.57   3
  -5  10   7 1171.05  436.78   4
   4 -11   7 1658.83  465.85   3
   4  11   7 1766.51  606.71   1
   3  11   7  354.40  412.87   1
   3 -11   7   33.52  273.86   3
   2  11   7 2459.69  771.89   1
   2 -11   7 2559.58  748.75   3
   1  11   7  305.07  431.78   1
   1 -11   7  671.40  391.06   3
   0  11   7 5757.44 1119.13   1
   0 -11   7 5779.12 1013.17   3
  -1  11   7  808.52  566.73   1
  -1 -11   7  208.41  173.01   3
  -2 -11   7 1336.44  572.15   8
  -2  11   7 2518.12  912.09   1
  -2 -11   7 1311.70  642.73   3
  -3 -11   7  319.61  241.76   8
  -3  11   7  943.44  725.42   1
  -3 -11   7   -2.95  339.26   3
  -4 -11   7 1458.24  743.21   8
  -4 -11   7 1261.73  566.46   3
   3  12   7   14.72  249.22   1
   2  12   7  741.37  537.50   1
   1  12   7  371.47  350.46   1
   1 -12   7  278.55  261.69   3
   0  12   7 1662.02  766.86   1
  -2 -12   7  310.45  351.26   8
  -3 -12   7  703.19  540.83   8
   5   0   8 -102.43  254.39   3
   4   0   8 5539.84  753.40   3
   3   0   8 -444.59  437.56   3
   2   0   8 6331.41  825.08   3
   1   0   8  435.26  339.76   3
   0   0   818775.62 1479.82   3
  -1   0   8   -9.00  129.25   3
  -1   0   8 -119.89   89.65   6
  -2   0  -8 5580.10  517.34   2
  -2   0   8 5682.77  762.18   3
  -3   0  -8 -422.81  290.77   2
  -3   0   8  209.68  206.07   3
  -4   0   8 5848.29  834.21   3
  -4   0  -8 6263.87  737.89   2
  -5   0   8  155.69  142.51   3
  -5   0  -8   39.09  166.33   2
  -6   0  -8 2190.36  595.73   2
  -6   0   8 1189.36  368.79   4
  -7   0   8 -347.87  405.37   8
  -7   0  -8  191.45  285.06   2
  -7   0   8 -109.51  203.03   4
  -8   0   8 2959.08  649.98   8
   6  -1   8-1104.15  821.54   7
   5   1   8 1174.64  319.13   3
   5  -1   8 1640.69  365.67   3
   5  -1   8  657.99  488.40   7
   4   1   8 1355.14  178.76   3
   4  -1   8 1423.60  317.16   3
   4  -1   8 1613.93  146.79   7
   3   1   8 3086.14  540.79   3
   3  -1   8 3520.26  540.58   3
   3  -1   8 2069.67  289.48   7
   2   1   8  696.42  341.83   3
   2  -1   8  942.18  392.60   3
   1   1  -8 1624.52  241.86   2
   1   1   8 2169.90  569.61   3
   1  -1   8 2110.98  555.11   3
   0   1  -8 1569.00  221.60   2
   0   1   8 2550.27  591.60   3
   0  -1   8 2875.15  679.95   3
   0  -1   8 2123.97  343.37   6
  -1   1  -8 1278.43  151.26   2
  -1  -1  -8  994.99  137.98   2
  -1   1   8 1486.28  423.82   3
  -1  -1   8 1225.04  270.66   3
  -1  -1   8 1841.76  353.18   6
  -2   1  -8 1024.32  295.21   2
  -2   1   8  568.61  164.59   3
  -2  -1   8 1001.65  434.82   3
  -3  -1  -8 3532.70  455.47   2
  -3   1   8 3825.61  643.61   3
  -3  -1   8 4042.23  690.16   3
  -3   1  -8 4152.13  582.88   2
  -4  -1  -8 2212.00  384.18   2
  -4   1   8 1418.68  317.82   3
  -4  -1   8 2073.65  466.59   3
  -4   1  -8 2304.09  433.12   2
  -5  -1  -8 1872.76  458.30   2
  -5   1   8 1181.35  180.80   3
  -5  -1   8 1524.19  429.82   3
  -5   1  -8 1936.54  468.38   2
  -6   1  -8  255.51  164.80   2
  -6  -1  -8   20.30  203.71   2
  -6  -1   8  -27.75  327.75   4
  -6   1   8  689.15  425.23   4
  -7   1   8  447.35  273.47   8
  -7  -1   8  216.59  347.41   8
  -7   1  -8  410.24  409.01   2
  -7  -1  -8  162.50  272.25   2
  -7  -1   8  197.25  302.63   4
  -7   1   8  293.55  380.70   4
  -8  -1   8  525.89  515.72   8
   8  -2   8-1720.97 1085.07   7
   7  -2   8   48.41  352.69   7
   6  -2   8  553.96  505.95   7
   5   2   8 3418.38  652.35   3
   5  -2   8 3030.50  522.60   3
   4   2   8 -360.51  319.72   3
   4  -2   8 -201.78  326.14   3
   3   2   8 3423.59  578.10   3
   3  -2   8 4055.43  696.69   3
   3  -2   8 4145.85  597.93   7
   2   2   8  300.50  175.94   3
   2  -2   8  747.31  411.54   3
   2  -2   8  426.79  240.50   7
   2  -2   8  584.89  280.50   6
   1   2   8 1173.90  334.11   3
   1  -2   8 1330.79  329.13   3
   1  -2   8 1497.81  372.96   6
   0   2   8 -144.14  421.51   3
   0  -2   8  228.80  123.59   3
   0  -2   8  126.70   95.84   6
   0   2  -8  337.21  107.01   2
  -1   2   8 1177.68  375.01   3
  -1  -2   8 1328.40  384.20   3
  -1  -2   8 1087.73  289.22   6
  -1   2  -8 1011.10  204.54   2
  -2   2   8  254.27  174.69   3
  -2  -2   8   22.17  233.75   3
  -2  -2  -8  337.83  258.19   5
  -2   2  -8  307.88  173.15   2
  -3   2   8 3408.30  622.09   3
  -3  -2   8 3782.59  745.80   3
  -3  -2  -8 3841.94  581.84   5
  -3  -2  -8 4928.03  698.33   2
  -3   2  -8 3367.42  479.82   2
  -4  -2  -8 -622.85  432.40   2
  -4   2   8 -600.99  501.83   3
  -4  -2   8  441.33  329.24   3
  -4  -2  -8   51.87  166.68   5
  -4   2  -8   58.86  184.41   2
  -5  -2  -8 4051.96  637.71   2
  -5   2   8 3235.51  649.01   3
  -5  -2   8 3555.64  675.22   3
  -5  -2  -8 3257.88  609.70   5
  -5   2  -8 3318.46  565.89   2
  -6  -2  -8 -414.87  334.66   2
  -6  -2  -8  197.95  371.46   5
  -6   2  -8  581.63  423.33   2
  -6  -2   8    1.39  205.87   4
  -6   2   8  323.53  350.78   4
  -7   2   8    1.93  227.12   8
  -7  -2   8  314.46  511.17   8
  -7  -2  -8  355.22  393.08   5
  -7  -2   8  303.37  410.11   4
  -7   2   8  -81.02  149.47   4
  -7  -2  -8 -270.79  288.29   2
   8  -3   8  -24.94  384.12   7
   7  -3   8  930.32  642.92   7
   6  -3   8  917.52  602.79   7
   5   3   8 1526.61  408.94   3
   5  -3   8 1579.43  438.57   3
   4   3   8   35.52  290.76   3
   4  -3   8  325.60  242.62   3
   4  -3   8  824.17  365.72   7
   4  -3   8  356.03  223.33   6
   3   3   8 1148.61  315.44   3
   3  -3   8 1649.28  369.33   7
   3  -3   8 1554.40  388.67   3
   3  -3   8 1524.77  377.75   6
   2   3   8   -4.15  186.41   3
   2  -3   8   -6.50  119.58   7
   2  -3   8 -199.26  220.18   3
   2  -3   8   56.98  138.41   6
   1   3   8  457.31  213.03   3
   1  -3   8  287.23  212.14   3
   1  -3   8  621.49  264.15   6
   0   3   8  242.00  129.68   3
   0  -3   8  433.19  327.92   3
   0  -3   8  505.32  265.90   6
  -1   3   8  -45.70  249.94   3
  -1  -3   8 -157.40  310.45   3
  -1  -3   8  402.40  106.92   6
  -1  -3  -8  608.87  207.12   5
  -2   3   8  213.07  246.36   3
  -2  -3   8  130.50  299.55   3
  -2  -3  -8  -12.54   96.20   5
  -3   3   8 1535.08  443.46   3
  -3  -3   8 1466.06  439.58   3
  -3  -3  -8 1336.53  334.46   5
  -4   3   8  755.16  402.06   3
  -4  -3  -8 -265.01  379.33   2
  -4  -3   8  373.49  303.38   3
  -4  -3  -8  571.47  346.06   5
  -5  -3  -8 1649.07  385.47   2
  -5   3   8  999.36  191.44   3
  -5  -3   8 1054.15  297.83   3
  -5  -3  -8 1936.95  526.61   5
  -6  -3  -8   90.48  221.71   2
  -6  -3   8  455.50  396.17   8
  -6  -3  -8  124.56  243.89   5
  -6  -3   8  569.83  466.37   4
  -6   3   8  149.59  144.51   4
  -7  -3  -8 -167.12  227.69   2
  -7  -3   8 -251.31  465.85   8
  -7  -3  -8 -153.32  184.11   5
  -7  -3   8   50.18  204.05   4
  -7   3   8   -7.92  155.14   4
   7  -4   8  789.04  532.99   7
   6  -4   8  645.55  443.06   7
   6  -4   8  243.57  336.75   6
   5  -4   8  811.85  271.82   3
   5  -4   8 1327.66  429.59   7
   5  -4   8  914.95  439.55   6
   4   4   8 2006.98  481.37   3
   4  -4   8 2291.84  449.84   7
   4  -4   8 2027.28  451.45   3
   4  -4   8 2257.18  519.34   6
   3   4   8  268.32  170.44   3
   3  -4   8  684.61  296.86   3
   3  -4   8  224.94  236.39   6
   2   4   8 3236.33  655.88   3
   2  -4   8 2542.25  499.82   3
   2  -4   8 3173.29  516.76   6
   1   4   8  185.82  194.57   3
   1  -4   8  736.96  377.68   3
   1  -4   8  366.63  183.16   6
   0   4   8 9918.11 1164.29   3
   0  -4   8 9195.76 1064.74   3
   0  -4   810739.85  969.15   6
   0  -4  -8 8342.37  532.43   5
  -1   4   8 -376.45  353.70   3
  -1  -4   8  234.85  225.44   3
  -1  -4  -8  454.89  241.00   5
  -2   4   8 2987.18  625.38   3
  -2  -4   8 3313.24  667.29   3
  -2  -4  -8 2563.20  393.02   5
  -3  -4   8   17.54  303.49   3
  -3  -4  -8   39.63  146.65   5
  -4   4   8 2093.33  562.28   3
  -4  -4  -8 2967.73  608.55   2
  -4  -4   8 2308.61  560.10   3
  -4  -4  -8 2328.69  537.32   5
  -5   4   8  535.27  254.14   3
  -5  -4  -8  397.79  276.33   2
  -5  -4   8 1348.63  530.32   3
  -5  -4  -8 1092.32  478.61   5
  -6  -4  -8  -31.28  210.42   2
  -6  -4   8  351.34  340.22   8
  -6  -4  -8  649.96  518.03   5
  -6  -4   8  435.63  400.70   4
  -6   4   8  151.96  155.81   4
  -7  -4  -8 -205.88  247.52   2
  -7  -4   8  281.66  515.11   8
  -7  -4  -8    0.87  325.86   5
  -7  -4   8   68.95  280.68   4
  -8  -4   8  582.74  483.21   4
   7  -5   8 1008.82  563.98   7
   6  -5   8  964.28  442.60   7
   6  -5   8  400.41  248.87   6
   5  -5   8 1372.02  412.06   7
   5  -5   8 1740.64  441.43   3
   5  -5   8 1530.62  493.99   6
   4  -5   8 4261.88  692.14   3
   4  -5   8 4777.96  750.01   6
   4   5   8 4364.42  779.53   1
   3   5   8  739.50  460.38   3
   3  -5   8  490.87  302.98   3
   3  -5   8  903.21  349.23   6
   3   5   8  912.39  432.58   1
   2   5   8 3486.11  649.27   3
   2  -5   8 3311.40  531.31   3
   2  -5   8 4170.98  651.55   6
   1   5   8  273.27  274.94   3
   1  -5   8  155.61  194.08   3
   1  -5   8  634.67  293.20   6
   0   5   810089.18 1193.41   3
   0  -5   8 8901.28 1034.95   3
   0  -5   810479.70  997.99   6
   0  -5  -8 8096.02  540.36   5
  -1   5   8  447.37  397.21   3
  -1  -5   8   94.88  216.72   3
  -1  -5  -8  549.12  248.18   5
  -2   5   8 4524.82  817.62   3
  -2  -5   8 3848.66  719.42   3
  -2  -5  -8 4165.19  565.91   5
  -3   5   8 1186.44  513.31   3
  -3  -5   8  178.71  215.76   3
  -3  -5  -8  625.94  356.65   5
  -4   5   8 4359.52  797.98   3
  -4  -5  -8 4035.18  596.65   2
  -4  -5   8 3894.59  690.29   3
  -4  -5  -8 4415.90  713.87   5
  -5   5   8 1585.73  437.46   4
  -5  -5  -8  903.33  146.19   2
  -5  -5   8 1944.52  634.84   3
  -5  -5  -8 2198.19  638.63   5
  -5   5   8 1844.40  715.97   1
  -6  -5  -8 -395.07  485.21   2
  -6  -5   8  492.62  503.28   8
  -6   5   8  567.55  358.79   1
  -6  -5  -8 1107.14  463.15   5
  -6  -5   8  235.04  196.77   4
  -6   5   8  578.40  241.66   4
   7  -6   8  806.75  567.55   7
   6  -6   8  416.49  298.32   7
   6  -6   8  848.31  515.15   6
   5  -6   8 1583.85  415.33   3
   5  -6   8 1818.17  538.04   6
   4  -6   8 1030.69  393.13   3
   4  -6   8 1007.98  417.50   6
   4   6   8 1086.01  473.23   1
   3   6   8 2791.34  614.78   1
   3  -6   8 2558.64  523.93   3
   3  -6   8 3690.84  713.47   6
   2   6   8  290.39  265.06   1
   2  -6   8  134.52  195.33   3
   2  -6   8  275.91  191.95   6
   1   6   8 1522.24  535.36   3
   1   6   8 1723.86  569.43   1
   1  -6   8 1251.57  343.39   3
   1  -6   8 1531.93  354.33   6
   0   6   8 -222.38  398.08   3
   0   6   8   18.57  241.23   1
   0  -6   8  406.15  324.48   3
   0  -6   8 -218.37  278.95   6
  -1   6   8 1843.60  643.66   3
  -1  -6   8  976.36  564.27   3
  -2   6   8  975.53  533.80   3
  -2  -6   8  148.18  194.02   3
  -3   6   8 3014.89  708.60   3
  -3  -6   8 2355.40  805.65   3
  -3   6   8 3658.67  975.35   1
  -4   6   8 1121.65  560.33   1
  -4  -6  -8 1432.84  481.57   2
  -4  -6   8 1361.38  511.95   3
  -5  -6  -8 2474.76  592.71   2
  -5  -6   8 1518.35  359.54   3
  -5  -6  -8 1844.28  512.22   5
  -5   6   8 1183.16  458.10   1
  -5  -6   8 1935.27  554.89   4
  -5   6   8 1377.49  395.18   4
  -6   6   8  576.39  350.20   1
  -6  -6   8  799.08  418.36   8
  -6  -6  -8  319.99  234.88   5
  -6   6   8   92.71  300.53   4
   5  -7   8 2136.55  452.12   3
   5  -7   8 3230.38  766.56   6
   4   7   8  225.90  278.49   1
   4  -7   8   78.19  195.11   3
   4  -7   8  454.19  323.09   6
   3  -7   8 2804.72  603.87   3
   3  -7   8 3869.77  749.16   6
   3   7   8 2953.40  633.14   1
   2   7   8  209.18  308.58   1
   2  -7   8  -71.54  297.37   3
   2  -7   8  242.28  277.08   6
   1  -7   8 2417.30  662.12   3
   1  -7   8 2320.49  530.46   6
   1   7   8 1868.72  584.44   1
   0   7   8  -41.68  239.86   1
   0  -7   8  155.86  227.52   3
  -1   7   8 1661.25  584.53   1
  -1  -7   8  954.59  584.48   3
  -2   7   8  394.93  424.69   1
  -2  -7   8  347.69  323.20   3
  -3  -7   8 2399.28  945.17   3
  -3   7   8 2736.08  770.83   1
  -4   7   8  -89.38  245.93   1
  -4  -7   8  205.31  318.93   3
  -5   7   8 2044.21  657.16   1
  -5  -7   8 2686.91  689.15   8
  -5  -7  -8 3361.09  770.27   2
  -5  -7   8 2458.17  600.56   3
  -5   7   8 2010.63  444.83   4
  -6   7   8  356.98  306.38   1
  -6  -7  -8  591.51  399.99   5
  -6   7   8  336.25  237.25   4
   5  -8   8  805.05  420.27   6
   4  -8   8 -205.25  290.46   3
   4  -8   8  623.34  467.15   6
   4   8   8  371.62  361.84   1
   3   8   8  202.17  175.15   1
   3  -8   8 -143.62  435.14   3
   3  -8   8  802.36  419.64   6
   2   8   8  445.94  458.72   1
   2  -8   8 -224.21  303.45   3
   2  -8   8  323.41  244.49   6
   1  -8   8  200.46  267.16   3
   1  -8   8  360.49  300.26   6
   1   8   8   25.81  339.45   1
   0  -8   8 1574.05  469.15   3
   0   8   8 1132.16  427.29   1
  -1   8   8  -60.34  260.86   1
  -1  -8   8  114.66  273.78   3
  -2   8   8 -129.21  385.87   1
  -2  -8   8  184.45  343.45   3
  -3  -8   8 -215.64  396.44   3
  -3   8   8  683.69  554.83   1
  -4   8   8  553.73  353.50   4
  -4  -8   8  137.18  238.57   3
  -4   8   8 -210.67  338.02   1
  -5  -8   8  -97.00  381.76   8
  -5   8   8  229.88  349.51   1
  -5  -8   8  131.53  226.74   3
  -5   8   8  553.28  342.45   4
  -6   8   8  269.49  398.83   1
   4   9   8 1729.18  653.20   1
   4  -9   8 1439.01  389.48   3
   4  -9   8 1862.42  532.97   6
   3  -9   8  166.34  245.99   3
   3  -9   8  297.59  343.79   6
   3   9   8  793.99  514.71   1
   2  -9   8  539.48  297.56   3
   2  -9   8  760.24  352.03   6
   2   9   8  521.16  155.87   1
   1   9   8 -243.93  313.72   1
   1  -9   8 -221.53  375.17   3
   0   9   8 1847.63  585.73   1
   0  -9   8 1954.89  514.49   3
  -1   9   8  -39.97  289.60   1
  -1  -9   8    0.55  320.49   3
  -2   9   8  802.89  379.37   1
  -2  -9   8  955.92  591.08   3
  -3   9   8  837.73  575.81   1
  -3  -9   8  166.19  213.14   3
  -4   9   8 2005.11  756.71   1
  -4  -9   8 1188.31  635.03   8
  -4  -9   8 1056.31  590.43   3
  -4   9   8 1527.31  443.76   4
  -5   9   8   42.63  191.36   1
  -5   9   8  218.00  121.85   4
   4  10   8 2432.93  769.49   1
   4 -10   8 1744.03  565.83   3
   3  10   8 1113.71  578.86   1
   3 -10   8  969.73  407.49   3
   3 -10   8  550.15  194.96   6
   2 -10   8  696.30  147.03   3
   2  10   8 1703.76  686.32   1
   1 -10   8 -126.16  218.47   3
   1  10   8  -70.57  147.51   1
   0 -10   8 1765.71  605.86   3
   0  10   8 1414.74  618.73   1
  -1  10   8 -347.34  498.10   1
  -1 -10   8  -55.74  223.83   3
  -2  10   8 2150.84  841.49   1
  -2 -10   8  525.84  452.33   3
  -3 -10   8  803.35  662.90   3
  -3  10   8  961.75  518.91   1
  -3  10   8  583.43  375.27   4
  -4 -10   8 1119.54  726.70   3
  -4  10   8 1730.28  412.70   4
   3  11   8 1546.09  653.64   1
   3 -11   8 1593.86  555.94   3
   2  11   8  168.68  252.93   1
   2 -11   8  234.40  339.98   3
   1  11   8 1667.87  739.91   1
   1 -11   8 1683.69  549.23   3
   0 -11   8  196.35  337.88   3
   0  11   8  504.60  433.68   1
  -1 -11   8  775.03  541.17   3
  -1  11   8 2036.19  857.59   1
  -3 -11   8   48.93  266.09   8
  -2 -12   8   40.58  298.44   8
   5   0   9 6278.19  851.57   3
   4   0   9 -105.11  241.51   3
   3   0   915457.61 1399.53   3
   2   0   9  117.47  263.00   3
   1   0   915307.66 1399.80   3
   0   0  -9  729.63  360.31   2
   0   0   9  507.75  457.18   3
   0   0   9  590.90  291.26   6
  -1   0   915411.08 1452.02   3
  -1   0  -914354.91  873.85   2
  -2   0   9  686.69  446.00   3
  -3   0   915365.68 1403.60   3
  -3   0  -916408.56 1098.63   2
  -4   0   9  195.01  286.65   3
  -4   0  -9  324.56  268.71   2
  -5   0   9 6752.49  945.81   3
  -5   0  -9 7755.29  922.43   2
  -6   0  -9  -97.87  201.52   2
  -6   0   9 -562.29  477.63   4
  -7   0   9 -399.61  336.67   8
  -7   0  -9  266.39  348.51   2
   5   1   9 1835.77  531.24   3
   5  -1   9 1278.35  355.16   3
   4   1   9  110.29  214.46   3
   4  -1   9   97.40  120.25   3
   3   1   9 1227.47  464.46   3
   3  -1   9  909.94  333.58   3
   2   1   9 1039.28  454.98   3
   2  -1   9  690.64  355.65   3
   1   1   9  431.02  298.16   3
   1  -1   9  627.17  506.42   3
   1  -1   9  755.60  358.34   6
   0   1   9 1853.75  573.74   3
   0  -1   9 1340.06  469.52   3
   0  -1   9 1331.78  275.44   6
  -1   1  -9  593.57  231.08   2
  -1  -1  -9  961.24  376.41   2
  -1   1   9  329.30  208.93   3
  -1  -1   9 1286.14  621.31   3
  -1  -1   9  954.93  360.04   6
  -2  -1  -9 -208.69  267.15   2
  -2   1   9  556.49  323.63   3
  -2  -1   9  785.21  433.74   3
  -2   1  -9  592.18  249.24   2
  -3   1   9 1262.52  470.61   3
  -3  -1   9 1557.83  610.27   3
  -3   1  -9 1204.34  359.01   2
  -4  -1  -9   13.57  192.18   2
  -4   1   9  127.62  198.03   3
  -4  -1   9 -188.99  293.24   3
  -4   1  -9  238.01  228.89   2
  -5  -1  -9 1891.22  426.90   2
  -5   1   9 1040.41  165.81   3
  -5  -1   9 1406.64  359.41   3
  -5   1  -9 2438.65  544.34   2
  -6   1  -9  212.04  268.31   2
  -6  -1  -9 -526.10  387.16   2
  -6  -1   9  100.04  209.39   4
  -6   1   9  134.09  281.99   4
  -7   1   9  644.41  216.35   8
  -7  -1   9  668.42  395.28   8
  -7   1  -9 1048.25  495.06   2
  -7  -1  -9  974.62  409.16   2
  -7  -1   9  611.12  484.08   4
   5   2   9 -250.83  321.36   3
   5  -2   9 -503.25  394.20   3
   4   2   9 2177.37  535.17   3
   4  -2   9 1927.33  535.47   3
   3   2   9 -541.72  510.54   3
   3  -2   9  133.81  147.81   3
   2   2   9  576.29  369.58   3
   2  -2   9  790.97  362.58   3
   2  -2   9  624.36  275.99   6
   1   2   9  156.54  369.18   3
   1  -2   9  648.44  384.44   3
   1  -2   9  913.11  230.83   6
   0   2   9  852.58  356.50   3
   0  -2   9  492.53  137.78   3
   0  -2   9  754.49  244.63   6
  -1   2   9  399.80  216.50   3
  -1  -2   9  380.32  358.57   3
  -1  -2   9  289.83  193.39   6
  -2   2   9  159.18  182.82   3
  -2  -2   9  339.09  276.16   3
  -2   2  -9  438.45  232.84   2
  -3  -2  -9 -749.02  372.46   2
  -3   2   9 -688.56  457.44   3
  -3  -2   9   21.98  176.99   3
  -3   2  -9  343.34  198.73   2
  -4  -2  -9 2113.01  450.12   2
  -4   2   9 2390.76  621.24   3
  -4  -2   9 2315.52  646.26   3
  -4   2  -9 2397.59  497.60   2
  -5  -2  -9-1013.64  473.25   2
  -5   2   9 -737.94  518.29   3
  -5  -2   9    4.35  281.90   3
  -5  -2  -9   99.58  265.36   5
  -5   2  -9  491.43  344.41   2
  -6  -2  -9  650.88  303.62   2
  -6   2  -9  870.32  356.16   2
  -6  -2   9  171.92  208.06   4
  -6   2   9  506.92  234.87   4
  -7  -2   9  108.41  287.28   8
  -7  -2  -9 -132.13  278.04   2
  -7  -2   9   96.41  370.30   4
   6  -3   9  345.49  340.75   6
   5   3   9   50.44  296.86   3
   5  -3   9  -60.25  196.53   3
   5  -3   9  -75.06  225.88   6
   4   3   9  151.18  299.64   3
   4  -3   9  301.70  306.35   3
   4  -3   9  400.42  216.76   6
   3   3   9  -15.91  226.45   3
   3  -3   9  160.99  146.01   3
   3  -3   9  505.10  309.03   6
   2   3   9  666.55  352.66   3
   2  -3   9  377.12  209.59   3
   2  -3   9  702.96  332.33   6
   1   3   9  725.62  464.90   3
   1  -3   9  415.01  385.25   3
   1  -3   9  416.43  248.82   6
   0   3   9 1746.69  423.06   3
   0  -3   9 1810.54  473.32   3
   0  -3   9 2256.10  468.63   6
  -1   3   9   30.93  331.04   3
  -1  -3   9  732.99  432.80   3
  -1  -3   9  345.68  171.58   6
  -2   3   9 -317.89  399.88   3
  -2  -3   9   29.22  206.30   3
  -2  -3  -9  405.18  217.85   5
  -3   3   9  319.54  190.71   3
  -3  -3   9  -70.61  145.10   3
  -3  -3  -9  315.81  204.27   5
  -4  -3  -9   89.98  134.14   2
  -4   3   9  130.79  278.29   3
  -4  -3   9  215.78  233.19   3
  -4  -3  -9   83.36  218.50   5
  -5  -3  -9  -18.18  153.30   2
  -5   3   9   31.96  265.33   3
  -5  -3   9  -89.59  204.90   3
  -5  -3  -9 -117.04  246.79   5
  -6  -3  -9   82.44  192.69   2
  -6  -3  -9  333.37  374.50   5
  -6  -3   9  464.43  512.96   4
  -6   3   9  301.26  333.70   4
  -7  -3   9   21.29  342.25   4
   6  -4   9  189.31  346.11   6
   5   4   9 2992.14  759.17   3
   5  -4   9 1725.68  378.60   3
   5  -4   9 2689.14  636.78   6
   4   4   9  580.04  421.21   3
   4  -4   9   41.30  168.89   3
   4  -4   9  126.42  224.44   6
   3   4   9 1907.17  522.86   3
   3  -4   9 1795.01  477.72   3
   3  -4   9 1695.25  483.48   6
   2   4   9  480.52  384.01   3
   2  -4   9  412.58  347.57   3
   2  -4   9   23.42  154.04   6
   1  -4   9  143.75  168.81   3
   1  -4   9   55.92  195.70   6
   0   4   9  477.71  369.39   3
   0  -4   9  189.15  194.65   3
   0  -4   9  -27.65  176.70   6
  -1   4   9  628.59  376.45   3
  -1  -4   9  189.39  202.60   3
  -1  -4  -9  105.17  171.26   5
  -2   4   9  259.60  257.22   3
  -2  -4   9  576.19  432.04   3
  -2  -4  -9   63.00  140.78   5
  -3   4   9 2071.29  567.96   3
  -3  -4  -9 1644.06  372.77   2
  -3  -4   9 2088.15  615.05   3
  -3  -4  -9 1985.39  474.73   5
  -4   4   9  403.02  483.36   3
  -4  -4  -9  908.44  437.68   2
  -4  -4   9  519.51  445.25   3
  -4  -4  -9  284.10  286.81   5
  -5   4   9 2945.31  765.49   3
  -5  -4  -9 1990.10  411.29   2
  -5  -4   9 2564.59  609.30   3
  -5  -4  -9 2723.85  637.75   5
  -6  -4  -9 -662.91  411.15   2
  -6  -4   9  198.10  316.60   8
  -6  -4  -9  170.57  177.13   5
  -6  -4   9  855.98  663.15   4
  -6   4   9  248.04  316.00   4
  -7  -4   9 -171.72  342.48   4
   5  -5   9 2300.43  457.52   3
   5  -5   9 3561.89  771.51   6
   4   5   9  686.24  449.46   3
   4   5   9  346.26  276.44   1
   4  -5   9  144.56  161.17   3
   4  -5   9 1126.83  445.69   6
   3   5   9 4572.71  854.53   3
   3  -5   9 4116.83  690.45   3
   3  -5   9 4402.65  692.02   6
   2   5   9 2819.12  705.51   3
   2  -5   9 2720.87  581.61   3
   2  -5   9 3439.33  645.46   6
   1   5   9 4041.38  909.53   3
   1  -5   9 3128.08  670.13   3
   1  -5   9 3349.91  572.13   6
   0   5   9 6455.78 1116.10   3
   0  -5   9 5891.16  956.01   3
   0  -5   9 6588.29  849.74   6
  -1   5   9 2832.45  679.00   3
  -1  -5   9 1710.94  693.20   3
  -2   5   9 3257.30  805.13   3
  -2  -5   9 3589.36  824.73   3
  -2  -5  -9 2856.32  513.28   5
  -3   5   9 4342.45  840.72   3
  -3  -5  -9 2536.66  301.34   2
  -3  -5   9 4654.97  887.40   3
  -3  -5  -9 4567.16  685.97   5
  -4   5   9  584.24  342.17   3
  -4  -5   9  396.32  383.05   3
  -4  -5  -9  847.66  410.10   5
  -5   5   9 3504.29  805.58   3
  -5  -5  -9 2760.97  509.36   2
  -5  -5   9 3274.74  792.43   3
  -5  -5  -9 3873.11  847.34   5
  -6  -5  -9 -602.49  429.04   2
  -6   5   9 -206.45  309.96   1
  -6  -5  -9  357.70  420.74   5
  -6  -5   9   33.62  268.81   4
   5  -6   9  118.40  188.18   3
   5  -6   9  517.88  379.91   6
   4  -6   9 1477.70  436.44   3
   4  -6   9 2088.09  611.15   6
   4   6   9 1528.43  589.01   1
   3  -6   9  312.80  220.07   3
   3  -6   9  979.87  467.55   6
   3   6   9  812.91  468.70   1
   2   6   9 1365.63  604.48   3
   2   6   9  722.48  356.42   1
   2  -6   9  439.75  230.12   3
   2  -6   9 1153.39  444.05   6
   1   6   9  646.34  441.25   3
   1  -6   9  210.11  137.50   3
   1   6   9  555.03  383.66   1
   1  -6   9  812.33  369.42   6
   0   6   9 1344.18  540.78   3
   0  -6   9 1730.47  577.98   3
   0  -6   9 1078.15  253.38   6
  -1   6   9 1446.71  612.65   3
  -1  -6   9  854.34  519.92   3
  -2   6   9  827.86  475.14   3
  -2  -6   9  615.03  355.23   3
  -2  -6  -9  650.03  193.48   5
  -3   6   9  643.50  337.70   3
  -3  -6   9  867.20  380.58   3
  -3  -6  -9 1003.14  391.21   5
  -4  -6  -9 1382.29  398.99   2
  -4  -6   9 1859.49  590.20   3
  -4  -6  -9 1246.67  397.22   5
  -4   6   9 1366.24  591.93   1
  -5   6   9  566.90  322.72   4
  -5  -6  -9  215.60  160.22   2
  -5  -6   9  560.12  361.80   3
  -5   6   9  572.57  391.02   1
  -5  -6  -9 -111.75  201.47   5
  -6   6   9  831.78  561.93   1
  -6  -6  -9  397.02  320.35   5
   5  -7   9  770.56  540.84   6
   4   7   9 2361.04  687.39   1
   4  -7   9 2497.19  560.83   3
   4  -7   9 2779.91  694.70   6
   3  -7   9  388.57  298.11   3
   3  -7   9  395.53  375.82   6
   3   7   9  316.85  293.02   1
   2   7   9 1026.23  464.63   1
   2  -7   9  189.91  343.98   3
   2  -7   9 1466.98  441.55   6
   1   7   9  116.90  186.71   1
   1  -7   9  110.45  154.13   3
   1  -7   9 -374.85  391.52   6
   0  -7   9 1569.36  505.17   3
   0   7   9 1473.33  582.90   1
  -1  -7   9 -499.64  404.15   3
  -1   7   9  413.46  312.92   1
  -2  -7   9  797.84  534.63   3
  -2   7   9  982.23  492.21   1
  -3   7   9 -438.73  400.29   1
  -3  -7   9    9.80  218.39   3
  -4  -7  -9 2233.69  621.16   2
  -4  -7   9 2113.82  649.17   3
  -4  -7  -9 2397.26  535.68   5
  -4   7   9 2701.02  933.11   1
  -5  -7  -9  937.87  500.39   2
  -5   7   9  146.71  352.71   1
  -5  -7   9  125.54  406.32   3
  -5  -7  -9  549.65  457.78   5
  -5   7   9  384.19  366.63   4
  -6   7   9  360.06  226.48   1
   4  -8   9  -93.98  176.91   3
   4  -8   9  449.57  348.36   6
   4   8   9   81.66  250.44   1
   3   8   9   79.43  246.27   1
   3  -8   9  -96.45  281.53   3
   3  -8   9  273.76  255.31   6
   2  -8   9 -244.72  279.19   3
   2   8   9  196.55  277.85   1
   1  -8   9   58.32  159.51   3
   1  -8   9   64.28  205.77   6
   1   8   9  -62.66  296.21   1
   0   8   9  406.15  275.47   1
   0  -8   9   81.32  182.10   3
  -1   8   9  485.75  528.71   1
  -1  -8   9 -286.50  280.01   3
  -2   8   9  -21.21  323.31   1
  -2  -8   9  -13.06  360.09   3
  -3   8   9  525.11  566.32   1
  -3  -8   9  152.63  343.95   3
  -4  -8   9  109.12  199.05   3
  -4   8   9  220.57  422.65   1
  -5  -8   9 -186.88  457.49   3
  -5   8   9  425.85  302.92   1
  -5  -8  -9  463.95  463.44   5
   4  -9   9  349.21  357.90   3
   3  -9   9 1331.72  474.93   3
   3  -9   9 1992.85  577.78   6
   3   9   9 1480.59  556.47   1
   2   9   9  242.14  293.23   1
   2  -9   9 -209.82  387.26   3
   2  -9   9 -144.00  358.49   6
   1   9   9  329.99  389.02   1
   1  -9   9  915.44  540.68   3
   0  -9   9  247.97  285.75   3
   0   9   9  446.16  362.48   1
  -1  -9   9  530.59  400.93   3
  -1   9   9  922.75  630.79   1
  -2  -9   9  103.18  266.33   3
  -2   9   9  233.32  290.98   1
  -3  -9   9 1466.19  809.64   3
  -3   9   9 1682.67  667.09   1
  -4  -9   9  146.02  367.96   3
  -4   9   9  624.01  422.66   4
   3  10   9 1119.20  695.54   1
   2 -10   9   -5.27  329.62   3
   2  10   9  -67.55  354.77   1
   1 -10   9  251.13  351.20   3
   1  10   9 -189.67  442.95   1
   0  10   9  320.38  499.83   1
   0 -10   9  538.96  449.21   3
  -1  10   9  353.80  424.45   1
  -1 -10   9  351.00  570.84   3
  -4  10   9  620.10  421.79   4
   5   0  10  505.60  388.27   3
   4   0  10 1717.37  559.98   3
   3   0  10 -391.42  402.97   3
   2   0  10 4151.25  760.78   3
   1   0  10  367.59  535.89   3
   0   0  10 7328.37 1105.69   3
  -1   0  10  688.33  553.44   3
  -2   0  10 4571.66  898.03   3
  -3   0 -10  237.39  198.81   2
  -3   0  10  424.76  352.76   3
  -4   0  10 1554.06  559.65   3
  -4   0 -10 1409.00  411.29   2
  -5   0  10  396.88  440.98   3
  -5   0 -10  370.32  325.85   2
  -6   0  10 -122.88  426.66   4
  -6   0 -10 1130.55  514.97   2
  -7   0  10   86.14  241.80   8
   5   1  10  256.52  336.80   3
   5  -1  10  331.96  194.09   3
   4   1  10  587.40  413.62   3
   4  -1  10 -174.73  319.12   3
   3   1  10 1143.89  433.16   3
   3  -1  10 1285.99  479.38   3
   2   1  10 -405.69  337.94   3
   2  -1  10  297.20  340.52   3
   1   1  10 1888.75  609.50   3
   1  -1  10 2012.88  620.43   3
   1  -1  10 1795.14  405.19   6
   0   1  10  330.75  400.13   3
   0  -1  10 -113.70  141.00   6
  -1   1  10 1495.72  389.61   3
  -1  -1  10  955.89  521.22   3
  -2  -1 -10  -27.80  117.18   2
  -2   1  10  301.83  340.70   3
  -2  -1  10   53.72  171.50   3
  -3  -1 -10 1195.84  357.63   2
  -3   1  10  965.40  421.95   3
  -3  -1  10 1105.26  379.56   3
  -4  -1 -10   11.35  193.84   2
  -4   1  10  665.67  431.68   3
  -4  -1  10  746.09  563.77   3
  -4   1 -10  510.56  289.59   2
  -5   1  10  148.31  230.38   3
  -5  -1  10  536.60  429.42   3
  -5   1 -10  478.24  309.51   2
  -5  -1 -10  406.15  267.81   2
  -6  -1  10   34.16  446.05   4
  -6   1 -10 1029.08  492.14   2
  -6  -1 -10  841.78  447.39   2
  -7   1  10 -395.48  436.01   8
  -7   1 -10 1279.69  632.59   2
   5   2  10 1290.42  545.72   3
   5  -2  10  959.45  341.58   3
   4   2  10  -84.55  195.49   3
   4  -2  10  192.94  175.25   3
   3   2  10 1046.10  403.89   3
   3  -2  10  657.09  424.95   3
   3  -2  10 1015.52  422.02   6
   2   2  10 -319.33  349.89   3
   2  -2  10  186.05  137.74   3
   2  -2  10  297.50  273.52   6
   1   2  10  527.33  199.18   3
   1  -2  10  959.59  462.25   3
   1  -2  10  940.90  343.39   6
   0   2  10   74.56  302.36   3
   0  -2  10  -33.20  258.39   3
   0  -2  10  903.98  376.67   6
  -1   2  10  216.76  255.56   3
  -1  -2  10  112.70  332.35   3
  -2   2  10 -122.21  186.12   3
  -2  -2  10  -31.60  205.36   3
  -3  -2 -10  668.64  280.06   2
  -3   2  10  494.64  355.66   3
  -3  -2  10  718.17  401.18   3
  -4  -2 -10 -159.64  218.18   2
  -4   2  10    3.44  202.96   3
  -4  -2  10  -72.77  212.58   3
  -5  -2 -10  641.14  166.91   2
  -5   2  10  871.68  403.15   3
  -5  -2  10  966.47  458.11   3
  -6  -2  10  255.57  325.20   4
  -6  -2 -10  -14.58  215.76   2
   5   3  10  730.60  460.74   3
   5  -3  10  539.08  423.39   3
   5  -3  10  566.54  290.71   6
   4   3  10  871.83  567.49   3
   4  -3  10  233.94  265.25   3
   4  -3  10  711.93  352.20   6
   3   3  10  222.87  171.32   3
   3  -3  10  866.82  373.25   3
   3  -3  10  685.96  280.02   6
   2   3  10 -372.03  326.58   3
   2  -3  10  163.38  265.09   3
   2  -3  10  402.89  329.76   6
   1   3  10  346.50  217.74   3
   1  -3  10  390.37  169.64   3
   1  -3  10  830.14  302.92   6
   0   3  10 -461.62  431.37   3
   0  -3  10 -274.71  344.64   3
   0  -3  10  129.36  266.55   6
  -1   3  10 1043.65  448.91   3
  -1  -3  10   79.27  236.45   3
  -2   3  10   68.02  249.93   3
  -2  -3 -10   83.14  141.54   2
  -2  -3  10 -354.65  378.15   3
  -3   3  10  550.29  341.77   3
  -3  -3  10  419.39  330.97   3
  -4  -3 -10 -145.01  182.66   2
  -4   3  10 -238.93  351.53   3
  -4  -3  10   78.33  280.40   3
  -5  -3 -10 -601.64  396.12   2
  -5   3  10  396.84  420.67   3
  -5  -3  10  240.09  293.27   3
  -6  -3 -10  -41.25  180.65   2
  -6  -3  10  794.94  566.45   4
   5   4  10  396.15  312.43   3
   5  -4  10   14.85  145.13   3
   4   4  10 1173.32  640.53   3
   4  -4  10  871.29  420.24   3
   4  -4  10  916.91  430.48   6
   3   4  10  -74.28  167.28   3
   3  -4  10  325.62  337.89   3
   3  -4  10  445.12  324.32   6
   2   4  10 3082.88  843.76   3
   2  -4  10 1559.55  426.19   3
   2  -4  10 2487.18  525.59   6
   1   4  10  455.20  553.50   3
   1  -4  10   83.15  251.97   3
   1  -4  10  445.67  309.14   6
   0   4  10 5106.71 1127.59   3
   0  -4  10 4773.21  993.55   3
   0  -4  10 3866.95  625.82   6
  -1   4  10  723.92  510.99   3
  -1  -4  10  146.35  167.61   3
  -2   4  10 2508.05  782.85   3
  -2  -4  10 1889.94  738.95   3
  -3   4  10  276.62  220.85   3
  -3  -4  10  700.80  446.64   3
  -3  -4 -10  403.50  229.71   5
  -4   4  10  590.25  453.01   3
  -4  -4 -10  450.15  237.25   2
  -4  -4  10  648.60  438.55   3
  -4  -4 -10  578.06  285.96   5
  -5  -4 -10 -408.31  365.87   2
  -5   4  10  664.94  438.00   3
  -5  -4  10  254.50  309.21   3
  -5  -4 -10  130.88  228.61   5
  -6  -4 -10  243.35  172.90   5
  -6  -4  10  674.03  568.74   4
   5  -5  10  350.24  315.50   3
   5  -5  10  164.75  330.67   6
   4   5  10 1307.25  537.46   3
   4  -5  10 1234.78  427.04   3
   4  -5  10 1337.92  470.06   6
   4   5  10 1064.23  380.88   1
   3   5  10  169.99  291.43   3
   3  -5  10  -13.31  167.29   3
   3  -5  10  227.50  345.89   6
   2   5  10 2887.20  823.09   3
   2  -5  10 2448.09  633.32   3
   2  -5  10 2677.86  594.99   6
   1   5  10  525.81  612.52   3
   1  -5  10  367.18  301.68   3
   1  -5  10  318.47  318.43   6
   0   5  10 4117.62  961.42   3
   0  -5  10 3771.02  816.99   3
   0  -5  10 3931.94  707.33   6
  -1   5  10  523.05  531.48   3
  -1  -5  10  962.18  638.21   3
  -2   5  10 2988.10  865.68   3
  -2  -5  10 1357.88  685.55   3
  -3   5  10  270.38  408.82   3
  -3  -5 -10  154.51  147.06   2
  -3  -5  10  504.68  557.07   3
  -4   5  10  988.66  369.07   3
  -4  -5 -10 1689.17  508.58   2
  -4  -5  10 1725.36  614.80   3
  -4  -5 -10 1172.77  395.36   5
  -5   5  10  465.28  441.22   3
  -5  -5 -10 -559.66  426.22   2
  -5  -5  10  307.23  317.19   3
  -5  -5 -10  559.75  515.41   5
  -6   5  10  683.21  450.64   1
   4   6  10  283.19  299.94   1
   4  -6  10  296.84  266.79   3
   4  -6  10  474.07  339.73   6
   3   6  10  371.56  395.66   3
   3   6  10  719.99  503.45   1
   3  -6  10  687.04  397.80   3
   3  -6  10  453.52  340.70   6
   2   6  10   55.49  177.41   3
   2   6  10 -178.59  289.06   1
   2  -6  10  119.69  225.05   3
   2  -6  10  523.11  380.94   6
   1   6  10  842.95  527.26   3
   1  -6  10 -287.44  372.69   3
   1  -6  10  837.68  388.46   6
   0   6  10  187.12  270.32   3
   0  -6  10   24.08  219.16   3
   0  -6  10  175.07  221.50   6
  -1   6  10  788.70  514.42   3
  -1  -6  10 1114.83  602.72   3
  -2   6  10  523.56  454.21   3
  -2  -6  10  118.48  201.18   3
  -3   6  10  549.50  536.10   3
  -3  -6 -10 -130.61  316.32   2
  -3  -6  10  472.84  447.42   3
  -4   6  10  446.11  412.03   3
  -4   6  10 -323.31  325.33   1
  -4  -6  10  579.17  628.16   3
  -4  -6 -10  122.17  319.22   5
  -5   6  10  395.92  375.45   1
  -5  -6  10  343.58  389.10   3
  -5  -6 -10  653.41  471.83   5
   4  -7  10  399.92  307.44   3
   4  -7  10  555.18  390.91   6
   3   7  10  311.43  232.53   1
   3  -7  10 1233.08  559.97   3
   3  -7  10  854.80  428.76   6
   2  -7  10   63.91  210.92   3
   2  -7  10  376.11  246.74   6
   2   7  10  206.42  441.04   1
   1   7  10  707.38  419.22   1
   1  -7  10 1216.87  472.42   3
   1  -7  10  343.22  185.20   6
   0   7  10  353.45  324.17   1
   0  -7  10  310.08  226.19   3
  -1  -7  10  404.98  425.91   3
  -1   7  10  536.68  289.33   1
  -2   7  10  227.65  378.82   1
  -2  -7  10  438.33  552.23   3
  -3  -7  10  806.98  586.83   3
  -3   7  10 1184.91  658.78   1
  -4   7  10  382.54  421.80   1
  -4  -7  10   55.43  362.19   3
  -5  -7  10  725.00  511.13   3
  -5  -7 -10   21.05  260.44   5
   4  -8  10  -41.49  235.76   3
   3  -8  10  155.58  248.75   3
   3   8  10  -80.30  195.13   1
   3  -8  10  306.43  322.39   6
   2  -8  10  234.12  157.85   3
   2  -8  10  727.30  375.98   6
   2   8  10  558.45  438.16   1
   1   8  10  477.22  502.02   1
   1  -8  10  170.79  186.34   3
   1  -8  10 -124.25  328.51   6
   0   8  10  716.80  595.42   1
   0  -8  10  943.01  516.59   3
  -1  -8  10  -27.24  276.31   3
  -1   8  10  -51.14  237.06   1
  -2  -8  10  853.60  569.88   3
  -2   8  10  567.28  500.75   1
  -3  -8  10  444.98  471.54   3
   3   9  10  -45.12  169.12   1
   2   9  10  847.68  523.46   1
   2  -9  10  533.03  258.67   6
   1   9  10  668.95  552.81   1
   0   9  10 1655.75  830.85   1
   5   0  11 1366.89  557.91   3
   4   0  11  151.86  283.88   3
   3   0  11 2755.93  703.72   3
   2   0  11  -34.16  206.05   3
   1   0  11 6202.91 1053.82   3
   0   0  11 -259.27  299.07   3
  -1   0  11 6495.98 1100.68   3
  -2   0  11   86.16  295.36   3
  -3   0  11 3165.53  795.44   3
  -4   0  11  -63.89  252.58   3
  -5   0  11 1258.02  610.25   3
   5   1  11  386.90  425.44   3
   5  -1  11  612.16  453.08   3
   4   1  11  144.92  210.96   3
   4  -1  11  122.24  294.77   3
   3   1  11  120.88  193.04   3
   3  -1  11  300.65  462.60   3
   2   1  11  409.96  408.26   3
   2  -1  11  270.32  148.24   3
   2  -1  11  508.29  337.58   6
   1   1  11  389.74  300.69   3
   1  -1  11  681.64  503.98   3
   0   1  11  905.12  551.72   3
   0  -1  11  804.73  450.91   3
  -1   1  11 -219.77  430.96   3
  -1  -1  11  180.62  402.26   3
  -2   1  11   -8.51  274.62   3
  -2  -1  11  658.11  542.07   3
  -3   1  11 -150.53  220.30   3
  -3  -1  11  413.65  386.88   3
  -4   1  11  389.72  409.41   3
  -4  -1  11  299.98  441.59   3
  -5   1  11  512.10  488.35   3
  -5  -1  11  348.35  531.09   3
   5   2  11   90.97  233.69   3
   5  -2  11   43.03  243.37   3
   5  -2  11  365.62  414.92   6
   4   2  11  535.68  399.09   3
   4  -2  11  631.33  333.85   3
   4  -2  11  531.24  398.73   6
   3   2  11 -161.40  266.78   3
   3  -2  11  271.57  236.02   3
   3  -2  11  503.86  282.50   6
   2   2  11  936.57  533.99   3
   2  -2  11 1164.10  571.80   3
   2  -2  11 1137.68  420.33   6
   1   2  11 -676.88  562.43   3
   1  -2  11  116.09  152.25   3
   0   2  11  -27.30  237.48   3
   0  -2  11  444.64  300.04   3
  -1   2  11   97.24  233.89   3
  -1  -2  11  -37.41  153.32   3
  -2   2  11  765.82  416.19   3
  -2  -2  11  194.35  313.95   3
  -3   2  11 -199.94  356.41   3
  -3  -2  11 -179.46  309.38   3
  -4  -2 -11 -571.07  408.90   2
  -4   2  11  845.73  516.89   3
  -4  -2  11  186.70  278.04   3
  -5  -2 -11 -597.19  416.04   2
  -5  -2  11 -125.96  315.63   3
   5   3  11  316.39  379.34   3
   5  -3  11  492.57  425.19   6
   4   3  11  118.02  191.96   3
   4  -3  11  622.20  471.24   3
   4  -3  11  120.02  317.79   6
   3   3  11 -167.53  324.99   3
   3  -3  11  375.74  377.86   3
   3  -3  11  183.06  274.13   6
   2   3  11  834.62  469.44   3
   2  -3  11  394.25  401.48   3
   2  -3  11  302.59  212.23   6
   1   3  11  224.90  298.36   3
   1  -3  11   58.31  161.40   3
   1  -3  11  740.59  409.08   6
   0   3  11  545.06  382.23   3
   0  -3  11  749.23  451.64   3
  -1   3  11  306.72  538.64   3
  -1  -3  11  267.07  370.00   3
  -2   3  11 1030.78  640.86   3
  -2  -3 -11 1590.79  553.28   2
  -2  -3  11  -41.25  200.50   3
  -3  -3 -11  326.99  266.10   2
  -3   3  11   86.12  276.19   3
  -3  -3  11  288.10  277.72   3
  -4   3  11  220.96  188.63   3
  -4  -3  11  268.79  420.55   3
  -5   3  11  142.68  379.34   3
  -5  -3  11  344.57  407.55   3
   5   4  11  576.42  491.60   3
   4   4  11  459.22  422.23   3
   4  -4  11  912.68  533.70   3
   4  -4  11  854.05  532.10   6
   3   4  11  688.00  542.53   3
   3  -4  11  331.40  350.12   3
   3  -4  11  186.17  227.89   6
   2   4  11  983.52  634.58   3
   2  -4  11  126.55  336.00   3
   2  -4  11  449.98  304.15   6
   1   4  11  459.19  447.61   3
   1  -4  11  729.47  438.96   3
   1  -4  11 1357.59  499.48   6
   0   4  11  216.29  235.39   3
   0  -4  11  820.73  545.80   3
  -1   4  11 1389.16  722.53   3
  -1  -4  11  504.67  505.43   3
  -2   4  11  178.76  230.78   3
  -2  -4 -11  184.19  127.06   2
  -2  -4  11  566.64  440.68   3
  -3   4  11  302.91  524.00   3
  -3  -4  11  209.46  184.60   3
  -4   4  11  356.45  462.62   3
  -4  -4 -11 -885.51  446.94   2
  -4  -4  11  344.53  515.14   3
  -5   4  11  123.27  204.92   3
  -5  -4  11   42.65  178.41   3
   4   5  11  150.18  313.54   3
   4  -5  11  697.87  531.90   3
   4  -5  11   16.63  170.84   6
   3   5  11  979.64  611.48   3
   3  -5  11 1056.05  470.38   3
   3  -5  11 1129.74  496.67   6
   2   5  11 1046.73  493.53   3
   2  -5  11  782.33  354.20   3
   2  -5  11  770.01  382.57   6
   1   5  11 1431.49  699.63   3
   1  -5  11 1789.04  575.33   3
   1  -5  11 1824.07  488.71   6
   0   5  11 1634.57  779.95   3
   0  -5  11  867.17  446.06   3
  -1   5  11 2686.62  976.76   3
  -1  -5  11 1070.41  611.27   3
  -2   5  11 1007.93  608.36   3
  -2  -5  11  213.16  383.83   3
  -3   5  11 1365.82  738.84   3
  -3  -5  11  270.73  353.01   3
  -4   5  11  502.33  471.95   3
  -4  -5 -11  464.66  296.47   2
  -4  -5  11  479.57  402.56   3
  -5   5  11  357.10  412.50   3
  -5  -5  11  256.11  321.67   3
   4  -6  11  408.97  398.43   3
   4  -6  11  261.69  314.35   6
   3   6  11  528.96  465.53   3
   3  -6  11  547.94  388.85   3
   3   6  11  -31.58  309.45   1
   3  -6  11  456.90  316.78   6
   2   6  11 1041.48  586.70   3
   2   6  11  418.40  387.89   1
   2  -6  11  715.03  451.94   3
   2  -6  11  344.23  315.05   6
   1   6  11  304.14  437.06   3
   1  -6  11  548.24  405.95   3
   1  -6  11  512.13  359.01   6
   0   6  11  504.01  419.19   3
   0  -6  11  317.62  389.22   3
  -1   6  11  832.54  686.11   3
  -1  -6  11  481.27  566.09   3
  -2   6  11  517.70  419.69   3
  -2  -6  11  674.27  556.79   3
  -3   6  11  395.90  448.89   3
  -3  -6  11  263.71  435.43   3
  -4   6  11 -501.13  523.61   3
  -4  -6 -11 2526.83  754.51   2
   3   7  11 -181.80  412.66   1
   3  -7  11  543.44  454.82   6
   2  -7  11 1074.67  516.26   3
   2  -7  11  790.40  377.65   6
   2   7  11  879.11  579.25   1
   1  -7  11  217.45  242.72   3
   1  -7  11  -56.52  315.74   6
   1   7  11  108.70  317.42   1
   0   7  11  899.18  481.13   3
   0  -7  11 1102.35  527.90   3
   0   7  11 1363.53  816.15   1
  -1   7  11  229.63  414.50   3
  -1  -7  11   96.00  262.64   3
  -1   7  11 -433.52  323.74   1
  -3  -7 -11 6879.58 1505.32   2
   3   8  11 -144.32  237.30   1
   2  -8  11  -52.93  239.87   6
   4   0  12 2240.39  751.57   3
   3   0  12  348.71  395.63   3
   2   0  12 2295.04  733.92   3
   1   0  12   46.76  388.70   3
   0   0  12  574.98  433.60   3
  -1   0  12  259.17  417.30   3
  -2   0  12 2904.98  919.22   3
  -3   0  12  506.36  502.58   3
  -4   0  12 1701.00  664.72   3
  -5   0  12 -181.46  204.74   3
   4   1  12 -105.31  290.89   3
   4  -1  12 -156.17  252.91   3
   4  -1  12  245.67  355.00   6
   3   1  12 -222.23  383.23   3
   3  -1  12  726.77  510.10   3
   3  -1  12  506.75  354.33   6
   2   1  12  678.29  475.38   3
   2  -1  12  696.14  508.30   3
   1   1  12  861.96  558.57   3
   1  -1  12  683.64  430.37   3
   0   1  12 -178.14  373.35   3
   0  -1  12  817.62  576.03   3
  -1   1  12  894.30  590.54   3
  -1  -1  12  389.18  399.33   3
  -2   1  12  352.44  256.01   3
  -2  -1  12  -85.33  214.54   3
  -3   1  12  123.98  237.07   3
  -3  -1  12  -71.68  190.35   3
  -4   1  12 -135.17  305.16   3
  -4  -1  12  540.43  524.36   3
  -5   1  12  362.87  391.24   3
  -5  -1  12  771.67  577.49   3
   4   2  12    1.20  180.00   3
   4  -2  12  264.24  354.07   3
   4  -2  12  -28.56  172.30   6
   3   2  12  670.97  474.98   3
   3  -2  12  720.47  478.45   3
   3  -2  12  377.68  358.18   6
   2   2  12  211.54  219.25   3
   2  -2  12 -427.44  379.08   3
   1   2  12 1006.06  601.20   3
   1  -2  12  802.52  503.52   3
   0   2  12 -152.41  405.71   3
   0  -2  12  204.61  232.72   3
  -1   2  12  562.09  294.86   3
  -1  -2  12   25.66  231.26   3
  -2   2  12  -18.55  295.15   3
  -2  -2  12  524.65  453.88   3
  -3   2  12  108.91  273.07   3
  -3  -2  12  506.39  473.09   3
  -4   2  12 -117.68  293.44   3
  -4  -2  12 -276.12  475.21   3
   4   3  12 -199.22  197.77   3
   4  -3  12  127.50  140.19   3
   4  -3  12  373.08  423.05   6
   3   3  12  550.78  392.01   3
   3  -3  12 -262.47  289.20   3
   3  -3  12  579.88  387.89   6
   2   3  12  362.09  473.99   3
   2  -3  12  293.34  348.26   3
   1   3  12  -57.11  275.54   3
   1  -3  12  411.91  402.08   3
   0   3  12  278.16  452.91   3
   0  -3  12 -291.08  341.09   3
  -1   3  12  110.69  286.45   3
  -1  -3  12 -178.66  268.97   3
  -2   3  12  685.33  604.41   3
  -2  -3  12 -270.41  438.99   3
  -3   3  12  146.01  382.61   3
  -3  -3  12  -15.42  229.48   3
  -4   3  12 -315.30  309.22   3
   4  -4  12   77.92  193.21   6
   3  -4  12  728.21  502.45   3
   3  -4  12  550.70  368.58   6
   2   4  12 1860.00  873.25   3
   2  -4  12 1051.76  451.23   3
   1   4  12  285.42  561.33   3
   1  -4  12  395.37  356.94   3
   0   4  12  808.53  596.34   3
   0  -4  12  192.07  159.87   3
  -1   4  12   31.15  209.80   3
  -1  -4  12  675.78  565.05   3
  -2   4  12  833.92  474.85   3
  -2  -4  12  921.21  598.00   3
  -3   4  12   72.49  345.15   3
   3  -5  12  322.11  397.57   6
   3  -6  12  433.30  384.01   6
   3   6  12  821.36  647.70   1
  -3  -6 -12 2389.92  836.65   2
   0   0   0    0.00    0.00   0
;
_shelx_hkl_checksum              29702
_shelx_res_file
;
TITL exp_2504 in P m n 21
REM  transformed to space group :
CELL   0.71069  7.5750 11.4100 10.1060   90.000   90.000   90.000
ZERR   2        0.0050  0.0050  0.0050    0.005    0.005    0.005
LATT -1
SYMM  1/2 - X, - Y, 1/2 + Z
SYMM  1/2 + X, - Y, 1/2 + Z
SYMM    -X,   Y,   Z
SFAC C   2.3100 20.8439  1.0200 10.2075  1.5886  0.5687  0.8650 51.6512  =
        0.2156  0.0030  0.0020 11.5000 0.770 12.01100
SFAC H   0.4930 10.5109  0.3229 26.1257  0.1402  3.1424  0.0408 57.7998  =
        0.0030  0.0000  0.0000  0.6200 0.320  1.00800
SFAC N  12.2126  0.0057  3.1322  9.8933  2.0125 28.9975  1.1663  0.5826  =
       -11.5290  0.0060  0.0030 19.6000 0.700 14.00700
SFAC O   3.0485 13.2771  2.2868  5.7011  1.5463  0.3239  0.8670 32.9089  =
        0.2508  0.0110  0.0060 32.5000 0.660 15.99900
SFAC Co 12.2841  4.2791  7.3409  0.2784  4.0034 13.5359  2.3488 71.1693  =
        1.0118  0.3490  0.9720 4010.0000 1.260 58.93300
UNIT 36 32 4 12 2
MERG 2
L.S. 50
ACTA 52
FMAP 2
PLAN 4
BOND $H
HTAB
EQIV $1 -1+x,y,z
EQIV $2 x,-1+y,z
SADI 0.01 C71 O11 C71 O21  C81 O31 C81 O41
SADI 0.01 C11 C31 C21 C41 C31 C5 c41 c61 c51 c11
SADI 0.01 C11 C21 c21 c31 c31 c41 c41 c51 c51 c61 c61 c11
SADI 0.01 C11 C71 C61 C81
SADI 0.01  N12 C12 N12 C52 N22 C62 N22 C102
SADI 0.01  C12 C22 C42 C52 C62 C72 C92 C102
SADI 0.01  C32 C22 C32 C42 C82 C72 C82 C92
SADI 0.01  N12 C22 N12 C42 N22 C72 N22 C92
SADI 0.01  C12 C42 C22 C52 C62 C92 C72 C102
SADI 0.01  N12 C32 N22 C82
FLAT 0.01 C11 > C81
FLAT 0.01 N12, C12 > C52
FLAT 0.01 N22, C62 > C102
BIND Co1 O41_$1
BIND Co1 N22_$2
RIGU 0.001
SIMU 0.002
isor 0.005 O1W O2W
TWIN
WGHT    0.084300    0.948000
BASF   0.32635
FVAR       4.04020
CO1   5    0.500000    0.112277    0.514599    10.50000    0.02406    0.01464 =
         0.05554    0.00355    0.00000    0.00000
N12   3    0.500000    0.302540    0.517278    10.50000    0.02312    0.01882 =
         0.03106    0.00325    0.00000    0.00000
N22   3    0.500000    0.919410    0.507799    10.50000    0.02908    0.02054 =
         0.03452    0.00421    0.00000    0.00000
C32   1    0.500000    0.546793    0.522670    10.50000    0.02472    0.02009 =
         0.03098    0.00349    0.00000    0.00000
C82   1    0.500000    0.675514    0.516907    10.50000    0.02722    0.02064 =
         0.03037    0.00389    0.00000    0.00000
PART  -1
O11   4    1.015531    0.051763    0.664176    10.50000    0.02087    0.02702 =
         0.06413    0.00582    0.00045    0.00860
O21   4    0.730014    0.104494    0.643280    10.50000    0.01961    0.02101 =
         0.05445   -0.00103    0.00003    0.00578
O31   4    1.003590    0.062324    0.346937    10.50000    0.01236    0.03144 =
         0.05871   -0.00988   -0.00403    0.00601
O41   4    1.288872    0.110498    0.392176    10.50000    0.01249    0.02142 =
         0.04941    0.00076   -0.00754    0.00732
C11   1    0.952270    0.241015    0.571638    10.50000    0.01812    0.02178 =
         0.05229    0.00002   -0.00404    0.00556
C21   1    0.899855    0.348214    0.621843    10.50000    0.01933    0.02185 =
         0.05221   -0.00013   -0.00515    0.00670
AFIX  43
H21A  2    0.828953    0.350622    0.696921    10.50000   -1.20000
AFIX   0
C31   1    0.951127    0.452092    0.562242    10.50000    0.01983    0.02166 =
         0.05192    0.00028   -0.00702    0.00627
AFIX  43
H31A  2    0.915298    0.523195    0.598339    10.50000   -1.20000
AFIX   0
C41   1    1.055010    0.451330    0.449646    10.50000    0.01915    0.02184 =
         0.05136    0.00061   -0.00769    0.00538
AFIX  43
H41A  2    1.087968    0.520939    0.408638    10.50000   -1.20000
AFIX   0
C51   1    1.108658    0.343844    0.399604    10.50000    0.01790    0.02220 =
         0.05153    0.00057   -0.00649    0.00506
AFIX  43
H51A  2    1.179264    0.341111    0.324383    10.50000   -1.20000
AFIX   0
C61   1    1.057934    0.240665    0.460736    10.50000    0.01586    0.02198 =
         0.05113    0.00027   -0.00580    0.00660
C71   1    0.894345    0.124497    0.637350    10.50000    0.01925    0.02193 =
         0.05400    0.00017   -0.00100    0.00612
C81   1    1.123630    0.125185    0.397349    10.50000    0.01331    0.02257 =
         0.05072    0.00004   -0.00689    0.00705
PART  -2
C12   1    0.431275    0.360066    0.619413    10.50000    0.02452    0.01960 =
         0.03181    0.00315    0.00084   -0.00077
AFIX  43
H12A  2    0.389082    0.317189    0.691001    10.50000   -1.20000
AFIX   0
C22   1    0.419817    0.481536    0.623728    10.50000    0.02487    0.02003 =
         0.03164    0.00323    0.00068   -0.00038
AFIX  43
H22A  2    0.360164    0.518818    0.692266    10.50000   -1.20000
AFIX   0
C42   1    0.555519    0.485144    0.410177    10.50000    0.02455    0.02030 =
         0.03163    0.00314    0.00031   -0.00008
AFIX  43
H42A  2    0.589104    0.524945    0.333918    10.50000   -1.20000
AFIX   0
C52   1    0.559462    0.363340    0.414691    10.50000    0.02447    0.01983 =
         0.03150    0.00304    0.00038    0.00030
AFIX  43
H52A  2    0.605732    0.322833    0.342760    10.50000   -1.20000
AFIX   0
C62   1    0.355141    0.859086    0.477341    10.50000    0.02913    0.02146 =
         0.03450    0.00542   -0.00112   -0.00049
AFIX  43
H62A  2    0.251656    0.900042    0.459634    10.50000   -1.20000
AFIX   0
C72   1    0.352213    0.737664    0.470932    10.50000    0.02762    0.02135 =
         0.03344    0.00507   -0.00120   -0.00038
AFIX  43
H72A  2    0.254674    0.698341    0.436987    10.50000   -1.20000
AFIX   0
C92   1    0.658953    0.739697    0.529390    10.50000    0.02706    0.02105 =
         0.03067    0.00324   -0.00027    0.00015
AFIX  43
H92A  2    0.767170    0.701507    0.534849    10.50000   -1.20000
AFIX   0
C102  1    0.649192    0.861373    0.533287    10.50000    0.02874    0.02122 =
         0.03270    0.00289   -0.00041    0.00039
AFIX  43
H10A  2    0.750168    0.903799    0.554394    10.50000   -1.20000
AFIX   0
O1W   4    0.357360    0.104464    0.686913    10.50000    0.01552    0.01690 =
         0.04960    0.00197   -0.00363   -0.00403
O2W   4    0.658506    0.110563    0.333109    10.50000    0.02361    0.02475 =
         0.05274    0.00423    0.00096    0.00149
PART   0
HKLF 4
REM  exp_2504 in P m n 21
REM R1 =  0.0635 for    1427 Fo > 4sig(Fo)  and  0.0979 for all    1973 data
REM    230 parameters refined using    435 restraints
END
WGHT      0.0670      0.9154
REM No hydrogen bonds found for HTAB generation
REM Highest difference peak  0.714,  deepest hole -0.415,  1-sigma level  0.096
Q1    1   0.5000  0.1158  0.6128  10.50000  0.05    0.71
Q2    1   0.5000  0.1145  0.4225  10.50000  0.05    0.66
Q3    1   0.3861  0.1070  0.5164  11.00000  0.05    0.63
Q4    1   1.0000  0.4622  0.5020  10.50000  0.05    0.47
;
_shelx_res_checksum              42898
_shelxl_version_number           .2013
#END Tags that were not found in dictionaries
loop_
_space_group_symop_operation_xyz
'x, y, z'
'-x+1/2, -y, z+1/2'
'x+1/2, -y, z+1/2'
'-x, y, z'
loop_
_atom_site_type_symbol
_atom_site_label
_atom_site_fract_x
_atom_site_fract_y
_atom_site_fract_z
_atom_site_U_iso_or_equiv
_atom_site_adp_type
_atom_site_calc_flag
_atom_site_occupancy
_atom_site_disorder_assembly
_atom_site_disorder_group
Co Co1 0.5000 0.11228(9) 0.5146(9) 0.0314(4) Uani d 1 . .
N N12 0.5000 0.3025(5) 0.5173(16) 0.0243(10) Uani d 1 A .
N N22 0.5000 0.9194(5) 0.5078(13) 0.0280(12) Uani d 1 . .
C C32 0.5000 0.5468(6) 0.5227(16) 0.0253(11) Uani d 1 . .
C C82 0.5000 0.6755(6) 0.517(3) 0.0261(11) Uani d 1 A .
O O11 1.016(3) 0.0518(10) 0.6642(17) 0.037(2) Uani d 0.5 A -1
O O21 0.7300(18) 0.1045(11) 0.643(2) 0.0317(17) Uani d 0.5 A -1
O O31 1.004(4) 0.0623(10) 0.3469(15) 0.034(2) Uani d 0.5 A -1
O O41 1.2889(15) 0.1105(12) 0.392(2) 0.0278(18) Uani d 0.5 A -1
C C11 0.9523(16) 0.2410(11) 0.5716(15) 0.0307(12) Uani d 0.5 A -1
C C21 0.8999(15) 0.3482(13) 0.6218(12) 0.0311(14) Uani d 0.5 A -1
H H21A 0.8290 0.3506 0.6969 0.037 Uiso calc 0.5 A -1
C C31 0.951(2) 0.4521(10) 0.5622(17) 0.0311(15) Uani d 0.5 A -1
H H31A 0.9153 0.5232 0.5983 0.037 Uiso calc 0.5 A -1
C C41 1.055(2) 0.4513(12) 0.4496(17) 0.0308(15) Uani d 0.5 A -1
H H41A 1.0880 0.5209 0.4086 0.037 Uiso calc 0.5 A -1
C C51 1.1087(16) 0.3438(13) 0.3996(13) 0.0305(14) Uani d 0.5 A -1
H H51A 1.1793 0.3411 0.3244 0.037 Uiso calc 0.5 A -1
C C61 1.0579(17) 0.2407(10) 0.4607(15) 0.0297(12) Uani d 0.5 A -1
C C71 0.8943(16) 0.1245(14) 0.637(2) 0.0317(14) Uani d 0.5 A -1
C C81 1.1236(17) 0.1252(14) 0.397(2) 0.0289(15) Uani d 0.5 A -1
C C12 0.4313(10) 0.3601(11) 0.6194(14) 0.0253(13) Uani d 0.5 A -2
H H12A 0.3891 0.3172 0.6910 0.030 Uiso calc 0.5 A -2
C C22 0.4198(19) 0.4815(10) 0.6237(15) 0.0255(13) Uani d 0.5 A -2
H H22A 0.3602 0.5188 0.6923 0.031 Uiso calc 0.5 A -2
C C42 0.5555(17) 0.4851(10) 0.4102(14) 0.0255(13) Uani d 0.5 A -2
H H42A 0.5891 0.5249 0.3339 0.031 Uiso calc 0.5 A -2
C C52 0.5595(11) 0.3633(10) 0.4147(14) 0.0253(13) Uani d 0.5 A -2
H H52A 0.6057 0.3228 0.3428 0.030 Uiso calc 0.5 A -2
C C62 0.3551(12) 0.8591(8) 0.4773(10) 0.0284(14) Uani d 0.5 A -2
H H62A 0.2517 0.9000 0.4596 0.034 Uiso calc 0.5 A -2
C C72 0.3522(15) 0.7377(8) 0.4709(18) 0.0275(14) Uani d 0.5 A -2
H H72A 0.2547 0.6983 0.4370 0.033 Uiso calc 0.5 A -2
C C92 0.6590(12) 0.7397(7) 0.529(2) 0.0263(14) Uani d 0.5 A -2
H H92A 0.7672 0.7015 0.5348 0.032 Uiso calc 0.5 A -2
C C102 0.6492(11) 0.8614(8) 0.5333(12) 0.0276(14) Uani d 0.5 A -2
H H10A 0.7502 0.9038 0.5544 0.033 Uiso calc 0.5 A -2
O O1W 0.357(2) 0.1045(12) 0.687(2) 0.027(3) Uani d 0.5 A -2
O O2W 0.659(3) 0.1106(14) 0.333(2) 0.034(4) Uani d 0.5 A -2
loop_
_atom_site_aniso_label
_atom_site_aniso_U_11
_atom_site_aniso_U_22
_atom_site_aniso_U_33
_atom_site_aniso_U_12
_atom_site_aniso_U_13
_atom_site_aniso_U_23
Co1 0.0241(6) 0.0146(5) 0.0555(8) 0.000 0.000 0.0036(13)
N12 0.023(2) 0.0188(18) 0.031(2) 0.000 0.000 0.003(3)
N22 0.029(2) 0.021(2) 0.035(3) 0.000 0.000 0.004(3)
C32 0.025(2) 0.0201(18) 0.031(2) 0.000 0.000 0.003(3)
C82 0.027(2) 0.0206(18) 0.030(2) 0.000 0.000 0.004(3)
O11 0.021(4) 0.027(4) 0.064(5) 0.009(4) 0.000(4) 0.006(4)
O21 0.020(3) 0.021(3) 0.054(3) 0.006(3) 0.000(2) -0.001(4)
O31 0.012(3) 0.031(4) 0.059(5) 0.006(4) -0.004(4) -0.010(4)
O41 0.012(3) 0.021(3) 0.049(4) 0.007(3) -0.008(3) 0.001(4)
C11 0.018(2) 0.022(2) 0.052(2) 0.006(3) -0.0040(18) 0.000(4)
C21 0.019(3) 0.022(2) 0.052(3) 0.007(3) -0.005(2) 0.000(4)
C31 0.020(3) 0.022(2) 0.052(3) 0.006(3) -0.007(2) 0.000(4)
C41 0.019(3) 0.022(2) 0.051(3) 0.005(3) -0.008(2) 0.001(4)
C51 0.018(3) 0.022(2) 0.052(3) 0.005(3) -0.006(2) 0.001(4)
C61 0.016(2) 0.022(2) 0.051(3) 0.007(3) -0.0058(19) 0.000(4)
C71 0.019(3) 0.022(2) 0.054(3) 0.006(3) -0.001(2) 0.000(4)
C81 0.013(3) 0.023(3) 0.051(3) 0.007(3) -0.007(2) 0.000(4)
C12 0.025(2) 0.020(2) 0.032(3) -0.0008(17) 0.0008(17) 0.003(3)
C22 0.025(2) 0.020(2) 0.032(3) -0.0004(17) 0.0007(17) 0.003(3)
C42 0.025(3) 0.020(2) 0.032(3) -0.0001(17) 0.0003(17) 0.003(3)
C52 0.024(2) 0.020(2) 0.032(3) 0.0003(17) 0.0004(16) 0.003(3)
C62 0.029(2) 0.021(2) 0.035(3) -0.0005(15) -0.0011(17) 0.005(3)
C72 0.028(2) 0.021(2) 0.033(3) -0.0004(15) -0.0012(17) 0.005(3)
C92 0.027(2) 0.021(2) 0.031(3) 0.0001(14) -0.0003(17) 0.003(3)
C102 0.029(2) 0.021(2) 0.033(3) 0.0004(14) -0.0004(17) 0.003(3)
O1W 0.016(5) 0.017(7) 0.050(4) -0.004(4) -0.004(4) 0.002(4)
O2W 0.024(6) 0.025(8) 0.053(4) 0.001(5) 0.001(4) 0.004(4)
loop_
_atom_type_symbol
_atom_type_description
_atom_type_scat_dispersion_real
_atom_type_scat_dispersion_imag
_atom_type_scat_source
C C 0.0030 0.0020 'International Tables Vol C Tables 4.2.6.8 and 6.1.1.4'
H H 0.0000 0.0000 'International Tables Vol C Tables 4.2.6.8 and 6.1.1.4'
N N 0.0060 0.0030 'International Tables Vol C Tables 4.2.6.8 and 6.1.1.4'
O O 0.0110 0.0060 'International Tables Vol C Tables 4.2.6.8 and 6.1.1.4'
Co Co 0.3490 0.9720 'International Tables Vol C Tables 4.2.6.8 and 6.1.1.4'
loop_
_geom_angle_atom_site_label_1
_geom_angle_atom_site_label_2
_geom_angle_atom_site_label_3
_geom_angle_site_symmetry_1
_geom_angle_site_symmetry_3
_geom_angle
O41 Co1 N12 1_455 . 91.0(5)
O1W Co1 N12 . . 91.9(6)
O41 Co1 O21 1_455 . 176.9(4)
N12 Co1 O21 . . 91.9(4)
O1W Co1 O2W . . 176.7(6)
N12 Co1 O2W . . 91.1(6)
O41 Co1 N22 1_455 1_545 88.3(5)
O1W Co1 N22 . 1_545 89.0(6)
N12 Co1 N22 . 1_545 178.9(7)
O21 Co1 N22 . 1_545 88.7(4)
O2W Co1 N22 . 1_545 88.0(6)
C52 N12 C12 . . 118.8(7)
C52 N12 Co1 . . 120.9(9)
C12 N12 Co1 . . 120.2(9)
C62 N22 C102 . . 119.1(6)
C62 N22 Co1 . 1_565 121.6(5)
C102 N22 Co1 . 1_565 119.3(5)
C42 C32 C22 . . 117.0(7)
C42 C32 C82 . . 118.0(13)
C22 C32 C82 . . 124.0(12)
C72 C82 C92 . . 116.5(8)
C72 C82 C32 . . 121.2(7)
C92 C82 C32 . . 120.9(4)
C71 O21 Co1 . . 138.7(17)
C81 O41 Co1 . 1_655 139.2(18)
C61 C11 C21 . . 117.9(11)
C61 C11 C71 . . 120.7(15)
C21 C11 C71 . . 121.4(14)
C11 C21 C31 . . 121.1(8)
C11 C21 H21A . . 119.4
C31 C21 H21A . . 119.4
C41 C31 C21 . . 120.8(10)
C41 C31 H31A . . 119.6
C21 C31 H31A . . 119.6
C31 C41 C51 . . 118.2(11)
C31 C41 H41A . . 120.9
C51 C41 H41A . . 120.9
C61 C51 C41 . . 120.5(8)
C61 C51 H51A . . 119.7
C41 C51 H51A . . 119.7
C11 C61 C51 . . 121.5(9)
C11 C61 C81 . . 121.8(15)
C51 C61 C81 . . 116.8(15)
O11 C71 O21 . . 125.7(15)
O11 C71 C11 . . 116.7(11)
O21 C71 C11 . . 116.9(11)
O41 C81 O31 . . 128.3(19)
O41 C81 C61 . . 116.6(12)
O31 C81 C61 . . 114.7(12)
N12 C12 C22 . . 122.8(7)
N12 C12 H12A . . 118.6
C22 C12 H12A . . 118.6
C12 C22 C32 . . 118.7(7)
C12 C22 H22A . . 120.7
C32 C22 H22A . . 120.7
C52 C42 C32 . . 118.8(7)
C52 C42 H42A . . 120.6
C32 C42 H42A . . 120.6
N12 C52 C42 . . 122.8(7)
N12 C52 H52A . . 118.6
C42 C52 H52A . . 118.6
N22 C62 C72 . . 122.7(7)
N22 C62 H62A . . 118.6
C72 C62 H62A . . 118.6
C62 C72 C82 . . 118.4(7)
C62 C72 H72A . . 120.8
C82 C72 H72A . . 120.8
C102 C92 C82 . . 118.3(6)
C102 C92 H92A . . 120.9
C82 C92 H92A . . 120.9
N22 C102 C92 . . 122.3(7)
N22 C102 H10A . . 118.8
C92 C102 H10A . . 118.8
loop_
_geom_bond_atom_site_label_1
_geom_bond_atom_site_label_2
_geom_bond_site_symmetry_2
_geom_bond_distance
Co1 O41 1_455 2.022(14)
Co1 O1W . 2.051(18)
Co1 N12 . 2.171(6)
Co1 O21 . 2.176(16)
Co1 O2W . 2.192(19)
Co1 N22 1_545 2.202(6)
N12 C52 . 1.326(9)
N12 C12 . 1.329(9)
N22 C62 . 1.331(9)
N22 C102 . 1.335(8)
N22 Co1 1_565 2.202(6)
C32 C42 . 1.401(10)
C32 C22 . 1.402(10)
C32 C82 . 1.470(10)
C82 C72 . 1.404(10)
C82 C92 . 1.415(9)
O11 C71 . 1.267(13)
O21 C71 . 1.267(11)
O31 C81 . 1.265(14)
O41 C81 . 1.264(11)
O41 Co1 1_655 2.022(14)
C11 C61 . 1.377(9)
C11 C21 . 1.382(9)
C11 C71 . 1.550(12)
C21 C31 . 1.385(9)
C21 H21A . 0.9300
C31 C41 . 1.384(9)
C31 H31A . 0.9300
C41 C51 . 1.387(9)
C41 H41A . 0.9300
C51 C61 . 1.384(9)
C51 H51A . 0.9300
C61 C81 . 1.547(12)
C12 C22 . 1.389(10)
C12 H12A . 0.9300
C22 H22A . 0.9300
C42 C52 . 1.391(10)
C42 H42A . 0.9300
C52 H52A . 0.9300
C62 C72 . 1.387(10)
C62 H62A . 0.9300
C72 H72A . 0.9300
C92 C102 . 1.391(10)
C92 H92A . 0.9300
C102 H10A . 0.9300
