#------------------------------------------------------------------------------
#$Date: 2016-02-20 00:18:51 +0200 (Sat, 20 Feb 2016) $
#$Revision: 176760 $
#$URL: svn://www.crystallography.net/cod/cif/2/01/95/2019595.cif $
#------------------------------------------------------------------------------
#
# This file is available in the Crystallography Open Database (COD),
# http://www.crystallography.net/. The original data for this entry
# were provided by IUCr Journals, http://journals.iucr.org/.
#
# The file may be used within the scientific community so long as
# proper attribution is given to the journal article from which the
# data were obtained.
#
data_2019595
loop_
_publ_author_name
'Benali-Cherif, Rim'
'Takouachet, Radhwane'
'Bendeif, El-Eulmi'
'Benali-Cherif, Nourredine'
_publ_section_title
;
 A comparative study of two polymorphs of <small>L</small>-aspartic acid
 hydrochloride
;
_journal_coeditor_code           SK3547
_journal_issue                   7
_journal_name_full               'Acta Crystallographica Section C'
_journal_page_first              689
_journal_page_last               692
_journal_paper_doi               10.1107/S2053229614013163
_journal_volume                  70
_journal_year                    2014
_chemical_formula_iupac          'C4 H8 N O4 +, Cl -'
_chemical_formula_moiety         'C4 H8 N O4 +, Cl -'
_chemical_formula_sum            'C4 H8 Cl N O4'
_chemical_formula_weight         169.56
_chemical_name_common            'L-Aspartate chloride'
_chemical_name_systematic
;
<i>L</i>-Aspartic acid hydrochloride
;
_space_group_crystal_system      orthorhombic
_space_group_IT_number           18
_space_group_name_Hall           'P 2 2ab'
_space_group_name_H-M_alt        'P 21 21 2'
_symmetry_space_group_name_Hall  'P 2 2ab'
_symmetry_space_group_name_H-M   'P 21 21 2'
_atom_sites_solution_hydrogens   difmap
_atom_sites_solution_primary     direct
_atom_sites_solution_secondary   difmap
_audit_creation_method           SHELXL-2014
_cell_angle_alpha                90
_cell_angle_beta                 90
_cell_angle_gamma                90
_cell_formula_units_Z            4
_cell_length_a                   9.7082(2)
_cell_length_b                   8.9123(3)
_cell_length_c                   8.4820(2)
_cell_measurement_reflns_used    17470
_cell_measurement_temperature    100(2)
_cell_measurement_theta_max      45.494
_cell_measurement_theta_min      3.189
_cell_volume                     733.88(3)
_computing_cell_refinement
;
CrysAlis PRO (Agilent, 2012)
;
_computing_data_collection
;
CrysAlis PRO (Agilent, 2012)
;
_computing_data_reduction
;
CrysAlis PRO (Agilent, 2012)
;
_computing_molecular_graphics
;
Mercury (Macrae <i>et al.</i>, 2006) and PLATON (Spek, 2003).
;
_computing_publication_material  'enCIFer (Allen <i>et al.</i>, 2004)'
_computing_structure_refinement
;
SHELXL2014 (Sheldrick, 2008) and WinGX (Farrugia, 2012)
;
_computing_structure_solution    'SHELXS2014 (Sheldrick, 2008)'
_diffrn_ambient_temperature      100(2)
_diffrn_detector_area_resol_mean 10.4508
_diffrn_measured_fraction_theta_full 0.998
_diffrn_measured_fraction_theta_max 0.994
_diffrn_measurement_device_type  'Agilent SuperNova (Dual, Cu at zero, Atlas)'
_diffrn_measurement_method       '\w scans'
_diffrn_radiation_type           MoK\a
_diffrn_radiation_wavelength     0.71073
_diffrn_reflns_av_R_equivalents  0.0265
_diffrn_reflns_limit_h_max       19
_diffrn_reflns_limit_h_min       -19
_diffrn_reflns_limit_k_max       12
_diffrn_reflns_limit_k_min       -17
_diffrn_reflns_limit_l_max       17
_diffrn_reflns_limit_l_min       -16
_diffrn_reflns_number            17470
_diffrn_reflns_theta_full        25.242
_diffrn_reflns_theta_max         45.494
_diffrn_reflns_theta_min         3.189
_exptl_absorpt_coefficient_mu    0.479
_exptl_absorpt_correction_T_max  0.955
_exptl_absorpt_correction_T_min  0.936
_exptl_absorpt_correction_type   analytical
_exptl_absorpt_process_details
;
[<i>CrysAlis PRO</i> (Agilent, 2012), using a multifaceted crystal
model based on expressions derived by Clark & Reid (1995)]
;
_exptl_crystal_colour            colourless
_exptl_crystal_density_diffrn    1.535
_exptl_crystal_density_method    'not measured'
_exptl_crystal_description       prism
_exptl_crystal_F_000             352
_exptl_crystal_size_max          0.200
_exptl_crystal_size_mid          0.144
_exptl_crystal_size_min          0.119
_refine_diff_density_max         0.463
_refine_diff_density_min         -0.566
_refine_ls_abs_structure_details
;
Flack <i>x</i> determined using 2029 quotients [(I+)-(I-)]/[(I+)+(I-)]
(Parsons <i>et al.</i>, 2013)
;
_refine_ls_abs_structure_Flack   -0.031(16)
_refine_ls_extinction_method     none
_refine_ls_goodness_of_fit_ref   1.044
_refine_ls_hydrogen_treatment    refall
_refine_ls_matrix_type           full
_refine_ls_number_parameters     123
_refine_ls_number_reflns         6012
_refine_ls_number_restraints     0
_refine_ls_restrained_S_all      1.044
_refine_ls_R_factor_all          0.0464
_refine_ls_R_factor_gt           0.0368
_refine_ls_shift/su_max          0.003
_refine_ls_shift/su_mean         0.000
_refine_ls_structure_factor_coef Fsqd
_refine_ls_weighting_details
'w=1/[\s^2^(Fo^2^)+(0.0448P)^2^+0.0170P] where P=(Fo^2^+2Fc^2^)/3'
_refine_ls_weighting_scheme      calc
_refine_ls_wR_factor_gt          0.0831
_refine_ls_wR_factor_ref         0.0903
_reflns_number_gt                5353
_reflns_number_total             6012
_reflns_threshold_expression     I>2\s(I)
_cod_data_source_file            sk3547sup1.cif
_cod_data_source_block           II
_cod_depositor_comments
'Adding full bibliography for 2019595--2019596.cif.'
_cod_database_code               2019595
_cod_database_fobs_code          2019595
#BEGIN Tags that were not found in dictionaries:
_shelx_space_group_comment
;
The symmetry employed for this shelxl refinement is uniquely defined
by the following loop, which should always be used as a source of
symmetry information in preference to the above space-group names.
They are only intended as comments.
;
_shelx_estimated_absorpt_t_min   0.910
_shelx_estimated_absorpt_t_max   0.945
_shelx_hkl_checksum              9287
_shelx_hkl_file
;
   0   0  -2 679940. 1568.10   8
   0   0   2 667684. 1555.69  11
   0   0   3 38900.1 476.427  10
   0   0  -3 39199.1 447.377   5
   0   0  -3 38843.4 465.199   8
   0   0   3 38596.3 453.647  11
   0   0  -4 409.980 58.9534   8
   0   0  -4 431.123 57.4660   5
   0   0   4 501.493 64.3622  10
   0   0   4 457.586 55.6204   2
   0   0  -4 405.183 58.6510  11
   0   0   4 440.925 58.9658  11
   0   0  -4 437.716 68.3681  10
   0   0  -5 14811.1 384.086   8
   0   0   5 14734.7 381.703   3
   0   0   5 14756.6 340.144   2
   0   0   5 15323.5 373.276  11
   0   0   5 15340.0 385.025  10
   0   0  -6 29024.3 597.169   8
   0   0   6 29346.0 573.222  11
   0   0   6 29717.8 527.802   2
   0   0  -6 29440.4 599.497  11
   0   0   6 28857.3 590.927   3
   0   0   6 26962.2 565.747  10
   0   0   7 58666.5 917.951   3
   0   0   7 59439.8 819.581   2
   0   0  -7 59011.7 929.739  11
   0   0  -7 58816.2 922.006   8
   0   0   7 60822.4 890.029  11
   0   0   7 58974.9 896.921  10
   0   0   8 14733.5 501.703   3
   0   0   8 15166.3 485.729  10
   0   0   8 14944.2 446.282   2
   0   0  -8 14718.1 503.254  11
   0   0  -8 14234.7 495.188   8
   0   0   8 15114.2 476.514  11
   0   0   9 22971.7 599.899   2
   0   0   9 23826.0 644.146  11
   0   0   9 23414.9 647.864  10
   0   0  10 26405.9 679.130   2
   0   0 -11 4523.50 354.898   6
   0   0 -12 11891.8 607.315   6
   0   0 -13 2416.22 295.827   6
   0   0 -14 78.8245 93.1104   6
   0   0 -15-35.9762 78.9329   6
   0   0 -16-13.6712 100.194   6
   0   0  17-195.226 118.898   4
   0  -1   1 832.965 33.8320  11
   0  -1   1 871.887 43.9970   1
   0  -1   1 807.396 47.1940  10
   0   1  -2 9869.06 199.824   3
   0   1  -2 9718.98 183.263   5
   0  -1   2 9545.90 162.088  11
   0  -1   2 9773.12 204.007  10
   0  -1  -2 9912.74 195.164   8
   0   1   2 9736.53 215.700  11
   0  -1  -2 9840.20 197.426   2
   0  -1  -2 9922.58 201.075   6
   0  -1  -3 19969.5 339.522   8
   0   1   3 19129.1 327.770   2
   0   1   3 20064.4 361.873  11
   0  -1   3 19814.3 341.977   3
   0  -1   3 19657.1 294.439  11
   0  -1   3 19883.9 343.626  10
   0   1   3 18987.2 357.236  10
   0   1  -3 20151.4 315.001  11
   0   1  -3 20434.2 341.604   8
   0   1  -3 20051.6 324.632   5
   0   1  -4 12154.3 305.927   8
   0   1   4 11807.4 315.220  10
   0   1   4 11435.0 284.680   2
   0   1  -4 11772.6 282.558  11
   0  -1   4 12004.4 272.161  11
   0   1  -4 12633.0 297.853   5
   0   1   4 12048.1 320.420  11
   0  -1   4 11984.5 304.222  10
   0  -1  -4 12144.0 304.816   8
   0  -1   4 12202.5 311.608   3
   0  -1   5 6045.77 219.039  11
   0   1  -5 5804.44 231.477   5
   0   1   5 5861.56 227.361   2
   0   1  -5 5643.07 238.649   8
   0   1  -5 5826.51 229.400  11
   0  -1   5 5948.64 239.102  10
   0   1   5 5583.71 238.604  10
   0   1   5 5919.70 248.319  11
   0  -1   5 5940.56 244.059   3
   0  -1  -5 5826.10 240.308   8
   0  -1   6 441.764 75.1170   3
   0   1   6 422.718 77.5323  11
   0  -1   6 415.068 65.1973  11
   0   1   6 310.342 60.6717   2
   0   1   6 400.558 48.5692  12
   0  -1  -6 431.248 76.6042   8
   0  -1  -6 455.350 77.5865  11
   0  -1   6 410.053 68.7809  10
   0   1  -6 427.637 82.0017  10
   0   1  -6 452.238 79.9257   8
   0   1   6 467.650 79.2811  10
   0  -1  -7 28040.1 664.869  11
   0  -1   7 27183.0 535.520   2
   0   1  -7 27820.2 707.865  10
   0   1   7 28070.2 637.075  11
   0   1   7 26531.3 413.940  12
   0  -1  -7 26983.0 629.527   8
   0   1   7 27653.8 588.246   2
   0  -1   7 27724.0 610.825  10
   0   1   7 28306.7 630.255  10
   0  -1   7 27657.5 571.519  11
   0   1  -7 27805.1 614.957  11
   0  -1   7 27537.4 629.165   3
   0   1   8 786.830 116.490  11
   0   1   8 686.111 107.522  10
   0  -1   8 705.718 100.307  11
   0   1   8 617.779 105.512   3
   0   1   8 733.757 104.322   2
   0  -1   8 655.296 89.7079   2
   0   1  -8 686.613 105.202  11
   0  -1   8 591.717 99.4334   3
   0  -1   8 583.981 96.5762  10
   0  -1  -8 661.452 115.408   8
   0  -1  -8 582.618 109.638   6
   0   1   9 12800.4 489.137  11
   0   1  -9 12189.0 477.090  11
   0  -1   9 11855.9 474.863   3
   0   1   9 11744.1 465.468  10
   0   1   9 12032.6 447.805   2
   0  -1   9 12211.6 440.858  11
   0  -1   9 12162.9 468.744  10
   0  -1   9 12378.2 423.465   2
   0  -1  -9 12149.9 496.780   8
   0  -1  -9 11971.5 504.091   6
   0  -1 -10 306.505 97.7318   6
   0  -1 -11 199.968 95.9531   6
   0  -1 -12 352.742 118.166   6
   0   1 -12 250.374 108.182   6
   0  -1 -13 1065.48 203.104   6
   0   1 -13 929.036 187.185   6
   0  -1 -14 2579.85 319.571   6
   0   1 -14 2439.28 312.215   6
   0   1 -15 15.1111 72.4732   6
   0  -1 -15 185.365 108.004   6
   0  -1 -16 2784.33 346.596   6
   0  -1  16 2164.81 337.458   4
   0   1 -16 2643.53 334.329   6
   0  -2   0 386244. 1202.55   4
   0  -2   0 365265. 1131.99  10
   0  -2  -1 1804.40 89.6216   4
   0  -2   1 1783.36 87.2812   4
   0   2  -1 1747.36 61.6050  11
   0  -2   1 1626.66 82.6419  10
   0   2   1 1885.70 81.5529  12
   0  -2   2 180197. 1049.86   4
   0  -2   2 179364. 686.612  11
   0   2  -2 178886. 938.253   3
   0   2   2 178017. 858.585  12
   0  -2  -2 179207. 990.593   2
   0   2   2 176496. 1028.51  11
   0   2  -2 178144. 698.196  11
   0  -2  -2 177372. 891.905   8
   0  -2   2 177043. 848.896   1
   0  -2   2 176384. 956.259  10
   0   2  -2 177577. 803.421   5
   0  -2  -3 12348.6 276.920   8
   0  -2  -3 12278.3 285.552   2
   0  -2   3 12467.3 219.412  11
   0   2   3 13037.6 249.473  12
   0  -2  -3 12497.2 292.022   6
   0  -2   3 12421.1 287.831  10
   0   2   3 12368.2 311.816  11
   0   2  -3 12748.3 259.543   5
   0   2  -3 12530.6 234.371  11
   0   2  -3 12779.6 289.039   3
   0   2   4 13911.0 343.390   2
   0   2   4 14606.1 374.178  11
   0   2  -4 13949.2 341.086   3
   0   2   4 14849.6 287.555  12
   0   2  -4 14386.1 323.092   5
   0  -2  -4 14297.5 353.195   6
   0   2  -4 14462.1 300.487  11
   0  -2   4 14415.8 280.662  11
   0  -2  -4 14645.9 341.906   8
   0  -2   4 14746.2 353.479  10
   0  -2   4 14319.0 342.650   3
   0   2   5 4466.27 212.515   2
   0  -2   5 4846.90 222.206  10
   0   2  -5 4660.00 208.340   5
   0  -2  -5 4803.78 230.947   6
   0   2  -5 4801.99 197.551  11
   0   2   5 4490.87 226.476  10
   0   2   5 5036.80 242.189  11
   0   2   5 4969.20 177.359  12
   0   2  -5 5054.28 249.748  10
   0  -2   5 4764.82 220.817   3
   0  -2   5 4588.60 180.298  11
   0  -2  -5 4484.00 216.273   8
   0   2  -6 16402.9 495.437  10
   0   2   6 16306.5 339.758  12
   0  -2  -6 16558.8 453.784   8
   0   2   6 16061.7 474.137  11
   0  -2   6 16168.2 448.912   3
   0   2  -6 15958.4 428.347   5
   0  -2   6 16050.0 441.778  10
   0   2   6 16355.9 464.489  10
   0   2   6 15911.6 435.611   2
   0  -2  -6 15724.2 460.773   6
   0  -2   6 16640.1 381.223  11
   0   2   7 550.288 90.3669  10
   0  -2  -7 693.634 108.198   8
   0  -2   7 545.459 92.1653  10
   0   2   7 556.330 89.5062   2
   0  -2   7 600.816 81.0583  11
   0   2  -7 536.059 82.0731  11
   0   2   7 497.127 63.2919  12
   0  -2  -7 619.261 109.146   6
   0   2  -7 657.928 112.366  10
   0  -2   7 691.701 104.882   3
   0   2   7 571.075 98.3139  11
   0  -2  -8 66985.6 1113.50   6
   0   2  -8 66726.4 1202.78  10
   0  -2   8 65373.9 1048.23   3
   0  -2  -8 65907.7 1079.79   8
   0   2   8 64298.5 696.105  12
   0   2   8 66980.0 1057.58  10
   0  -2   8 66026.8 911.538  11
   0   2  -8 65821.3 994.155  11
   0   2   8 67828.3 1105.81  11
   0  -2   8 64087.5 1008.89  10
   0  -2   8 66756.0 884.535   2
   0  -2   9 2392.52 181.313   2
   0  -2   9 2291.59 185.153  11
   0   2  -9 2418.86 206.289  11
   0   2   9 2414.94 217.054  10
   0  -2  -9 2394.92 233.096   6
   0  -2  -9 2397.59 224.415   8
   0  -2 -10 18891.7 672.939   8
   0  -2 -10 18279.1 674.802   6
   0  -2 -11 59.3268 77.0608   6
   0  -2 -12 966.148 195.060   6
   0  -2 -13-65.7965 94.9184   6
   0   2 -13 163.120 85.0253   6
   0  -2 -14 64.4949 81.9066   6
   0   2 -14-159.132 128.984   6
   0  -2  15 1179.85 266.618   4
   0   2 -15 1866.70 279.519   6
   0   2 -16 325.298 136.230   6
   0  -2  16 255.535 140.511   4
   0  -3   0 3.71832 22.4127  10
   0  -3   0 29.6547 22.0847   4
   0  -3  -1 588717. 1479.28   9
   0   3   1 582913. 1748.15  12
   0  -3  -1 587621. 1910.72   4
   0  -3   1 573510. 1849.59   4
   0   3  -2 37889.9 467.083   1
   0   3   2 37268.5 465.523  12
   0   3  -2 38490.1 354.097  11
   0  -3  -2 37149.4 519.084   4
   0  -3  -2 38410.8 523.201   2
   0  -3   2 38746.7 530.750   4
   0  -3   2 38883.4 504.925  10
   0  -3  -2 39559.2 453.130   8
   0   3   2 37782.2 529.812  11
   0   3  -2 40141.0 394.778   5
   0   3   3 10671.8 260.152  12
   0  -3   3 11102.0 294.421  10
   0  -3  -3 10577.9 269.504   8
   0   3  -3 10951.5 287.948   3
   0  -3  -3 10559.1 294.966   2
   0   3  -3 10776.9 243.346   5
   0  -3   3 10901.7 313.275   4
   0  -3   3 10464.0 252.501   1
   0   3   3 10178.2 308.169  11
   0  -3   3 11042.1 207.425  11
   0   3  -3 10432.5 210.645  11
   0   3   4 98477.9 1042.86  11
   0  -3  -4 97722.9 919.348   8
   0   3   4 98244.8 829.736  12
   0  -3   4 100881. 846.509   1
   0  -3   4 96448.9 1064.21   4
   0   3  -4 101829. 969.407   3
   0  -3   4 99126.9 716.157  11
   0  -3  -4 99777.3 976.061   2
   0   3  -4 100000. 855.789   5
   0   3  -4 92585.4 741.942  11
   0  -3   4 99343.9 971.829  10
   0  -3  -4 93930.6 976.216   6
   0   3  -5 27402.5 549.387   3
   0   3   5 26360.5 585.212  11
   0   3  -5 26209.8 589.559  10
   0  -3  -5 25757.0 560.036   6
   0  -3   5 26357.1 540.795  10
   0   3   5 27581.6 455.680  12
   0  -3   5 27104.4 423.571  11
   0   3  -5 27327.3 458.883  11
   0   3  -5 26392.9 499.767   5
   0  -3  -5 26126.9 529.401   8
   0   3   6 25054.0 454.656  12
   0  -3  -6 24698.2 565.149   8
   0  -3  -6 24073.4 588.220   6
   0  -3   6 26106.0 579.039  10
   0  -3   6 24694.3 452.577  11
   0   3  -6 24844.6 535.943   5
   0   3   6 25464.2 613.336  10
   0   3   6 25158.6 619.398  11
   0   3  -6 26161.5 640.993  10
   0  -3   7 9501.37 372.152  10
   0   3  -7 8973.09 325.645  11
   0   3  -7 8938.51 410.589  10
   0   3   7 9290.61 390.734  10
   0   3   7 9563.27 404.538  11
   0  -3  -7 9185.19 372.533   8
   0  -3   7 9196.86 302.012  11
   0   3   7 9069.67 283.832  12
   0  -3  -7 9283.00 395.061   6
   0  -3   7 9059.24 369.735   3
   0  -3   8 57104.9 993.889   3
   0   3  -8 58415.5 1145.41  10
   0  -3   8 57728.5 979.984  10
   0   3  -8 56800.3 889.864  11
   0   3   8 56280.1 1013.68  10
   0  -3  -8 59105.4 1072.12   6
   0  -3  -8 57695.6 1013.63   8
   0  -3   8 57918.1 824.442  11
   0   3   8 56201.2 714.228  12
   0   3   8 59059.4 1066.95  11
   0   3   9 2397.90 221.129  10
   0  -3   9 2030.17 166.794  11
   0  -3  -9 2092.12 222.892   6
   0   3  -9 2068.72 184.507  11
   0  -3  -9 2440.85 236.473   8
   0  -3 -10 3336.55 291.777   8
   0  -3 -10 3333.60 301.215   6
   0  -3 -11 14451.4 651.828   6
   0  -3 -11 13578.6 639.624   8
   0  -3 -12 1139.87 205.101   6
   0  -3 -13 6066.56 475.982   6
   0  -3  13 5976.63 474.836   4
   0   3 -14 1981.65 289.535   6
   0  -3  14 1135.84 239.507   4
   0   3 -15-6.15003 93.0229   6
   0  -3  15-79.2430 120.433   4
   0  -3  16 745.295 200.656   4
   0   3 -16 484.807 150.188   6
   0  -4   0 62538.2 663.214  10
   0  -4   0 61096.3 695.463   4
   0  -4  -1 3106.42 122.100   9
   0  -4   1 3283.69 161.451   4
   0  -4   1 3150.69 153.834  10
   0   4  -1 3074.91 150.447   1
   0  -4  -1 3275.65 164.484   4
   0   4   1 3094.96 147.856  10
   0  -4   2 6080.72 227.181   4
   0  -4   2 5764.22 218.305  10
   0   4   2 5759.21 229.946  11
   0   4  -2 5788.67 209.677   1
   0   4   2 5902.22 210.872  12
   0  -4  -2 5542.88 222.531   2
   0   4  -2 5817.46 157.430  11
   0   4  -2 5786.59 153.751   5
   0  -4  -2 5761.18 230.186   4
   0  -4   3 22320.4 473.300   4
   0  -4  -3 22061.3 406.851   8
   0  -4   3 21966.2 453.828  10
   0   4   3 21748.1 482.908  11
   0   4   3 21385.0 413.277  12
   0  -4  -3 21826.6 471.177   2
   0   4  -3 22422.0 360.041   5
   0   4  -3 21812.0 318.780  11
   0   4  -3 21616.1 443.936   3
   0   4  -4 2250.28 132.430   5
   0   4   4 2020.91 134.060  12
   0  -4   4 2250.82 136.501   1
   0  -4  -4 2015.81 139.474   8
   0   4  -4 2070.07 148.494   3
   0   4   4 2138.26 166.122  11
   0  -4   4 2039.47 149.487  10
   0  -4  -4 2057.53 155.730   2
   0  -4   4 1922.13 158.715   4
   0  -4   4 2210.66 108.074  11
   0   4  -4 2061.63 110.923  11
   0   4  -5 15483.5 436.018   3
   0   4   5 15016.9 371.018  12
   0   4  -5 14925.4 331.600  11
   0   4   5 14422.3 456.954  11
   0   4  -5 14501.1 454.404  10
   0  -4   5 14793.5 461.877   4
   0  -4  -5 14886.6 436.734   2
   0  -4   5 14466.2 423.851  10
   0   4  -5 14989.5 384.823   5
   0  -4   5 15090.8 369.622   1
   0  -4  -5 14848.2 409.577   8
   0  -4   5 15117.5 311.968  11
   0  -4   6 3449.89 220.810  10
   0   4   6 3197.29 182.849  12
   0   4  -6 3434.58 243.822  10
   0   4  -6 3279.26 215.107   3
   0  -4   6 3604.60 247.837   4
   0   4  -6 3431.85 203.688   5
   0  -4   6 3358.84 188.306   1
   0  -4   6 3739.19 171.298  11
   0   4   6 3518.39 243.353  11
   0  -4  -6 3286.37 210.859   8
   0   4   7 3637.72 256.596  10
   0  -4  -7 3080.68 222.048   8
   0   4  -7 3248.00 255.520  10
   0  -4   7 3233.02 226.952  10
   0   4   7 3128.28 179.782  12
   0   4   7 3342.12 252.967  11
   0  -4   7 3199.54 190.877   1
   0  -4   7 2396.61 246.132   4
   0  -4  -7 3112.55 240.421   6
   0  -4   7 3411.05 179.203  11
   0   4  -7 3165.06 186.808  11
   0  -4  -8 47.7225 77.6313   6
   0   4   8 16.7725 36.2931  10
   0  -4  -8 66.8681 61.0051   8
   0  -4   8 111.452 46.5069   1
   0   4  -8 10.9118 21.5694  11
   0  -4   8 65.4286 35.2269  11
   0   4   8 72.1796 39.4722  12
   0  -4   8 197.296 96.1163   4
   0  -4   9 649.797 157.601   4
   0   4   9 709.611 126.390  10
   0  -4  -9 598.682 145.830   6
   0  -4  -9 620.936 127.285   8
   0  -4  10 4139.01 348.114   4
   0  -4 -10 4127.15 317.606   8
   0  -4 -10 3808.46 329.591   6
   0  -4 -11 305.956 115.320   8
   0  -4  11 272.596 129.083   4
   0  -4  12 605.220 157.328   4
   0  -4  13 177.720 87.9259   4
   0  -4  14 42.2932 121.936   4
   0   4 -15 1844.26 282.610   6
   0  -4  15 1767.76 274.852   4
   0   4 -16 20.1437 59.5101   6
   0  -4  16 13.4683 84.6974   4
   0  -5   0 58.2204 42.6828   4
   0   5   0 97.5670 39.0082  10
   0   5  -1 48620.5 675.295   1
   0  -5   1 50088.5 685.959  10
   0  -5   1 49926.3 707.510   4
   0   5   1 48700.4 657.241  10
   0  -5  -1 49708.6 537.090   9
   0  -5  -1 50149.7 718.893   4
   0   5  -2 4838.90 162.979  11
   0  -5   2 4655.61 223.179   4
   0   5   2 4840.84 211.523  10
   0   5   2 4805.05 229.358  11
   0   5  -2 4816.89 146.288   5
   0   5  -2 5206.56 223.699   1
   0  -5  -2 4591.99 228.762   4
   0  -5   2 4798.36 219.397  10
   0   5   3 38192.3 690.077  11
   0   5  -3 38268.2 451.846  11
   0  -5  -3 38338.6 571.167   8
   0  -5  -3 39354.6 691.238   2
   0   5  -3 38818.2 482.036   5
   0  -5   3 38704.1 651.943  10
   0  -5   3 37437.8 658.167   4
   0   5   3 38254.4 619.906  12
   0   5   4 2360.37 184.635  11
   0  -5  -4 2322.25 155.632   8
   0   5  -4 2316.34 168.608   3
   0   5  -4 2370.07 118.474  11
   0   5  -4 2461.68 139.508   5
   0  -5  -4 2584.03 186.751   2
   0   5   4 2299.66 158.991  12
   0  -5   4 1985.01 163.108   4
   0   5  -4 2577.78 187.452  10
   0  -5   4 2456.98 175.701  10
   0   5  -5 24679.8 423.589  11
   0   5  -5 24544.2 495.685   5
   0  -5   5 25423.2 499.978   1
   0  -5  -5 25092.8 610.488   2
   0   5  -5 25297.8 632.360  10
   0  -5   5 24515.5 615.815   4
   0  -5   5 25466.9 591.300  10
   0   5   5 24732.9 521.578  12
   0   5   5 24946.8 634.334  11
   0  -5  -5 24186.5 542.962   8
   0   5  -5 24650.8 578.077   3
   0   5   6 28762.1 582.503  12
   0   5   6 28915.9 720.856  11
   0  -5   6 27436.5 698.703   4
   0   5  -6 26245.7 482.460  11
   0   5  -6 29236.7 739.094  10
   0   5  -6 27751.9 584.601   5
   0   5  -6 27623.6 650.952   3
   0  -5   6 28189.7 547.010   1
   0  -5  -6 27357.5 621.202   8
   0  -5   6 29029.6 460.614  11
   0  -5   6 29343.1 669.718  10
   0  -5   7 11557.6 317.459  11
   0  -5   7 11278.9 438.808  10
   0  -5  -7 11306.7 434.184   8
   0  -5   7 10627.0 471.049   4
   0  -5   7 11868.8 372.855   1
   0   5  -7 12324.7 515.123  10
   0   5   7 11526.8 378.836  12
   0   5   8 12741.9 528.769  10
   0  -5   8 13768.3 568.923   4
   0  -5  -8 13261.0 505.588   8
   0  -5  -9 2872.84 254.550   8
   0  -5   9 3163.05 292.812   4
   0  -5  10-10.6383 91.2735   4
   0  -5 -10-38.6596 66.6821   8
   0  -5 -11 370.620 120.379   8
   0  -5  11 559.891 171.162   4
   0  -5  12 2107.85 283.565   4
   0  -5  13 36.7746 97.5197   4
   0  -5  14 125.290 83.2026   4
   0  -5  15 103.771 105.962   4
   0  -5  16 1250.09 234.509   4
   0   5 -16 1370.26 247.634   6
   0   6   0 82265.6 941.814  10
   0  -6   0 78374.2 1000.21   4
   0   6   1 37.2589 30.6826  10
   0   6  -1 19.0829 26.1957   1
   0  -6  -1 55.6575 49.6478   4
   0  -6   1 38.8965 37.7003   4
   0  -6   1 48.4088 38.2306  10
   0   6  -1 60.0129 35.0019  10
   0  -6  -1 17.6264 25.0327   9
   0  -6   2 11834.5 390.466   4
   0   6   2 11624.8 382.220  11
   0  -6   2 11918.6 379.951  10
   0  -6  -2 11941.5 403.053   4
   0   6   2 12200.6 366.091  10
   0   6  -2 11761.3 228.008   5
   0   6  -2 11940.6 282.939  11
   0   6  -2 11694.6 381.394  10
   0  -6   3 11373.1 382.813  10
   0   6   3 11403.5 363.418  10
   0  -6  -3 11474.7 409.527   4
   0  -6  -3 11673.1 405.681   2
   0   6  -3 11827.7 269.562   5
   0  -6   3 11283.2 393.704   4
   0   6  -3 10865.1 261.835  11
   0  -6  -3 10979.9 320.181   8
   0   6  -3 11299.0 394.739  10
   0   6   3 10769.2 392.970  11
   0  -6   4 158.228 67.4777   4
   0   6  -4 230.870 62.2473   3
   0   6  -4 85.9145 29.4952  11
   0  -6  -4 167.562 59.6033   2
   0  -6   4 132.635 52.7961  10
   0   6   4 233.377 69.9710  11
   0   6  -4 108.370 33.1061   5
   0  -6  -4 121.873 53.0926   8
   0   6  -4 143.615 56.7658  10
   0  -6  -5 2308.79 173.077   8
   0  -6  -5 2469.06 205.037   2
   0  -6   5 2325.45 198.133   4
   0  -6   5 2420.91 194.816  10
   0   6  -5 2291.05 154.471   5
   0   6  -5 2578.58 212.772  10
   0   6   5 2184.27 198.345  11
   0   6  -5 2304.41 187.776   3
   0   6  -5 2101.76 124.021  11
   0   6   6 2139.89 208.551  11
   0   6  -6 1884.35 127.142  11
   0   6  -6 2150.19 192.426   3
   0   6  -6 2344.04 219.474  10
   0  -6   6 2161.79 196.150  10
   0  -6  -6 2176.83 200.924   2
   0  -6   6 2103.37 207.215   4
   0  -6  -6 1989.36 176.499   8
   0  -6   7 14509.8 555.012   4
   0   6  -7 14636.0 525.630   3
   0  -6  -7 14533.7 501.296   8
   0  -6  -8 2431.24 223.636   8
   0   6   8 2179.93 237.007  10
   0  -6   8 1896.74 237.802   4
   0  -6  -9 15386.2 590.563   8
   0  -6   9 23120.1 781.562   4
   0  -6  10 4303.80 374.873   4
   0  -6 -10 3789.95 317.126   8
   0  -6  11 5280.64 413.154   4
   0  -6 -11 3631.79 327.685   8
   0  -6 -12 6141.57 455.389   8
   0  -6  12 6028.52 479.258   4
   0  -6  13 3342.29 360.931   4
   0  -6  14 569.942 179.867   4
   0  -6  15 1991.06 287.030   4
   0  -6  16 364.873 142.335   4
   0  -7   0 42.6773 23.8536   9
   0   7   0 124.742 50.1791  10
   0  -7   0 82.2727 67.4898   4
   0   7  -1 15.3946 32.2155  10
   0  -7   1 33.5407 59.1769   4
   0   7   1 67.9638 43.1655  10
   0   7   1 85.5345 46.6844  11
   0  -7  -1 126.078 63.1525   4
   0   7  -1 271.470 67.1587   1
   0  -7  -1 119.254 38.1203   9
   0  -7   1 90.2000 46.1334  10
   0   7  -2 52439.0 862.503   1
   0  -7  -2 55202.9 908.101   2
   0   7  -2 51751.3 642.883  11
   0  -7  -2 51583.8 918.579   4
   0   7   2 52931.3 881.891  11
   0  -7   2 54525.6 884.282  10
   0  -7   2 54319.7 905.983   4
   0   7  -2 54723.7 894.740  10
   0   7  -2 51924.8 475.010   5
   0   7   2 53745.7 834.485  10
   0  -7   3 946.632 143.571   4
   0  -7   3 885.053 119.213  10
   0   7  -3 1063.83 131.255   1
   0   7   3 792.830 122.072  11
   0   7  -3 847.985 76.0739   5
   0  -7  -3 1008.03 135.221   2
   0  -7  -3 878.337 101.269   8
   0   7   3 798.989 106.738  10
   0  -7  -3 922.042 142.598   4
   0   7  -3 874.257 84.0928  11
   0   7  -3 844.922 119.226  10
   0   7  -4 13008.0 459.491   3
   0   7  -4 13436.0 486.615  10
   0   7  -4 12720.3 325.542   5
   0   7   4 13006.3 429.495  10
   0   7  -4 11734.3 290.278  11
   0  -7   4 13252.0 461.941  10
   0  -7  -4 12440.2 385.194   8
   0  -7  -4 13826.4 491.247   2
   0  -7   4 12697.6 466.952   4
   0   7   4 12838.8 481.933  11
   0   7   5 4358.80 294.056  11
   0   7  -5 4453.51 277.942   3
   0  -7   5 4421.21 279.726  10
   0   7  -5 3874.00 169.146  11
   0  -7   5 4315.92 284.053   4
   0   7  -5 4453.51 296.366  10
   0  -7  -5 4754.15 302.045   2
   0  -7  -5 4216.31 240.936   8
   0  -7  -6 99.9247 51.9951   8
   0  -7   6 91.5255 74.9397   4
   0   7  -6 107.317 50.0871   3
   0  -7   7 4101.79 313.394   4
   0  -7  -7 3920.81 268.224   8
   0  -7   8 74.9054 86.0296   4
   0  -7  -8-4.09992 45.6443   8
   0  -7   9 160.680 112.006   4
   0  -7  -9 208.714 88.2739   8
   0  -7  10-32.2829 95.1371   4
   0  -7 -10 132.016 97.6238   8
   0  -7 -11 677.212 150.602   8
   0  -7  11 752.576 178.803   4
   0  -7  12 1399.88 231.791   4
   0  -7 -12 1240.81 211.085   8
   0  -7  13 614.562 158.286   4
   0  -7  14 894.625 197.861   4
   0  -7  15-76.1421 89.1533   4
   0  -8   0 28204.4 706.543   4
   0  -8   0 27151.1 490.196   9
   0   8   0 29215.0 669.121  10
   0  -8  -1 5265.12 215.562   9
   0   8  -1 5652.01 300.953  10
   0   8   1 5679.62 293.425  11
   0   8   1 5766.63 293.254  10
   0  -8  -1 5281.13 313.602   4
   0  -8   1 5421.29 311.581   4
   0   8  -1 5936.69 314.220   1
   0  -8   2 1814.59 177.420  10
   0   8   2 1762.62 176.318  11
   0  -8  -2 1850.98 193.405   4
   0  -8   2 1680.45 184.122   4
   0   8   2 1703.86 160.625  10
   0   8  -2 1804.73 178.546  10
   0   8  -2 1422.04 157.827   1
   0  -8  -2 1916.99 182.626   2
   0  -8   3 3612.46 263.526   4
   0   8   3 3695.18 264.352  11
   0  -8  -3 3510.21 264.108   4
   0  -8  -3 3448.26 251.586   2
   0   8   3 3718.68 240.917  10
   0   8  -3 3380.30 248.305  10
   0  -8   3 3666.78 254.115  10
   0  -8  -3 3314.56 195.576   8
   0   8  -3 3604.66 246.661   1
   0   8   4 19.6730 28.7511  10
   0  -8  -4 42.8457 37.5332   8
   0   8   4 13.3258 36.6105  11
   0  -8   4 28.2054 63.4988   4
   0   8  -4 28.6679 19.9714  11
   0  -8  -5 4155.57 248.594   8
   0   8   5 4446.71 275.763  10
   0   8  -5 4361.33 291.630   3
   0  -8   5 4450.79 310.042   4
   0  -8   6 3351.41 283.341   4
   0  -8  -6 3294.54 234.903   8
   0  -8   7 11204.0 521.251   4
   0  -8  -7 10034.7 435.004   8
   0  -8  -8 2270.51 224.721   8
   0  -8   8 2013.51 245.375   4
   0  -8  -9 1459.33 196.027   8
   0  -8   9 1696.84 227.072   4
   0  -8 -10 1706.20 225.305   8
   0  -8  10 1535.03 237.224   4
   0  -8 -11 132.581 90.5727   8
   0  -8  11 71.9692 99.5404   4
   0  -8 -12 143.470 112.906   8
   0  -8  12-69.3453 103.305   4
   0  -8  13 847.991 195.283   4
   0  -8  14 1457.12 248.607   4
   0  -8  15 328.538 127.965   4
   0  -9   0 71.3949 75.7695   4
   0   9   0 57.2428 41.1151  11
   0   9   0 83.0232 50.7258   1
   0  -9   0 29.3089 32.9459   9
   0   9   0 120.150 59.7150  10
   0   9   1 36928.8 801.529  10
   0  -9   1 36286.4 871.057   4
   0  -9  -1 35260.8 591.334   9
   0   9  -1 37261.0 849.664   1
   0   9   1 37211.8 805.660  11
   0  -9  -1 36857.3 873.252   4
   0  -9   1 35413.1 602.924   9
   0  -9   2 817.030 147.213   4
   0  -9  -2 847.757 140.762   4
   0   9   2 1000.46 133.016  10
   0   9  -2 993.472 143.098   1
   0   9  -2 825.457 95.7019  11
   0   9   2 819.446 129.618  11
   0   9   3 7590.46 401.268  11
   0   9  -3 7652.52 382.908   1
   0  -9   3 8959.92 441.147   4
   0  -9  -3 7693.36 304.119   8
   0  -9  -3 8089.84 438.549   4
   0  -9   4 312.417 109.247   4
   0  -9  -4 498.507 87.4523   8
   0  -9   5 1108.04 181.110   4
   0  -9  -5 794.900 109.306   8
   0  -9  -6 370.592 84.3840   8
   0  -9   6 461.427 124.418   4
   0  -9  -7 4202.90 287.096   8
   0  -9   7 4378.93 361.738   4
   0  -9   8 11248.8 577.116   4
   0  -9  -8 11343.5 498.371   8
   0  -9   9 1709.85 245.098   4
   0  -9  -9 1614.93 202.590   8
   0  -9 -10 10687.4 541.141   8
   0  -9  10 10978.3 607.589   4
   0  -9 -11 662.512 147.355   8
   0  -9  11 472.418 165.676   4
   0  -9 -12 2532.27 291.307   8
   0  -9  12 2745.83 328.976   4
   0  -9  13 1632.22 259.168   4
   0  -9  14 1943.01 283.919   4
   0  10   0 120.432 52.0297  11
   0 -10   0 148.508 89.3842   4
   0 -10  -1 5156.53 361.889   4
   0  10  -1 4653.46 278.155  11
   0 -10   1 4546.73 338.167   4
   0  10   1 4734.81 310.366  11
   0 -10  -2 707.179 164.631   4
   0 -10   2 754.700 167.457   4
   0  10  -2 637.153 126.682   1
   0 -10   3 1182.14 184.663   4
   0 -10  -3 1070.14 117.323   8
   0 -10  -3 1292.04 196.333   4
   0  10  -3 957.072 149.879   1
   0 -10  -4 8162.14 342.647   8
   0 -10   4 9283.45 491.417   4
   0 -10   5 592.354 166.963   4
   0 -10  -5 642.683 106.625   8
   0 -10  -6 25242.4 668.110   8
   0 -10   6 25842.3 865.371   4
   0 -10   7 170.225 115.914   4
   0 -10  -7 33.8106 47.2344   8
   0 -10  -8 987.953 155.142   8
   0 -10   8 857.538 178.176   4
   0 -10   9 1451.65 236.493   4
   0 -10  -9 1636.50 203.868   8
   0 -10 -10 32.0234 66.4182   8
   0 -10  10 73.8930 92.3032   4
   0 -10 -11 399.824 115.689   8
   0 -10  11 452.687 153.190   4
   0 -10  12 793.131 198.969   4
   0 -10  13 1066.84 220.231   4
   0 -10  14 184.859 110.775   4
   0 -11   0-3.60475 91.5543   4
   0 -11  -1 2741.31 290.439   4
   0 -11   1 2621.88 283.380   4
   0 -11  -2 3865.59 348.085   4
   0 -11   2 3704.93 336.552   4
   0 -11  -3-18.6870 95.8925   4
   0 -11   3 74.1495 85.6858   4
   0 -11   4 62.0032 97.4205   4
   0 -11   5 7887.00 497.848   4
   0 -11   6 2919.12 332.240   4
   0 -11   7 7637.20 502.925   4
   0 -11   8 2720.84 321.728   4
   0 -11   9 2108.27 285.297   4
   0 -11  10 122.913 106.828   4
   0 -11  11 2008.60 291.657   4
   0 -11  12 2286.21 306.026   4
   0 -11  13 85.4000 95.5131   4
   0 -12   0 24545.7 882.240   4
   0 -12  -1-267.612 155.737   4
   0 -12   1 1.26090 94.6620   4
   0 -12   2 27002.7 936.405   4
   0 -12  -2 29232.4 957.867   4
   0 -12   3 385.611 141.736   4
   0 -12   4 17186.7 761.777   4
   0 -12   5 1412.77 230.104   4
   0 -12   6 6803.54 492.172   4
   0 -12   7 3434.44 363.086   4
   0 -12   8 2138.45 295.947   4
   0 -12   9 6783.02 523.743   4
   0 -12  10-96.0302 103.183   4
   0 -12  11 691.287 179.774   4
   0 -12  12 1230.46 235.657   4
   0 -13   0 158.771 122.942   4
   0 -13  -1 48.8606 99.4778   4
   0 -13   1-116.765 136.166   4
   0 -13  -2 4021.45 385.360   4
   0 -13   2 4421.49 402.895   4
   0 -13   3 428.555 161.259   4
   0 -13   4 442.512 152.359   4
   0 -13   5 5207.39 442.947   4
   0 -13   6 961.656 208.208   4
   0 -13   7 2943.30 348.284   4
   0 -13   8 692.630 185.022   4
   0 -13   9-218.983 130.346   4
   0 -13  10 2486.35 334.638   4
   0 -13  11 540.133 165.313   4
   0 -14   0 5927.11 479.588   4
   0 -14   1 1132.63 227.763   4
   0 -14  -1 1078.75 225.853   4
   0 -14   2 2542.51 318.449   4
   0 -14  -2 3055.96 348.721   4
   0 -14   3 941.801 207.938   4
   0 -14   4 8223.14 574.337   4
   0 -14   5 806.248 195.862   4
   0 -14   6 13804.7 747.460   4
   0 -14   7 2562.83 332.247   4
   0 -14   8 1948.38 285.533   4
   0 -14   9 159.430 97.7189   4
   0 -14  10 610.087 171.365   4
   0 -15   0 31.5792 98.0801   4
   0 -15   1 8412.58 597.490   4
   0 -15  -1 9054.46 618.938   4
   0 -15   2 168.962 110.860   4
   0 -15   3 4892.47 452.437   4
   0 -15   4 31.9250 107.205   4
   0 -15   5 2568.59 337.788   4
   0 -15   6 85.6391 77.9769   4
   0 -15   7 1960.70 304.772   4
   0 -15   8 277.532 134.720   4
   0 -15   9 673.269 180.918   4
   0 -16   0 35.2201 110.561   4
   0 -16   1 930.104 215.362   4
   0 -16   2 928.198 203.349   4
   0 -16   3 815.079 205.529   4
   0 -16   4 247.461 132.155   4
   0 -16   5 325.951 148.852   4
   0 -16   6 347.527 152.760   4
   0 -16   7 50.4488 105.399   4
   0 -17   1 2861.30 361.137   4
   0 -17   2 2267.27 329.771   4
   0 -17   3 2251.15 323.315   4
   0 -17   4 1324.78 253.159   4
   0 -17   5 3516.23 403.661   4
   1   0  -1 1049.73 55.7657   3
   1   0  -2 60342.5 485.286   8
  -1   0  -2 60202.1 475.386   5
   1   0   2 57785.4 495.902  11
   1   0  -2 57950.1 360.933   2
  -1   0   2 58651.1 456.867  11
  -1   0   2 60036.6 410.875  10
   1   0   2 56673.8 547.619  10
   1   0  -3 24915.8 372.666  10
  -1   0  -3 24323.8 367.411   5
  -1   0   3 23536.3 297.345   2
  -1   0   3 24265.4 355.866  11
  -1   0  -3 24086.1 377.571   8
   1   0   3 22266.9 396.491  10
   1   0  -3 24249.3 376.163   8
  -1   0   3 24902.8 342.656  10
   1   0   3 24451.7 381.316  11
  -1   0   4 274.030 42.9541   2
   1   0   4 312.931 55.8552  10
   1   0  -4 335.817 56.3325  10
   1   0  -4 324.660 57.7081   8
  -1   0  -4 314.280 52.2180   8
  -1   0  -4 346.161 53.3707   5
  -1   0   4 378.986 55.3357  10
   1   0   4 321.724 53.8721  11
  -1   0   4 256.344 48.3505  11
  -1   0  -5 109803. 1017.40   5
   1   0   5 111759. 1030.83  11
  -1   0  -5 107610. 1037.33   8
   1   0   5 110565. 1097.90  10
  -1   0   5 113231. 970.489  10
   1   0  -5 111540. 1092.19  10
   1   0  -5 108637. 1042.18   8
  -1   0   5 109645. 865.208   2
  -1   0   5 105809. 1071.48   3
  -1   0   5 111785. 998.694  11
   1   0   6 14844.1 412.617  11
  -1   0   6 14354.9 433.362   3
   1   0   6 15213.8 440.916  10
   1   0  -6 14892.2 424.755   8
  -1   0   6 14943.3 390.606  10
  -1   0  -6 14642.8 435.074  11
  -1   0   6 14480.6 352.064   2
  -1   0  -6 14802.8 412.517   5
  -1   0   6 14709.9 398.101  11
   1   0   7 3373.88 226.833  10
   1   0  -7 3196.76 220.191   8
  -1   0   7 3053.16 218.838   3
  -1   0   7 3485.95 212.511  11
  -1   0  -7 3452.69 231.014  11
  -1   0  -7 3212.54 211.940   5
   1   0   7 3081.86 205.052   3
   1   0   7 3406.32 206.583   2
  -1   0   7 3152.37 179.453   2
   1   0   7 3331.12 213.342  11
  -1   0   7 3405.04 204.650  10
  -1   0   8 14898.7 519.724   3
   1   0   8 14699.7 461.198   2
  -1   0   8 15082.9 460.222  10
  -1   0   8 14485.9 417.588   2
   1   0  -8 14871.1 507.453   8
  -1   0   8 15133.0 474.462  11
   1   0   8 15045.0 504.101  10
   1   0   8 15025.7 482.224  11
  -1   0  -8 15016.9 519.972  11
   1   0   8 14187.6 476.416   3
  -1   0   9 6381.58 330.530  11
   1   0   9 6184.20 342.233   3
   1   0  -9 6043.00 352.371   8
  -1   0   9 6372.09 325.969  10
   1   0   9 6444.15 330.621   2
   1   0   9 6400.12 348.848  10
  -1   0  -9 6455.12 369.775  11
   1   0   9 6259.26 334.278  11
  -1   0 -10 1989.25 220.661   6
  -1   0 -11 263.568 99.6335   6
   1   0 -11 415.768 112.036   6
   1   0 -12 4226.84 369.958   6
  -1   0 -12 4265.47 362.747   6
   1   0 -13 3229.22 342.344   6
  -1   0 -13 3557.95 351.211   6
   1   0 -14 3177.79 360.435   6
  -1   0 -14 3137.58 341.923   6
   1   0 -15 832.363 197.248   6
  -1   0 -15 667.925 164.828   6
  -1   0 -16 340.551 97.1239   6
   1   0 -16 489.868 148.102   6
  -1   0  17 174.551 97.1687   4
   1  -1  16 1156.40 251.247   4
   1   1 -16 1418.43 264.979   6
   1   1 -15 1155.57 216.800   6
  -1  -1 -15 1254.96 228.293   6
   1   1 -14 2211.53 300.867   6
  -1  -1 -14 2292.29 293.559   6
  -1  -1 -13 543.989 151.408   6
   1   1 -13 521.783 153.792   6
   1   1 -12 4634.04 389.643   6
  -1  -1 -12 4846.94 389.250   6
  -1  -1 -11 570.300 117.003   6
  -1  -1 -10 3667.08 298.951   6
  -1  -1  -9 4044.46 286.641   6
   1  -1   9 4077.94 271.247   3
  -1   1   9 3836.87 271.043  11
   1  -1   9 4291.87 264.908   2
  -1   1   9 4300.83 267.346  10
   1  -1   9 4250.52 266.600  11
   1  -1   8 6297.51 313.514   3
  -1  -1  -8 6493.68 352.690  11
  -1   1   8 6059.05 296.347  10
   1   1  -8 6077.05 324.566   8
  -1   1   8 6299.80 320.245  11
  -1   1   8 5880.53 328.250   3
   1  -1   8 6058.22 316.314  10
   1  -1   8 6059.77 288.910   2
   1  -1   8 6281.89 300.062  11
  -1  -1  -8 6151.42 326.719   6
  -1   1   7 7625.59 310.330  10
   1  -1   7 7177.84 310.770   3
   1   1  -7 7384.16 327.458   8
  -1  -1  -7 7187.80 324.807   8
   1  -1   7 7285.90 325.384  10
   1  -1   7 7710.93 307.498  11
  -1  -1  -7 7515.14 351.259  11
  -1  -1  -7 7000.07 322.263   6
  -1   1   7 7689.11 329.947  11
  -1   1   7 7193.96 336.519   3
   1   1  -7 7919.66 363.537  10
  -1  -1  -6 7878.42 329.664  11
  -1  -1  -6 7195.88 295.353   8
  -1  -1  -6 7571.63 291.687   5
   1  -1   6 7712.01 312.296  10
   1   1  -6 7315.99 298.714   8
   1  -1   6 7346.65 289.900   3
  -1   1   6 7568.87 307.279  11
   1  -1   6 7708.57 283.093  11
   1   1  -6 7659.97 320.593  10
  -1  -1  -6 7077.73 294.325   6
  -1   1   6 7368.68 278.782  10
   1   1  -5 10076.2 286.985  11
  -1  -1  -5 10412.5 315.587   6
  -1  -1  -5 9962.34 303.237   5
  -1  -1  -5 10146.8 317.890   8
  -1   1   5 9922.02 296.869  10
   1  -1   5 10188.4 295.677  11
   1  -1   5 10318.1 333.365  10
   1   1  -5 9998.75 316.110   8
  -1   1   5 10204.7 322.714  11
   1  -1   5 9944.21 301.446   3
  -1   1   4 25362.4 461.668  11
   1   1  -4 25991.7 445.150   8
  -1  -1  -4 25666.6 443.940   8
   1  -1   4 25559.7 423.725   3
  -1  -1  -4 25707.6 426.873   5
   1  -1   4 25386.9 474.601  10
  -1   1   4 25779.2 420.031  10
   1  -1   4 25505.8 418.530  11
   1   1  -4 25459.1 396.731  11
   1   1  -4 22944.0 429.311  10
  -1  -1  -4 25697.1 435.781   6
   1   1  -3 105990. 660.441  11
   1  -1   3 102165. 722.710   3
  -1  -1  -3 108054. 750.539   5
   1  -1   3 109594. 871.158  10
  -1   1   3 108132. 845.042  11
   1   1  -3 109206. 782.633   8
  -1  -1  -3 108692. 765.076   6
  -1  -1  -3 108508. 785.529   8
  -1   1   3 112707. 755.356  10
   1  -1   3 106859. 747.547  11
   1   1  -3 109748. 864.540   3
   1   1  -3 101147. 769.578  10
  -1  -1  -2 12289.2 213.669   8
   1   1  -2 12047.0 163.963  11
  -1  -1  -2 12201.4 206.285   5
   1  -1   2 12076.9 248.742  10
   1   1  -2 12488.5 213.258   8
   1  -1   2 12026.0 215.981  11
   1  -1   2 11942.8 188.369   3
  -1  -1  -2 12314.4 213.171   6
   1   1  -2 12002.5 246.131   3
   1  -1   1 19822.2 234.097  11
   1   1  -1 19045.5 258.337   3
   1  -1   1 19284.7 249.838  10
   1   1   1 18404.7 242.965  11
  -1  -1   1 18083.0 210.739  10
   1  -1  -2 12914.4 242.517   8
  -1   1  -2 12685.8 227.063   5
   1  -1  -2 12805.6 243.066   6
   1   1   2 12485.7 248.907  11
  -1  -1   2 12313.6 209.780  10
  -1  -1   2 12350.6 165.758  11
  -1  -1   3 105633. 642.604  11
  -1   1  -3 107602. 781.622   5
  -1   1  -3 106883. 785.390  11
   1  -1  -3 105506. 722.230   2
  -1  -1   3 109031. 750.920  10
   1  -1  -3 105697. 814.497   8
   1   1   3 107035. 851.587  11
  -1  -1   4 25256.8 378.589  11
  -1  -1   4 24629.2 467.600   3
  -1  -1   4 24622.6 321.582   2
   1   1   4 25066.0 465.228  11
  -1   1  -4 25412.6 441.128  11
   1  -1  -4 25083.9 452.037   8
  -1   1  -4 25469.4 437.276   5
   1   1   4 24329.1 434.670   2
   1   1   4 23667.3 482.500  10
  -1  -1   4 24663.0 416.024  10
   1   1   5 10163.6 343.430  10
  -1  -1   5 9986.67 328.816   3
   1   1   5 9683.29 303.728   2
  -1  -1   5 10287.0 298.964  10
  -1   1  -5 9881.36 306.612   5
   1   1   5 9722.67 324.338  11
  -1  -1   5 9751.70 273.545  11
   1  -1  -5 9785.41 316.518   8
  -1  -1   5 10278.6 242.089   2
  -1  -1   6 8267.08 295.578  10
  -1   1  -6 7757.40 304.802  11
  -1  -1   6 7818.96 240.256   2
   1   1   6 7590.40 292.580   2
   1  -1  -6 7690.97 311.323   8
   1   1   6 7315.96 158.216  12
  -1  -1   6 7594.72 269.931  11
   1   1   6 7660.47 317.285  10
   1   1   6 7920.14 320.346  11
  -1  -1   6 7600.56 314.189   3
  -1   1  -6 7398.76 294.647   5
  -1   1  -6 8172.21 366.441  10
  -1  -1   7 7961.92 299.908  11
   1  -1  -7 7757.46 340.067   8
  -1  -1   7 7678.16 342.339   3
   1   1   7 7710.16 319.539   2
   1   1   7 8159.77 353.130  10
  -1   1  -7 8100.56 343.582  11
   1   1   7 8439.83 351.583  11
  -1  -1   7 8366.34 324.314  10
  -1   1  -7 7891.61 330.623   5
  -1  -1   7 7828.25 268.228   2
  -1  -1   8 6568.10 306.443  10
  -1   1  -8 6456.42 333.482  11
  -1  -1   8 6228.20 260.954   2
   1  -1  -8 6529.25 338.607   8
   1   1   8 6681.53 343.629  10
   1  -1  -8 6820.95 361.078   6
   1   1   8 6884.32 326.812   2
  -1  -1   8 6627.68 297.444  11
   1   1   8 6486.50 330.795  11
  -1  -1   8 6780.51 344.617   3
   1   1   9 4227.35 292.476  10
   1   1   9 4204.09 274.911   2
  -1   1  -9 4012.53 283.880  11
   1  -1  -9 4304.27 313.564   6
   1  -1  -9 4088.42 291.913   8
  -1  -1   9 3824.33 221.191   2
  -1  -1   9 4066.33 250.076  11
  -1  -1   9 4293.56 266.803  10
  -1  -1  10 3780.75 258.496  11
   1  -1 -10 3879.02 309.438   8
   1  -1 -10 3876.15 312.435   6
   1  -1 -11 609.561 141.562   6
  -1   1 -12 4476.28 370.910   6
   1  -1 -12 4566.09 391.452   6
   1  -1 -13 507.516 158.979   6
  -1   1 -13 277.393 108.890   6
   1  -1 -14 2318.17 311.924   6
  -1   1 -14 2330.46 291.226   6
   1  -1 -15 1575.14 264.236   6
  -1   1 -15 1595.44 254.294   6
  -1  -1  16 1333.65 256.263   4
  -1   1 -16 1521.85 252.532   6
   1  -1 -16 1539.23 263.424   6
   1   2 -16 2345.86 326.223   6
   1  -2  16 1597.77 301.249   4
   1  -2  15 613.136 189.454   4
   1   2 -15 677.190 181.535   6
   1   2 -14 2904.28 341.753   6
  -1  -2 -14 2705.71 323.662   6
  -1  -2 -13 4196.69 387.290   6
  -1  -2 -12 515.644 138.402   6
  -1  -2 -11 5762.10 399.030   6
  -1  -2 -10 4605.51 337.770   6
  -1  -2  -9 1555.25 185.133   6
   1  -2   9 1590.74 158.273   2
   1   2  -9 1589.93 197.999  10
  -1   2   9 1686.91 173.452  10
   1  -2   9 1388.62 159.864   3
  -1  -2  -9 1725.50 193.572   8
   1  -2   9 1538.96 156.449  11
  -1   2   8 4793.29 293.456  11
  -1  -2  -8 4790.96 312.505  11
   1  -2   8 4488.56 267.846   3
  -1  -2  -8 4594.46 286.578   6
   1  -2   8 4679.55 252.796  11
   1   2  -8 4423.93 299.119  10
  -1   2   8 4350.32 211.978  12
   1  -2   8 4434.51 277.226  10
  -1   2   8 4795.44 272.876  10
  -1  -2  -8 4517.52 281.735   8
   1  -2   7 9987.30 342.588  11
  -1   2   7 10561.0 410.219  11
  -1   2   7 10270.7 312.310  12
   1  -2   7 9733.17 363.523   3
   1  -2   7 10190.8 390.061  10
   1   2  -7 9272.70 397.388  10
   1   2  -7 9953.41 337.770  11
  -1  -2  -7 10456.9 430.672  11
  -1  -2  -7 9768.94 378.737   8
  -1   2   7 9807.31 363.017  10
  -1  -2  -7 9933.84 388.655   6
  -1  -2  -6 12648.9 396.524   8
  -1  -2  -6 12938.1 439.591  11
   1  -2   6 13358.7 415.227  10
  -1  -2  -6 12742.0 405.586   6
   1  -2   6 12824.7 358.380  11
  -1   2   6 13387.8 390.683  10
   1  -2   6 12265.3 373.273   3
  -1   2   6 13176.8 340.749  12
   1   2  -6 12874.8 419.298  10
  -1   2   6 12895.9 419.094  11
  -1  -2  -5 53859.7 748.561   6
  -1  -2  -5 53920.9 731.582   8
  -1   2   5 54658.5 796.892  11
   1   2  -5 55451.1 741.523   8
   1  -2   5 54325.2 704.975   3
   1  -2   5 55150.6 672.294  11
   1   2  -5 55214.8 625.842  11
   1  -2   5 55257.8 784.839  10
  -1   2   5 57230.4 750.801  10
  -1  -2  -4 65197.8 672.079   5
   1   2  -4 66762.8 787.107   3
   1  -2   4 65492.6 683.647   3
   1   2  -4 64427.1 579.820  11
   1  -2   4 64419.5 654.760  11
   1  -2   4 69802.4 801.842  10
   1   2  -4 66702.6 766.118  10
  -1  -2  -4 65924.9 713.718   8
  -1   2   4 65897.1 800.175  11
   1   2  -4 68073.6 721.791   8
  -1  -2  -4 64511.0 728.572   6
   1  -2   3 53513.7 526.344  11
   1   2  -3 54862.8 414.624  11
   1  -2   3 55422.8 639.929  10
  -1  -2  -3 53504.9 520.347   5
  -1  -2  -3 54378.7 595.357   6
   1   2  -3 54984.1 556.588   8
  -1   2   3 54690.4 655.425  11
  -1  -2  -3 54978.7 562.414   8
   1   2  -3 55064.5 639.933   3
   1   2  -2 89216.2 360.312  11
   1  -2   2 93876.9 784.231   4
  -1  -2  -2 91701.3 546.587   5
  -1  -2  -2 93868.7 595.788   8
   1   2  -2 91742.4 737.045   3
   1  -2   2 92801.2 727.648  10
  -1   2   2 93094.4 704.848  12
  -1  -2  -2 91699.0 713.966   2
   1  -2   2 92946.1 725.250   1
   1  -2   2 90989.3 612.330  11
   1  -2   1 77241.8 622.514   1
   1  -2   1 78490.1 571.356  10
  -1  -2  -1 78634.2 582.854   2
  -1   2   1 79742.1 596.796  12
  -1  -2  -1 77839.1 579.049  11
  -1   2   1 78009.6 475.151  10
  -1  -2  -1 78712.5 603.773   4
  -1  -2   0 71222.9 474.874   2
  -1   2   0 72865.6 523.697  12
   1   2   0 70020.2 422.094  11
  -1  -2   0 71394.6 520.021   4
   1  -2   0 68730.3 464.057  10
   1  -2   0 73183.6 526.886   4
  -1   2   0 69731.1 470.410  10
   1  -2  -1 80491.3 571.531   9
  -1  -2   1 78607.0 571.064  10
  -1   2  -1 78398.9 497.149  12
   1   2   1 79228.0 575.233  11
  -1  -2   1 81306.9 558.670   4
   1  -2  -1 79748.3 570.792   4
  -1  -2   2 91851.9 670.485  10
   1   2   2 94027.2 755.241  11
  -1   2  -2 93275.5 595.814   3
  -1  -2   2 93882.8 711.835   4
  -1   2  -2 92427.4 638.881   5
  -1  -2   2 90919.3 338.193  11
   1  -2  -2 93814.3 725.000   6
  -1   2  -2 93272.3 623.803  11
  -1  -2   3 55279.9 584.282  10
   1   2   3 55562.2 664.402  11
   1  -2  -3 55068.5 617.178   8
  -1   2  -3 53441.0 541.662  11
  -1   2  -3 55302.4 575.581   5
  -1  -2   3 55071.4 389.834  11
  -1   2  -3 54671.0 540.770   3
   1  -2  -3 54469.0 601.200   2
   1  -2  -3 54462.8 628.082   6
   1  -2  -4 65407.6 716.564   2
   1   2   4 67679.2 531.097  12
  -1  -2   4 66376.1 786.547   3
   1   2   4 69452.6 823.904  11
  -1   2  -4 67174.1 708.577  11
  -1  -2   4 66653.5 546.622  11
   1  -2  -4 66439.1 789.747   6
   1   2   4 65489.5 771.373   2
  -1   2  -4 69102.9 734.045   5
   1  -2  -4 67383.0 764.322   8
  -1  -2   4 67010.7 718.890  10
  -1  -2   5 55091.2 586.106  11
   1  -2  -5 54812.7 775.248   8
  -1   2  -5 55988.1 732.341   5
   1   2   5 55311.2 502.356  12
   1   2   5 53930.9 839.123  10
  -1  -2   5 55758.3 722.672  10
  -1  -2   5 55030.8 786.006   3
   1   2   5 56243.8 812.670  11
   1   2   5 54915.0 770.601   2
   1  -2  -5 54384.0 798.716   6
  -1   2  -6 13388.4 398.604   5
  -1   2  -6 12749.9 384.623  11
  -1   2  -6 13073.8 465.544  10
   1  -2  -6 13231.0 430.618   6
   1   2   6 13428.5 411.385   2
   1   2   6 12641.3 431.143  10
  -1  -2   6 12737.8 412.045   3
   1   2   6 12210.8 247.388  12
  -1  -2   6 12991.2 324.196  11
   1  -2  -6 13038.6 408.196   8
   1   2   6 13665.5 438.640  11
  -1  -2   6 13359.7 385.236  10
   1   2   7 10338.0 409.861  10
  -1  -2   7 10389.5 293.786   2
  -1   2  -7 10141.7 446.952  10
  -1  -2   7 10301.3 364.078  10
   1   2   7 10477.6 389.246   2
  -1  -2   7 10125.6 317.597  11
  -1   2  -7 10211.8 381.902   5
  -1  -2   7 9953.73 395.399   3
   1  -2  -7 10331.4 395.590   8
  -1   2  -7 10146.4 371.836  11
   1  -2  -7 10085.3 410.832   6
   1   2   7 10268.1 410.798  11
  -1   2  -8 4840.78 280.923  11
   1   2   8 4841.66 297.581  11
  -1  -2   8 4732.01 265.736  10
  -1  -2   8 4722.59 291.768   3
  -1   2  -8 5219.68 347.920  10
   1  -2  -8 4856.38 312.027   6
  -1  -2   8 4592.19 213.474   2
   1   2   8 5035.31 303.198  10
   1   2   8 4908.70 288.586   2
   1  -2  -8 4520.70 284.847   8
  -1  -2   8 4771.26 237.349  11
  -1   2  -9 1790.81 183.004  11
   1  -2  -9 1825.13 199.971   8
  -1  -2   9 1712.39 141.254   2
   1   2   9 1995.84 201.724  10
  -1  -2   9 1721.11 173.761  10
   1   2   9 1901.34 193.548   2
   1  -2  -9 1614.41 200.863   6
  -1  -2   9 1683.83 151.795  11
   1  -2 -10 4897.61 362.659   6
   1  -2 -10 4647.87 348.759   8
   1  -2 -11 6183.75 429.059   6
   1  -2 -11 5685.52 424.949   8
   1  -2 -12 523.305 145.964   6
   1  -2 -13 3254.82 348.774   6
  -1   2 -13 3969.10 372.468   6
   1  -2 -14 3055.89 353.879   6
  -1  -2  14 2079.54 298.358   4
  -1   2 -14 2779.44 321.256   6
  -1  -2  15 806.559 200.352   4
  -1   2 -15 749.604 192.226   6
   1  -2 -15 604.110 173.373   6
  -1   2 -16 2371.71 312.560   6
  -1  -2  16 2239.55 309.439   4
   1  -3  16-54.0102 94.2686   4
   1   3 -16 160.078 98.1001   6
   1   3 -15 176.861 112.036   6
   1  -3  15 199.505 95.8998   4
   1  -3  14 170.744 119.590   4
   1   3 -14 13.8701 72.9755   6
   1  -3  13 5282.35 481.532   4
  -1  -3 -12 1322.86 218.688   6
  -1  -3 -11 8236.57 487.936   6
  -1  -3 -10 817.902 155.303   6
   1  -3   9 8262.98 351.782  11
  -1  -3  -9 8615.15 421.954   8
  -1   3   9 7943.62 384.028  10
  -1   3   9 8114.80 304.733  12
  -1  -3  -9 8656.43 434.614   6
   1   3  -8 1861.15 153.414  11
   1  -3   8 1687.07 174.138  10
  -1  -3  -8 1610.87 178.765   6
  -1   3   8 1839.41 174.089  10
  -1   3   8 1919.25 193.476  11
   1   3  -8 1980.52 206.173  10
   1  -3   8 1863.91 156.010  11
   1  -3   8 1711.87 167.911   3
  -1   3   8 1810.24 144.666  12
  -1  -3  -8 1862.92 183.025   8
   1  -3   7 929.381 102.380  11
  -1  -3  -7 836.155 118.983   6
  -1   3   7 980.690 103.717  12
  -1   3   7 887.065 114.550  10
  -1   3   7 950.452 128.421  11
   1  -3   7 910.645 119.136  10
  -1  -3  -7 879.580 119.514   8
   1   3  -7 889.313 124.605  10
   1  -3   6 23332.6 563.029  10
  -1   3   6 22642.9 583.981  11
  -1   3   6 22037.5 481.650  12
  -1  -3  -6 22632.7 606.050  11
  -1  -3  -6 21381.2 517.752   8
  -1  -3  -6 21357.1 540.319   6
   1   3  -6 21417.1 561.439  10
   1   3  -6 22034.9 428.237  11
  -1   3   6 22177.4 537.865  10
   1  -3   6 22562.6 465.672  11
  -1   3   5 1762.18 129.583  12
   1   3  -5 1676.06 103.193  11
  -1  -3  -5 1538.45 136.378   6
  -1   3   5 1742.79 152.508  11
   1  -3   5 1761.62 119.215  11
   1   3  -5 1879.68 152.379   3
  -1  -3  -5 1680.04 132.529   8
   1   3  -5 1809.40 150.998  10
   1  -3   5 1596.62 139.834  10
  -1   3   4 6887.78 239.242  12
   1  -3   4 6391.24 280.858   4
   1   3  -4 7001.44 268.109   3
  -1   3   4 6531.65 269.794  11
  -1  -3  -4 6918.51 235.458   8
   1  -3   4 6934.10 215.851  11
   1  -3   4 6856.09 262.949  10
   1   3  -4 6840.05 172.301  11
  -1  -3  -3 45469.7 616.307   2
  -1   3   3 45366.2 653.550  11
  -1  -3  -3 45821.7 529.182   8
   1  -3   3 47246.6 674.790   4
   1  -3   3 47331.9 628.148  10
   1   3  -3 46010.4 630.805   3
   1  -3   3 45323.1 598.847   1
   1   3  -3 45807.7 349.982  11
  -1   3   3 45580.4 587.484  12
   1  -3   3 45997.0 497.624  11
  -1  -3  -2 26918.6 337.462   8
   1   3  -2 26209.3 336.393   1
  -1   3   2 27177.5 423.091  12
   1  -3   2 26334.9 450.149   4
   1  -3   2 27271.7 433.945   1
   1   3  -2 25284.1 202.486  11
   1  -3   2 27419.1 429.628  10
  -1  -3  -2 26499.1 433.104   2
  -1   3   1 78811.9 688.135  12
  -1   3   1 78840.5 602.383  10
  -1  -3  -1 79487.2 715.924   4
   1  -3   1 78031.2 660.442  10
  -1  -3  -1 80609.0 689.199   2
   1  -3   1 80213.8 703.371   4
  -1   3   0 74014.7 595.946  10
   1  -3   0 75038.4 662.655   4
  -1   3   0 74760.3 630.980  12
  -1  -3   0 75289.1 662.666   4
   1   3   0 74298.8 530.313  11
   1  -3   0 73544.1 597.916  10
  -1   3  -1 79520.1 608.310  11
  -1  -3   1 78766.2 679.127  10
  -1  -3   1 77690.3 674.457   4
   1   3   1 78152.9 664.455  11
   1  -3  -1 78928.0 638.773   9
   1  -3  -1 75388.0 685.550   4
  -1  -3   2 25510.2 413.073   4
  -1   3  -2 25452.3 349.135   5
   1   3   2 25456.2 428.744  11
  -1   3  -2 25549.4 358.411  11
   1  -3  -2 25356.2 423.447   4
  -1  -3   2 25449.0 403.904  10
  -1  -3   3 47228.4 333.218  11
  -1   3  -3 44793.9 509.164  11
  -1   3  -3 45513.6 542.789   3
  -1  -3   3 46377.5 593.095  10
   1   3   3 44736.7 637.685  11
  -1  -3   3 43812.5 605.442   4
   1  -3  -3 44895.6 611.959   2
  -1   3  -3 45820.7 536.524   5
   1  -3  -3 45621.7 594.520   8
  -1   3  -4 6577.73 231.502   3
  -1   3  -4 6630.59 218.919  11
  -1  -3   4 6575.91 243.666  10
  -1  -3   4 6806.61 159.468  11
   1  -3  -4 6548.81 250.774   2
   1   3   4 6865.97 277.751  11
   1  -3  -4 6477.39 262.812   6
  -1   3  -4 6591.34 229.979   5
  -1  -3   4 6875.60 188.150   1
   1  -3  -4 6544.62 249.650   8
  -1  -3   4 6248.88 267.170   4
   1   3   5 1711.03 145.566   2
  -1  -3   5 1799.64 139.336  10
   1   3   5 1632.28 148.925  11
   1  -3  -5 1748.82 138.541   2
   1  -3  -5 1817.99 147.089   8
  -1   3  -5 1776.39 135.424   5
  -1  -3   5 1956.91 115.508   1
  -1  -3   5 1893.44 101.344  11
   1  -3  -5 1791.99 152.553   6
  -1  -3   5 1665.01 160.469   4
  -1   3  -5 2036.28 169.070  10
   1   3   6 21110.6 585.274  10
  -1   3  -6 22069.9 516.989   5
  -1  -3   6 21909.4 517.682  10
   1   3   6 22055.2 580.783  11
  -1   3  -6 22310.9 495.031  11
   1  -3  -6 21275.9 565.923   6
  -1  -3   6 22220.4 396.496  11
   1   3   6 21253.0 548.524   2
   1  -3  -6 21881.8 545.540   8
  -1   3  -6 21741.1 602.859  10
   1  -3  -7 706.478 112.006   8
   1   3   7 806.040 122.706  10
   1   3   7 798.969 114.964   2
  -1   3  -7 814.994 129.948  10
  -1   3  -7 795.897 108.698   5
  -1  -3   7 739.127 102.487  10
  -1   3  -7 871.275 109.253  11
  -1  -3   7 758.274 83.0051  11
   1   3   7 735.357 114.030  11
   1  -3  -7 867.203 125.883   6
   1  -3  -8 1615.03 178.826   8
  -1   3  -8 1738.31 179.084   5
  -1   3  -8 1961.06 216.318  10
  -1  -3   8 1787.66 130.086   2
  -1   3  -8 1905.71 172.220  11
   1   3   8 1924.65 194.474  10
   1  -3  -8 1537.79 188.207   6
  -1  -3   8 1896.53 175.422  10
  -1  -3   8 1766.33 137.901  11
   1   3   8 1752.74 189.929  11
   1  -3  -9 8207.76 444.294   6
  -1   3  -9 7606.77 370.351  11
   1  -3  -9 8424.16 425.139   8
   1  -3 -10 1082.44 174.553   8
   1  -3 -10 1131.71 187.605   6
   1  -3 -11 58466.9 1269.36   8
   1  -3 -11 7760.44 490.935   6
  -1  -3  12 688.988 208.239   4
   1  -3 -12 1375.15 225.974   8
   1  -3 -12 1509.03 237.723   6
  -1  -3  13 4898.10 451.321   4
   1  -3 -13 6379.53 494.425   6
  -1  -3  14-39.3996 85.0709   4
  -1   3 -14 51.9505 87.8932   6
  -1  -3  15 206.219 109.880   4
  -1   3 -15 96.1181 104.718   6
  -1  -3  16 450.047 159.003   4
  -1   3 -16 115.683 94.7580   6
   1   4 -16 290.304 122.620   6
   1  -4  16 260.251 116.469   4
   1   4 -15 3234.84 380.466   6
   1  -4  15 2881.53 359.717   4
   1  -4  14 978.850 199.926   4
   1  -4  13 3985.07 396.313   4
   1  -4  12 284.572 119.201   4
   1  -4  11 9371.69 559.780   4
  -1  -4 -10 4958.93 352.728   8
   1  -4  10 4758.18 383.964   4
  -1  -4  -9 4136.37 296.830   8
  -1   4   9 3500.97 262.400  10
   1  -4   9 3545.83 332.655   4
  -1   4   9 4268.53 232.523  12
   1   4  -8 22598.9 503.422  11
  -1  -4  -8 21520.3 625.622   8
  -1   4   8 21855.6 627.261  10
   1   4  -8 23361.5 716.442  10
   1  -4   8 22158.5 527.030  11
   1  -4   8 21217.4 731.567   4
  -1   4   8 22281.6 528.619  12
   1  -4   8 22874.8 591.099   1
  -1   4   7 4655.15 277.199  10
   1  -4   7 4431.83 309.038   4
   1   4  -7 4923.09 308.321  10
   1  -4   7 5190.21 293.777  10
  -1  -4  -7 4680.61 270.063   8
  -1   4   7 5213.85 313.481  11
  -1   4   7 5047.23 246.832  12
   1  -4   7 4819.92 258.198   1
   1  -4   7 5066.10 236.183  11
   1  -4   6 5559.63 329.493   4
   1   4  -6 5728.13 208.808  11
  -1  -4  -6 5830.36 273.691   8
   1   4  -6 6279.79 312.056   3
   1   4  -6 5539.34 302.572  10
   1  -4   6 5934.25 296.608  10
  -1   4   6 5701.31 257.817  12
  -1   4   6 6249.25 324.065  11
   1  -4   6 5976.09 236.972  11
   1  -4   6 6264.30 278.330   1
   1  -4   5 12822.3 445.904   4
   1  -4   5 12875.1 408.517  10
  -1  -4  -5 12625.5 363.426   8
   1  -4   5 12329.2 372.888   1
  -1   4   5 12646.7 366.698  12
   1   4  -5 13572.5 427.535   3
   1   4  -5 12990.0 266.064  11
  -1   4   5 12749.9 434.547  11
   1   4  -5 13150.8 420.715  10
   1  -4   5 13181.7 323.058  11
   1  -4   4 36610.2 496.090  11
   1   4  -4 36282.1 647.264   3
  -1  -4  -4 36587.0 556.434   8
   1   4  -4 36446.7 650.948  10
   1   4  -4 36001.7 378.086  11
   1  -4   4 36621.1 608.787   1
   1  -4   4 35350.3 673.128   4
  -1  -4  -4 37263.5 653.153   2
  -1   4   4 36881.6 597.722  12
   1  -4   4 37558.7 648.183  10
  -1   4   4 35735.8 675.448  11
   1  -4   3 9653.69 295.996   1
   1  -4   3 7174.24 276.606   4
   1  -4   3 9403.62 303.109  10
  -1   4   3 9460.99 293.136  12
   1   4  -3 9657.54 313.849   3
  -1   4   3 9475.76 325.902  11
  -1  -4  -3 9527.35 310.730   2
  -1  -4  -3 9565.03 252.220   8
   1   4  -3 8872.36 157.888  11
  -1  -4  -2 69079.4 776.761   2
   1   4  -2 66629.0 415.326  11
  -1  -4  -2 68114.9 578.000   8
  -1  -4  -2 67878.6 789.815   4
   1   4  -2 65631.4 639.785   1
   1  -4   2 68492.3 752.597  10
  -1   4   2 67475.4 737.692  12
  -1   4   2 67185.0 664.488  10
   1  -4   2 67743.9 775.905   4
  -1  -4  -1 26189.0 467.826   4
  -1  -4  -1 26517.7 448.709   2
  -1   4   1 26221.2 407.254  10
  -1   4   1 26224.8 443.598  12
   1  -4   1 25705.5 455.126   4
   1  -4   1 25745.4 431.995  10
   1   4   0 345.533 45.7376  11
   1  -4   0 552.287 72.0176   4
  -1   4   0 496.855 62.4101  10
  -1   4   0 498.934 66.9847  12
  -1  -4   0 629.946 73.8346   4
   1  -4   0 440.480 57.4923  10
   1  -4  -1 26564.2 410.876   9
   1   4   1 27195.4 433.842  11
  -1  -4   1 27598.9 466.294   4
  -1   4  -1 26687.8 444.693  10
  -1  -4   1 26507.3 457.164  10
   1  -4  -1 27465.5 475.759   4
  -1   4  -2 65595.3 769.073   1
  -1   4  -2 67252.1 587.197   5
  -1  -4   2 67519.7 739.776   4
   1   4   2 65233.2 761.698  11
  -1  -4   2 66256.2 739.971  10
   1  -4  -2 67716.5 773.449   4
  -1   4  -2 67552.8 631.479  11
   1  -4  -2 64753.3 680.683   9
   1   4   3 9575.72 317.323  11
  -1  -4   3 9785.74 303.061   4
  -1   4  -3 9487.39 276.681   3
  -1  -4   3 9765.34 298.138  10
  -1   4  -3 9268.82 243.612  11
  -1   4  -3 9661.36 252.909   5
  -1   4  -4 35944.8 549.098   5
  -1  -4   4 37040.8 355.330  11
   1   4   4 36342.0 671.743  11
  -1  -4   4 36381.0 618.355  10
   1  -4  -4 35604.4 608.515   8
  -1  -4   4 31963.3 604.951   4
  -1   4  -4 35180.8 505.217  11
  -1   4  -4 35194.3 570.606   3
   1  -4  -4 36125.8 646.015   2
   1  -4  -5 12184.2 386.914   8
   1   4   5 12863.3 434.620  11
  -1  -4   5 12921.9 294.483   1
   1  -4  -5 12925.4 407.867   2
  -1  -4   5 13113.7 248.569  11
  -1   4  -5 12499.9 369.070   3
  -1  -4   5 12633.8 386.276  10
  -1   4  -5 13257.2 451.835  10
  -1  -4   5 12541.6 419.344   4
  -1   4  -5 12230.0 357.072   5
  -1  -4   6 6622.04 228.262   1
   1  -4  -6 6285.61 298.184   2
   1  -4  -6 6116.69 298.457   8
  -1  -4   6 6533.10 296.109  10
  -1   4  -6 6146.72 278.522   5
   1   4   6 6366.89 328.280  11
   1  -4  -6 6075.68 315.278   6
  -1  -4   6 6650.02 204.658  11
  -1   4  -6 6341.64 339.495  10
  -1  -4   6 6258.16 324.454   4
  -1  -4   7 5301.45 331.079   4
  -1   4  -7 5484.95 338.595  10
   1  -4  -7 5289.67 317.290   6
  -1   4  -7 5399.90 263.343  11
  -1  -4   7 5635.35 209.592  11
  -1  -4   7 5535.83 289.748  10
  -1  -4   7 5268.51 221.193   1
   1   4   7 5666.85 326.053  11
   1  -4  -7 5122.31 291.866   8
   1   4   7 5356.53 330.634  10
  -1   4  -7 5408.80 285.676   5
  -1  -4   8 23258.7 468.888  11
  -1  -4   8 22799.9 624.178  10
  -1   4  -8 23039.9 633.511   5
  -1  -4   8 22030.3 717.693   4
  -1   4  -8 21917.6 566.705  11
   1  -4  -8 22662.9 703.606   6
   1  -4  -8 22803.4 661.122   8
  -1  -4   8 22463.7 478.717   1
   1   4   8 22926.6 703.134  10
  -1   4  -9 3737.04 252.809  11
   1  -4  -9 4255.58 307.354   8
  -1  -4   9 4138.93 331.110   4
   1  -4  -9 4311.43 331.696   6
  -1  -4  10 4832.95 384.963   4
   1  -4 -10 5626.86 402.776   6
   1  -4 -10 5820.43 401.094   8
  -1  -4  11 7553.18 511.264   4
   1  -4 -11 8362.31 516.591   8
   1  -4 -11 9370.77 553.155   6
   1  -4 -12 367.802 122.526   8
  -1  -4  12 248.636 122.289   4
  -1  -4  13 3197.58 349.367   4
  -1  -4  14 911.978 202.710   4
  -1   4 -15 3004.25 352.040   6
  -1  -4  15 2453.36 319.821   4
  -1  -4  16 374.857 140.156   4
  -1   4 -16 437.260 140.124   6
   1   5 -16 346.624 137.610   6
   1  -5  16 190.274 113.558   4
   1  -5  15 451.085 155.678   4
   1  -5  14 105.473 94.5810   4
   1  -5  13 1356.47 231.089   4
   1  -5  12 3678.94 377.501   4
   1  -5  11 9750.70 581.498   4
   1  -5  10 1733.93 241.088   4
  -1  -5 -10 1605.30 211.442   8
  -1  -5  -9 8716.50 434.082   8
   1  -5   9 8257.62 484.394   4
  -1   5   9 9237.68 368.655  12
   1  -5   8 3681.90 241.258   1
  -1   5   8 3705.39 276.851  10
   1  -5   8 4087.40 221.098  11
  -1  -5  -8 3921.66 271.557   8
   1  -5   8 4235.40 325.492   4
  -1   5   8 3970.64 238.558  12
   1   5  -7 9108.96 435.896  10
   1   5  -7 8715.19 265.307  11
  -1   5   7 8699.82 348.549  12
  -1  -5  -7 8567.89 367.236   8
   1  -5   7 8887.82 304.790  11
   1  -5   7 8742.91 356.222   1
   1   5  -7 8774.62 406.012   3
   1  -5   7 9148.00 446.620   4
  -1  -5  -6 11443.4 389.739   8
   1  -5   6 11190.9 453.870   4
  -1   5   6 10893.1 381.240  12
   1  -5   6 11349.3 322.391  11
   1  -5   6 11521.6 388.075   1
   1   5  -6 11113.3 268.635  11
   1   5  -6 11332.5 447.298  10
   1   5  -6 11346.1 438.589   3
   1  -5   6 11800.7 432.885  10
  -1   5   6 11017.2 449.292  11
  -1   5   5 32345.2 625.078  12
  -1   5   5 32354.5 730.656  11
   1   5  -5 33447.5 711.975  10
   1  -5   5 32690.8 626.746   1
  -1  -5  -5 31429.9 587.307   8
   1  -5   5 33367.2 688.607  10
   1   5  -5 31973.6 687.998   3
   1  -5   5 30541.9 692.064   4
   1  -5   5 32530.1 513.765  11
   1   5  -5 30577.7 392.856  11
   1  -5   4 3865.22 207.934   1
  -1   5   4 3791.33 211.037  12
   1  -5   4 3761.86 231.758   4
   1   5  -4 3980.36 230.363   3
  -1  -5  -4 3878.75 229.052   2
  -1   5   4 3698.61 232.482  11
  -1  -5  -4 3899.95 189.291   8
   1  -5   4 4033.94 225.346  10
   1   5  -4 3970.04 230.414  10
   1   5  -4 3678.69 121.418  11
  -1  -5  -3 88467.2 1022.84   2
  -1  -5  -3 83081.2 774.221   8
   1  -5   3 81748.2 994.315   4
  -1   5   3 86448.5 1053.24  11
   1  -5   3 85160.0 976.045  10
   1   5  -3 81860.2 526.772  11
  -1   5   3 81985.4 938.985  12
  -1  -5  -2 2316.80 115.357   8
   1  -5   2 2459.88 164.747   4
   1   5  -2 2458.81 142.218   1
  -1  -5  -2 2571.41 173.506   4
  -1   5   2 2467.22 159.247  12
   1   5  -2 2541.01 97.9667  11
  -1  -5  -2 2718.25 170.447   2
   1  -5   2 2552.37 159.456  10
  -1   5   2 2458.03 143.980  10
  -1   5   1 107968. 1014.88  12
  -1   5   1 111061. 950.636  10
  -1  -5  -1 110684. 1023.83   2
   1  -5   1 110813. 1005.31  10
   1  -5   1 111643. 1065.68   4
  -1  -5  -1 112536. 1080.54   4
   1  -5   0 2721.65 167.237   4
  -1   5   0 2788.28 156.461  10
   1  -5   0 2722.48 155.597  10
  -1  -5   0 2754.64 104.531   9
   1   5   0 2774.45 140.187  11
  -1  -5   0 2590.34 163.132   4
   1  -5  -1 108592. 907.114   9
  -1   5  -1 111374. 1022.15  10
   1   5   1 111973. 975.966  11
  -1  -5   1 110989. 1049.28   4
   1  -5  -1 113425. 1084.73   4
  -1  -5   1 112905. 1054.58  10
   1   5   1 112259. 1031.13  10
  -1   5  -2 2491.04 162.646  10
  -1  -5   2 2617.38 166.237   4
  -1   5  -2 2565.96 119.764   5
  -1   5  -2 2365.21 130.207  11
  -1  -5   2 2498.26 161.419  10
   1  -5  -2 2403.43 139.861   9
   1   5   2 2467.61 161.050  11
   1  -5  -2 2489.27 169.618   4
  -1   5  -3 86298.9 777.867   5
  -1  -5   3 84458.6 964.833   4
  -1  -5   3 86542.9 976.619  10
   1   5   3 85412.3 1015.08  11
  -1   5  -3 84356.3 781.880  11
  -1   5  -3 87254.7 1035.17  10
   1  -5  -4 4257.62 241.785   2
  -1  -5   4 4168.44 225.323  10
  -1  -5   4 3851.41 221.825   4
   1   5   4 3994.93 236.654  11
   1  -5  -4 3895.26 210.233   8
  -1   5  -4 3938.66 207.558   3
  -1   5  -4 3679.17 170.760  11
  -1   5  -4 3955.40 187.585   5
  -1   5  -4 4233.65 243.234  10
   1  -5  -5 32531.0 695.458   2
   1  -5  -5 31926.9 646.224   8
   1   5   5 32504.2 723.340  11
  -1   5  -5 32404.7 585.003   5
  -1   5  -5 33209.9 739.536  10
  -1  -5   5 32335.6 692.981   4
  -1   5  -5 32223.9 625.864   3
  -1  -5   5 32840.1 665.276  10
  -1   5  -6 11329.9 379.551   5
   1  -5  -6 10674.4 404.242   8
   1   5   6 11721.3 464.261  11
  -1   5  -6 12518.4 492.631  10
   1  -5  -6 11639.5 435.095   2
  -1   5  -6 11156.7 344.772  11
  -1  -5   6 12117.7 423.549  10
  -1  -5   6 11949.6 253.989  11
  -1   5  -6 11475.2 399.689   3
  -1  -5   7 8628.46 277.048   1
  -1  -5   7 8742.37 241.927  11
  -1  -5   7 8087.61 367.725  10
   1  -5  -7 8455.53 387.296   8
  -1  -5   7 8379.95 405.846   4
  -1   5  -7 8887.53 368.326   5
  -1   5  -7 7903.39 312.415  11
  -1  -5   8 3721.33 283.008   4
   1   5   8 4107.26 313.786  10
  -1   5  -8 3924.59 263.419   5
   1  -5  -8 4095.47 290.340   8
  -1   5  -8 3830.32 231.560  11
   1  -5  -9 9187.66 460.272   8
  -1  -5   9 8940.36 477.352   4
  -1  -5  10 1811.70 238.074   4
   1  -5 -10 2243.74 245.596   8
  -1  -5  11 9864.88 543.646   4
   1  -5 -11 10576.8 560.091   8
  -1  -5  12 3612.52 345.908   4
   1  -5 -12 4140.40 369.521   8
  -1  -5  13 1716.19 251.198   4
  -1  -5  14 304.440 146.997   4
  -1  -5  15 507.436 170.788   4
  -1   5 -15 480.071 141.911   6
  -1  -5  16 208.941 102.420   4
   1  -6  15-149.324 108.796   4
   1  -6  14 549.152 168.082   4
   1  -6  13 3029.22 371.729   4
   1  -6  12 487.251 164.945   4
   1  -6  11 781.532 175.634   4
  -1  -6 -11 908.807 172.930   8
  -1  -6 -10 476.490 110.359   8
   1  -6  10 338.665 132.528   4
  -1  -6  -9 569.529 120.476   8
   1  -6   9 697.398 157.771   4
  -1   6   8 307.303 88.7166  10
  -1  -6  -8 194.790 78.4320   8
  -1   6   8 185.974 64.7306  12
   1  -6   8 267.702 105.350   4
  -1  -6  -7 7533.94 349.835   8
  -1   6   7 8079.20 362.267  12
   1  -6   7 7432.47 418.072   4
   1   6  -7 7514.97 392.499   3
   1  -6   7 7444.18 332.046   1
  -1  -6  -6 7128.92 317.289   8
   1   6  -6 7628.02 388.073  10
   1   6  -6 7717.64 375.990   3
   1  -6   6 7707.95 364.549  10
  -1   6   6 7298.22 385.322  11
   1  -6   6 7315.34 379.162   4
   1   6  -6 6149.99 183.867  11
   1  -6   6 7461.20 323.334   1
  -1   6   6 6897.08 324.090  12
  -1   6   5 13877.6 443.607  12
  -1   6   5 14128.3 511.127  11
   1   6  -5 11665.7 235.052  11
  -1  -6  -5 14341.1 410.908   8
   1  -6   5 15287.2 491.532  10
   1  -6   5 14789.0 504.962   4
   1   6  -5 14535.6 492.167   3
   1   6  -5 14779.7 504.257  10
  -1  -6  -5 14946.0 499.990   2
   1   6  -4 185.913 64.0996   3
  -1   6   4 324.469 81.5106  12
   1   6  -4 163.931 27.0385  11
   1  -6   4 218.208 62.3742  10
   1   6  -4 460.677 85.8641  10
   1  -6   4 280.419 84.0513   4
  -1  -6  -4 266.329 56.4754   8
  -1  -6  -4 284.881 72.5616   2
  -1   6   4 347.199 82.4080  11
   1   6  -3 9896.44 203.181  11
  -1   6   3 10405.4 333.144  10
   1  -6   3 10793.0 375.481  10
   1  -6   3 10309.1 377.985   4
  -1   6   3 10711.7 364.367  12
  -1   6   3 10565.5 397.053  11
  -1  -6  -3 10912.2 389.582   2
  -1  -6  -3 10763.0 295.620   8
   1   6  -3 11052.7 390.165  10
  -1   6   2 3903.64 219.666  12
   1  -6   2 3938.64 218.068  10
   1   6  -2 3962.84 141.998  11
  -1  -6  -2 3755.89 157.273   8
   1   6  -2 3846.29 218.951  10
  -1  -6  -2 3994.02 224.610   2
  -1   6   2 3775.92 195.854  10
   1  -6   2 3911.18 225.556   4
  -1  -6  -2 3694.04 228.690   4
  -1  -6  -1 18242.8 454.267   2
   1   6  -1 18044.9 461.436  10
  -1  -6  -1 18015.6 479.486   4
   1  -6   1 16736.4 432.980  10
   1  -6   1 17624.6 472.468   4
  -1   6   1 17633.0 422.283  10
  -1   6   0 5946.03 251.692  10
   1   6   0 5781.05 256.256  10
  -1  -6   0 5636.34 167.573   9
   1  -6   0 5397.01 262.386   4
  -1  -6   0 5732.20 269.537   4
   1   6   0 5884.74 227.239  11
   1   6   1 17416.1 446.496  10
   1   6   1 17334.7 420.766  11
  -1   6  -1 17161.0 475.729   1
  -1   6  -1 17533.6 446.796  10
   1  -6  -1 17007.4 383.432   9
   1  -6  -1 16499.7 462.965   4
  -1  -6   1 16557.1 459.071   4
  -1   6  -1 16754.6 282.204   5
  -1  -6   2 3705.64 218.247   4
  -1   6  -2 3661.33 145.961   5
   1   6   2 3801.47 216.030  10
   1  -6  -2 3447.97 177.922   9
  -1  -6   2 3985.33 224.177  10
  -1   6  -2 3623.00 220.602   1
   1  -6  -2 3634.44 224.419   4
   1   6   2 3559.35 208.157  11
  -1   6  -2 3940.28 222.203  10
  -1  -6   3 10187.4 369.041  10
  -1  -6   3 10266.0 368.398   4
   1   6   3 10036.5 376.002  11
  -1   6  -3 10305.0 379.602  10
  -1   6  -3 9866.79 271.130   5
   1  -6  -3 9833.42 374.404   4
  -1   6  -3 8923.39 269.976  11
  -1  -6   4 303.090 73.3564   4
  -1  -6   4 287.377 68.5739  10
  -1   6  -4 319.645 63.3556   5
  -1   6  -4 200.917 55.7576  10
   1  -6  -4 386.831 83.5041   2
   1  -6  -4 253.624 62.8072   8
  -1   6  -4 329.519 67.6279   3
   1   6   4 363.885 78.1744  11
   1  -6  -5 14317.1 450.291   8
  -1   6  -5 15253.6 525.846  10
  -1   6  -5 14687.6 447.867   3
  -1  -6   5 14588.3 484.945   4
   1  -6  -5 15247.2 507.190   2
  -1   6  -5 14855.2 406.494   5
  -1  -6   5 14799.7 473.777  10
   1   6   5 14865.9 513.078  11
  -1   6  -6 7433.66 313.323   5
  -1   6  -6 7128.08 274.720  11
  -1  -6   6 7761.01 372.262   4
  -1   6  -6 8514.59 426.090  10
  -1  -6   6 7808.72 359.114  10
   1  -6  -6 7988.03 383.754   2
   1   6   6 8161.90 406.323  11
   1  -6  -6 7616.54 351.621   8
  -1   6  -6 7697.92 345.438   3
  -1   6  -7 7402.96 356.057   3
  -1  -6   7 7620.77 396.657   4
   1  -6  -7 7444.53 370.983   8
  -1   6  -7 6988.26 288.461  11
  -1   6  -7 7704.96 347.687   5
  -1  -6   8 243.592 88.6991   4
   1  -6  -8 224.707 77.6390   8
   1  -6  -9 865.817 158.382   8
  -1  -6   9 755.944 154.664   4
   1  -6 -10 572.846 140.441   8
  -1  -6  10 419.887 132.664   4
   1  -6 -11 943.307 176.710   8
  -1  -6  11 632.063 159.068   4
  -1  -6  12 404.257 136.805   4
   1  -6 -12 684.510 159.455   8
  -1  -6  13 3058.92 329.040   4
   1  -6 -13 3774.52 373.968   8
  -1  -6  14 542.062 159.495   4
  -1  -6  15 209.272 97.5463   4
   1  -7  15 925.259 207.559   4
   1  -7  14 766.606 194.094   4
   1  -7  13 540.973 162.440   4
   1  -7  12 1871.41 272.457   4
  -1  -7 -11 2703.66 282.244   8
   1  -7  11 2357.11 287.054   4
   1  -7  10 7949.59 503.091   4
  -1  -7 -10 7521.70 436.672   8
  -1  -7  -9 12242.0 528.694   8
   1  -7   9 11981.6 599.764   4
  -1  -7  -8 1443.07 174.882   8
   1  -7   8 1727.87 228.486   4
  -1  -7  -7 14101.2 489.825   8
   1  -7   7 14266.8 577.056   4
  -1   7   6 10747.0 427.724  12
  -1  -7  -6 10062.0 383.618   8
   1   7  -6 10774.4 465.660   3
   1  -7   6 10596.8 473.690   4
   1   7  -5 17480.2 573.372   3
  -1  -7  -5 17747.3 576.929   2
   1  -7   5 17372.7 549.538  10
   1  -7   5 16888.0 567.895   4
  -1   7   5 16386.0 477.268  10
  -1   7   5 16805.0 588.201  11
   1   7  -5 17739.5 588.652  10
  -1  -7  -5 15917.4 444.361   8
  -1   7   5 17118.9 529.491  12
   1   7  -4 27492.8 692.817  10
   1  -7   4 27253.7 661.276  10
   1   7  -4 26512.0 679.134   3
   1  -7   4 25626.2 668.727   4
  -1  -7  -4 27605.8 689.176   2
  -1  -7  -4 25262.1 510.764   8
  -1   7   4 26550.7 645.156  12
  -1   7   4 26226.3 694.061  11
  -1   7   4 25808.4 582.659  10
   1   7  -3 76328.6 628.108  11
  -1   7   3 84710.8 1195.70  11
   1   7  -3 85188.6 1035.64   1
   1   7  -3 85915.5 1169.54  10
  -1  -7  -3 88545.2 1182.98   2
   1  -7   3 81503.4 1155.10   4
  -1  -7  -3 82149.8 843.232   8
   1  -7   3 88116.4 1146.37  10
  -1   7   3 84019.4 1021.59  10
   1   7  -2 3023.90 199.562   1
  -1  -7  -2 3165.67 231.096   4
   1   7  -2 3295.63 145.193  11
  -1   7   2 3048.48 192.629  10
   1  -7   2 3320.99 230.602   4
   1   7  -2 3237.88 219.543  10
  -1  -7  -2 3195.74 154.116   8
   1  -7   2 3299.17 219.017  10
  -1  -7  -2 3305.06 220.889   2
  -1   7   1 34459.4 648.900  10
   1   7  -1 35428.2 708.319  10
   1  -7   1 35226.0 727.441   4
   1  -7   1 34980.5 687.239  10
  -1  -7  -1 34208.3 719.955   4
  -1  -7  -1 35028.4 686.221   2
   1   7  -1 35041.7 560.507  11
   1   7   0 1279.66 118.110  11
   1   7   0 1098.66 122.350  10
  -1  -7   0 1017.15 132.241   4
  -1  -7   0 988.870 76.4777   9
   1  -7   0 1035.79 127.217   4
  -1   7   0 1231.80 129.498  10
  -1   7   0 1214.98 140.824   1
  -1   7  -1 35470.3 695.658  10
   1  -7  -1 33533.0 572.944   9
   1   7   1 35386.4 690.101  10
  -1  -7   1 34527.3 713.033   4
  -1   7  -1 35394.7 736.260   1
   1   7   1 35044.9 648.186  11
   1  -7  -1 34620.4 724.339   4
  -1   7  -1 32897.4 401.998   5
   1   7   2 3452.47 220.239  11
  -1   7  -2 3322.37 143.566   5
  -1  -7   2 3137.43 224.798   4
  -1   7  -2 3254.85 226.387   1
  -1   7  -2 3269.20 223.000  10
   1  -7  -2 3161.22 180.619   9
  -1  -7   2 3369.10 224.736  10
   1   7   2 3635.35 225.286  10
   1  -7  -2 3137.25 229.597   4
   1  -7  -3 85372.5 1194.73   4
  -1   7  -3 89199.9 1202.29  10
  -1  -7   3 88405.1 1155.18  10
   1   7   3 85683.4 1160.49  11
   1   7   3 85623.2 1115.85  10
   1  -7  -3 86080.6 1190.59   2
  -1   7  -3 84400.2 797.538   5
  -1  -7   3 84637.0 1150.80   4
  -1   7  -4 25508.3 611.584   3
  -1  -7   4 26589.4 656.551  10
  -1  -7   4 25760.1 653.725   4
   1  -7  -4 25450.0 581.129   8
  -1   7  -4 27304.5 703.641  10
  -1   7  -4 26804.2 500.652   5
   1   7   4 26201.9 678.099  11
   1  -7  -4 28026.9 708.279   2
  -1   7  -5 16191.3 505.807   3
   1  -7  -5 16213.6 495.909   8
   1  -7  -5 18038.0 589.232   2
   1   7   5 16555.4 568.417  11
  -1  -7   5 16670.2 548.064   4
  -1   7  -5 16982.1 440.978   5
  -1  -7   5 18131.9 557.446  10
  -1  -7   6 10786.1 458.590   4
  -1   7  -6 11175.8 389.469   5
  -1   7  -6 8825.60 305.762  11
  -1   7  -6 10678.9 428.731   3
   1  -7  -6 10035.6 416.298   8
  -1   7  -7 12276.2 480.141   3
   1  -7  -7 13400.8 511.459   8
  -1   7  -7 13834.9 472.237   5
  -1  -7   7 14116.1 558.893   4
  -1  -7   8 1575.47 203.027   4
   1  -7  -8 1517.77 188.854   8
   1  -7  -9 11683.9 535.795   8
  -1  -7   9 12358.6 579.558   4
   1  -7 -10 7660.94 464.975   8
  -1  -7  10 7735.43 474.355   4
   1  -7 -11 2284.61 271.585   8
  -1  -7  11 2991.98 312.385   4
   1  -7 -12 1913.58 259.851   8
  -1  -7  12 2145.82 278.954   4
  -1  -7  13 495.718 152.721   4
   1  -7 -13 759.018 178.416   8
  -1  -7  14 717.200 164.074   4
  -1  -7  15 770.627 178.361   4
   1  -8  15 20.3179 81.3344   4
   1  -8  14 140.716 116.596   4
   1  -8  13 457.732 151.889   4
   1  -8  12 2468.63 321.565   4
   1  -8  11 899.287 198.400   4
  -1  -8 -11 1056.32 183.139   8
   1  -8  10 8775.72 544.327   4
  -1  -8 -10 9002.39 481.561   8
   1  -8   9 391.392 139.762   4
  -1  -8  -9 339.767 101.313   8
  -1  -8  -8 2831.98 241.070   8
   1  -8   8 2724.83 290.595   4
  -1  -8  -7 4502.93 281.727   8
   1  -8   7 4388.38 338.464   4
   1  -8   6 4270.29 313.430   4
  -1   8   6 3497.79 243.825  10
  -1  -8  -6 4049.45 247.361   8
   1  -8   5 16656.1 595.018   4
  -1   8   5 15324.0 490.721  10
   1   8  -5 15050.9 560.232   3
  -1  -8  -5 15698.8 452.668   8
  -1   8   4 8635.67 426.360  11
  -1   8   4 8325.89 352.796  10
  -1  -8  -4 8595.42 307.829   8
   1  -8   4 8641.25 414.118   4
  -1   8   3 8565.70 406.232  11
  -1   8   3 8449.26 347.801  10
   1   8  -3 9079.02 369.351   1
  -1  -8  -3 8425.48 410.518   4
   1  -8   3 8996.50 395.183  10
  -1  -8  -3 8179.03 278.580   8
   1   8  -3 7452.01 214.153  11
   1  -8   3 9103.43 418.582   4
  -1  -8  -3 9181.94 405.821   2
   1   8  -3 9086.30 407.888  10
   1   8  -2 13101.0 473.629  10
  -1  -8  -2 11854.9 310.038   8
  -1  -8  -2 13718.4 479.268   2
  -1   8   2 12522.7 421.895  10
   1  -8   2 13598.4 471.854  10
  -1  -8  -2 13354.3 501.864   4
   1  -8   2 12950.5 485.389   4
   1   8  -2 12365.9 307.221  11
  -1   8   2 12913.1 476.730  11
   1   8  -2 13473.6 349.094  11
   1   8  -2 12762.1 441.592   1
  -1  -8  -1 1311.30 160.508   4
  -1   8   1 1246.46 134.168  10
   1   8  -1 1382.76 124.671  11
  -1  -8  -1 1364.75 147.659   2
   1  -8   1 1301.02 164.006   4
   1  -8   1 1402.78 150.732  10
   1   8  -1 1416.42 158.373  10
   1   8  -1 1207.66 140.097   1
   1  -8   0 12650.2 478.703   4
  -1  -8   0 13243.0 483.213   4
   1  -8   0 12577.0 371.115   9
   1   8   0 13286.3 457.698  10
  -1  -8   0 12030.7 282.351   9
  -1   8   0 13176.2 444.207  10
  -1   8   0 13545.3 495.994   1
   1   8   0 13253.0 408.473  11
   1   8   1 1210.53 133.212  11
   1   8   1 1352.52 148.063  10
  -1   8  -1 995.812 137.490   1
   1  -8  -1 1270.83 159.328   4
  -1  -8   1 1154.57 147.205   4
   1  -8  -1 959.593 103.838   9
  -1  -8   1 1213.63 94.7868   9
  -1   8  -1 1122.89 136.696  10
  -1   8  -2 11986.3 364.223  11
  -1   8  -2 13706.5 481.977  10
  -1   8  -2 12340.7 272.586   5
   1  -8  -2 13166.9 388.366   9
  -1   8  -2 13379.4 492.918   1
   1   8   2 14035.5 473.614  10
  -1  -8   2 12501.5 478.490   4
   1  -8  -2 13850.8 510.529   4
   1   8   2 13243.2 462.227  11
  -1   8  -3 7976.82 293.184  11
   1   8   3 8321.85 386.351  11
  -1   8  -3 9021.66 408.028  10
   1  -8  -3 9052.70 413.047   2
  -1  -8   3 8552.70 395.631   4
   1  -8  -3 8225.31 401.574   4
  -1   8  -3 8246.84 251.284   5
  -1  -8   3 8311.05 383.117  10
   1   8   3 8823.86 379.533  10
  -1   8  -4 7277.49 273.192  11
   1   8   4 8786.85 417.027  11
   1   8   4 8927.49 395.109  10
   1  -8  -4 8384.66 348.687   8
  -1  -8   4 8933.72 412.313   4
  -1   8  -4 8687.67 291.213   5
  -1   8  -4 8767.64 387.298   3
  -1   8  -5 17522.5 447.274   5
  -1   8  -5 15030.6 520.072   3
  -1  -8   5 16526.2 578.675   4
   1  -8  -5 16259.5 513.021   8
  -1   8  -6 3854.28 270.014   3
  -1  -8   6 4018.34 305.757   4
   1  -8  -6 3675.63 259.562   8
  -1   8  -6 4135.40 240.949   5
  -1  -8   7 4165.28 316.178   4
   1  -8  -7 4173.80 293.796   8
  -1  -8   8 2911.64 279.703   4
   1  -8  -8 2910.07 257.832   8
  -1  -8   9 324.408 104.012   4
   1  -8  -9 524.269 125.820   8
  -1  -8  10 8363.44 511.350   4
   1  -8 -10 8869.26 502.471   8
  -1  -8  11 1115.89 202.177   4
   1  -8 -11 1437.67 224.574   8
  -1  -8  12 1892.08 266.394   4
   1  -8 -12 2140.76 271.444   8
   1  -8 -13 475.529 142.078   8
  -1  -8  13 505.607 152.499   4
  -1  -8  14 90.0027 104.631   4
  -1  -8  15 205.060 109.876   4
   1  -9  14 2513.39 324.248   4
   1  -9  13 436.051 151.678   4
   1  -9  12 2253.41 308.232   4
   1  -9  11 1379.49 235.430   4
  -1  -9 -10 26.5242 47.4610   8
   1  -9  10 37.3986 91.6126   4
  -1  -9  -9 1895.62 210.859   8
   1  -9   9 1741.28 240.053   4
  -1  -9  -8 1458.21 175.413   8
   1  -9   8 1584.98 251.061   4
   1  -9   7 7200.01 451.593   4
  -1  -9  -7 7547.17 368.151   8
  -1  -9  -6 5881.42 303.348   8
   1  -9   6 5508.37 387.536   4
  -1  -9  -5 10864.7 384.043   8
   1  -9   5 11583.5 533.191   4
  -1  -9  -4 10434.4 348.287   8
   1  -9   4 10897.1 496.705   4
  -1  -9  -3 851.145 95.9329   8
   1  -9   3 1371.23 191.890   4
  -1   9   3 1062.51 131.825  10
   1   9  -3 1143.40 144.234   1
  -1  -9  -3 1243.34 179.670   4
  -1  -9  -2 12278.5 519.599   4
   1   9  -2 11876.7 461.858   1
  -1   9   2 12880.2 508.260  11
   1  -9   2 12671.5 520.792   4
   1   9  -2 12342.1 357.300  11
  -1   9   2 11596.1 439.184  10
  -1  -9  -2 11164.3 314.031   8
   1   9  -1 2592.71 179.080  11
   1   9  -1 2463.27 212.861   1
  -1  -9  -1 2572.66 215.943   2
   1  -9   1 2001.95 209.567   4
  -1  -9  -1 2286.73 225.918   4
  -1   9   1 2176.02 191.844  10
   1  -9   0 6963.84 289.392   9
   1   9   0 7123.33 323.226  11
  -1   9   0 7396.30 394.929   1
  -1  -9   0 7246.40 387.144   4
  -1  -9   0 6930.93 338.949   2
   1  -9   0 6967.60 382.290   4
  -1   9   0 6886.24 347.025  10
   1   9   1 2567.20 205.279  11
   1  -9  -1 2238.76 166.765   9
  -1  -9   1 2531.94 232.152   4
  -1   9  -1 2540.44 233.406   1
  -1   9  -1 2168.77 172.108  11
   1  -9  -1 2295.54 233.588   4
  -1   9  -2 10827.2 368.053  11
  -1   9  -2 12464.7 510.050   1
   1  -9  -2 13034.9 534.210   4
   1   9   2 12448.9 477.485  11
  -1  -9   2 11966.8 497.582   4
   1  -9  -3 1416.61 191.940   4
   1   9   3 1180.41 157.113  11
  -1   9  -3 1229.68 122.877  11
  -1  -9   3 1359.14 182.111   4
   1  -9  -4 10375.8 401.612   8
  -1  -9   4 11362.3 505.513   4
  -1   9  -5 10307.9 454.826   3
   1  -9  -5 11563.1 448.171   8
  -1  -9   5 12379.9 535.459   4
   1  -9  -6 5576.58 326.372   8
  -1  -9   6 6062.52 395.370   4
   1  -9  -7 7318.54 397.528   8
  -1  -9   7 7820.13 457.389   4
   1  -9  -8 1427.91 188.637   8
  -1  -9   8 1400.79 209.651   4
  -1  -9   9 2026.44 253.153   4
   1  -9  -9 1697.84 216.389   8
  -1  -9  10 180.279 101.374   4
   1  -9 -10 130.206 106.571   8
   1  -9 -11 1732.21 238.509   8
  -1  -9  11 1182.57 214.707   4
   1  -9 -12 2438.89 294.879   8
  -1  -9  12 2443.54 301.437   4
  -1  -9  13 353.132 130.151   4
  -1  -9  14 2132.01 283.763   4
   1 -10  14 512.526 141.036   4
   1 -10  13 161.459 113.808   4
   1 -10  12 232.528 121.196   4
   1 -10  11 3165.32 358.484   4
   1 -10  10 1787.97 270.211   4
   1 -10   9 3837.62 366.578   4
   1 -10   8 4397.51 384.082   4
   1 -10   7 3029.04 319.610   4
   1 -10   6 2350.48 1221.63   4
   1 -10   5 7825.15 471.138   4
   1 -10   4 19168.8 711.785   4
   1  10  -3 1953.46 199.871   1
   1 -10   3 2735.06 275.898   4
   1  10  -2 31179.1 805.705   1
  -1 -10  -2 32826.9 907.862   4
   1 -10   2 33525.4 906.001   4
   1 -10   1 2427.48 181.945   9
   1 -10   1 2097.87 230.188   4
  -1  10   1 2483.09 233.051  11
  -1 -10  -1 2624.76 259.924   4
   1  10  -1 2229.33 217.584   1
   1  10   0 15070.6 499.011  11
   1 -10   0 15321.9 448.374   9
  -1 -10   0 15669.9 608.280   4
   1 -10   0 15631.4 613.889   4
  -1  10  -1 2246.91 183.503  11
   1  10   1 2461.74 216.735  11
  -1 -10   1 2714.49 265.580   4
  -1 -10   1 2418.31 210.077   2
   1 -10  -1 2653.50 267.205   4
   1 -10  -1 2495.45 180.883   9
   1  10   2 31540.0 805.037  11
   1 -10  -2 33339.5 916.112   4
  -1 -10   2 32319.6 884.872   4
  -1 -10   3 2177.30 237.276   4
   1 -10  -3 2517.44 263.653   4
   1 -10  -3 2155.91 184.984   8
   1 -10  -4 17283.4 533.547   8
  -1 -10   4 19269.0 696.151   4
   1 -10  -5 7112.13 358.961   8
  -1 -10   5 7928.95 460.079   4
   1 -10  -6 2081.19 210.015   8
  -1 -10   6 2319.04 271.409   4
  -1 -10   7 3094.96 306.275   4
   1 -10  -7 3348.29 273.666   8
  -1 -10   8 4525.87 383.964   4
   1 -10  -8 4150.64 318.211   8
  -1 -10   9 3807.59 361.070   4
   1 -10  -9 3754.75 317.062   8
   1 -10 -10 1765.25 231.288   8
  -1 -10  10 1721.60 255.757   4
   1 -10 -11 2663.81 293.564   8
  -1 -10  11 2699.56 323.367   4
  -1 -10  12 114.620 72.5945   4
   1 -10 -12 210.306 105.538   8
  -1 -10  13 112.198 101.040   4
  -1 -10  14 283.630 126.757   4
   1 -11  13 346.842 150.594   4
   1 -11  12 510.811 153.345   4
   1 -11  11 1185.55 227.947   4
   1 -11  10 1174.25 218.121   4
   1 -11   9 1894.85 281.101   4
   1 -11   8 936.440 194.009   4
   1 -11   7 205.575 131.174   4
   1 -11   6 7823.56 523.829   4
   1 -11   5 128.840 127.624   4
   1 -11   4 6352.72 445.751   4
   1 -11   3 1490.30 229.145   4
   1 -11   2 3131.41 318.611   4
  -1 -11  -2 3080.72 310.249   4
  -1 -11  -1 2471.17 278.297   4
   1 -11   1 2863.35 289.513   4
   1 -11   0 3058.68 299.973   4
  -1 -11   0 2953.62 297.346   4
   1 -11  -1 2754.03 288.092   4
  -1 -11   1 2582.22 285.219   4
  -1 -11   2 2659.03 290.182   4
   1 -11  -2 2983.96 301.376   4
  -1 -11   3 1612.00 229.948   4
   1 -11  -3 1264.20 145.886   8
   1 -11  -3 1562.87 234.229   4
   1 -11  -4 5616.23 310.577   8
  -1 -11   4 6257.98 432.394   4
  -1 -11   5 117.653 109.213   4
   1 -11  -5 113.988 59.9845   8
   1 -11  -6 7872.69 400.250   8
  -1 -11   6 8311.24 506.401   4
   1 -11  -7 165.454 70.5363   8
  -1 -11   7 165.165 107.455   4
   1 -11  -8 757.207 138.068   8
  -1 -11   8 1304.78 215.827   4
  -1 -11   9 1802.20 271.488   4
   1 -11  -9 1852.25 224.320   8
  -1 -11  10 1090.58 225.467   4
  -1 -11  11 1113.56 219.772   4
  -1 -11  12 471.551 158.886   4
  -1 -11  13 421.798 139.370   4
   1 -12  12 160.842 91.7911   4
   1 -12  11 345.066 136.878   4
   1 -12  10 1375.94 252.396   4
   1 -12   9 1682.28 268.921   4
   1 -12   8 1898.49 281.206   4
   1 -12   7 1693.44 258.423   4
   1 -12   6 2432.39 306.843   4
   1 -12   5 580.472 162.810   4
   1 -12   4 2568.56 320.469   4
   1 -12   3 3697.93 368.589   4
   1 -12   2 3462.12 339.664   4
  -1 -12  -2 2715.79 321.855   4
  -1 -12  -1 8964.14 552.857   4
   1 -12   1 9501.89 546.721   4
  -1 -12   0 3731.19 369.391   4
   1 -12   0 3730.21 351.752   4
  -1 -12   1 64190.1 1378.23   4
   1 -12  -1 9767.39 559.451   4
   1 -12  -2 3567.37 346.277   4
  -1 -12   2 3021.68 340.346   4
  -1 -12   3 3676.59 367.108   4
  -1 -12   4 2891.64 324.223   4
  -1 -12   5 963.202 189.919   4
  -1 -12   6 2334.02 293.861   4
  -1 -12   7 2277.78 291.811   4
  -1 -12   8 1877.82 279.150   4
  -1 -12   9 1234.23 233.935   4
  -1 -12  10 1350.43 244.449   4
  -1 -12  11 263.818 115.405   4
  -1 -12  12 316.725 132.749   4
   1 -13  11 1087.28 228.546   4
   1 -13  10 1196.89 239.433   4
   1 -13   9 2646.91 340.532   4
   1 -13   8 182.379 93.0649   4
   1 -13   7 859.448 196.719   4
   1 -13   6 686.791 169.263   4
   1 -13   5 738.895 181.295   4
   1 -13   4 887.420 205.314   4
   1 -13   3 2829.91 322.014   4
   1 -13   2 2258.70 300.696   4
  -1 -13  -2 2173.44 295.705   4
  -1 -13  -1 4198.02 391.626   4
   1 -13   1 4414.15 400.242   4
   1 -13   0-108.533 117.769   4
  -1 -13   0 144.963 100.670   4
  -1 -13   1 3915.12 370.185   4
   1 -13  -1 4215.20 389.272   4
   1 -13  -2 2075.44 284.124   4
  -1 -13   2 2284.73 309.732   4
  -1 -13   3 3206.94 342.887   4
  -1 -13   4 771.336 187.325   4
  -1 -13   5 815.880 191.984   4
  -1 -13   6 780.294 196.548   4
  -1 -13   7 1465.44 246.187   4
  -1 -13   8 270.989 121.293   4
  -1 -13   9 2128.62 303.720   4
  -1 -13  10 923.523 207.654   4
  -1 -13  11 735.720 177.401   4
   1 -14  10 276.763 124.010   4
   1 -14   9 1265.13 243.669   4
   1 -14   8 346.950 152.626   4
   1 -14   7 1603.35 264.313   4
   1 -14   6 492.045 183.287   4
   1 -14   5 4291.96 420.462   4
   1 -14   4 1387.55 246.731   4
   1 -14   3 864.648 209.476   4
   1 -14   2 4935.39 440.685   4
  -1 -14  -1 3146.67 353.431   4
   1 -14   1 3255.95 372.953   4
   1 -14   0 963.215 213.533   4
  -1 -14   0 1015.51 221.739   4
  -1 -14   1 3576.97 374.884   4
   1 -14  -1 3394.01 379.091   4
   1 -14  -2 5597.89 471.294   4
  -1 -14   2 5059.74 450.442   4
  -1 -14   3 637.245 168.744   4
  -1 -14   4 1718.61 281.321   4
  -1 -14   5 4450.96 427.605   4
  -1 -14   6 296.835 148.357   4
  -1 -14   7 1911.43 293.538   4
  -1 -14   8 558.941 174.887   4
  -1 -14   9 1127.47 228.359   4
  -1 -14  10 325.419 122.371   4
   1 -15   9 972.792 220.021   4
   1 -15   8 752.299 203.829   4
   1 -15   7 723.153 199.943   4
   1 -15   6 884.243 214.148   4
   1 -15   5 261.537 143.457   4
   1 -15   4 989.976 217.268   4
   1 -15   3 764.262 193.788   4
   1 -15   2 697.478 193.673   4
   1 -15   1 1665.40 271.482   4
  -1 -15  -1 1199.24 236.004   4
   1 -15   0 391.667 160.667   4
  -1 -15   0 355.358 144.725   4
   1 -15  -1 1513.22 264.441   4
  -1 -15   1 1436.61 243.765   4
  -1 -15   2 433.944 157.585   4
  -1 -15   3 480.510 157.536   4
  -1 -15   4 959.941 211.826   4
  -1 -15   5 0.44206 116.530   4
  -1 -15   6 849.475 195.697   4
  -1 -15   7 596.009 157.418   4
  -1 -15   8 666.082 175.468   4
  -1 -15   9 882.317 211.104   4
   1 -16   7 834.929 199.821   4
   1 -16   6 440.819 154.855   4
   1 -16   5-9.80572 92.1352   4
   1 -16   4 1065.94 228.179   4
   1 -16   3 873.368 214.762   4
   1 -16   2 1290.13 244.742   4
   1 -16   1 125.258 104.200   4
   1 -16   0 2141.87 309.956   4
  -1 -16   0 2426.44 339.374   4
   1 -16  -1 204.234 129.287   4
  -1 -16   1 34.9734 96.5883   4
  -1 -16   2 1474.04 264.439   4
  -1 -16   3 358.796 130.764   4
  -1 -16   4 884.343 207.929   4
  -1 -16   5 146.854 86.1128   4
  -1 -16   6 505.068 155.548   4
  -1 -16   7 539.165 167.528   4
   1 -17   5 534.890 164.020   4
   1 -17   4 988.872 222.803   4
   1 -17   3 2459.94 339.309   4
   1 -17   2 495.685 167.829   4
   1 -17   1 383.537 150.840   4
   1 -17   0 432.166 166.924   4
  -1 -17   1 159.148 115.664   4
  -1 -17   2 461.280 160.663   4
  -1 -17   3 2408.70 337.059   4
  -1 -17   4 1129.18 226.640   4
  -1 -17   5 271.034 131.107   4
   2   0   0 165650. 582.661   3
   2   0   0 170112. 706.871  11
   2   0  -1 3055.97 103.394   7
   2   0  -1 2798.00 103.951   3
  -2   0   1 2705.99 84.1998   1
   2   0   1 2945.47 107.830  11
   2   0  -1 2856.92 84.2976   1
   2   0   2 28394.0 430.451  10
  -2   0   2 28400.1 231.332  10
  -2   0  -2 28353.4 364.835   5
   2   0  -2 28819.7 366.773   8
   2   0  -2 28856.8 254.332  10
   2   0   2 28345.3 383.625  11
  -2   0   3 8209.33 171.239  10
  -2   0  -3 8207.29 225.490   5
   2   0   3 8280.43 236.283  11
   2   0   3 8431.68 266.411  10
   2   0  -3 8312.26 229.039   8
   2   0  -3 8266.06 188.764  10
  -2   0   3 8413.78 214.698  11
   2   0  -3 8085.08 162.856   2
   2   0   4 35455.5 547.638  11
  -2   0  -4 35733.6 530.600   5
   2   0   4 35710.7 602.470  10
  -2   0   4 34588.4 501.664  11
  -2   0   4 36478.6 440.398  10
   2   0  -4 35615.5 541.070   8
   2   0  -4 33443.4 478.100  10
   2   0   5 24.6372 31.3400  11
  -2   0   5 4.48153 21.2258  11
   2   0   5 31.6819 27.7865  10
   2   0  -5 9.46444 28.2302   8
   2   0  -5 21.6351 35.2805  10
  -2   0  -5 16.3198 28.0588   5
  -2   0   5 71.5453 35.9925  10
  -2   0  -5 53.6749 37.2727  11
  -2   0   6 14222.3 448.001   3
   2   0   6 14352.3 419.682  11
  -2   0   6 14107.6 393.499  11
  -2   0  -6 14298.4 410.360   5
   2   0  -6 14619.4 427.699   8
   2   0   6 14231.5 449.463  10
  -2   0   6 14778.9 364.938  10
  -2   0  -6 14450.9 445.026  11
  -2   0   7 32949.0 739.920   3
  -2   0   7 33215.9 605.963  10
   2   0   7 32473.0 677.862  11
   2   0   7 32934.2 729.464  10
  -2   0  -7 33408.4 681.850   5
   2   0  -7 32676.3 694.349   8
   2   0   7 31863.2 640.465   3
  -2   0  -7 33713.4 738.255  11
  -2   0   7 33875.4 653.475  11
   2   0   8 2795.23 209.794   2
   2   0   8 2783.64 227.911  10
   2   0   8 2733.01 205.486   3
  -2   0   8 2873.06 233.501   3
  -2   0  -8 3040.54 227.031   5
  -2   0   8 2689.88 188.483  10
  -2   0   8 3150.89 216.802  11
  -2   0  -8 3218.70 249.550  11
   2   0  -8 2974.34 235.429   8
   2   0   8 3062.98 221.845  11
  -2   0  -9 15539.7 549.585   6
   2   0   9 14994.4 517.680   3
   2   0   9 15381.2 528.085   2
  -2   0   9 15638.9 490.369  10
  -2   0   9 15151.4 508.483  11
   2   0  -9 15409.9 567.083   8
  -2   0 -10-19.5599 61.8386   6
   2   0 -10-7.14959 67.7300   8
  -2   0 -11 1891.56 224.909   6
   2   0 -11 1833.99 240.779   6
  -2   0 -12 5834.51 416.010   6
   2   0 -12 5437.07 427.448   6
   2   0 -13 1092.18 204.441   6
  -2   0 -13 1098.25 202.847   6
   2   0 -14 1956.65 287.610   6
  -2   0 -14 1728.05 255.479   6
  -2   0 -15 418.978 141.526   6
   2   0 -15 377.306 135.459   6
   2   0 -16 98.7834 86.5788   6
  -2   0  16 415.069 144.440   4
   2   1 -16 611.511 172.422   6
   2   1 -15 110.829 104.288   6
   2   1 -14 728.227 186.101   6
  -2  -1 -14 729.723 172.520   6
   2   1 -13 692.567 179.264   6
  -2  -1 -13 296.817 115.139   6
  -2  -1 -12 447.992 113.623   6
  -2  -1 -11 6079.23 400.991   6
  -2  -1 -10 9417.26 463.629   6
  -2  -1  -9 4754.71 309.723   6
   2  -1   9 4855.42 290.774   2
   2   1  -9 5013.75 323.645   8
  -2   1   9 4575.29 292.626  11
   2  -1   9 4684.38 287.893  11
   2  -1   9 4544.88 282.525   3
  -2   1   9 4473.14 260.296  10
  -2   1   8 13523.6 511.104   3
  -2  -1  -8 15078.9 548.587  11
  -2  -1  -8 13819.1 483.213   6
   2  -1   8 13959.9 497.203  10
   2   1  -8 13541.9 488.047   8
   2  -1   8 13698.2 448.536   3
  -2   1   8 13751.1 472.868  11
  -2   1   8 13710.5 418.647  10
   2  -1   8 14020.4 462.733  11
  -2  -1  -7 10564.9 385.575   6
   2   1  -7 11502.2 412.744   8
  -2  -1  -7 11898.6 455.314  11
   2  -1   7 11350.5 387.938  11
   2  -1   7 11281.5 420.007  10
  -2   1   7 11242.8 351.757  10
  -2  -1  -7 11659.3 402.975   5
   2  -1   7 10689.9 368.803   3
  -2   1   7 11408.8 404.759  11
  -2   1   7 10836.1 425.897   3
   2   1  -7 11142.9 411.754  10
  -2  -1  -6 3739.92 210.443   5
   2  -1   6 3607.00 195.295   3
  -2   1   6 3596.53 210.612  11
   2   1  -6 3462.10 207.148   8
  -2   1   6 3361.06 219.585   3
  -2   1   6 3591.91 183.874  10
  -2  -1  -6 3356.56 195.604   6
   2  -1   6 3382.11 219.465  10
  -2  -1  -6 3716.00 234.437  11
   2  -1   6 3558.47 200.470  11
   2   1  -5 7625.69 267.032  10
   2   1  -5 7866.44 280.897   8
  -2  -1  -5 7598.08 261.366   6
  -2  -1  -5 7907.42 273.680   5
   2  -1   5 7634.82 250.380   3
  -2   1   5 8184.69 243.650  10
   2  -1   5 7451.25 300.583  10
  -2   1   5 7831.16 287.939  11
   2  -1   5 7635.73 272.726  11
   2  -1   4 41428.3 578.903  11
   2  -1   4 40857.9 500.530   3
   2  -1   4 42419.8 650.977  10
  -2  -1  -4 40257.0 525.930   6
   2   1  -4 41073.8 538.351  10
  -2   1   4 41260.2 599.016  11
  -2  -1  -4 42146.9 566.240   5
   2   1  -4 41924.3 572.530   8
  -2   1   4 39429.7 464.970  10
   2   1  -3 8029.50 249.332   3
   2  -1   3 8101.56 255.523  10
  -2   1   3 7694.74 165.011  10
   2   1  -3 7870.29 214.786   8
   2   1  -3 7578.70 194.302  10
   2  -1   3 7891.60 179.254   3
  -2  -1  -3 7554.88 210.437   5
   2  -1   3 7593.00 222.453  11
  -2  -1  -3 7630.63 195.067   6
   2   1  -2 118216. 839.619   3
   2  -1   2 114350. 769.376  11
  -2  -1  -2 115798. 701.864   5
   2  -1   2 117426. 494.282   3
   2  -1   2 114556. 839.692  10
   2   1  -2 119239. 686.377   8
   2   1  -2 116498. 630.981  10
   2   1  -2 117551. 734.682   7
   2   1  -1 18019.0 284.323   3
   2  -1   1 18175.3 276.583  11
   2   1  -1 18515.4 262.193   7
  -2   1   1 16845.5 264.110   1
   2  -1   1 18465.6 278.533  10
   2   1   0 23812.8 243.428  11
  -2   1   0 24051.1 241.512  10
   2  -1   0 24266.3 330.667   1
  -2  -1   0 23675.6 243.154  11
   2  -1   0 23997.2 227.176  10
   2  -1  -1 18221.4 252.932   7
   2   1   1 17968.7 266.319  11
   2  -1  -1 18478.7 280.570   9
  -2  -1   1 18126.4 174.456  11
  -2  -1   2 118970. 621.813  10
   2   1   2 117948. 817.490  11
  -2   1  -2 121007. 777.018   5
  -2  -1   3 7957.97 187.862  10
   2  -1  -3 7775.95 198.704   2
   2   1   3 8379.56 248.530  11
  -2   1  -3 8173.45 230.366   5
  -2  -1   3 7917.68 176.541  11
   2  -1  -3 8329.49 243.466   8
  -2   1  -4 41672.3 585.349   5
  -2  -1   4 42994.7 509.957  10
  -2   1  -4 41945.7 607.779  11
   2  -1  -4 42439.3 610.501   8
   2  -1  -4 41589.5 503.194   2
   2   1   4 40668.7 676.308  10
   2   1   4 42937.4 630.930  11
  -2  -1   4 41719.8 487.837  11
   2   1   5 7678.09 293.897  11
  -2  -1   5 8076.61 248.248  11
   2  -1  -5 7491.38 287.009   8
  -2   1  -5 7727.12 281.337   5
  -2  -1   5 7693.61 301.656   3
  -2  -1   5 7830.54 249.741  10
  -2   1  -5 7578.04 286.478  11
   2   1   5 7416.03 310.666  10
   2   1   6 3013.29 190.882   2
   2   1   6 3716.81 234.410  10
   2  -1  -6 3539.96 213.949   8
  -2  -1   6 3376.87 180.010  10
  -2  -1   6 3253.10 213.117   3
  -2   1  -6 3338.92 201.368   5
  -2  -1   6 3470.87 178.979  11
   2   1   6 3207.45 207.071  11
  -2   1  -6 3333.20 210.683  11
  -2  -1   7 10717.3 346.997  11
   2   1   7 10846.0 407.967  11
   2  -1  -7 10565.5 403.064   8
  -2  -1   7 10806.5 351.106  10
   2   1   7 11226.8 430.700  10
   2   1   7 10621.2 386.262   2
  -2   1  -7 10479.6 384.093   5
  -2  -1   7 10921.1 423.682   3
  -2   1  -7 10678.0 406.905  11
  -2  -1   8 14172.5 428.833  11
  -2  -1   8 13378.1 501.437   3
  -2   1  -8 13459.6 476.479   5
  -2  -1   8 13402.1 422.441  10
  -2   1  -8 13596.5 498.344  11
   2   1   8 13596.5 504.639  10
   2   1   8 14740.8 490.427   2
   2  -1  -8 13608.7 494.281   8
   2   1   8 14098.0 497.010  11
  -2  -1   9 4648.64 268.268  10
  -2  -1   9 4682.38 265.957  11
  -2   1  -9 4649.04 315.995  11
   2  -1  -9 4518.38 309.723   8
   2   1   9 4260.49 278.680   3
   2  -1  -9 4782.09 332.786   6
   2  -1 -10 9884.66 497.182   8
   2  -1 -10 9168.88 494.206   6
  -2   1 -11 6318.85 402.219   6
   2  -1 -11 6279.14 436.186   6
   2  -1 -11 6076.13 408.946   8
   2  -1 -12 659.579 164.862   6
  -2   1 -12 432.106 106.268   6
  -2   1 -13 389.853 122.345   6
   2  -1 -13 255.704 110.898   6
  -2   1 -14 786.671 165.122   6
   2  -1 -14 659.093 170.841   6
  -2   1 -15 110.224 72.3372   6
  -2  -1  15 114.432 91.4240   4
   2  -1 -15 222.651 127.830   6
   2  -1 -16 453.064 139.038   6
  -2  -1  16 208.771 128.211   4
   2   2 -16 228.027 129.098   6
   2  -2  16 167.335 132.751   4
   2   2 -15 2663.84 343.590   6
   2  -2  15 2143.70 340.136   4
   2   2 -14 630.402 165.414   6
  -2  -2 -13 539.107 156.417   6
  -2  -2 -12 4215.23 357.900   6
  -2  -2 -11 2379.42 259.666   6
  -2  -2 -10 2900.00 262.488   6
   2  -2   9 4265.25 270.285  11
  -2   2   9 4917.95 275.639  10
  -2  -2  -9 4937.41 318.056   6
  -2   2   9 4774.30 246.785  12
   2  -2   9 4431.41 275.421   3
   2   2  -9 4297.33 314.478  10
  -2  -2  -8 6870.36 380.408  11
   2   2  -8 5751.01 317.460   8
   2  -2   8 5651.17 289.150   3
   2  -2   8 5924.60 326.331  10
  -2   2   8 6163.15 352.577   3
   2  -2   8 6085.61 298.355  11
  -2   2   8 6416.27 341.286  11
  -2  -2  -8 5931.63 322.533   6
  -2   2   8 6167.46 292.791  10
   2   2  -8 5933.69 335.131  10
  -2   2   7 8068.63 355.866  11
  -2  -2  -7 8058.41 342.107   6
  -2  -2  -7 8637.50 396.199  11
  -2   2   7 8703.17 317.874  10
  -2  -2  -7 7763.17 324.961   5
   2  -2   7 8369.11 364.516  10
   2   2  -7 8156.55 358.192  10
   2   2  -7 7993.37 343.530   8
   2  -2   7 8434.34 327.866  11
   2  -2   7 7783.86 311.989   3
  -2  -2  -6 32647.1 614.281   5
  -2   2   6 33906.5 687.487  11
   2  -2   6 33069.4 605.919  11
   2  -2   6 33737.9 585.746   3
  -2  -2  -6 31728.2 617.250   6
  -2  -2  -6 32462.4 629.283   8
   2  -2   6 34790.9 696.624  10
   2   2  -6 32018.9 642.166  10
  -2  -2  -6 34383.1 731.612  11
  -2   2   6 32142.4 561.986  10
   2   2  -6 33182.6 637.461   8
   2  -2   5 51480.7 783.530  10
  -2   2   5 52493.9 651.735  10
  -2  -2  -5 51000.4 688.552   5
   2   2  -5 51264.2 714.895   8
   2  -2   5 50081.8 635.899   3
  -2  -2  -5 50704.8 704.699   6
  -2  -2  -5 51437.5 715.354   8
  -2   2   5 51129.2 778.660  11
   2  -2   5 50948.8 693.501  11
   2  -2   4 41668.7 501.744   3
   2  -2   4 43145.9 656.599  10
  -2  -2  -4 42981.8 577.877   8
   2  -2   4 42571.4 581.111  11
  -2  -2  -4 43220.6 559.940   5
   2   2  -4 42953.0 586.902  10
   2   2  -4 43217.8 575.282   8
  -2   2   4 41773.1 524.376  10
   2   2  -4 42465.3 664.911   3
  -2  -2  -4 43121.1 583.096   6
  -2   2   4 41389.6 650.657  11
   2   2  -3 89048.1 751.887  10
   2  -2   3 92699.5 867.264  10
  -2  -2  -3 90908.3 710.597   5
   2   2  -3 92435.2 718.157   8
  -2  -2  -3 91204.0 727.980   8
   2  -2   3 90817.7 773.223  11
   2   2  -3 91193.0 878.664   3
   2   2  -2 2502.68 135.300   3
   2  -2   2 2096.82 109.218  11
  -2  -2  -2 2086.75 89.3315   8
  -2  -2  -2 2080.91 89.4507   5
   2   2  -2 2206.81 100.292   7
   2   2  -2 2153.94 88.3574   8
   2  -2   2 2087.54 116.931  10
   2   2  -2 2050.08 102.653  10
   2  -2   1 66094.2 655.727   1
   2  -2   1 66077.8 583.113   4
  -2   2   1 66520.1 392.500  10
   2   2  -1 66852.1 513.084   7
  -2  -2  -1 65871.9 555.612  11
   2  -2   1 67090.4 584.677  11
   2  -2   1 65522.5 548.868  10
  -2  -2   0 56301.7 464.940   4
   2   2   0 53964.0 434.157   2
  -2   2   0 54000.9 423.608  10
   2   2   0 55520.0 394.957  11
  -2  -2   0 55829.7 399.774  11
   2  -2   0 55985.0 471.561   4
   2  -2   0 54161.3 567.045   1
   2  -2   0 54523.1 414.619  10
   2  -2  -1 67717.7 525.349   4
  -2   2  -1 67687.1 521.161  12
  -2  -2   1 67408.2 496.592   4
  -2   2  -1 66336.5 573.129  10
   2  -2  -1 67956.0 612.741   9
   2   2   1 67005.2 560.480  11
  -2  -2   1 67079.4 555.428  10
   2   2   2 1910.45 112.932  11
  -2  -2   2 1940.10 95.6137   4
   2  -2  -2 1995.28 109.558   6
  -2  -2   2 1860.15 96.6545  10
   2  -2  -2 1854.71 107.858   9
  -2   2  -2 1758.29 70.0865   3
  -2  -2   3 88345.1 719.971  10
  -2   2  -3 89000.4 782.101  11
  -2  -2   3 86344.7 446.906  11
   2   2   3 88749.1 866.002  11
  -2   2  -3 89267.3 783.110   5
  -2  -2   3 87845.1 792.690   4
   2  -2  -3 89625.7 837.806   6
   2   2   4 42680.4 669.096  11
  -2   2  -4 41272.7 596.112   5
   2  -2  -4 42644.1 578.785   2
   2  -2  -4 42632.4 639.818   8
  -2  -2   4 42422.3 550.601  10
  -2   2  -4 42381.6 599.383  11
  -2  -2   4 42889.4 411.898  11
   2  -2  -4 41745.0 652.321   6
  -2  -2   4 38894.0 303.900   2
   2   2   5 48559.0 842.052  10
   2  -2  -5 48923.9 783.917   6
  -2  -2   5 50574.2 663.539  10
   2   2   5 50152.4 755.817   2
  -2  -2   5 50596.6 537.999  11
   2   2   5 50922.8 792.527  11
   2  -2  -5 50042.4 758.577   8
  -2   2  -5 49696.9 717.456   5
  -2  -2   5 51076.1 432.030   2
   2  -2  -5 49212.4 666.211   2
  -2  -2   5 50525.2 790.193   3
  -2  -2   6 34777.9 419.856   2
   2  -2  -6 34058.7 680.165   8
  -2  -2   6 34440.0 713.306   3
   2   2   6 33879.1 669.214   2
  -2  -2   6 34346.3 509.749  11
  -2   2  -6 34145.8 657.067  11
   2  -2  -6 34144.2 708.420   6
   2   2   6 35465.3 754.827  10
  -2   2  -6 35330.8 792.242  10
  -2  -2   6 33376.6 591.302  10
  -2   2  -6 33807.7 649.143   5
   2   2   6 34391.0 703.254  11
   2   2   7 7956.79 349.176   2
  -2  -2   7 7941.68 272.912  11
   2  -2  -7 7628.82 347.424   8
   2   2   7 8216.72 366.384  11
  -2   2  -7 7878.17 342.808   5
   2   2   7 8240.97 384.746  10
  -2  -2   7 7672.28 359.231   3
   2  -2  -7 8087.18 376.581   6
  -2   2  -7 8489.66 425.361  10
  -2   2  -7 8029.21 349.330  11
  -2  -2   7 7942.54 228.951   2
  -2  -2   7 7857.67 309.064  10
   2  -2  -8 6219.84 357.928   6
  -2   2  -8 6487.11 335.289  11
  -2   2  -8 6496.84 332.981   5
  -2  -2   8 6523.31 302.085  10
   2  -2  -8 6013.78 337.891   8
   2   2   8 6167.32 329.964   2
  -2  -2   8 6123.16 262.772  11
  -2  -2   8 6244.58 347.138   3
   2   2   8 6226.66 348.372  10
   2   2   8 6469.47 346.436  11
  -2   2  -9 4619.35 308.447  11
  -2   2  -9 4695.72 306.868   5
   2  -2  -9 4652.00 317.947   8
   2  -2  -9 4685.20 340.870   6
  -2  -2   9 4443.05 242.924  11
  -2  -2   9 4301.81 264.933  10
   2  -2 -10 3088.18 285.887   8
   2  -2 -10 3001.02 290.901   6
   2  -2 -11 2021.29 242.888   8
   2  -2 -11 2349.49 273.780   6
   2  -2 -12 4272.81 378.558   8
   2  -2 -12 3834.71 364.047   6
  -2   2 -12 4127.52 351.138   6
   2  -2 -13 473.124 144.633   6
  -2   2 -13 432.483 130.921   6
  -2  -2  14 652.501 173.510   4
   2  -2 -14 629.354 174.573   6
  -2   2 -14 695.430 165.381   6
  -2  -2  15 2396.53 328.049   4
  -2   2 -15 2753.96 322.586   6
   2  -2 -15 2807.69 351.346   6
  -2  -2  16 318.671 135.122   4
   2  -3  16 140.217 103.793   4
   2   3 -16 153.201 86.7901   6
   2  -3  15 1501.69 286.402   4
   2   3 -15 1939.61 298.629   6
   2  -3  14 1592.87 266.477   4
   2  -3  13 1955.13 296.367   4
  -2  -3 -11 3465.74 315.019   6
  -2  -3 -10 5576.13 370.629   6
  -2  -3  -9 314.528 98.4483   6
   2  -3   9 293.036 69.9768  11
  -2   3   9 305.611 72.4394  10
  -2   3   9 297.728 69.5431  12
   2  -3   8 6870.83 314.211  11
   2   3  -8 6020.40 346.079  10
  -2   3   8 7035.79 371.062  11
  -2  -3  -8 6715.27 344.069   8
  -2   3   8 7288.28 325.168  10
  -2   3   8 6703.83 296.098  12
  -2  -3  -8 6651.63 348.742   6
   2  -3   7 1904.93 155.645  11
   2  -3   7 2095.97 188.141  10
   2   3  -7 1911.92 180.312  10
  -2  -3  -7 1979.35 175.959   8
  -2   3   7 2066.06 161.303  12
  -2   3   7 1922.78 184.945  11
  -2  -3  -7 2137.09 203.818  11
  -2  -3  -7 2075.57 184.067   6
  -2   3   7 2057.76 162.498  10
  -2   3   6 755.012 94.7280  10
   2   3  -6 946.033 114.833  10
   2  -3   6 877.783 113.124  10
  -2   3   6 803.687 101.876  12
   2  -3   6 797.784 95.9299  11
  -2  -3  -6 907.914 127.586  11
  -2  -3  -6 727.494 96.7963   8
  -2   3   6 864.185 119.060  11
   2   3  -5 1708.73 140.915  10
  -2   3   5 1626.29 151.661  11
  -2  -3  -5 1717.88 132.773   8
   2  -3   5 1611.75 146.053  10
   2   3  -5 1852.44 157.315   3
  -2  -3  -5 1801.03 159.933  11
   2  -3   5 1773.33 130.771  11
  -2   3   5 1703.90 131.008  10
  -2  -3  -5 1604.40 121.069   5
  -2   3   5 1601.48 133.167  12
  -2  -3  -4 5136.68 189.704   5
  -2   3   4 4971.93 241.737  11
   2  -3   4 4694.54 195.243  11
   2  -3   4 4834.50 228.722  10
   2   3  -4 4880.96 235.850   3
  -2   3   4 4985.31 220.380  12
  -2  -3  -4 5005.65 199.589   8
  -2   3   3 3280.34 169.383  12
   2  -3   3 3629.69 186.594   1
   2  -3   3 3479.16 177.510  10
  -2  -3  -3 3476.67 184.801  11
  -2  -3  -3 3488.24 133.548   5
   2   3  -3 3524.18 187.217   3
  -2  -3  -3 3741.92 147.489   8
   2  -3   3 3388.87 154.281  11
   2  -3   3 3703.50 194.747   4
   2   3  -3 3311.32 161.815  10
   2  -3   2 25564.5 430.802  10
   2   3  -2 25686.6 275.026   1
  -2  -3  -2 25495.9 312.530   8
   2  -3   2 25445.5 400.253  11
  -2  -3  -2 25288.0 295.431   5
  -2   3   2 25890.2 450.036  12
  -2   3   2 25398.4 323.186  10
   2   3  -2 25415.4 341.334   7
  -2  -3  -2 24995.4 437.460  11
   2  -3   2 26070.6 456.682   4
   2  -3   2 26063.0 473.657   1
  -2  -3  -1 105280. 772.252  11
  -2  -3  -1 108431. 799.887   2
   2  -3   1 107041. 915.805   1
   2   3  -1 100134. 415.672  11
  -2   3   1 105483. 652.025  10
   2  -3   1 106150. 838.720   4
   2  -3   1 106493. 781.844  10
  -2  -3  -1 108437. 850.918   4
  -2   3   1 107541. 868.288  12
  -2  -3   0 67523.0 564.026   2
  -2   3   0 67542.5 568.450  10
   2  -3   0 67713.4 559.479  10
   2   3   0 68357.9 499.432  11
   2  -3   0 67738.4 635.602   4
  -2   3   0 68850.1 650.801  12
  -2  -3   0 65585.2 502.481  11
  -2  -3   0 66515.6 625.671   4
   2  -3  -1 107789. 849.901   9
  -2   3  -1 107890. 769.232  12
  -2   3  -1 107832. 813.065  10
   2  -3  -1 107130. 815.512   4
  -2  -3   1 110422. 791.109   4
  -2  -3   1 110000. 623.249   2
   2   3   1 109131. 779.126  11
  -2  -3   2 25744.2 416.054  10
   2  -3  -2 25651.8 431.846   9
  -2  -3   2 26849.1 406.498   4
  -2   3  -2 26408.5 353.394  12
   2  -3  -2 26053.9 422.210   4
  -2   3  -2 26729.8 421.033  11
   2   3   2 26209.2 442.037  11
  -2  -3   3 3938.34 170.539  10
  -2  -3   3 3822.32 173.945   4
  -2   3  -3 3855.87 167.951   5
   2   3   3 3930.11 192.537  11
   2  -3  -3 3797.09 185.669   6
  -2   3  -3 3958.02 143.857   3
  -2   3  -3 3872.10 169.003  11
  -2  -3   4 4834.73 222.522   4
   2  -3  -4 4848.90 233.560   6
   2  -3  -4 5017.89 221.265   2
  -2  -3   4 5077.27 208.433  10
  -2  -3   4 4839.54 109.827  11
  -2   3  -4 5013.29 185.947   3
   2  -3  -4 4940.16 229.990   8
  -2   3  -4 4855.39 211.090   5
   2   3   4 5074.00 241.202  11
  -2  -3   5 1553.64 125.509  10
  -2   3  -5 1613.86 133.868   5
   2  -3  -5 1510.46 146.261   6
   2  -3  -5 1517.94 130.180   2
  -2  -3   5 1639.76 79.9547   1
   2   3   5 1688.06 153.153  11
  -2  -3   5 1326.33 143.737   4
  -2  -3   5 1760.48 88.5770  11
  -2   3  -5 1722.41 162.238  10
   2   3   5 1501.19 140.953   2
   2  -3  -5 1472.96 139.453   8
  -2  -3   6 711.017 56.3818   2
   2  -3  -6 789.628 119.414   6
   2   3   6 699.718 104.303   2
   2   3   6 673.589 106.539  11
  -2  -3   6 838.985 99.7935  10
   2  -3  -6 693.196 93.8878   2
  -2   3  -6 743.196 98.4628  11
   2  -3  -6 745.755 110.364   8
  -2   3  -6 825.647 127.684  10
  -2   3  -6 788.062 104.632   5
  -2  -3   6 796.397 65.8821   1
  -2  -3   6 826.495 123.451   4
  -2  -3   6 872.874 74.4900  11
   2  -3  -7 2252.78 208.115   6
  -2  -3   7 2142.69 169.822  10
   2   3   7 2129.55 191.187   2
   2   3   7 2109.80 195.020  11
  -2   3  -7 2368.77 228.219  10
   2  -3  -7 2099.77 191.856   8
  -2   3  -7 2194.50 181.407  11
  -2  -3   7 2269.32 133.563  11
   2   3   7 2034.80 197.592  10
  -2  -3   7 2057.54 107.983   2
  -2   3  -7 2234.49 186.689   5
   2   3   8 7457.94 399.313  10
  -2   3  -8 6917.28 349.566   5
   2  -3  -8 6787.35 362.771   8
   2  -3  -8 7143.09 391.477   6
  -2   3  -8 6905.51 341.298  11
   2   3   8 7509.66 378.256   2
  -2  -3   8 7175.00 330.085  10
  -2  -3   8 6591.48 211.040   2
  -2  -3   8 6987.00 260.076  11
   2  -3  -9 253.575 106.122   6
  -2  -3   9 229.634 71.0449  10
  -2   3  -9 404.364 94.3919  11
  -2   3  -9 152.344 71.3489   5
   2  -3  -9 284.374 84.4138   8
   2  -3 -10 5874.59 404.595   8
   2  -3 -10 5621.58 397.694   6
  -2  -3  11 2672.16 286.596   4
   2  -3 -11 2403.88 301.369   8
   2  -3 -11 3122.65 323.381   6
  -2  -3  12 3355.84 347.861   4
   2  -3 -12 3292.68 340.517   8
   2  -3 -12 3119.19 340.135   6
  -2  -3  13 1251.12 216.383   4
   2  -3 -13 1698.70 263.566   6
   2  -3 -14 1982.31 299.416   6
  -2  -3  14 1273.99 238.708   4
  -2   3 -14 1554.64 239.634   6
  -2  -3  15 1457.29 239.945   4
  -2   3 -15 1236.45 224.064   6
  -2  -3  16-132.001 103.298   4
   2  -4  16 1546.48 264.586   4
   2   4 -16 1558.37 273.964   6
   2   4 -15 678.902 196.535   6
   2  -4  15 971.344 226.673   4
   2  -4  14 1027.83 233.600   4
   2  -4  13 1909.33 294.717   4
   2  -4  12 3039.72 344.640   4
   2  -4  11 2574.22 351.209   4
   2  -4  10 7516.10 541.319   4
   2  -4   9 14831.8 637.865   4
   2  -4   9 14323.4 477.141  11
  -2   4   9 14413.1 461.166  12
  -2   4   8 3734.81 237.037  12
  -2  -4  -8 3827.82 262.292   8
  -2   4   8 3705.66 241.928  10
   2  -4   8 4175.20 314.142   4
   2  -4   8 4069.27 240.147  11
   2   4  -8 3615.76 275.582  10
  -2   4   7 12150.8 410.706  12
  -2   4   7 12130.9 482.883  11
   2   4  -7 11512.0 458.705  10
   2  -4   7 10702.2 505.098   4
   2  -4   7 12519.1 448.144   1
  -2  -4  -7 11605.4 418.851   8
   2  -4   7 11807.1 450.111  10
  -2   4   7 12035.8 418.886  10
   2  -4   7 11681.8 380.207  11
  -2  -4  -6 7013.54 352.535  11
  -2  -4  -6 6887.40 296.011   8
   2  -4   6 6987.74 359.460   4
  -2   4   6 6855.47 303.918  12
   2   4  -6 6753.23 337.294   3
  -2   4   6 7099.97 306.491  10
   2   4  -6 6756.29 324.703  10
   2  -4   6 7108.98 329.039  10
   2  -4   6 7043.03 319.167   1
  -2   4   6 6826.27 345.138  11
   2  -4   6 7075.72 276.752  11
   2   4  -5 18932.0 496.952  10
  -2  -4  -5 18479.8 434.160   8
  -2  -4  -5 19337.3 545.237  11
   2  -4   5 19213.4 558.488   4
  -2   4   5 18126.3 478.445  12
   2   4  -5 19764.1 536.431   3
   2  -4   5 18956.8 499.428   1
   2  -4   5 19880.9 518.345  10
  -2   4   5 19188.5 542.300  11
   2  -4   5 19265.8 429.113  11
  -2  -4  -4 11870.6 393.416  11
   2   4  -4 11994.3 366.417  10
   2  -4   4 12225.2 382.934   1
  -2  -4  -4 12270.0 313.956   8
  -2   4   4 11791.0 367.315  12
   2  -4   4 12467.7 323.678  11
   2  -4   4 12209.6 379.124  10
   2   4  -4 12597.4 401.040   3
  -2   4   4 11821.8 397.269  11
   2  -4   4 12110.1 401.148   4
  -2  -4  -3 147319. 937.937   8
   2  -4   3 145765. 1254.85   1
   2  -4   3 149532. 1221.54  10
   2   4  -3 149046. 1298.85   3
  -2   4   3 144010. 1219.89  12
   2  -4   3 145724. 1061.46  11
  -2  -4  -3 145087. 1257.86  11
   2  -4   2 20140.2 445.089   1
   2   4  -2 19812.6 311.826   1
  -2  -4  -2 19944.1 418.837  11
   2   4  -2 19619.5 299.820   7
   2  -4   2 21135.9 422.138  10
  -2   4   2 19237.0 425.105  12
   2  -4   2 20028.2 431.982   4
  -2  -4  -2 20539.4 288.035   8
  -2  -4  -2 20514.6 426.661   2
  -2   4   2 20025.2 340.200  10
   2  -4   1 16676.4 346.172  10
  -2   4   1 16655.7 312.123  10
  -2   4   1 15985.2 370.425  12
  -2  -4  -1 17146.2 357.478   2
   2  -4   1 16430.2 368.094   4
  -2  -4  -1 16488.1 375.916   4
   2   4  -1 16517.5 219.229  11
  -2   4   0 62.8829 27.5673  10
  -2  -4   0 22.2022 29.3047   4
   2  -4   0 66.2769 29.0646  10
  -2   4   0-4.51335 24.4801  12
   2   4   0 48.3244 18.8460  11
   2  -4   0 3.67244 22.6760   4
  -2  -4   0-16.5995 17.5756   2
  -2   4  -1 17853.1 355.606  12
  -2  -4   1 18102.6 308.369   2
  -2   4  -1 18206.6 366.108  11
  -2   4  -1 18508.1 374.509  10
   2  -4  -1 17615.3 376.137   9
   2   4   1 17821.6 347.323  11
   2  -4  -1 19276.5 397.266   4
  -2  -4   1 17415.0 369.682   4
  -2  -4   2 20220.3 417.837  10
  -2   4  -2 20095.0 432.888  10
   2   4   2 20124.5 418.096  11
  -2  -4   2 19690.1 399.394   4
   2  -4  -2 19033.9 399.121   9
  -2   4  -2 20019.6 389.071  11
   2  -4  -2 19893.2 419.297   4
  -2   4  -3 145671. 1083.14  11
  -2  -4   3 148165. 1165.66  10
  -2  -4   3 151463. 1159.77   4
  -2   4  -3 148728. 1071.37   5
   2   4   3 148984. 1262.37  11
  -2   4  -3 147039. 996.682   3
  -2  -4   4 12459.2 364.030   4
  -2  -4   4 12245.3 352.963  10
  -2   4  -4 12405.6 340.005   5
  -2   4  -4 12461.8 415.483  10
   2  -4  -4 12046.2 373.530   8
   2  -4  -4 12147.2 377.673   2
   2   4   4 11847.4 387.354  11
  -2   4  -4 12437.8 316.068   3
   2   4   5 19618.5 536.294  11
   2   4   5 19302.4 529.713   2
  -2   4  -5 19492.1 562.660  10
  -2   4  -5 19260.1 462.596   5
   2  -4  -5 18962.0 500.567   8
  -2  -4   5 19296.9 470.787  10
  -2  -4   5 19672.9 238.417  11
   2  -4  -5 19423.8 502.984   2
  -2   4  -5 19441.1 429.948   3
  -2  -4   5 19256.3 495.946   4
  -2   4  -5 18842.7 444.289  11
   2  -4  -5 19173.2 526.096   6
  -2   4  -6 7214.30 372.539  10
  -2  -4   6 6442.91 314.468   4
   2   4   6 6610.94 330.370   2
  -2  -4   6 6824.29 177.805  11
  -2   4  -6 6341.44 281.395  11
   2  -4  -6 6889.47 341.675   6
  -2  -4   6 6728.48 294.460  10
   2  -4  -6 6375.22 314.069   8
   2   4   6 6933.84 342.884  11
  -2   4  -6 5862.65 283.417   5
   2  -4  -6 6841.34 311.202   2
   2   4   7 11730.3 472.833  11
   2  -4  -7 11530.6 424.108   2
   2  -4  -7 11861.4 480.961   6
  -2  -4   7 11332.7 254.009   1
   2  -4  -7 11600.1 451.465   8
  -2  -4   7 11890.2 273.008  11
  -2   4  -7 11322.5 418.173   5
  -2  -4   7 11281.1 405.430  10
  -2   4  -7 12517.1 528.616  10
  -2  -4   7 10634.1 232.273   2
  -2  -4   7 11225.9 446.057   4
  -2   4  -7 11109.9 397.748  11
   2   4   7 11378.5 459.040   2
   2   4   7 11524.5 499.896  10
   2  -4  -8 3659.49 274.821   8
  -2   4  -8 3419.78 239.390  11
  -2  -4   8 3659.87 245.740  10
  -2  -4   8 3724.61 280.858   4
   2  -4  -8 3775.12 298.643   6
  -2   4  -8 3666.36 257.599   5
  -2  -4   9 13609.7 580.448   4
  -2   4  -9 12601.1 486.909  11
   2  -4  -9 15169.0 626.979   6
   2  -4  -9 15362.8 593.657   8
  -2   4  -9 14543.7 546.095   5
   2  -4 -10 9837.98 518.694   8
   2  -4 -10 10104.5 548.292   6
  -2  -4  10 8300.69 475.651   4
   2  -4 -11 2383.13 296.293   8
   2  -4 -11 3009.67 326.061   6
  -2  -4  11 2970.84 305.853   4
   2  -4 -12 3150.27 345.879   6
   2  -4 -12 2446.39 287.789   8
  -2  -4  12 2462.63 295.279   4
   2  -4 -13 2134.99 284.105   8
  -2  -4  13 2152.35 281.811   4
  -2  -4  14 821.174 174.730   4
  -2   4 -14 1430.42 234.835   6
  -2   4 -15 271.603 118.987   6
  -2  -4  15 271.789 113.868   4
   2  -5  16 851.622 205.036   4
   2   5 -16 549.666 158.182   6
   2  -5  15 557.539 176.766   4
   2  -5  14-127.505 117.536   4
   2  -5  13 4112.81 415.171   4
   2  -5  12 1688.90 267.966   4
   2  -5  11 6361.04 498.978   4
  -2   5  10 6103.67 317.224  12
   2  -5  10 6748.72 473.341   4
  -2   5   9 2362.45 195.834  12
  -2  -5  -9 2117.27 213.083   8
   2  -5   9 2788.39 290.576   4
   2  -5   8 2347.89 182.354  11
  -2  -5  -8 2316.64 207.457   8
   2  -5   8 2072.48 196.859   1
  -2   5   8 2055.80 193.151  10
  -2   5   8 2094.23 185.544  12
   2  -5   8 2285.92 249.809   4
  -2  -5  -7 11348.3 417.965   8
   2   5  -7 12370.1 499.735   3
  -2   5   7 11563.5 424.776  12
   2  -5   7 11621.4 378.780  11
   2  -5   7 11940.8 447.225   1
   2  -5   7 10779.0 499.281   4
   2   5  -7 11619.2 485.533  10
  -2   5   7 11777.9 443.899  10
   2  -5   6 19237.6 543.746   1
   2   5  -6 19516.9 598.876   3
  -2   5   6 18647.2 521.766  12
  -2  -5  -6 18290.0 485.030   8
  -2   5   6 19170.5 605.605  11
   2   5  -6 18814.2 567.837  10
   2  -5   6 19722.4 570.856  10
   2  -5   6 18372.7 595.350   4
   2  -5   6 18672.6 451.940  11
   2   5  -5 7795.45 341.206  10
  -2   5   5 7799.94 365.730  11
  -2  -5  -5 7769.48 285.075   8
   2   5  -5 8086.29 362.594   3
  -2   5   5 8077.16 333.860  12
   2  -5   5 7985.12 335.908   1
   2  -5   5 7898.05 342.143  10
   2  -5   5 7858.47 279.196  11
   2  -5   5 7946.36 361.411   4
  -2  -5  -4 45378.1 613.865   8
  -2   5   4 44509.7 754.860  12
   2  -5   4 46228.5 775.446  10
  -2   5   4 44004.3 825.064  11
   2   5  -4 46111.3 774.159  10
   2  -5   4 46362.1 775.147   1
   2   5  -4 47494.2 827.680   3
   2  -5   4 44529.1 799.198   4
  -2   5   3 3876.62 175.748  10
   2  -5   3 3930.51 220.129   1
  -2  -5  -3 3840.05 215.076   2
  -2  -5  -3 3756.55 154.600   8
   2   5  -3 3807.56 210.353  10
   2   5  -3 4027.20 163.653   1
  -2   5   3 3751.82 214.000  12
   2  -5   3 3767.81 217.327   4
   2  -5   3 3843.47 211.287  10
  -2   5   2 61164.4 678.344  10
   2   5  -2 58085.5 346.280  11
   2  -5   2 61270.3 783.541  10
  -2  -5  -2 59921.6 522.192   8
   2   5  -2 59499.5 516.120   7
  -2   5   2 60109.7 808.306  12
   2   5  -2 60410.1 650.938   1
  -2  -5  -2 59847.5 836.735   4
   2  -5   2 59496.6 812.808   4
  -2  -5  -2 63301.4 814.561   2
   2  -5   1 10034.6 299.990  10
   2  -5   1 9963.82 322.559   4
  -2  -5  -1 10247.1 309.342   2
   2   5  -1 9927.20 205.725  11
  -2   5   1 9868.18 316.021  12
  -2  -5  -1 9831.03 326.563   4
  -2   5   1 9743.67 276.462  10
   2   5   0 35712.7 472.335  11
  -2   5   0 35705.7 578.263  12
  -2  -5   0 36244.1 605.589   4
  -2   5   0 35840.8 548.956  10
  -2  -5   0 37254.4 550.765   2
   2  -5   0 37302.9 556.163  10
   2  -5   0 36007.0 606.449   4
   2  -5  -1 9602.47 296.275   9
  -2   5  -1 9859.48 348.897   1
  -2   5  -1 9590.63 296.019  12
   2   5   1 9311.26 276.236  11
  -2  -5   1 9641.55 309.459   4
   2  -5  -1 9488.46 315.112   4
  -2  -5   1 9714.62 263.430   2
  -2   5  -1 9757.67 303.822  10
  -2   5  -2 59750.6 864.316   1
  -2   5  -2 61488.4 816.134  10
   2   5   2 58354.4 761.699  11
  -2  -5   2 59481.6 799.781  10
   2  -5  -2 58708.0 749.197   9
  -2   5  -2 60426.6 643.296   5
   2  -5  -2 60683.2 816.863   4
  -2  -5   2 58569.2 774.445   4
  -2  -5   3 3766.78 201.351   4
   2   5   3 3726.58 214.111  11
  -2  -5   3 3619.69 204.620  10
  -2   5  -3 3590.79 213.378  10
  -2   5  -3 3743.11 176.185   5
   2  -5  -3 3526.01 205.866   4
   2  -5  -4 45171.2 789.526   2
  -2  -5   4 44921.7 733.894   4
   2   5   4 45197.6 800.237  11
  -2   5  -4 44717.6 648.314   3
   2  -5  -4 43997.5 746.474   8
  -2  -5   4 44789.5 735.712  10
  -2   5  -4 43691.5 651.578   5
  -2   5  -4 46041.0 824.711  10
  -2   5  -5 7769.50 371.438  10
  -2   5  -5 7780.04 293.831   3
   2   5   5 7745.15 355.208  11
   2  -5  -5 7871.55 345.143   2
   2  -5  -5 7220.67 323.076   8
  -2  -5   5 8065.37 334.914   4
  -2   5  -5 7252.98 279.838  11
  -2  -5   5 7641.04 316.188  10
  -2   5  -5 7371.88 295.018   5
  -2  -5   6 19294.9 528.589  10
  -2   5  -6 18680.7 504.922   5
   2  -5  -6 18565.5 550.149   8
   2   5   6 19529.4 594.636  11
  -2   5  -6 20483.7 644.961  10
  -2   5  -6 17792.4 469.330  11
   2  -5  -6 19116.9 559.454   2
  -2  -5   6 19487.2 563.081   4
  -2   5  -7 11576.9 425.015   5
  -2   5  -7 10924.9 392.812  11
   2  -5  -7 11616.1 465.334   8
  -2  -5   7 11497.9 431.661  10
  -2  -5   7 10521.2 444.410   4
   2  -5  -7 12060.8 459.811   2
  -2  -5   8 2136.69 212.638   4
  -2   5  -8 2280.60 211.453   5
   2  -5  -8 2037.36 211.213   8
  -2   5  -8 1920.98 177.724  11
  -2  -5   9 2238.81 235.897   4
   2  -5  -9 2396.57 244.523   8
  -2   5  -9 2211.72 219.412   5
   2  -5 -10 6456.31 425.033   8
  -2  -5  10 6469.94 416.798   4
   2  -5 -11 6513.23 448.829   8
  -2  -5  11 6018.13 416.186   4
  -2  -5  12 2032.42 256.254   4
   2  -5 -12 1796.17 248.032   8
  -2  -5  13 4077.33 382.321   4
   2  -5 -13 4090.68 393.009   8
  -2  -5  14-4.21389 74.5892   4
  -2  -5  15 616.799 163.864   4
   2  -6  15 114.112 98.7260   4
   2  -6  14 336.128 133.197   4
   2  -6  13 765.836 194.266   4
   2  -6  12 1702.75 266.339   4
   2  -6  11 2583.05 306.428   4
   2  -6  10 142.361 112.389   4
  -2   6  10 284.942 78.5768  12
   2  -6   9 948.439 199.436   4
  -2  -6  -9 1225.50 163.940   8
  -2   6   9 1164.72 148.354  12
  -2   6   8 2845.55 230.553  12
   2  -6   8 2660.86 270.038   4
   2  -6   8 2784.28 227.963   1
  -2  -6  -8 2861.90 231.878   8
  -2  -6  -7 350.382 81.2389   8
  -2   6   7 255.496 73.0779  12
   2  -6   7 260.288 63.3254   1
   2  -6   7 406.815 121.617   4
   2  -6   7 237.762 55.8363  11
   2  -6   6 4894.51 316.289   4
   2   6  -6 5638.55 327.372  10
   2  -6   6 6198.07 315.170   1
   2   6  -6 6027.96 346.822   3
  -2   6   6 5145.46 293.371  12
  -2  -6  -6 5469.46 268.733   8
   2  -6   5 14118.2 503.238   4
  -2   6   5 14562.6 523.939  11
   2   6  -5 15234.8 524.425   3
  -2   6   5 14638.3 470.499  12
   2   6  -5 15114.0 507.447  10
   2  -6   5 15833.4 503.022  10
   2  -6   5 15094.7 476.324   1
  -2  -6  -5 14656.9 399.378   8
  -2  -6  -4 9432.58 379.435   2
   2  -6   4 8737.01 372.382   4
   2   6  -4 9667.22 381.286  10
  -2   6   4 9854.19 412.062  11
  -2   6   4 9022.66 360.870  12
  -2   6   4 9179.80 306.105  10
   2  -6   4 9689.26 373.631  10
  -2  -6  -4 9094.24 282.641   8
   2   6  -4 10193.1 409.466   3
  -2  -6  -3 1409.18 140.765   2
   2  -6   3 1049.31 134.938   4
  -2   6   3 1120.46 126.518  12
   2   6  -3 1117.59 125.655  10
   2  -6   3 1214.83 127.248  10
   2   6  -3 1155.34 103.664   1
  -2  -6  -3 1004.96 83.8935   8
  -2   6   3 1147.89 106.406  10
   2   6  -2 4716.42 244.247  10
  -2   6   2 4202.48 199.361  10
  -2  -6  -2 4366.22 247.535   4
  -2  -6  -2 4529.25 239.149   2
  -2   6   2 4576.72 242.952  12
   2  -6   2 4217.22 225.708  10
   2   6  -2 4028.42 130.976   7
   2   6  -2 4335.82 200.184   1
   2   6  -2 4351.95 121.310  11
  -2  -6  -2 4276.77 147.331   8
   2   6  -2 4295.81 127.374  11
   2  -6   2 4312.75 242.071   4
  -2   6   1 6481.69 280.488  12
   2   6  -1 6547.59 196.935  11
  -2  -6  -1 6146.23 149.404   8
   2   6  -1 6806.42 286.792  10
  -2   6   1 6646.76 254.553  10
   2  -6   1 7062.07 278.298  10
  -2  -6  -1 6859.65 277.836   2
  -2  -6  -1 6525.70 293.146   4
   2  -6   1 6509.51 291.669   4
   2   6  -1 6446.77 169.036   7
   2   6   0 13230.2 396.766  10
  -2   6   0 12905.7 431.489   1
  -2  -6   0 13018.1 407.373   4
   2  -6   0 12747.1 403.665   4
   2  -6   0 13039.9 369.166  10
   2   6   0 13304.4 318.379  11
  -2   6   0 13127.3 390.150  12
  -2   6   0 12548.8 361.146  10
  -2  -6   0 13516.7 368.062   2
  -2  -6   1 6497.40 241.373   2
  -2   6  -1 6844.80 316.776   1
   2  -6  -1 6660.93 263.319   9
  -2   6  -1 6920.62 281.648  10
  -2  -6   1 7003.98 296.821   4
  -2   6  -1 6488.01 258.343  11
   2   6   1 6424.16 247.340  11
   2  -6  -1 6646.88 292.514   4
   2   6   1 6600.24 284.996  10
   2   6   2 4743.73 246.407  10
  -2  -6   2 4578.97 244.826  10
  -2   6  -2 4504.92 183.958   5
   2  -6  -2 4382.06 217.625   9
  -2   6  -2 4768.97 265.674   1
   2  -6  -2 4548.49 247.410   4
  -2  -6   2 4309.28 234.395   4
   2   6   2 4417.18 226.093  11
  -2   6  -2 4543.12 241.438  10
  -2   6  -3 1097.00 106.228  11
  -2   6  -3 1074.67 130.075  10
  -2   6  -3 1116.95 101.663   5
   2  -6  -3 1134.89 131.306   4
  -2  -6   3 1039.16 122.731  10
  -2  -6   3 896.053 116.167   4
   2   6   3 947.172 115.754  11
   2   6   4 9126.48 379.631  11
  -2   6  -4 8714.43 380.188  10
  -2  -6   4 9002.32 358.402  10
  -2   6  -4 8957.27 303.186   5
   2  -6  -4 9176.09 383.752   2
  -2  -6   4 8427.19 345.938   4
  -2   6  -4 8644.09 301.918  11
  -2   6  -4 8956.04 318.353   3
  -2  -6   5 14186.5 469.707   4
  -2   6  -5 14307.8 416.788   5
   2   6   5 14783.4 515.202  11
  -2  -6   5 14526.5 467.048  10
  -2   6  -5 14965.5 536.007  10
  -2   6  -5 12963.9 384.669  11
   2  -6  -5 13912.9 462.765   8
  -2   6  -5 14255.1 417.592   3
   2  -6  -5 14190.7 493.857   2
  -2  -6   6 5423.91 310.238   4
  -2   6  -6 5460.29 262.867  11
  -2   6  -6 5843.18 288.541   5
   2  -6  -6 5682.41 324.694   2
   2  -6  -6 5432.21 309.725   8
  -2   6  -6 5602.54 278.587   3
  -2  -6   6 5848.18 309.896  10
   2   6   6 6126.50 348.775  11
   2  -6  -7 419.387 110.328   8
  -2   6  -7 289.496 66.1353  11
  -2   6  -7 198.529 66.5967   5
  -2  -6   7 358.377 97.9394   4
  -2   6  -8 3397.94 257.893   5
  -2  -6   8 3111.39 267.158   4
   2  -6  -8 3086.27 266.567   8
  -2   6  -9 1253.78 172.590   5
   2  -6  -9 1648.70 203.304   8
  -2  -6   9 1435.08 191.778   4
   2  -6 -10 376.476 119.907   8
  -2  -6  10 258.940 99.5869   4
  -2  -6  11 2978.02 304.408   4
   2  -6 -11 2753.59 300.899   8
   2  -6 -12 1719.95 248.890   8
  -2  -6  12 1906.22 260.152   4
  -2  -6  13 383.068 123.609   4
   2  -6 -13 462.252 148.309   8
  -2  -6  14 588.872 156.356   4
  -2  -6  15 281.593 124.787   4
   2  -7  15 1440.69 254.819   4
   2  -7  14 1799.56 284.155   4
   2  -7  13 996.036 201.788   4
   2  -7  12 1117.61 219.148   4
   2  -7  11 10510.5 617.001   4
   2  -7  10 7288.57 514.069   4
  -2   7   9 9514.08 438.342  12
  -2  -7  -9 9140.73 445.986   8
  -2  -7  -8 11412.6 462.074   8
   2  -7   8 11876.0 577.459   4
  -2   7   8 11407.7 477.755  12
   2  -7   7 5976.31 384.584   4
  -2   7   7 5367.56 326.107  12
  -2  -7  -7 5848.85 307.385   8
  -2   7   6 5011.93 305.671  12
  -2  -7  -6 4776.61 255.455   8
   2  -7   6 5066.59 335.324   4
  -2   7   6 4676.76 251.255  10
  -2  -7  -5 33288.4 612.380   8
   2   7  -5 33199.7 801.398  10
  -2   7   5 31048.9 623.480  10
   2  -7   5 33716.3 808.005   4
   2   7  -5 34067.3 828.565   3
  -2   7   5 33840.4 763.285  12
  -2  -7  -4 41272.9 841.156   2
   2   7  -4 40523.5 869.848   3
   2  -7   4 38589.4 819.172   4
  -2   7   4 40042.3 881.672  11
  -2  -7  -4 38026.2 591.163   8
  -2   7   4 37845.0 670.110  10
   2  -7   4 40989.6 810.664  10
  -2   7   4 39321.0 797.752  12
   2   7  -4 40390.2 836.544  10
   2  -7   3 10425.8 416.276   4
  -2   7   3 10344.4 343.575  10
   2  -7   3 11477.5 414.190  10
   2   7  -3 10978.3 418.985  10
  -2  -7  -3 10369.7 274.785   8
  -2  -7  -3 10904.6 414.883   2
  -2   7   3 10413.0 403.450  12
   2  -7   2 61516.5 923.858  10
   2   7  -2 60058.7 829.639   1
  -2   7   2 60518.3 942.785  12
   2   7  -2 58670.9 550.228  11
  -2   7   2 59827.8 827.012  10
  -2  -7  -2 55018.7 557.397   8
  -2  -7  -2 59410.7 977.421   4
  -2  -7  -2 62223.2 944.985   2
   2   7  -2 61432.4 960.316  10
   2   7  -2 58050.0 518.795  11
   2  -7   2 58485.6 956.243   4
   2   7  -1 2948.52 147.372  11
  -2  -7  -1 2960.10 217.177   4
  -2  -7  -1 3039.25 201.753   2
  -2   7   1 2711.34 180.222  10
   2   7  -1 2298.59 98.1432   7
  -2  -7  -1 2404.34 101.798   8
   2  -7   1 2822.75 215.557   4
   2   7  -1 2950.50 207.529  10
   2  -7   1 2940.42 197.801  10
  -2   7   1 2617.62 195.889  12
  -2  -7   0 7361.40 297.178   2
   2   7   0 7314.30 321.116  10
   2   7   0 7221.65 258.533  11
  -2   7   0 7599.12 359.695   1
  -2   7   0 7260.43 301.488  10
  -2  -7   0 7322.20 331.389   4
   2  -7   0 7558.15 338.486   4
  -2   7  -1 2706.63 180.146  11
   2   7   1 2895.27 180.449  11
   2  -7  -1 2944.32 216.415   4
   2   7   1 2889.87 204.550  10
   2  -7  -1 2787.56 182.633   9
  -2  -7   1 2601.45 104.752   9
  -2   7  -1 2874.54 222.905   1
  -2  -7   1 3089.40 184.391   2
  -2  -7   1 2948.11 212.043   4
  -2   7  -1 2794.39 194.723  10
  -2   7  -2 57789.5 813.715  11
   2   7   2 60261.2 885.145  11
   2   7   2 62896.5 966.445  10
   2  -7  -2 58961.1 971.233   4
  -2   7  -2 61897.2 956.898  10
  -2   7  -2 59218.9 684.706   5
   2  -7  -2 60763.6 844.999   9
  -2  -7   2 58445.0 934.998   4
  -2   7  -2 63265.9 1037.42   1
  -2  -7   3 10312.2 401.190   4
   2   7   3 10511.0 400.028  11
  -2  -7   3 10617.4 409.555  10
   2   7   3 10793.2 408.793  10
  -2   7  -3 10349.5 307.676   5
  -2   7  -3 10636.4 419.585  10
   2  -7  -3 10644.0 423.094   4
  -2   7  -3 10156.9 343.798  11
  -2  -7   4 39230.5 801.560   4
   2   7   4 40995.0 846.631  11
  -2   7  -4 35730.2 643.903  11
  -2   7  -4 41512.3 873.202  10
  -2   7  -4 39962.1 652.270   5
  -2   7  -4 37556.9 712.604   3
  -2  -7   4 40983.9 815.436  10
   2  -7  -4 41121.5 864.914   2
  -2  -7   5 32338.7 755.673   4
  -2  -7   5 32772.3 756.120  10
  -2   7  -5 29555.0 594.955  11
  -2   7  -5 34353.5 658.426   5
   2  -7  -5 31403.4 719.301   8
  -2   7  -5 31952.2 667.416   3
   2   7   5 33209.4 811.383  11
  -2   7  -6 4557.86 243.978  11
  -2  -7   6 5194.49 318.815   4
  -2   7  -6 4872.97 277.158   3
  -2   7  -6 5343.84 278.293   5
   2  -7  -6 5129.56 310.005   8
   2  -7  -7 5615.05 342.010   8
  -2  -7   7 5740.71 347.848   4
  -2   7  -7 5005.53 290.350   3
  -2   7  -7 5752.31 314.015   5
  -2   7  -8 11800.6 479.887   5
  -2  -7   8 10513.9 494.258   4
   2  -7  -8 11312.4 510.793   8
  -2  -7   9 9847.08 507.586   4
   2  -7  -9 9863.50 504.800   8
  -2  -7  10 6500.97 432.302   4
   2  -7 -10 7016.42 450.269   8
   2  -7 -11 9747.82 557.604   8
  -2  -7  11 9545.09 538.620   4
  -2  -7  12 1004.55 192.773   4
   2  -7 -12 701.806 150.726   8
   2  -7 -13 1013.75 195.267   8
  -2  -7  13 978.506 189.975   4
  -2  -7  14 1340.13 231.241   4
  -2  -7  15 973.114 195.352   4
   2  -8  15 21.7939 87.0610   4
   2  -8  14 1047.41 207.581   4
   2  -8  13 23.5470 103.116   4
   2  -8  12 5977.73 485.152   4
   2  -8  11 2473.69 308.871   4
   2  -8  10 1238.81 230.740   4
  -2  -8  -9 3150.75 266.368   8
   2  -8   9 3100.08 330.757   4
   2  -8   8-65.6768 112.965   4
  -2  -8  -8 94.0023 58.2992   8
  -2  -8  -7 4318.21 268.858   8
  -2   8   7 4645.74 318.571  12
   2  -8   7 4434.11 345.838   4
  -2   8   6 4667.52 265.542  10
   2  -8   6 5264.41 350.630   4
  -2  -8  -6 5460.97 275.555   8
  -2   8   6 5670.15 343.183  12
  -2   8   5 7701.70 332.776  10
  -2  -8  -5 8908.88 323.428   8
  -2   8   5 9217.25 423.386  12
   2  -8   5 8817.93 436.317   4
  -2   8   4 5310.62 318.764  12
  -2  -8  -4 5301.96 225.893   8
  -2   8   4 5158.68 267.356  10
   2   8  -4 5779.26 350.268   3
   2  -8   4 5751.06 344.490   4
   2  -8   3 3860.60 277.540   4
  -2   8   3 3851.35 227.170  10
   2   8  -3 2307.12 90.5605  11
   2  -8   3 4029.75 263.561  10
   2   8  -3 3971.62 271.080  10
   2   8  -3 2497.73 89.0476  11
  -2  -8  -3 3751.06 169.715   8
   2   8  -3 4141.82 239.662   1
  -2  -8  -3 4063.53 269.078   2
   2   8  -2 2495.63 126.027  11
   2   8  -2 2258.54 115.220  11
  -2   8   2 2447.89 184.119  10
   2   8  -2 2528.19 209.717  10
   2   8  -2 2564.95 190.107   1
  -2  -8  -2 2272.04 212.055   4
  -2  -8  -2 2489.95 202.927   2
   2  -8   2 2611.67 208.019  10
   2  -8   2 2596.85 220.535   4
   2   8  -1 5398.93 218.192  11
   2  -8   1 5473.85 292.384  10
  -2  -8  -1 5798.61 297.589   2
  -2  -8  -1 5192.93 312.839   4
   2  -8   1 5154.12 308.206   4
  -2   8   1 5422.72 276.809  10
   2   8  -1 5464.12 302.000  10
  -2   8   1 5773.33 339.053   1
  -2  -8   0-11.5433 54.2256   4
  -2   8   0-13.9983 37.9558   1
   2  -8   0 27.1676 55.1683   4
  -2   8   0-1.42570 29.6942  10
   2   8   0 39.4638 26.0735  11
   2  -8   0 42.1645 43.8589   9
  -2  -8   0 42.7702 28.7837   2
   2   8   0 116.475 49.3289  10
   2   8   1 4815.33 253.070  11
  -2   8  -1 4616.47 181.404   5
   2  -8  -1 4891.03 252.077   9
   2   8   1 5383.59 297.351  10
  -2   8  -1 5473.01 331.036   1
  -2   8  -1 4956.83 281.740  10
   2  -8  -1 5052.07 309.241   4
  -2  -8   1 4989.26 297.495   4
  -2  -8   1 5011.10 256.574   2
  -2   8  -1 4283.20 239.240  11
   2  -8  -2 2336.48 176.694   9
  -2   8  -2 2253.19 170.365  11
  -2  -8   2 2543.09 216.053   4
  -2   8  -2 2307.71 136.106   5
   2   8   2 2326.64 189.096  11
   2  -8  -2 2585.61 222.952   4
  -2   8  -2 2269.56 215.349   1
   2   8   2 2310.82 199.995  10
  -2   8  -2 2376.21 202.751  10
  -2   8  -3 3423.14 208.555  11
   2   8   3 3750.89 258.308  10
  -2  -8   3 3911.56 268.835  10
  -2   8  -3 3887.87 272.162  10
  -2   8  -3 3878.30 190.539   5
  -2  -8   3 3995.93 274.979   4
   2  -8  -3 4150.82 287.021   4
   2   8   3 3812.64 261.446  11
   2   8   4 5631.29 332.878  11
  -2   8  -4 5947.69 256.763   5
   2  -8  -4 5057.80 285.875   8
  -2   8  -4 5603.68 296.054   3
  -2  -8   4 5692.71 333.514   4
  -2   8  -4 5043.42 253.587  11
  -2  -8   5 8856.06 427.179   4
  -2   8  -5 9194.86 343.549   5
  -2   8  -5 8557.95 373.582   3
   2  -8  -5 8575.63 389.922   8
  -2   8  -5 7184.85 301.786  11
  -2   8  -6 5814.87 296.140   5
   2  -8  -6 5575.36 331.238   8
  -2  -8   6 5653.19 349.245   4
  -2   8  -6 5176.73 301.332   3
  -2  -8   7 4107.90 313.292   4
  -2   8  -7 4462.70 278.501   5
   2  -8  -7 4335.35 307.994   8
   2  -8  -8-98.4063 84.8549   8
  -2   8  -8-14.6782 47.3866   5
  -2  -8   8 24.2391 71.8004   4
   2  -8  -9 3059.57 288.212   8
  -2  -8   9 3339.30 304.873   4
   2  -8 -10 995.766 188.561   8
  -2  -8  10 905.089 175.226   4
  -2  -8  11 2627.65 293.646   4
   2  -8 -11 2452.03 286.468   8
  -2  -8  12 5460.38 433.757   4
   2  -8 -12 5844.15 459.386   8
   2  -8 -13 158.611 101.310   8
  -2  -8  13 162.092 101.393   4
  -2  -8  14 834.374 180.644   4
   2  -9  14 436.942 163.652   4
   2  -9  13 3354.54 375.513   4
   2  -9  12 1769.19 272.787   4
   2  -9  11 1128.18 226.195   4
   2  -9  10 3016.21 335.400   4
  -2  -9  -9 1111.96 157.412   8
   2  -9   9 962.710 196.063   4
  -2  -9  -8 1819.41 190.631   8
   2  -9   8 1860.89 271.456   4
   2  -9   7 3592.46 334.827   4
  -2  -9  -7 3372.01 239.476   8
   2  -9   6 3189.96 307.817   4
   2  -9   5 7934.30 444.988   4
  -2   9   4 761.691 111.621  10
   2  -9   4 915.224 170.263   4
  -2   9   3 6639.39 323.356  10
   2   9  -3 7065.00 338.262   1
   2  -9   3 7242.24 401.387   4
  -2   9   2 941.807 124.312  10
  -2  -9  -2 860.654 152.159   4
   2   9  -2 1061.89 135.293   1
   2  -9   2 992.315 164.405   4
  -2  -9  -2 959.681 133.409   2
  -2  -9  -1 9141.19 397.845   2
   2   9  -1 9018.75 395.239   1
   2   9  -1 8247.50 289.269  11
  -2  -9  -1 8496.68 424.263   4
  -2   9   1 8506.67 375.002  10
   2  -9   1 8522.88 429.761   4
  -2   9   0 8159.36 375.471  10
   2  -9   0 8130.79 339.084   9
  -2  -9   0 8423.23 369.571   2
  -2  -9   0 8697.31 426.319   4
   2  -9   0 8687.04 426.982   4
   2   9   0 8752.73 330.211  11
   2   9   1 9172.50 367.166  11
  -2   9  -1 8919.64 405.585  10
  -2   9  -1 9398.05 459.267   1
   2  -9  -1 8908.97 437.443   4
   2  -9  -1 8911.44 353.016   9
  -2   9  -1 7995.22 343.214  11
  -2  -9   1 9155.96 437.230   4
  -2  -9   1 9253.49 374.552   2
  -2   9  -2 932.218 117.789  11
   2  -9  -2 1085.38 164.813   4
  -2   9  -2 916.536 147.613   1
  -2  -9   2 931.417 116.763   2
   2  -9  -2 905.240 117.193   9
  -2  -9   2 987.035 154.259   4
   2   9   2 934.491 132.158  11
  -2   9  -3 6161.17 295.934  11
  -2  -9   3 7355.08 393.688   4
   2  -9  -3 7267.18 403.420   4
   2   9   3 7026.11 369.417  11
  -2  -9   4 692.305 135.338   4
  -2   9  -4 625.529 85.4098   5
   2  -9  -4 772.401 120.752   8
  -2   9  -4 671.270 113.261   3
  -2   9  -5 8234.11 326.603   5
   2  -9  -5 7674.38 385.481   8
  -2   9  -5 6700.70 351.294   3
  -2  -9   5 7540.43 419.857   4
  -2   9  -6 3253.79 221.740   5
  -2  -9   6 3395.87 290.775   4
   2  -9  -6 3080.51 258.180   8
  -2   9  -7 3324.93 245.405   5
  -2  -9   7 3333.59 305.994   4
   2  -9  -7 3280.45 279.007   8
  -2  -9   8 1593.87 226.232   4
   2  -9  -8 1938.68 224.501   8
  -2  -9   9 1036.25 190.303   4
   2  -9  -9 1232.58 190.113   8
   2  -9 -10 3439.85 323.248   8
  -2  -9  10 2718.62 301.639   4
  -2  -9  11 959.478 181.661   4
   2  -9 -11 1701.02 245.424   8
   2  -9 -12 2366.32 294.770   8
  -2  -9  12 2096.30 276.162   4
   2  -9 -13 3158.74 345.777   8
  -2  -9  13 2854.13 323.378   4
  -2  -9  14 313.607 115.889   4
   2 -10  13 865.491 201.150   4
   2 -10  12 2406.40 316.234   4
   2 -10  11 109.613 104.362   4
   2 -10  10 6400.18 502.008   4
   2 -10   9 3521.32 357.388   4
   2 -10   8 3982.28 368.627   4
   2 -10   7 2127.91 282.710   4
   2 -10   6 8838.71 523.615   4
   2 -10   5 6425.61 424.296   4
   2 -10   4 11193.8 551.007   4
   2 -10   3 28223.3 849.116   4
   2  10  -2 971.165 140.209   1
  -2 -10  -2 1090.18 183.913   4
   2 -10   2 944.350 168.147   4
   2 -10   1 12201.1 440.811   9
   2  10  -1 12368.1 496.393   1
  -2 -10  -1 12842.7 561.000   4
   2 -10   1 12907.0 560.817   4
  -2 -10   0 44.3619 69.3661   4
   2 -10   0 65.6303 88.0078   4
   2 -10   0 24.1784 38.2095   9
  -2  10  -1 11095.3 430.677  11
   2 -10  -1 13290.8 450.125   9
   2 -10  -1 12967.8 566.577   4
  -2 -10   1 12001.5 457.357   2
   2  10   1 12743.3 460.283  11
  -2 -10   1 13528.1 565.947   4
   2  10   2 1164.08 152.404  11
   2 -10  -2 987.364 171.825   4
  -2 -10   2 1118.00 177.014   4
  -2 -10   2 805.094 119.585   2
  -2  10  -2 861.121 117.259  11
  -2 -10   3 27199.7 815.279   4
   2 -10  -3 27462.1 835.116   4
   2 -10  -4 10180.7 436.142   8
  -2 -10   4 10554.0 515.950   4
   2 -10  -5 6250.51 355.865   8
  -2 -10   5 6237.53 409.413   4
  -2 -10   6 8349.90 483.611   4
   2 -10  -6 8217.08 425.848   8
  -2 -10   7 2410.49 273.637   4
   2 -10  -7 2232.06 232.756   8
  -2 -10   8 3506.11 338.891   4
   2 -10  -8 3593.22 311.234   8
   2 -10  -9 3058.05 296.566   8
  -2 -10   9 3511.67 341.283   4
   2 -10 -10 5994.42 430.998   8
  -2 -10  10 5914.51 452.594   4
   2 -10 -11 53.5291 59.1190   8
  -2 -10  11-87.3225 80.7817   4
   2 -10 -12 3002.74 327.740   8
  -2 -10  12 2402.15 297.068   4
  -2 -10  13 731.337 168.906   4
   2 -10 -13 836.102 179.739   8
   2 -11  13 498.860 178.956   4
   2 -11  12 183.196 126.144   4
   2 -11  11 393.285 166.302   4
   2 -11  10 290.665 131.457   4
   2 -11   9 276.275 133.922   4
   2 -11   8 651.681 178.412   4
   2 -11   7 3398.93 348.858   4
   2 -11   6 1896.01 271.981   4
   2 -11   5 8372.28 513.582   4
   2 -11   4 4457.51 373.287   4
   2 -11   3 1456.43 230.061   4
  -2 -11  -2 2098.63 267.987   4
   2 -11   2 2668.73 293.739   4
  -2 -11  -1 429.460 132.743   4
   2 -11   1 412.541 114.687   4
   2 -11   1 386.871 89.3813   9
   2 -11   0 0.52190 42.4708   9
  -2 -11   0-29.1505 85.3131   4
   2 -11   0-13.7446 83.1856   4
   2 -11  -1 443.315 90.5086   9
   2 -11  -1 654.425 148.277   4
  -2 -11   1 497.104 142.370   4
  -2 -11   2 2677.11 279.851   4
   2 -11  -2 2740.51 293.744   4
   2 -11  -3 1481.13 221.154   4
  -2 -11   3 1620.71 225.126   4
  -2 -11   4 4762.57 373.351   4
   2 -11  -4 4237.13 290.883   8
  -2 -11   5 8667.63 506.080   4
   2 -11  -5 8026.95 412.494   8
  -2 -11   6 2173.52 264.950   4
   2 -11  -6 1664.47 197.761   8
  -2 -11   7 3873.39 360.252   4
   2 -11  -7 4012.91 318.006   8
   2 -11  -8 673.451 144.556   8
  -2 -11   8 453.727 142.451   4
   2 -11  -9 571.905 135.872   8
  -2 -11   9 699.821 181.063   4
  -2 -11  10 429.018 151.574   4
   2 -11 -10 435.540 132.618   8
   2 -11 -11 403.460 117.543   8
  -2 -11  11 347.327 115.694   4
  -2 -11  12 34.8924 64.8111   4
  -2 -11  13 215.360 106.628   4
   2 -12  12 296.207 110.506   4
   2 -12  11 689.596 188.004   4
   2 -12  10 1050.91 225.142   4
   2 -12   9 974.386 214.465   4
   2 -12   8 2836.16 349.504   4
   2 -12   7 472.100 174.068   4
   2 -12   6 2367.85 297.423   4
   2 -12   5 439.232 152.258   4
   2 -12   4 1966.61 269.291   4
   2 -12   3 2524.03 297.024   4
  -2 -12  -2 5839.92 461.171   4
   2 -12   2 7005.46 471.871   4
   2 -12   1 2158.09 272.751   4
  -2 -12  -1 2154.92 284.330   4
  -2 -12   0 10651.9 593.872   4
   2 -12   0 11139.0 585.441   4
  -2 -12   1 2156.76 279.212   4
   2 -12  -1 2620.11 303.470   4
   2 -12  -2 6809.15 462.376   4
  -2 -12   2 6594.49 449.478   4
   2 -12  -3 2406.65 303.608   4
  -2 -12   3 2530.56 292.970   4
  -2 -12   4 2108.93 265.263   4
  -2 -12   5 771.303 188.726   4
  -2 -12   6 2339.12 292.265   4
  -2 -12   7 470.236 150.385   4
  -2 -12   8 2548.34 321.349   4
  -2 -12   9 1134.23 215.194   4
  -2 -12  10 1189.93 233.575   4
  -2 -12  11 981.087 204.108   4
  -2 -12  12 473.460 146.126   4
   2 -13  11 1097.56 228.445   4
   2 -13  10 1043.75 230.542   4
   2 -13   9 119.720 119.985   4
   2 -13   8 1197.25 239.078   4
   2 -13   7 1230.10 238.820   4
   2 -13   6 2822.67 341.029   4
   2 -13   5 1389.59 243.856   4
   2 -13   4 6539.16 494.054   4
   2 -13   3 1714.13 264.293   4
   2 -13   2 3696.54 370.096   4
  -2 -13  -1 1686.51 252.584   4
   2 -13   1 1804.14 267.876   4
  -2 -13   0 683.296 168.749   4
   2 -13   0 709.150 182.556   4
   2 -13  -1 1684.47 262.066   4
  -2 -13   1 1884.61 264.859   4
   2 -13  -2 3863.10 377.957   4
  -2 -13   2 3927.70 371.069   4
  -2 -13   3 1941.66 268.161   4
  -2 -13   4 6809.74 498.945   4
  -2 -13   5 1105.84 221.158   4
  -2 -13   6 3158.75 354.730   4
  -2 -13   7 849.709 187.628   4
  -2 -13   8 897.266 204.510   4
  -2 -13   9 290.958 129.287   4
  -2 -13  10 726.412 180.235   4
  -2 -13  11 710.907 170.323   4
   2 -14  10 305.015 134.248   4
   2 -14   9 617.332 179.291   4
   2 -14   8 1189.75 254.076   4
   2 -14   7 579.692 179.914   4
   2 -14   6 3930.50 411.805   4
   2 -14   5 1310.95 252.263   4
   2 -14   4 5058.00 454.826   4
   2 -14   3 8064.44 570.246   4
   2 -14   2 457.651 149.941   4
   2 -14   1 2831.33 343.703   4
  -2 -14  -1 3136.64 362.495   4
   2 -14   0 899.320 219.212   4
  -2 -14   0 927.154 199.396   4
   2 -14  -1 2868.30 346.346   4
  -2 -14   1 2869.61 343.175   4
   2 -14  -2 613.348 161.721   4
  -2 -14   2 713.739 194.366   4
  -2 -14   3 7936.96 549.293   4
  -2 -14   4 4071.02 398.401   4
  -2 -14   5 1052.19 218.662   4
  -2 -14   6 4164.68 416.626   4
  -2 -14   7 433.963 150.741   4
  -2 -14   8 1431.21 254.764   4
  -2 -14   9 670.902 168.442   4
  -2 -14  10 292.745 124.623   4
   2 -15   9 725.979 186.475   4
   2 -15   8 611.305 181.312   4
   2 -15   7 505.897 159.326   4
   2 -15   6-62.1816 100.591   4
   2 -15   5 915.662 204.221   4
   2 -15   4 484.120 171.756   4
   2 -15   3 997.168 204.332   4
   2 -15   2 1292.42 239.061   4
   2 -15   1 407.953 144.852   4
  -2 -15   0 274.505 125.727   4
   2 -15   0 242.269 135.531   4
  -2 -15   1 323.503 154.120   4
   2 -15  -1 197.519 134.430   4
  -2 -15   2 1084.39 210.960   4
  -2 -15   3 1139.39 222.287   4
  -2 -15   4 608.234 169.071   4
  -2 -15   5 1286.60 236.815   4
  -2 -15   6 115.716 109.149   4
  -2 -15   7 818.977 197.526   4
  -2 -15   8 410.486 138.010   4
  -2 -15   9 643.742 173.500   4
   2 -16   7 1480.88 255.963   4
   2 -16   6 312.389 151.418   4
   2 -16   5 3614.01 403.331   4
   2 -16   4 127.840 96.2853   4
   2 -16   3 2416.70 330.989   4
   2 -16   2 864.973 205.168   4
   2 -16   1 1970.11 303.769   4
   2 -16   0 118.477 146.950   4
  -2 -16   0 192.358 119.019   4
  -2 -16   1 2070.04 309.194   4
   2 -16  -1 1906.03 298.708   4
  -2 -16   2 949.371 221.549   4
  -2 -16   3 2249.24 317.132   4
  -2 -16   4 335.816 144.814   4
  -2 -16   5 3684.74 401.330   4
  -2 -16   6 152.970 101.246   4
  -2 -16   7 1388.36 246.077   4
   2 -17   4 2366.75 332.441   4
   2 -17   3 462.079 164.810   4
   2 -17   2 2749.10 357.130   4
   2 -17   1 179.091 113.359   4
   2 -17   0 156.968 104.452   4
  -2 -17   1 345.336 146.107   4
  -2 -17   2 2273.10 325.193   4
  -2 -17   3 419.476 156.762   4
  -2 -17   4 1924.69 295.664   4
  -3   0   0 15.3453 22.6111  11
   3   0   0 26.1017 18.0677   3
   3   0   0 41.8813 22.5670  11
   3   0  -1 978049. 2080.82   9
   3   0   1 945311. 2232.79  11
  -3   0   1 969054. 2009.30  11
   3   0  -1 967049. 2127.39   3
   3   0  -1 957484. 1950.98   1
   3   0  -1 986199. 2257.82   7
   3   0  -2 127110. 872.809   7
   3   0   2 125523. 994.982  10
   3   0  -2 120052. 462.259  10
  -3   0   2 123881. 668.687   1
   3   0   2 126065. 897.075  11
  -3   0   3 31254.3 288.454  10
  -3   0  -3 30652.4 467.537   5
   3   0  -3 30997.0 471.067   8
   3   0  -3 29741.4 316.767  10
  -3   0  -3 29969.8 331.627   6
   3   0   3 30361.9 545.133  10
   3   0   3 31141.3 497.125  11
  -3   0   4 6061.99 216.277  11
   3   0   4 6004.98 264.776  10
   3   0  -4 6127.72 161.571   2
   3   0  -4 6065.64 186.083  10
   3   0   4 6248.70 243.643  11
   3   0  -4 6451.22 241.126   8
  -3   0   4 5979.67 161.486  10
  -3   0  -4 6086.46 231.838   5
   3   0  -5 58033.1 688.849  10
  -3   0   5 60560.5 605.414  10
   3   0  -5 59712.4 807.005   8
   3   0   5 59751.0 817.155  11
  -3   0  -5 59035.7 790.973   5
  -3   0  -5 60222.4 865.772  11
  -3   0   5 60581.6 750.060  11
   3   0   5 58649.0 886.494  10
  -3   0  -6 10455.9 362.877   5
   3   0   6 10187.3 365.178  11
   3   0  -6 10245.4 365.350   8
  -3   0  -6 10349.0 393.482  11
  -3   0   6 10423.3 337.860  11
  -3   0   6 10784.7 290.225  10
   3   0   6 10542.1 403.364  10
  -3   0   6 10179.4 390.344   3
  -3   0   7 34665.1 773.531   3
   3   0   7 34504.8 775.192  10
   3   0   7 34635.4 720.496  11
   3   0   7 33065.5 637.615   3
  -3   0  -7 34296.8 707.003   5
  -3   0  -7 34955.5 775.327  11
  -3   0  -7 33994.4 655.847   6
   3   0  -7 34738.2 733.549   8
  -3   0   7 35265.2 672.893  11
  -3   0   7 35978.2 590.176  10
   3   0   8 24794.9 650.302  11
   3   0  -8 24493.9 664.023   8
   3   0   8 22977.6 577.166   3
  -3   0  -8 25517.1 715.387  11
  -3   0   8 24631.3 601.008  11
  -3   0  -8 24462.8 613.426   6
  -3   0  -8 24673.3 651.744   5
   3   0   8 26358.3 719.202  10
  -3   0   8 24996.7 541.792  10
  -3   0   9 4488.68 247.170  10
  -3   0  -9 4417.03 285.724   6
   3   0  -9 4432.06 309.594   8
  -3   0  -9 3947.93 286.523   5
   3   0   9 4087.26 264.600   3
  -3   0   9 4189.77 265.726  11
   3   0 -10 4484.43 334.769   8
  -3   0 -10 4141.50 299.572   6
  -3   0 -11 7922.42 440.432   6
   3   0 -11 7647.65 462.646   8
   3   0 -11 7565.36 485.203   6
  -3   0 -12 9715.44 517.535   6
   3   0 -12 8940.14 556.564   6
   3   0 -13 1304.25 226.792   6
  -3   0 -13 1274.44 201.545   6
  -3   0 -14 3581.35 344.387   6
   3   0 -14 3430.53 384.942   6
   3   0 -15-79.1259 138.478   6
   3   0 -16 14.7309 88.6587   6
   3   1 -16 911.194 214.180   6
   3   1 -15 3930.12 417.458   6
  -3  -1 -14 1129.70 195.235   6
   3   1 -14 763.179 188.072   6
   3   1 -13 1028.03 214.094   6
  -3  -1 -13 1195.15 196.663   6
  -3  -1 -12 448.441 120.965   6
  -3  -1 -11 440.472 114.589   6
  -3  -1 -10 910.855 146.102   6
   3   1 -10 846.511 147.974   8
  -3   1   9 679.304 115.044  11
  -3   1   9 847.631 105.843  10
   3  -1   9 788.004 115.406   3
   3   1  -9 857.901 139.068   8
  -3  -1  -9 869.877 144.003   5
  -3  -1  -9 710.317 117.560   6
  -3   1   8 31342.5 722.035  11
  -3   1   8 32861.6 612.741  10
   3  -1   8 32982.7 736.664  11
  -3  -1  -8 31734.5 705.756   6
   3  -1   8 31017.0 652.773   3
   3  -1   8 32839.1 788.815  10
  -3  -1  -8 32167.3 741.727   5
   3   1  -8 32764.0 764.377   8
  -3  -1  -8 33307.4 839.285  11
  -3   1   7 608.718 96.7432  11
   3   1  -7 605.325 91.9997  10
  -3   1   7 708.320 83.0678  10
  -3   1   7 696.196 112.861   3
   3  -1   7 688.651 111.305  10
  -3  -1  -7 698.297 105.985   5
  -3  -1  -7 721.801 115.993  11
  -3  -1  -7 711.497 100.502   6
   3   1  -7 567.860 97.4530   8
   3  -1   7 602.858 94.4834  11
   3  -1   7 608.915 86.2609   3
  -3   1   6 31156.4 485.555  10
   3  -1   6 31106.5 688.095  10
  -3  -1  -6 29867.4 604.279   5
   3  -1   6 29611.4 612.848  11
   3   1  -6 29373.7 611.119   8
   3  -1   6 29555.6 532.670   3
  -3  -1  -6 30793.8 685.659  11
  -3   1   6 29175.1 665.369   3
  -3  -1  -6 30037.6 559.537   6
  -3   1   6 29838.8 616.996  11
   3  -1   5 4162.00 214.768  11
  -3  -1  -5 4050.89 205.170   5
  -3   1   5 4419.08 161.389  10
   3   1  -5 4063.55 185.047  10
   3  -1   5 4166.56 175.622   3
   3  -1   5 4595.70 246.326  10
  -3  -1  -5 4369.05 191.218   6
   3   1  -5 4139.10 207.553   8
  -3   1   5 4590.06 224.650  11
  -3   1   4 15679.6 244.528  10
  -3  -1  -4 14176.9 346.942   5
   3  -1   4 15080.7 280.792   3
   3  -1   4 14956.9 407.168  10
   3  -1   4 15064.7 373.700  11
   3   1  -4 15783.1 362.459   8
  -3  -1  -4 15316.6 311.364   6
   3   1  -4 15319.0 313.857  10
   3   1  -3 10995.9 224.095  10
   3   1  -3 11291.2 270.313   8
  -3   1   3 10584.8 144.391  10
   3  -1   3 11191.2 296.383  11
  -3  -1  -3 11589.7 231.333   6
   3   1  -3 11451.4 319.378   3
   3  -1   3 11260.7 319.812  10
   3  -1   3 11508.8 192.847   3
  -3  -1  -3 11504.2 277.578   5
   3  -1   2 47887.7 563.651  11
   3  -1   2 48067.3 587.307  10
  -3   1   2 45679.5 493.291   1
   3   1  -2 47342.3 399.839  10
   3   1  -2 49479.9 544.571   7
   3   1  -2 48494.9 479.635   8
   3   1  -2 47501.8 576.688   3
   3   1  -1 2859.53 125.782   7
  -3  -1  -1 2748.88 121.632  11
   3  -1   1 2846.35 122.934  10
   3   1  -1 2944.24 100.860  10
  -3   1   1 2642.44 111.997   3
   3   1  -1 3004.70 130.144   3
  -3   1   1 2680.53 127.621   1
   3  -1   1 2743.92 127.532  11
   3   1   0 27901.4 326.417  11
  -3  -1   0 27605.2 326.783  11
   3  -1   0 27506.1 408.260   1
   3  -1   0 27309.8 289.119  10
  -3   1   0 27408.3 315.565  10
  -3   1   0 27555.8 259.952   3
   3  -1  -1 3046.60 131.880   9
   3  -1  -1 2862.04 105.148   6
  -3   1  -1 2869.66 131.129  10
   3  -1  -1 2677.69 122.488   1
  -3  -1   1 2811.43 95.1970  11
   3  -1  -1 2895.58 119.572   7
   3   1   1 2890.45 122.671  11
  -3   1  -2 46100.8 611.778  10
   3  -1  -2 46376.3 541.266   9
   3   1   2 46408.5 551.090  11
  -3  -1   2 46725.8 406.467  10
   3  -1  -2 47585.6 536.446   7
  -3   1  -3 11504.4 295.035   5
   3   1   3 11432.2 308.242  11
  -3  -1   3 11758.0 218.351  10
  -3  -1   3 9331.24 125.256   1
   3   1   4 14818.0 385.918  11
  -3  -1   4 15084.7 299.061  11
   3  -1  -4 14590.6 377.262   8
   3   1   4 14127.6 428.256  10
  -3  -1   4 14736.1 279.663  10
   3  -1  -4 14612.4 301.624   2
  -3   1  -4 14291.1 362.877   5
   3  -1  -5 4391.16 176.724   2
   3   1   5 4476.45 230.550  11
  -3   1  -5 4224.95 216.137   5
  -3   1  -5 4425.75 233.216  11
  -3  -1   5 4651.84 187.523  11
  -3  -1   5 4571.22 176.982  10
   3  -1  -5 4228.69 224.529   8
  -3  -1   5 4407.50 241.600   3
   3   1   5 4254.84 248.870  10
  -3   1  -6 31405.2 669.242  11
   3   1   6 30128.2 705.923  10
   3   1   6 30836.9 654.861  11
  -3  -1   6 30668.7 537.582  11
  -3   1  -6 31255.2 630.113   5
   3  -1  -6 30721.0 646.941   8
  -3  -1   6 30494.5 684.000   3
  -3  -1   6 30977.5 512.920  10
   3   1   7 678.259 109.157  11
  -3  -1   7 697.518 112.890   3
   3   1   7 676.384 103.259   2
  -3   1  -7 761.435 116.569   5
  -3  -1   7 758.568 88.9377  10
  -3   1  -7 749.102 113.597  11
   3  -1  -7 809.867 120.400   8
   3   1   7 641.476 110.409  10
  -3  -1   7 601.949 83.7380  11
  -3  -1   8 31798.5 643.595  11
   3   1   8 33272.4 755.599   2
   3   1   8 31912.5 801.175  10
  -3   1  -8 33063.8 760.056   5
  -3  -1   8 33523.2 639.451  10
   3  -1  -8 32667.5 781.347   8
   3   1   8 33133.0 774.244  11
  -3   1  -8 33338.7 802.905  11
   3   1   9 669.907 109.537   3
  -3   1  -9 929.719 143.809   5
   3  -1  -9 805.924 151.612   8
  -3  -1   9 664.713 104.208  11
  -3  -1   9 765.348 105.213  10
   3  -1  -9 660.259 132.982   6
   3  -1 -10 922.401 162.160   8
   3  -1 -10 1058.48 187.949   6
  -3   1 -10 916.879 142.558   6
  -3   1 -10 1201.02 174.746   5
   3  -1 -11 288.456 125.473   8
  -3   1 -11 179.694 67.2006   6
   3  -1 -11 181.906 101.383   6
  -3   1 -12 278.334 94.6778   6
   3  -1 -12 369.104 127.913   6
   3  -1 -12 284.928 121.524   8
  -3   1 -13 787.621 160.353   6
   3  -1 -13 946.927 204.645   6
  -3   1 -14 1203.21 197.627   6
   3  -1 -14 848.119 196.692   6
  -3  -1  15 2961.00 376.848   4
   3  -1 -15 4508.42 457.666   6
   3  -1 -16 747.172 187.110   6
   3   2 -16 1589.06 275.553   6
   3  -2  16 1548.94 279.512   4
   3   2 -15 18.8914 94.1424   6
   3  -2  15 27.1608 108.885   4
   3   2 -14 4201.90 431.251   6
  -3  -2 -12 1337.57 204.593   6
  -3  -2 -11 539.064 126.653   6
  -3  -2 -10 2382.50 233.324   6
  -3   2  10 2366.09 189.692  12
  -3  -2  -9 21754.9 651.691   6
   3   2  -9 19430.8 644.758  10
   3  -2   9 20083.6 565.594   3
   3   2  -9 20861.4 652.878   8
   3  -2   8 756.582 110.589  11
   3  -2   8 664.353 93.9106   3
   3   2  -8 471.637 90.0864  10
  -3  -2  -8 562.065 103.956   5
   3   2  -8 643.606 111.687   8
  -3  -2  -8 545.094 98.5675   6
  -3   2   8 728.925 120.148  11
  -3   2   8 566.106 83.2998  10
  -3   2   7 50742.0 702.184  10
  -3   2   7 50381.4 963.089   3
  -3  -2  -7 49579.8 843.105   5
  -3  -2  -7 52621.6 1006.69  11
   3  -2   7 50807.6 927.186  10
   3  -2   7 48993.6 738.539   3
   3   2  -7 49152.4 863.002   8
   3  -2   7 50854.9 842.861  11
  -3  -2  -7 48959.6 823.284   6
  -3   2   7 50631.8 905.547  11
   3   2  -7 47511.7 834.929  10
   3  -2   6 852.552 115.051  10
  -3  -2  -6 784.068 98.9914   5
  -3  -2  -6 877.331 103.018   6
  -3   2   6 686.693 103.655  11
   3  -2   6 753.616 99.0376  11
   3  -2   6 870.583 89.8583   3
   3   2  -6 767.720 101.684   8
  -3   2   6 735.481 78.5422  10
  -3  -2  -6 822.876 116.906  11
   3   2  -6 713.103 94.9064  10
   3   2  -5 19606.8 443.654   8
  -3  -2  -5 18779.6 422.553   6
  -3  -2  -5 19143.2 513.213  11
  -3  -2  -5 19294.7 435.782   5
  -3   2   5 19943.3 351.845  10
   3  -2   5 19222.8 454.704  11
   3   2  -5 19883.2 519.301   3
   3  -2   5 19744.2 508.494  10
  -3   2   5 19268.3 493.121  11
   3  -2   5 19217.7 366.155   3
   3   2  -4 46895.3 736.062   3
   3  -2   4 46221.8 655.753  11
   3  -2   4 47019.8 721.103  10
   3  -2   4 46897.8 474.527   3
   3   2  -4 45080.5 584.576  10
  -3  -2  -4 46856.0 613.219   5
  -3   2   4 47628.1 458.040  10
   3   2  -4 47600.7 611.446   8
   3  -2   3 56389.5 677.552  11
  -3  -2  -3 57957.7 602.865   5
   3  -2   3 57586.9 722.552  10
   3   2  -3 57817.0 583.460   8
  -3   2   3 56056.8 420.461  10
   3   2  -3 56681.9 590.012  10
   3   2  -3 58450.2 746.999   3
   3  -2   2 20587.5 379.120  11
   3   2  -2 21214.1 292.602   8
   3   2  -2 20868.9 411.520   3
   3  -2   2 20896.9 384.440  10
  -3  -2  -2 20738.7 320.590   5
  -3   2   2 20458.5 173.134  10
   3   2  -2 21099.9 331.579  10
  -3  -2  -2 21012.7 393.348  11
   3   2  -2 21410.3 361.997   7
  -3   2   1 36659.5 287.063  10
   3  -2   1 36939.8 452.256   4
   3   2  -1 37279.0 296.344  11
   3  -2   1 35813.2 436.235  10
   3  -2   1 36804.5 489.511  11
   3  -2   1 36869.9 545.756   1
   3   2  -1 36726.6 310.255   2
  -3   2   1 35323.4 508.853   1
   3   2  -1 36067.6 428.243  10
  -3  -2  -1 36172.4 449.236  11
   3  -2   0 51491.9 471.053   7
   3   2   0 50821.6 433.557  11
   3  -2   0 50103.9 611.672   1
  -3  -2   0 49521.9 439.319  11
  -3  -2   0 50620.3 453.472   4
  -3   2   0 50320.4 450.223  10
   3  -2   0 49639.8 453.495   4
   3  -2   0 50164.8 416.951  10
   3  -2  -1 36445.6 507.745   9
   3  -2  -1 36102.7 273.966  10
  -3   2  -1 37999.8 474.587  10
   3   2   1 37020.2 444.720  11
   3  -2  -1 38465.9 390.536   4
  -3  -2   1 36234.0 294.382  11
   3  -2  -1 36982.2 425.206   7
   3  -2  -2 21225.4 370.564   6
  -3   2  -2 20747.9 410.514  10
  -3  -2   2 21188.6 335.648  10
  -3  -2   2 21221.6 292.967   4
   3  -2  -2 20214.7 389.657   9
  -3  -2   2 20435.2 187.722  11
  -3   2  -2 21616.1 303.593  12
   3   2   2 20798.3 385.747  11
  -3  -2   3 59735.7 584.237   4
  -3  -2   3 57048.2 390.314  11
  -3   2  -3 58094.9 683.999   5
  -3  -2   3 58542.9 580.591  10
   3   2   3 58931.4 727.155  11
   3  -2  -3 58069.0 704.884   6
   3   2   4 46123.2 709.062  11
  -3  -2   4 45880.1 557.512  10
  -3  -2   4 45764.4 620.180   4
  -3  -2   4 47021.6 435.999  11
   3  -2  -4 44327.2 694.750   6
   3  -2  -4 44984.9 693.077   8
  -3   2  -4 45372.8 663.691   5
   3   2   5 19731.3 505.444  11
  -3   2  -5 19833.6 483.580  11
  -3   2  -5 19732.9 470.128   5
  -3   2  -5 19872.7 570.939  10
  -3  -2   5 19523.9 397.375  10
  -3  -2   5 20242.9 336.567  11
  -3  -2   5 19442.5 518.618   3
   3  -2  -5 19324.5 503.888   6
   3  -2  -5 19764.8 496.900   8
   3  -2  -5 19144.7 416.422   2
   3   2   5 19000.1 480.868   2
   3   2   5 19920.6 566.875  10
  -3  -2   6 758.816 76.4618  11
   3   2   6 656.536 110.034  10
  -3   2  -6 728.005 121.325  10
   3  -2  -6 686.699 87.1948   2
  -3   2  -6 860.438 112.411  11
  -3  -2   6 829.037 117.676   3
  -3   2  -6 689.313 103.052   5
   3  -2  -6 645.120 105.265   6
   3  -2  -6 564.695 93.0456   8
   3   2   6 644.953 98.0676   2
  -3  -2   6 664.316 83.0540  10
   3   2   6 762.292 108.426  11
   3   2   7 51225.3 904.711   2
   3  -2  -7 50496.1 958.365   6
   3   2   7 51574.7 940.871  11
  -3  -2   7 51262.7 680.449  11
  -3   2  -7 50298.5 876.970   5
  -3   2  -7 53442.1 1114.94  10
  -3   2  -7 51563.2 918.434  11
   3  -2  -7 50278.1 921.689   8
  -3  -2   7 52055.9 969.034   3
  -3  -2   7 50426.9 758.336  10
   3   2   7 49393.3 985.909  10
  -3  -2   8 831.225 106.563  10
   3   2   8 879.817 138.754  10
  -3  -2   8 741.298 91.3504  11
  -3   2  -8 579.106 111.035   5
   3  -2  -8 718.411 130.573   8
   3   2   8 918.274 130.280   2
  -3   2  -8 629.690 111.543  11
   3  -2  -8 674.161 128.786   6
  -3   2  -9 22699.0 686.322   5
  -3  -2   9 20689.6 563.267  10
   3  -2  -9 22350.7 709.156   8
   3  -2  -9 22060.6 735.313   6
   3  -2 -10 2489.35 281.075   6
   3  -2 -10 2382.27 256.214   8
  -3   2 -10 2741.25 254.798   5
   3  -2 -11 333.840 125.795   6
   3  -2 -11 424.152 129.858   8
  -3   2 -12 1241.54 190.542   6
   3  -2 -12 1331.81 211.609   8
   3  -2 -12 1620.16 245.245   6
   3  -2 -13 316.588 137.574   6
  -3   2 -13 442.171 117.070   6
  -3  -2  13 84.8002 92.8816   4
   3  -2 -13 593.853 163.620   8
  -3   2 -14 3976.25 360.657   6
   3  -2 -14 4052.04 417.498   6
  -3  -2  14 3863.41 377.995   4
  -3  -2  15-14.8859 75.8109   4
   3  -2 -15 94.3422 93.5233   6
   3  -3  16 577.882 177.795   4
   3   3 -16 548.470 174.631   6
   3   3 -15 1909.34 301.723   6
   3  -3  15 1806.07 300.348   4
   3  -3  14 1403.40 272.003   4
   3  -3  13 5817.69 519.178   4
  -3   3  10 1841.12 173.388  12
  -3   3   9 8954.22 373.574  12
   3   3  -9 7491.72 408.610  10
  -3   3   8 5575.10 333.796  11
  -3   3   8 5127.97 253.406  10
   3   3  -8 5676.05 325.232  10
  -3   3   8 5166.86 282.899  12
   3  -3   8 5365.46 289.523  11
   3   3  -7 30441.5 696.824  10
  -3  -3  -7 33176.8 674.876   5
  -3  -3  -7 34932.4 836.155  11
  -3   3   7 34610.0 602.300  10
   3   3  -7 33384.2 703.127   8
   3  -3   7 34453.9 776.840  10
  -3   3   7 34465.9 790.460  11
   3  -3   7 32445.9 672.857  11
  -3  -3  -6 51445.2 772.458   5
   3   3  -6 51980.8 837.301  10
  -3   3   6 55480.6 703.181  10
  -3  -3  -6 55173.3 979.101  11
   3   3  -6 51639.8 793.569   8
   3  -3   6 52983.1 811.465  11
   3   3  -6 54324.9 953.985   3
   3  -3   6 55384.8 927.168  10
  -3   3   6 54182.1 931.539  11
   3  -3   5 1180.19 115.295  11
  -3  -3  -5 1262.55 136.373  11
  -3   3   5 1161.46 131.909  11
   3   3  -5 1280.54 137.156   3
  -3  -3  -5 1216.03 107.373   5
   3   3  -5 1124.39 113.295  10
  -3   3   5 1247.39 99.7989  10
   3   3  -5 1255.73 114.482   8
   3  -3   5 1160.53 127.483  10
  -3  -3  -4 24600.9 555.749  11
   3   3  -4 24663.3 435.963   8
   3  -3   4 24535.3 532.636  10
   3   3  -4 25805.5 567.698   3
   3  -3   4 23915.6 480.322  11
  -3  -3  -4 24461.6 428.744   5
   3  -3   3 11064.6 306.603  11
  -3  -3  -3 11090.2 337.748  11
   3   3  -3 10786.2 290.662  10
  -3  -3  -3 11192.8 255.998   5
   3  -3   3 11107.4 346.970   4
   3   3  -3 11894.7 361.169   3
   3   3  -3 11476.3 253.595   8
   3  -3   3 11003.0 352.462   1
   3  -3   3 11079.8 328.293  10
  -3   3   3 11454.2 203.004  10
   3  -3   2 53219.4 672.919   4
   3   3  -2 53209.2 611.437  10
  -3  -3  -2 52801.5 480.045   5
  -3   3   2 53790.6 415.588  10
   3  -3   2 52063.9 642.669  11
   3  -3   2 54354.0 648.481  10
  -3  -3  -2 53608.9 657.316  11
   3   3  -2 52960.6 572.317   7
   3  -3   2 53319.5 741.401   1
   3   3  -2 53289.3 430.277   8
   3  -3   1 9596.06 258.734   4
   3   3  -1 9727.75 259.037  10
   3  -3   1 10253.5 309.984   1
  -3   3   1 9931.93 193.220  10
  -3  -3  -1 9896.43 247.529  11
   3   3  -1 9936.42 146.228  11
   3  -3   1 9948.72 246.861  10
   3   3   0 320830. 1156.28  11
   3  -3   0 325721. 1136.35   7
   3  -3   0 322169. 1401.60   4
  -3   3   0 326207. 1279.52  10
   3  -3   0 320248. 1227.38  10
  -3   3   0 316222. 1535.46  12
  -3  -3   0 319077. 1384.42   4
   3   3   0 317692. 1295.62   2
  -3  -3   0 322541. 1166.71  11
  -3  -3   1 9957.89 155.510  11
  -3  -3   1 10144.1 239.518   4
   3  -3  -1 10295.7 198.753  10
  -3   3  -1 9901.87 259.557  10
  -3   3  -1 10125.8 258.110  12
   3   3   1 10301.2 265.233   2
   3   3   1 10539.1 252.854  11
   3  -3  -1 10555.1 254.088   4
   3  -3  -2 52145.0 675.129   9
  -3   3  -2 53116.5 689.630  10
  -3   3  -2 52414.1 542.092  12
   3   3   2 52386.7 646.642  11
  -3  -3   2 52753.8 559.374   4
  -3  -3   2 51967.9 612.168  10
   3  -3  -2 52836.3 591.029   4
   3  -3  -3 11308.9 329.435   6
  -3  -3   3 11521.4 296.730  10
  -3   3  -3 11414.0 313.985   5
  -3   3  -3 11812.5 363.902  10
   3   3   3 11130.5 334.861  11
  -3   3  -3 11109.0 210.058   3
  -3   3  -3 11205.7 229.203  12
  -3  -3   3 11366.6 280.820   4
   3   3   4 24065.2 535.426  11
  -3  -3   4 23373.3 444.650  10
  -3   3  -4 24201.1 575.355  10
  -3   3  -4 22842.9 484.015   5
  -3  -3   4 22137.8 442.814   4
  -3   3  -4 23439.6 486.554  11
   3  -3  -4 23701.5 526.160   6
  -3   3  -5 937.515 126.193  10
  -3   3  -5 1283.72 125.309  11
  -3  -3   5 1348.78 115.454  10
  -3  -3   5 1249.82 118.013   4
  -3   3  -5 1046.48 114.836   5
   3  -3  -5 1139.13 130.813   6
   3  -3  -5 1126.16 126.025   8
   3   3   5 1185.33 129.002   2
   3  -3  -5 1196.80 116.638   2
   3   3   5 1207.31 132.354  11
  -3  -3   5 1209.80 64.9633  11
  -3   3  -6 53581.6 865.395  11
  -3  -3   6 53574.5 768.933  10
  -3  -3   6 50584.5 847.356   4
   3  -3  -6 51674.1 797.203   2
  -3   3  -6 56072.0 1059.78  10
   3  -3  -6 54049.4 936.496   6
   3  -3  -6 53149.0 900.498   8
  -3  -3   6 55237.5 533.225  11
   3   3   6 55805.0 945.724  11
  -3   3  -6 53555.4 851.723   5
   3   3   6 53901.5 914.268   2
  -3  -3   7 34073.9 485.318  11
  -3  -3   7 32728.6 644.379  10
  -3   3  -7 32777.0 720.834   5
  -3  -3   7 32165.7 731.706   4
  -3   3  -7 35393.0 908.362  10
   3   3   7 34070.1 844.663  10
  -3  -3   7 29828.3 292.803   1
   3   3   7 35087.0 798.254  11
   3  -3  -7 33086.8 764.656   8
   3   3   7 34183.4 770.994   2
   3  -3  -7 32455.0 655.590   2
   3  -3  -7 34058.7 803.727   6
  -3   3  -7 32532.7 725.148  11
  -3  -3   8 6103.62 228.757  11
  -3  -3   8 5784.62 290.490  10
  -3   3  -8 6001.99 335.102  11
  -3  -3   8 5136.52 331.148   4
   3  -3  -8 6104.46 354.740   8
  -3   3  -8 6205.59 336.823   5
   3  -3  -8 5908.60 368.593   6
   3  -3  -9 8955.89 478.850   6
  -3  -3   9 6858.41 419.374   4
  -3  -3   9 8431.97 371.893  10
   3  -3  -9 8806.02 454.042   8
  -3   3  -9 8612.86 424.678   5
   3  -3 -10 1663.85 234.112   8
   3  -3 -10 1690.97 221.851   6
  -3   3 -10 1861.59 218.581   5
  -3  -3  10 1580.20 199.663   4
  -3  -3  11 1892.21 232.947   4
   3  -3 -11 2062.95 273.936   6
   3  -3 -11 1545.13 239.052   8
   3  -3 -12 6639.54 492.700   6
  -3  -3  12 5766.75 430.219   4
   3  -3 -12 7655.68 504.903   8
  -3   3 -13 5777.26 421.424   6
  -3  -3  13 5352.40 439.914   4
   3  -3 -13 6817.19 500.476   8
   3  -3 -13 6319.22 503.341   6
  -3   3 -14 1457.83 222.570   6
  -3  -3  14 1270.77 218.249   4
   3  -3 -14 1438.44 256.497   6
   3  -4  16 534.696 174.430   4
   3   4 -16 635.743 176.726   6
   3  -4  15 423.534 164.912   4
   3   4 -15 375.897 153.860   6
   3  -4  14 521.869 191.860   4
   3  -4  13-119.745 130.161   4
   3  -4  12 705.079 202.992   4
   3  -4  11 952.749 215.747   4
  -3   4  10 1144.63 143.016  12
   3  -4  10 1073.79 217.621   4
   3  -4   9 1878.07 248.912   4
  -3   4   9 1812.58 177.697  12
   3  -4   8 3874.24 248.159  11
   3  -4   8 4116.81 336.711   4
   3   4  -8 3819.30 280.434  10
  -3   4   8 4210.31 238.762  10
  -3   4   8 4326.94 266.337  12
  -3   4   7 1495.65 176.517  11
   3   4  -7 1967.61 187.248  10
   3  -4   7 1840.10 213.814   4
  -3   4   7 1768.76 148.877  10
   3  -4   7 1932.85 189.321  10
   3  -4   7 1882.68 162.611  11
  -3   4   7 1473.29 158.568  12
   3  -4   6 6970.76 295.602  11
  -3   4   6 7613.90 288.470  10
   3  -4   6 7310.73 346.270   1
   3  -4   6 8087.23 362.822  10
   3  -4   6 6556.09 372.808   4
   3   4  -6 7434.54 330.742  10
  -3   4   6 7233.57 361.850  11
   3   4  -6 7614.37 370.447   3
  -3   4   6 6930.41 321.738  12
  -3  -4  -6 7452.11 370.877  11
   3  -4   5 1276.01 121.655  11
  -3  -4  -5 1394.55 113.983   5
  -3  -4  -5 1117.46 131.292  11
   3  -4   5 1385.76 141.848  10
   3  -4   5 1445.09 148.665   1
  -3  -4  -5 1288.37 114.728   8
  -3   4   5 1316.90 147.510  11
   3  -4   5 1264.62 147.351   4
   3   4  -5 1324.34 146.404   3
  -3   4   5 1322.48 140.351  12
   3   4  -5 1284.88 129.084  10
   3   4  -4 21015.0 545.914   3
   3  -4   4 19257.4 524.410   4
  -3  -4  -4 20456.2 526.445  11
  -3  -4  -4 19944.8 398.046   8
  -3  -4  -4 19647.8 370.098   5
   3  -4   4 19786.9 445.324  11
   3   4  -4 19518.6 462.626  10
   3  -4   4 19889.5 522.188   1
  -3   4   4 18982.4 496.507  12
   3  -4   4 20546.6 501.846  10
   3  -4   3 715.566 84.7523  11
  -3   4   3 593.501 89.8763  12
   3  -4   3 663.388 99.1663   4
   3   4  -3 661.150 82.5317  10
   3  -4   3 722.752 91.3007  10
  -3  -4  -3 596.003 85.8209  11
  -3  -4  -3 661.107 60.1953   5
  -3  -4  -3 637.807 62.3132   8
   3  -4   3 705.742 102.469   1
  -3   4   3 669.901 61.4307  10
   3   4  -3 626.887 93.8006   3
   3  -4   2 4053.19 202.075   4
  -3  -4  -2 4201.38 196.819  11
  -3   4   2 4276.55 147.185  10
   3  -4   2 4216.48 194.235  10
   3  -4   2 4206.54 222.222   1
   3   4  -2 4099.07 160.075   7
  -3   4   2 3816.98 206.129  12
  -3  -4  -2 3993.40 120.831   5
   3  -4   1 2420.24 144.613   4
  -3  -4  -1 2281.74 129.255  11
  -3  -4  -1 2408.82 147.202   4
   3   4  -1 2427.58 80.7322  11
   3  -4   1 2434.40 135.987  10
  -3   4   1 2336.60 114.492  10
  -3   4   1 2345.79 152.483  12
   3   4   0 26265.4 361.454  11
   3  -4   0 27017.3 317.004   7
   3  -4   0 26841.1 467.220   4
  -3  -4   0 26642.3 371.973  11
  -3   4   0 25326.6 475.931  12
   3  -4   0 26630.1 406.249  10
  -3   4   0 26510.5 416.407  10
  -3  -4   0 26510.0 459.161   4
   3  -4  -1 2050.11 142.721   9
   3  -4  -1 2366.66 115.328  10
   3   4   1 2198.18 127.845  11
  -3  -4   1 2336.33 108.100   2
  -3  -4   1 2249.29 133.042   4
  -3   4  -1 2293.47 137.246  10
  -3   4  -1 2221.73 135.191  12
   3  -4  -1 2407.74 143.149   4
   3   4   2 4207.63 195.657  11
  -3  -4   2 4291.66 124.661   2
   3  -4  -2 4239.55 206.580   9
  -3   4  -2 4178.13 202.967  10
   3  -4  -2 4245.84 193.491   4
  -3  -4   2 4219.25 196.427  10
  -3  -4   2 4087.08 178.444   4
  -3   4  -2 4028.27 170.924  12
  -3  -4   3 790.210 84.4579   4
  -3  -4   3 535.920 36.2571   2
  -3   4  -3 610.727 91.7333  10
   3  -4  -3 607.244 89.7439   9
  -3   4  -3 543.121 80.5968   5
  -3  -4   3 588.654 80.7434  10
  -3   4  -3 601.255 60.1213   3
   3   4   3 656.493 88.5074  11
  -3   4  -4 19913.6 465.999  11
  -3  -4   4 20359.3 448.102   4
   3   4   4 20447.0 518.763  11
  -3  -4   4 20163.6 455.985  10
  -3   4  -4 19938.4 456.758   5
  -3   4  -4 20560.9 366.056   3
  -3   4  -4 20719.9 553.616  10
   3   4   4 20396.8 527.607   2
  -3   4  -5 1548.31 140.974   5
  -3  -4   5 1363.96 125.775  10
  -3   4  -5 1365.14 154.978  10
   3   4   5 1346.01 147.306  11
  -3  -4   5 1428.83 131.240   4
  -3   4  -5 1525.07 136.312  11
   3  -4  -5 1306.19 138.821   8
   3  -4  -5 1490.50 142.099   2
   3   4   5 1255.84 140.098   2
   3  -4  -5 1542.74 158.223   6
  -3  -4   6 7391.62 142.647  11
   3   4   6 7895.72 371.128  11
  -3   4  -6 7476.97 322.634  11
   3  -4  -6 7381.74 361.344   6
  -3   4  -6 7807.34 398.370  10
   3  -4  -6 7168.37 320.385   2
  -3  -4   6 7692.15 309.268  10
   3  -4  -6 7491.22 348.445   8
   3   4   6 7787.77 365.671   2
  -3   4  -6 7555.29 328.085   5
  -3  -4   6 7544.15 322.531   4
  -3   4  -7 1925.99 177.333  11
  -3  -4   7 2009.04 169.895  10
   3  -4  -7 1775.74 198.465   6
  -3  -4   7 1759.92 173.410   4
  -3   4  -7 1955.39 180.423   5
   3  -4  -7 2048.02 180.806   2
   3  -4  -7 2007.80 199.995   8
  -3  -4   7 1861.35 92.9115  11
   3   4   7 1992.03 197.964   2
   3   4   7 1871.19 212.018  10
  -3   4  -8 3859.93 266.427  11
   3  -4  -8 4515.01 332.436   6
  -3  -4   8 4053.17 256.118  10
  -3  -4   8 4112.79 282.667   4
   3  -4  -8 4207.35 304.684   8
  -3   4  -8 4418.58 290.051   5
  -3  -4   9 1963.67 214.739   4
   3  -4  -9 2004.00 230.744   8
  -3   4  -9 1801.01 201.499   5
   3  -4  -9 2351.36 265.706   6
   3  -4 -10 1282.60 218.535   6
  -3   4 -10 1132.17 177.048   5
   3  -4 -10 1137.25 214.657   8
  -3  -4  10 1124.81 182.929   4
  -3  -4  11 1160.03 179.939   4
   3  -4 -11 1134.21 217.015   6
   3  -4 -11 826.127 200.500   8
   3  -4 -12 626.576 155.190   6
  -3  -4  12 494.137 135.671   4
   3  -4 -12 839.877 181.705   8
  -3  -4  13 54.0144 89.1613   4
   3  -4 -13 67.5902 105.605   8
  -3  -4  14 775.368 174.275   4
   3  -5  16 661.843 193.419   4
   3   5 -16 188.279 105.635   6
   3  -5  15 1985.90 311.817   4
   3  -5  14 123.232 102.243   4
   3  -5  13 689.389 192.523   4
   3  -5  12 179.430 127.374   4
   3  -5  11 272.647 145.715   4
   3  -5  10 764.817 181.426   4
  -3   5  10 606.728 103.296  12
   3  -5   9 201.190 112.089   4
  -3   5   9 642.864 119.627  12
   3  -5   8 5119.97 326.884   1
   3  -5   8 4955.92 279.962  11
   3  -5   8 5585.49 386.128   4
  -3   5   8 5536.48 316.172  12
   3  -5   7 7386.99 409.107   4
   3   5  -7 7009.80 371.479  10
  -3   5   7 7426.74 324.333  10
   3  -5   7 6795.91 310.191  11
   3  -5   7 7576.84 378.896   1
  -3   5   7 7240.74 352.635  12
  -3   5   6 29824.6 697.602  12
  -3   5   6 30094.9 773.080  11
  -3  -5  -6 31063.8 782.005  11
  -3  -5  -6 30386.9 617.209   8
   3  -5   6 30539.7 730.778   1
   3  -5   6 29593.7 613.571  11
   3  -5   6 30814.0 728.866  10
   3   5  -6 31467.4 788.010   3
   3  -5   6 29409.6 771.062   4
   3   5  -6 28350.3 689.423  10
   3  -5   5 17746.7 556.210   4
   3  -5   5 18594.7 547.453   1
  -3   5   5 18977.9 584.666  11
  -3   5   5 18573.7 532.259  12
   3   5  -5 17697.3 511.176  10
   3  -5   5 18360.0 461.774  11
   3   5  -5 19578.5 584.840   3
  -3  -5  -5 19373.1 575.201  11
  -3  -5  -5 18059.9 433.254   8
   3  -5   5 18947.0 540.520  10
  -3  -5  -4 41924.6 580.051   8
  -3  -5  -4 41671.3 783.428  11
   3   5  -4 41714.3 734.856  10
  -3   5   4 40789.8 546.185  10
   3  -5   4 42104.6 790.762   1
  -3   5   4 40665.2 759.504  12
   3  -5   4 42588.3 753.962  10
   3   5  -4 42917.5 823.916   3
   3  -5   3 10217.1 376.843   1
   3  -5   3 10091.8 360.618   4
  -3  -5  -3 10166.2 356.780  11
  -3   5   3 10133.1 263.427  10
   3  -5   3 10155.3 348.066  10
   3   5  -3 10058.0 344.286  10
  -3  -5  -3 10429.8 245.916   8
   3   5  -3 10624.0 234.643   1
  -3   5   3 10167.9 368.023  12
   3   5  -2 18595.2 453.115  10
   3  -5   2 18459.2 435.848  10
  -3   5   2 18207.4 356.103  10
  -3  -5  -2 17954.9 252.591   8
   3   5  -2 17729.5 333.081   7
   3  -5   2 17804.4 451.238   4
  -3   5   2 18098.1 467.057  12
   3  -5   1 9896.10 297.586  10
  -3   5   1 9827.07 270.689  10
   3   5  -1 10028.5 326.424  10
  -3  -5  -1 10120.8 309.145   2
   3   5  -1 10165.3 193.113  11
  -3  -5  -1 9418.96 323.693   4
   3  -5   1 10276.2 331.828   4
  -3   5   1 9803.99 330.934  12
   3  -5   0 8793.89 267.318  10
  -3  -5   0 8907.91 269.297   2
  -3   5   0 8637.00 300.416  12
  -3   5   0 8543.04 267.308  10
   3  -5   0 8576.99 300.506   4
  -3  -5   0 8738.10 297.109   4
   3   5   0 8565.90 228.321  11
   3   5   1 10262.1 288.847  11
   3  -5  -1 9894.21 328.592   9
  -3   5  -1 9692.44 315.482  11
   3  -5  -1 10190.0 329.784   4
  -3  -5   1 10024.2 315.934   4
  -3   5  -1 9818.90 310.566  12
  -3   5  -1 10077.6 312.196  10
  -3  -5   1 10154.1 260.835   2
   3  -5  -2 18391.8 453.039   9
  -3  -5   2 18007.8 423.854   4
  -3  -5   2 18959.8 323.430   2
   3  -5  -2 17608.8 441.189   4
  -3   5  -2 18490.0 457.100  10
  -3   5  -2 18157.8 438.059  11
  -3   5  -2 18101.4 403.743  12
   3   5   2 18271.2 428.110  11
  -3   5  -3 10225.6 369.018  10
  -3  -5   3 10609.6 351.179  10
  -3   5  -3 10210.6 333.626  11
  -3   5  -3 10720.9 278.648   3
   3  -5  -3 10362.9 352.356   9
  -3   5  -3 10273.7 316.556   5
  -3  -5   3 10790.6 215.503   2
   3   5   3 10636.4 358.436  11
   3  -5  -3 9911.67 339.915   4
  -3  -5   3 10255.1 329.091   4
  -3  -5   4 37985.1 338.157   2
  -3   5  -4 43779.0 839.639  10
  -3   5  -4 41013.3 690.827  11
  -3  -5   4 42999.0 725.786  10
  -3   5  -4 40947.4 672.050   5
  -3   5  -4 42782.5 580.195   3
   3   5   4 41864.8 771.785  11
  -3  -5   4 41879.4 693.796   4
  -3   5  -5 17953.7 477.523  11
  -3  -5   5 18481.8 491.001  10
  -3  -5   5 18213.8 486.191   4
  -3   5  -5 18206.5 483.760   5
   3   5   5 18909.7 557.339  11
   3  -5  -5 18559.6 535.957   2
  -3   5  -5 18982.3 593.375  10
   3  -5  -5 18400.1 533.540   8
  -3   5  -5 18720.7 416.186   3
  -3  -5   6 31277.8 685.252   4
   3   5   6 31062.9 765.208  11
  -3   5  -6 29239.3 655.633   5
  -3   5  -6 28869.0 642.288  11
   3  -5  -6 29797.7 705.883   2
   3  -5  -6 30421.1 729.035   8
  -3  -5   6 30813.5 664.047  10
  -3   5  -6 32445.7 835.174  10
  -3   5  -7 6984.52 338.798  11
   3  -5  -7 7448.76 362.647   2
   3  -5  -7 6985.53 373.294   8
  -3  -5   7 7061.68 335.894  10
  -3   5  -7 7232.96 347.143   5
  -3  -5   7 7577.51 365.644   4
   3  -5  -8 5502.10 349.641   8
  -3  -5   8 4357.85 298.735   4
  -3   5  -8 5842.53 335.578   5
  -3   5  -8 4885.31 299.468  11
  -3  -5   9 285.284 104.725   4
  -3   5  -9 644.258 127.518   5
   3  -5  -9 549.397 133.712   8
   3  -5 -10 634.931 181.908   8
  -3  -5  10 589.704 145.557   4
  -3   5 -10 730.897 163.273   5
  -3  -5  11 386.897 135.068   4
   3  -5 -11 305.349 149.298   8
   3  -5 -12 318.898 119.738   8
  -3  -5  12 332.090 109.532   4
  -3  -5  13 751.742 177.141   4
   3  -5 -13 571.446 163.997   8
  -3  -5  14 172.842 113.557   4
   3  -5 -14 337.746 134.346   8
   3  -6  15 27.9585 81.5917   4
   3  -6  14 4105.71 423.018   4
   3  -6  13 3398.24 396.631   4
   3  -6  12 2740.68 336.933   4
   3  -6  11 4178.24 394.437   4
   3  -6  10 4510.16 410.623   4
  -3   6  10 4011.77 284.465  12
   3  -6   9 2447.75 280.450   4
  -3   6   9 2110.90 212.643  12
   3  -6   8 13163.8 593.853   4
  -3   6   8 12064.2 493.130  12
  -3  -6  -7 7833.66 347.992   8
   3  -6   7 6790.28 316.740  11
  -3   6   7 7523.91 380.114  12
   3  -6   7 7772.25 391.739   1
   3  -6   7 7405.33 429.417   4
   3  -6   6 2068.46 218.944   4
  -3   6   6 2173.68 151.834  10
   3   6  -6 2147.10 202.832  10
  -3  -6  -6 2218.24 168.434   8
  -3   6   6 2342.16 211.188  12
   3  -6   6 2203.28 201.984   1
   3  -6   5 3147.48 250.076   4
  -3   6   5 3301.65 176.985  10
   3  -6   5 3664.32 248.183  10
   3   6  -5 3741.94 251.510  10
   3  -6   5 3550.01 245.722   1
  -3  -6  -5 3510.96 192.210   8
  -3   6   5 3712.38 275.389  11
  -3   6   5 3640.08 246.090  12
   3   6  -5 3748.41 269.467   3
   3   6  -4 13830.8 497.477   3
   3  -6   4 11999.9 444.308   4
   3  -6   4 12606.8 450.768   1
   3  -6   4 13339.7 444.383  10
  -3  -6  -4 12929.6 325.407   8
  -3   6   4 12544.9 335.686  10
  -3   6   4 12566.9 438.896  12
   3   6  -4 12693.2 440.298  10
   3  -6   3 1228.84 128.509  10
  -3   6   3 1006.20 95.7567  10
   3   6  -3 1050.24 122.392  10
   3  -6   3 1072.50 136.691   4
  -3  -6  -3 1257.72 87.4144   8
   3   6  -3 1055.59 90.0097   1
  -3   6   3 1253.13 139.548  12
   3   6  -2 389.858 24.5959  11
  -3   6   2 769.456 85.1315  10
   3   6  -2 837.650 107.177  10
  -3  -6  -2 654.890 50.7685   8
   3  -6   2 612.191 97.1325   4
   3   6  -2 592.549 62.9176   7
   3  -6   2 731.221 94.6190  10
  -3  -6  -2 670.438 94.8019   2
  -3   6   2 693.634 109.839  12
   3   6  -1 38738.4 435.726  11
  -3   6   1 38828.8 603.787  10
  -3  -6  -1 39862.4 666.164   2
  -3   6   1 39904.3 793.667   1
   3   6  -1 38843.2 701.277  10
   3  -6   1 37740.9 638.605  10
  -3   6   1 38552.9 702.024  12
  -3  -6  -1 39960.2 724.609   4
   3  -6   1 39110.6 709.828   4
  -3   6   0 8389.58 294.878  10
   3  -6   0 8545.94 293.518  10
   3   6   0 8525.56 329.854  10
  -3  -6   0 8609.78 292.050   2
  -3   6   0 8379.47 317.493  12
  -3  -6   0 8471.80 326.691   4
   3  -6   0 8529.55 332.850   4
  -3   6   0 8965.92 378.915   1
   3   6   0 8442.09 247.130  11
   3   6   1 39140.2 603.062  11
   3   6   1 41112.1 738.739  10
   3  -6  -1 38629.7 686.552   9
  -3   6  -1 39277.5 671.241  10
  -3   6  -1 38885.9 671.156  12
  -3   6  -1 40692.3 809.493   1
  -3  -6   1 40569.1 591.275   2
  -3   6  -1 38312.7 667.198  11
   3  -6  -1 38994.2 709.926   4
  -3  -6   1 38956.8 692.475   4
  -3   6  -2 709.943 100.804  10
  -3  -6   2 639.669 103.408   4
   3  -6  -2 762.699 104.315   9
   3   6   2 769.322 96.0666  11
  -3  -6   2 731.583 77.1905   2
  -3   6  -2 618.552 88.3953  11
   3  -6  -2 776.849 105.829   4
   3   6   3 1234.10 130.549  11
  -3   6  -3 1149.91 121.299  11
  -3  -6   3 1471.05 144.995  10
  -3   6  -3 1260.03 139.777  10
  -3   6  -3 1292.84 119.742   5
   3  -6  -3 1197.56 128.215   9
  -3  -6   3 1280.47 90.0304   2
   3  -6  -3 1248.48 134.653   4
  -3  -6   3 1274.31 132.316   4
  -3   6  -4 13622.9 487.887  10
  -3   6  -4 12781.6 400.991  11
  -3  -6   4 13285.2 258.574   2
   3   6   4 13393.9 456.372  11
  -3   6  -4 13094.5 391.830   5
  -3  -6   4 12822.8 429.577  10
  -3   6  -4 13286.1 361.754   3
  -3  -6   4 13152.4 425.696   4
  -3   6  -5 3335.49 191.576   3
  -3   6  -5 3466.42 217.452   5
  -3   6  -5 3681.05 272.752  10
  -3  -6   5 3686.67 239.027   4
  -3  -6   5 3409.45 229.866  10
   3  -6  -5 3440.67 243.989   8
  -3  -6   5 2728.33 97.8241   2
   3   6   5 3524.47 252.145  11
  -3   6  -5 3324.77 212.141  11
   3  -6  -5 3679.06 257.908   2
  -3   6  -6 2095.16 176.348  11
  -3   6  -6 2479.37 197.935   5
  -3  -6   6 2401.40 200.581  10
   3  -6  -6 2577.94 223.182   2
  -3  -6   6 2471.28 205.945   4
   3  -6  -6 2752.87 231.213   8
  -3  -6   7 7945.55 388.345   4
   3  -6  -7 7894.27 406.809   8
  -3   6  -7 8365.70 384.053   5
  -3   6  -7 6895.70 336.804  11
  -3   6  -8 12354.9 498.139   5
   3  -6  -8 12422.7 539.817   8
  -3  -6   8 12526.6 510.989   4
  -3   6  -9 2640.93 246.738   5
   3  -6  -9 2547.44 265.496   8
  -3  -6   9 2246.96 225.920   4
  -3  -6  10 4809.87 356.771   4
   3  -6 -10 4662.07 368.616   8
  -3   6 -10 5048.42 360.174   5
  -3  -6  11 4015.63 340.509   4
   3  -6 -11 4182.14 369.894   8
  -3  -6  12 2784.17 294.277   4
   3  -6 -12 3087.59 335.849   8
  -3  -6  13 2332.85 274.391   4
   3  -6 -13 2779.55 325.837   8
  -3  -6  14 4427.43 393.007   4
   3  -6 -14 5230.62 459.951   8
   3  -7  15 11.3268 94.8270   4
   3  -7  14 593.654 177.371   4
   3  -7  13 147.027 133.720   4
   3  -7  12 960.479 212.884   4
   3  -7  11 67.7820 134.657   4
   3  -7  10 154.887 108.433   4
  -3   7  10 202.955 77.0959  12
   3  -7   9 1140.08 235.494   4
  -3   7   9 1078.31 164.304  12
   3  -7   8 908.106 183.166   4
  -3   7   8 709.472 132.586  12
   3  -7   7 2184.16 243.940   4
  -3  -7  -7 2457.23 197.242   8
  -3   7   7 2293.00 227.643  12
  -3  -7  -6 1381.27 136.427   8
  -3   7   6 949.138 109.005  10
   3  -7   6 1130.95 174.403   4
  -3   7   6 1220.31 161.392  12
  -3   7   5 571.521 81.7919  10
   3   7  -5 684.497 114.150  10
   3  -7   5 693.888 139.095   4
  -3  -7  -5 649.332 85.0827   8
  -3   7   5 673.924 125.429  12
  -3   7   4 923.899 101.026  10
  -3   7   4 1153.93 162.174  12
   3   7  -4 961.084 133.114  10
  -3  -7  -4 957.351 91.2874   8
   3  -7   4 1022.33 152.535   4
   3  -7   4 981.489 132.722  10
   3   7  -4 1081.50 153.264   3
   3   7  -3 6880.57 335.374  10
  -3  -7  -3 6691.48 203.394   8
  -3   7   3 6543.68 330.372  12
  -3   7   3 6383.01 260.484  10
   3  -7   3 6585.86 314.646  10
   3  -7   3 6218.89 326.715   4
  -3  -7  -2 4782.07 263.289   2
   3   7  -2 4762.62 271.763  10
   3  -7   2 4694.67 278.917   4
  -3   7   2 4570.20 269.188  12
  -3  -7  -2 4687.45 282.560   4
  -3   7   2 4422.45 221.671  10
   3   7  -2 3677.43 150.356   7
   3   7  -2 3313.72 97.4198  11
   3   7  -2 3985.71 103.885  11
   3  -7   2 4563.75 252.538  10
   3   7  -1 9385.39 237.903  11
   3  -7   1 9181.13 344.446  10
   3  -7   1 8860.48 370.176   4
   3   7  -1 9508.64 375.106  10
  -3   7   1 8830.14 319.734  10
  -3  -7  -1 9435.72 349.582   2
  -3   7   1 9153.52 367.126  12
   3   7  -1 8572.10 236.220   7
  -3  -7  -1 8814.66 377.567   4
  -3   7   1 9471.85 418.235   1
   3  -7   0 14509.2 469.781   4
   3   7   0 15224.7 475.768  10
   3  -7   0 14837.1 427.950  10
  -3   7   0 14451.2 423.544  10
  -3  -7   0 15349.9 424.534   2
  -3   7   0 15889.6 543.704   1
  -3  -7   0 14920.6 470.715   4
  -3   7   0 15205.4 463.975  12
   3   7   0 15048.0 356.818  11
   3   7   1 9585.77 381.658  10
  -3   7  -1 9569.36 361.427  10
   3  -7  -1 9163.41 351.052   9
  -3  -7   1 9573.22 318.966   2
  -3   7  -1 9905.02 429.196   1
  -3   7  -1 8629.42 337.047  11
   3   7   1 9386.24 317.526  11
   3  -7  -1 9013.94 376.117   4
  -3  -7   1 8971.46 365.257   4
  -3   7  -2 4681.90 269.025  10
  -3   7  -2 4550.76 211.533   5
   3   7   2 4062.76 232.853  11
  -3   7  -2 4429.28 242.486  11
  -3   7  -2 4527.15 293.730   1
  -3  -7   2 4662.86 210.702   2
   3  -7  -2 4356.69 246.217   9
   3  -7  -2 4802.13 285.309   4
  -3  -7   2 4514.65 260.698   4
   3   7   2 4612.03 271.386  10
   3  -7  -3 6820.01 313.434   9
  -3   7  -3 6410.81 262.949   5
  -3   7  -3 6402.27 293.323  11
  -3  -7   3 7049.40 241.827   2
   3  -7  -3 6767.42 337.363   4
  -3   7  -3 6980.57 343.787  10
  -3  -7   3 6452.05 315.840   4
   3   7   3 6554.54 314.837  11
  -3   7  -4 828.029 109.861  11
  -3   7  -4 976.348 139.364  10
   3   7   4 1068.21 141.469  11
  -3   7  -4 812.813 105.109   5
  -3  -7   4 896.429 128.014  10
  -3  -7   4 966.587 83.1946   2
  -3  -7   4 994.377 139.972   4
  -3   7  -4 853.951 101.035   3
   3   7   5 677.988 119.086  11
  -3  -7   5 657.384 108.340  10
  -3   7  -5 559.363 91.5458   5
  -3   7  -5 716.769 97.6899   3
   3  -7  -5 633.260 116.745   8
  -3  -7   5 603.013 109.653   4
  -3   7  -5 594.669 96.2413  11
  -3  -7   6 1530.15 175.639   4
  -3   7  -6 1366.08 151.112   5
  -3   7  -6 1129.26 132.406  11
  -3   7  -6 1265.99 132.394   3
   3  -7  -6 1415.03 174.871   8
   3  -7  -7 2304.97 226.468   8
  -3   7  -7 2298.83 206.150   5
  -3  -7   7 2569.92 232.568   4
  -3   7  -8 874.984 142.766   5
   3  -7  -8 680.711 150.834   8
  -3  -7   8 737.222 145.288   4
  -3   7  -9 1207.99 172.796   5
  -3  -7   9 1342.72 192.248   4
   3  -7  -9 1420.42 203.316   8
  -3  -7  10 456.251 135.750   4
   3  -7 -10 285.883 108.661   8
  -3  -7  11-75.8563 65.9996   4
   3  -7 -11 148.320 106.223   8
  -3  -7  12 778.373 166.668   4
   3  -7 -12 731.817 180.602   8
  -3  -7  13 9.33504 73.7707   4
   3  -7 -13-108.806 92.3939   8
  -3  -7  14 301.373 123.837   4
   3  -7 -14 801.739 178.717   8
   3  -8  14 1734.65 284.845   4
   3  -8  13 861.956 209.708   4
   3  -8  12 1657.26 270.621   4
   3  -8  11 459.246 167.675   4
   3  -8  10 254.855 131.554   4
  -3   8   9 347.049 106.596  12
   3  -8   9 411.927 149.919   4
   3  -8   8 1276.15 207.494   4
  -3   8   8 1424.76 187.392  12
   3  -8   7 6497.93 422.585   4
  -3  -8  -7 6049.58 308.271   8
  -3   8   7 6009.00 376.552  12
  -3  -8  -6 6782.25 298.115   8
  -3   8   6 7040.48 397.187  12
   3  -8   6 6551.88 400.918   4
  -3   8   5 7454.38 310.434  10
   3  -8   5 7838.02 421.536   4
  -3   8   5 8734.92 427.118  12
  -3   8   4 6768.57 293.418  10
  -3   8   4 7808.87 395.257  12
   3  -8   4 7643.29 395.839   4
   3   8  -3 891.795 108.258   1
  -3  -8  -3 788.882 119.527   2
  -3   8   3 823.180 135.738  12
   3  -8   3 908.703 127.709  10
  -3   8   3 703.721 97.3537  10
   3  -8   3 817.037 133.389   4
  -3   8   2 12220.4 400.353  10
   3   8  -2 13813.0 494.178  10
   3   8  -2 13447.3 416.828   1
  -3  -8  -2 14361.8 482.195   2
   3  -8   2 13550.6 464.394  10
  -3  -8  -2 13044.8 504.414   4
   3   8  -2 11117.0 203.156  11
   3  -8   2 13495.1 498.688   4
  -3   8   2 13396.9 489.968  12
  -3   8   2 13709.2 542.272   1
   3   8  -1 7036.87 226.187  11
   3   8  -1 7184.02 351.831  10
  -3   8   1 6750.94 305.454  10
  -3   8   1 7702.36 403.686   1
   3  -8   1 7364.81 366.634   4
  -3  -8  -1 7160.43 361.954   4
  -3  -8  -1 7055.48 325.083   2
   3  -8   1 6875.81 323.162  10
  -3   8   1 6677.60 344.576  12
   3   8   0 1182.53 109.266  11
  -3   8   0 1158.36 159.448   1
   3   8   0 1215.15 148.610  10
  -3   8   0 1095.87 130.288  10
  -3  -8   0 1230.74 133.408   2
  -3  -8   0 949.410 134.162   4
   3  -8   0 1168.69 147.749   4
  -3   8  -1 6381.79 308.166  11
   3  -8  -1 6948.83 321.092   9
   3   8   1 7556.75 303.082  11
   3   8   1 7178.14 352.888  10
  -3   8  -1 7168.43 338.437  10
  -3  -8   1 6470.40 339.921   4
  -3  -8   1 7078.72 299.490   2
  -3   8  -1 7264.25 393.139   1
   3  -8  -1 6947.38 359.942   4
   3   8   2 13919.9 497.108  10
  -3   8  -2 12753.5 362.776   5
   3  -8  -2 13522.6 450.888   9
  -3  -8   2 13580.1 396.067   2
   3  -8  -2 13074.5 495.099   4
   3   8   2 13221.9 437.457  11
  -3  -8   2 13535.8 487.102   4
  -3   8  -2 14529.6 556.632   1
  -3   8  -2 13290.2 484.766  10
  -3   8  -2 11835.8 417.157  11
  -3   8  -3 911.254 118.736  11
   3  -8  -3 937.893 127.046   9
   3  -8  -3 1054.89 151.042   4
  -3  -8   3 1099.33 108.119   2
  -3  -8   3 893.500 134.393   4
   3   8   3 1011.62 136.114  11
  -3   8  -3 1028.97 143.039  10
  -3   8  -3 1105.35 113.052   5
  -3   8  -4 6562.52 315.154  11
  -3   8  -4 7629.43 310.178   5
  -3  -8   4 7686.01 380.637   4
  -3   8  -4 7375.90 318.639   3
   3   8   4 8242.25 396.293  11
  -3   8  -5 9017.82 360.673   5
  -3  -8   5 9068.85 426.119   4
   3  -8  -5 8632.50 410.333   8
  -3   8  -5 8005.27 338.512   3
  -3   8  -5 7279.34 338.190  11
  -3   8  -6 7438.05 350.410   5
  -3  -8   6 7073.44 389.103   4
   3  -8  -6 7048.57 389.895   8
  -3   8  -7 6092.10 340.368   5
  -3  -8   7 6343.01 384.793   4
   3  -8  -7 6264.18 384.454   8
  -3   8  -8 1293.08 168.294   5
   3  -8  -8 1394.65 204.217   8
  -3  -8   8 1539.15 200.933   4
  -3   8  -9 622.527 128.689   5
   3  -8  -9 445.780 125.550   8
  -3  -8   9 524.019 135.498   4
  -3  -8  10 25.4561 66.2768   4
   3  -8 -10 115.953 88.1252   8
   3  -8 -11 322.152 125.735   8
  -3  -8  11 526.388 136.803   4
   3  -8 -12 1512.77 239.262   8
  -3  -8  12 1312.30 214.818   4
  -3  -8  13 527.528 136.339   4
   3  -8 -13 766.486 182.768   8
   3  -8 -14 1491.53 247.270   8
   3  -9  14 575.296 177.067   4
   3  -9  13 630.184 166.807   4
   3  -9  12 2377.27 322.383   4
   3  -9  11 2319.83 304.878   4
   3  -9  10 1961.40 277.229   4
   3  -9   9 13334.9 676.198   4
   3  -9   8 5172.74 427.649   4
  -3   9   7 5859.27 384.791  12
   3  -9   7 5125.44 388.919   4
  -3   9   6 2577.52 258.006  12
   3  -9   6 2270.22 256.868   4
   3  -9   5-0.76436 112.477   4
  -3   9   5 12.3981 83.7736  12
   3  -9   4 2561.84 252.173   4
  -3   9   4 2756.05 255.658  12
  -3   9   4 2125.76 179.824  10
  -3   9   3 66.3816 39.3506  10
   3  -9   3 122.906 73.6730   4
   3  -9   2 26562.4 753.672   4
   3   9  -2 27478.1 650.705   1
  -3  -9  -2 27036.2 768.750   4
  -3   9   2 23707.0 605.511  10
  -3  -9  -1 623.937 133.674   4
   3  -9   1 695.723 112.062  10
   3  -9   1 826.355 144.678   4
  -3  -9  -1 735.856 120.558   2
  -3   9   1 669.494 105.802  10
   3  -9   0 51732.9 1034.45   4
  -3  -9   0 50512.4 893.318   2
  -3   9   0 46849.6 897.695  10
   3  -9   0 48687.1 888.322   9
  -3  -9   0 50145.7 1017.58   4
   3   9   0 47782.3 729.793  11
   3   9   1 660.656 99.5548  11
  -3  -9   1 712.926 104.758   2
  -3   9  -1 572.028 97.3502  11
  -3   9  -1 644.573 117.493  10
   3  -9  -1 611.468 128.221   4
  -3  -9   1 582.511 112.884   4
  -3   9  -1 633.552 79.6514   5
   3  -9  -1 696.668 114.015   9
  -3   9  -2 22410.0 606.484  11
   3   9   2 26489.0 656.168  11
  -3   9  -2 26471.5 515.312   5
   3  -9  -2 27342.2 668.502   9
  -3  -9   2 26043.0 592.686   2
  -3  -9   2 26651.0 736.079   4
   3  -9  -2 26794.0 763.880   4
   3   9   3-17.2071 29.3501  11
  -3   9  -3 80.1337 46.4454   5
  -3  -9   3 98.7920 77.4598   4
  -3   9  -3 67.0092 41.3224  11
  -3   9  -4 1966.98 178.838  11
  -3   9  -4 2396.00 175.657   5
  -3  -9   4 2290.98 229.292   4
  -3  -9   5-10.5876 72.1568   4
  -3   9  -5 104.912 52.2389   5
   3  -9  -5 157.151 70.7763   8
  -3   9  -6 2773.96 218.282   5
   3  -9  -6 2678.39 248.103   8
  -3  -9   6 2636.34 255.108   4
  -3   9  -7 5634.50 330.498   5
  -3  -9   7 5552.17 381.861   4
   3  -9  -7 5393.97 366.097   8
  -3   9  -8 6055.45 366.432   5
   3  -9  -8 5830.08 398.615   8
  -3  -9   8 5685.06 399.806   4
   3  -9  -9 13199.8 620.054   8
  -3  -9   9 12875.9 612.598   4
   3  -9 -10 1847.63 248.884   8
  -3  -9  10 1762.85 244.868   4
   3  -9 -11 2239.57 283.074   8
  -3  -9  11 2172.30 275.172   4
   3  -9 -12 2490.79 309.319   8
  -3  -9  12 2120.45 267.748   4
   3  -9 -13 492.309 151.219   8
  -3  -9  13 850.892 179.602   4
   3  -9 -14 579.519 163.509   8
   3 -10  13 693.315 196.296   4
   3 -10  12 195.821 120.314   4
   3 -10  11 2841.41 349.760   4
   3 -10  10 574.389 163.960   4
   3 -10   9 554.466 165.916   4
   3 -10   8 1349.75 236.994   4
   3 -10   7 4192.17 372.220   4
   3 -10   6 805.412 178.837   4
   3 -10   5 7561.89 467.955   4
   3 -10   4 3549.91 326.289   4
   3 -10   3 638.391 179.771   4
   3 -10   2 1411.56 190.491   4
  -3 -10  -2 1330.03 197.517   4
  -3 -10  -1 1673.32 214.780   4
   3  10  -1 1442.80 165.823   1
   3 -10   1 1839.39 218.953   4
  -3 -10   0 1019.75 136.098   2
  -3 -10   0 1188.83 185.826   4
   3 -10   0 916.995 135.286   9
   3 -10   0 1261.60 190.713   4
  -3  10  -1 1426.80 161.867  11
   3 -10  -1 1632.73 174.093   9
  -3 -10   1 1470.74 161.741   2
  -3 -10   1 1467.25 195.604   4
   3 -10  -1 1654.39 210.042   4
  -3 -10   2 1727.87 209.935   4
   3 -10  -2 1359.25 158.824   9
   3 -10  -2 1501.38 193.385   4
  -3  10  -2 1293.10 151.575  11
   3 -10  -3 668.216 157.242   4
  -3 -10   3 588.157 130.288   4
  -3 -10   4 3705.06 306.934   4
   3 -10  -5 6930.72 398.800   8
  -3 -10   5 7096.35 433.943   4
  -3 -10   6 619.614 146.682   4
   3 -10  -6 702.589 139.648   8
   3 -10  -7 3999.53 324.364   8
  -3 -10   7 4202.47 346.808   4
   3 -10  -8 1255.35 198.058   8
  -3 -10   8 1344.39 207.195   4
   3 -10  -9 675.782 153.627   8
  -3 -10   9 266.893 100.183   4
   3 -10 -10 657.476 157.658   8
  -3 -10  10 758.993 174.145   4
   3 -10 -11 2755.86 314.498   8
  -3 -10  11 2469.13 299.943   4
   3 -10 -12 13.1807 61.0334   8
  -3 -10  12 435.616 142.829   4
  -3 -10  13 698.037 162.458   4
   3 -10 -13 439.795 134.189   8
   3 -11  13 2079.80 307.885   4
   3 -11  12 799.471 197.119   4
   3 -11  11 432.691 172.374   4
   3 -11  10 2236.13 308.385   4
   3 -11   9 405.154 157.937   4
   3 -11   8 3522.51 367.876   4
   3 -11   7 3686.44 362.706   4
   3 -11   6 12432.3 637.818   4
   3 -11   5 160.482 109.823   4
   3 -11   4 2627.63 293.090   4
   3 -11   3 648.375 154.422   4
   3 -11   2 2285.84 268.815   4
   3 -11   1 2562.35 224.170   9
  -3 -11  -1 2586.55 279.016   4
   3 -11   1 2646.06 278.326   4
   3 -11   0 6511.65 351.170   9
  -3 -11   0 7137.94 444.368   4
   3 -11   0 6513.21 430.417   4
   3 -11  -1 2806.79 232.511   9
   3 -11  -1 2799.68 284.814   4
  -3 -11   1 2404.89 262.453   4
  -3 -11   2 1672.94 217.286   4
   3 -11  -2 1988.73 250.456   4
   3 -11  -3 540.201 133.320   4
  -3 -11   3 446.874 133.254   4
   3 -11  -4 2031.36 216.605   8
  -3 -11   4 2558.97 273.507   4
  -3 -11   5 256.517 108.589   4
   3 -11  -5 282.933 90.3287   8
   3 -11  -6 12183.0 553.939   8
  -3 -11   6 12397.5 616.994   4
   3 -11  -7 3194.46 297.172   8
  -3 -11   7 3560.96 341.763   4
   3 -11  -8 3325.08 312.077   8
  -3 -11   8 3380.48 345.743   4
   3 -11  -9 286.267 84.7880   8
  -3 -11   9 141.803 94.8879   4
   3 -11 -10 2174.43 273.032   8
  -3 -11  10 2020.39 275.754   4
   3 -11 -11 443.346 132.568   8
  -3 -11  11 385.971 133.436   4
  -3 -11  12 727.505 169.082   4
   3 -11 -12 488.455 135.967   8
   3 -12  12 68.4713 101.540   4
   3 -12  11 1297.08 246.480   4
   3 -12  10 3928.81 414.968   4
   3 -12   9 1442.63 255.826   4
   3 -12   8 10274.2 634.187   4
   3 -12   7 2785.52 331.205   4
   3 -12   6 2788.63 329.105   4
   3 -12   5 4314.60 395.151   4
   3 -12   4 183.945 122.832   4
   3 -12   3 18139.2 771.618   4
   3 -12   2 685.930 123.966   9
   3 -12   2 1196.51 203.095   4
   3 -12   1 32533.8 804.831   9
  -3 -12  -1 35506.0 1049.13   4
   3 -12   1 34009.2 1027.22   4
   3 -12   0 1217.95 161.954   9
   3 -12   0 1341.41 208.789   4
  -3 -12   0 1203.69 203.674   4
   3 -12  -1 32810.8 801.020   9
   3 -12  -1 35567.2 1057.96   4
  -3 -12   1 34484.6 1024.21   4
   3 -12  -2 851.864 184.487   4
  -3 -12   2 1183.17 197.180   4
   3 -12  -3 19037.6 779.743   4
  -3 -12   3 18664.4 753.540   4
  -3 -12   4 253.732 116.463   4
   3 -12  -4 332.300 92.2377   8
   3 -12  -5 3019.79 273.161   8
  -3 -12   5 3560.20 347.139   4
   3 -12  -6 2698.88 266.325   8
  -3 -12   6 2535.61 308.455   4
  -3 -12   7 2609.87 310.527   4
   3 -12  -7 2677.54 272.437   8
   3 -12  -8 9227.47 514.198   8
  -3 -12   8 9680.37 591.166   4
  -3 -12   9 1247.90 233.121   4
   3 -12  -9 992.893 182.226   8
  -3 -12  10 3560.59 366.170   4
  -3 -12  11 888.093 187.615   4
   3 -13  11 323.196 141.053   4
   3 -13  10 249.065 120.275   4
   3 -13   9 447.428 175.425   4
   3 -13   8 48.1398 114.781   4
   3 -13   7 452.591 170.787   4
   3 -13   6 2466.61 318.168   4
   3 -13   5 2081.07 289.168   4
   3 -13   4-1.12952 111.214   4
   3 -13   3 167.648 124.814   4
   3 -13   2 1458.25 242.642   4
   3 -13   1 1838.49 265.091   4
  -3 -13  -1 2253.54 297.602   4
   3 -13   0 463.852 152.639   4
  -3 -13   0 707.834 178.927   4
   3 -13  -1 2054.78 283.790   4
  -3 -13   1 1871.55 263.684   4
   3 -13  -2 1061.76 206.257   4
  -3 -13   2 1264.89 219.330   4
  -3 -13   3 43.8587 102.880   4
  -3 -13   4 181.479 111.973   4
  -3 -13   5 1846.13 263.915   4
  -3 -13   6 2491.09 314.886   4
  -3 -13   7 314.845 136.483   4
  -3 -13   8 32.7121 72.9601   4
  -3 -13   9 551.339 158.978   4
  -3 -13  10 394.518 143.990   4
  -3 -13  11 377.684 131.134   4
   3 -14  10 137.729 101.644   4
   3 -14   9 975.731 223.925   4
   3 -14   8 2288.83 332.038   4
   3 -14   7 4678.86 455.375   4
   3 -14   6 2618.64 338.820   4
   3 -14   5 8605.64 595.315   4
   3 -14   4 211.733 134.647   4
   3 -14   3 3222.47 365.093   4
   3 -14   2 1047.08 225.863   4
   3 -14   1 7645.71 542.889   4
  -3 -14   0 374.602 120.079   4
   3 -14   0 765.658 173.660   4
   3 -14  -1 7193.03 540.340   4
  -3 -14   1 7443.58 529.513   4
   3 -14  -2 665.816 164.548   4
  -3 -14   2 898.033 190.064   4
  -3 -14   3 2977.10 342.250   4
  -3 -14   4 39.8067 108.151   4
  -3 -14   5 7618.70 542.003   4
  -3 -14   6 2314.55 318.187   4
  -3 -14   7 4298.48 412.591   4
  -3 -14   8 1885.06 281.488   4
  -3 -14   9 1133.96 212.793   4
  -3 -14  10-141.136 99.4481   4
   3 -15   8 1289.97 248.597   4
   3 -15   7 609.160 167.283   4
   3 -15   6 698.789 183.545   4
   3 -15   5 339.651 146.757   4
   3 -15   4 1252.11 241.617   4
   3 -15   3 132.397 93.0270   4
   3 -15   2 7260.78 548.695   4
   3 -15   1 14.2312 90.2639   4
  -3 -15   0 10680.1 669.396   4
   3 -15   0 11486.1 689.759   4
   3 -15  -1 147.717 93.3620   4
  -3 -15   1 106.391 99.3485   4
  -3 -15   2 6053.01 497.665   4
  -3 -15   3 295.154 142.111   4
  -3 -15   4 680.552 180.444   4
  -3 -15   5 190.621 112.060   4
  -3 -15   6 346.679 132.131   4
  -3 -15   7 485.656 167.471   4
  -3 -15   8 1134.45 223.389   4
   3 -16   7 116.988 81.1890   4
   3 -16   6 182.894 109.958   4
   3 -16   5 190.908 115.907   4
   3 -16   4 11.9596 83.5635   4
   3 -16   3 1009.41 232.065   4
   3 -16   2 1151.04 248.561   4
   3 -16   1 125.543 100.046   4
   3 -16   0 99.8373 107.677   4
  -3 -16   1 244.335 112.631   4
   3 -16  -1 584.634 177.532   4
  -3 -16   2 1298.06 245.269   4
  -3 -16   3 776.770 194.592   4
  -3 -16   4 81.9965 91.5312   4
  -3 -16   5 74.4981 81.0840   4
  -3 -16   6 296.809 130.749   4
  -3 -16   7 158.020 85.7463   4
   3 -17   4 1536.51 271.933   4
   3 -17   3 885.048 215.904   4
   3 -17   2 2560.82 343.884   4
   3 -17   1 411.436 143.534   4
   3 -17   0 4466.43 448.170   4
  -3 -17   2 2576.49 345.072   4
  -3 -17   3 506.314 157.166   4
  -3 -17   4 1248.81 245.902   4
   4   0   0 36357.7 464.085  11
  -4   0   0 37471.8 479.000  11
   4   0   0 36084.6 382.316   3
   4   0   1 25847.0 417.184  11
   4   0  -1 26347.9 393.639   9
   4   0  -1 25244.3 376.768   1
   4   0  -1 26089.8 386.881   3
   4   0  -1 27263.6 434.412   7
  -4   0   1 26084.0 383.739  11
   4   0  -2 7213.81 232.991   3
   4   0   2 6614.07 250.077  10
   4   0  -2 6454.12 105.769  10
   4   0  -2 6865.80 211.616   9
   4   0   2 6758.96 230.484  11
  -4   0   2 6518.34 224.448   3
   4   0  -2 6703.94 222.687   7
   4   0  -3 2861.63 87.7942  10
  -4   0   3 3090.91 121.271   1
   4   0   3 3316.90 193.633  10
  -4   0  -3 3146.51 163.894   5
   4   0   3 3202.11 173.110  11
   4   0   4 36756.0 692.276  10
   4   0  -4 37021.4 407.483   2
  -4   0   4 38682.3 357.896  10
  -4   0   4 36896.4 423.315   1
   4   0  -4 35171.4 402.480  10
   4   0   4 36946.7 634.120  11
  -4   0  -4 37148.4 608.395   5
   4   0  -4 37366.7 606.390   8
  -4   0  -4 37741.3 431.104   6
  -4   0   5 409.986 46.9208  10
  -4   0  -5 408.838 56.7734   6
   4   0   5 423.216 80.6158  11
  -4   0  -5 370.375 77.8550  11
   4   0  -5 329.283 53.7586  10
   4   0   5 414.408 87.8016  10
  -4   0  -5 399.479 73.2989   5
   4   0  -5 439.886 79.9761   8
  -4   0   5 465.807 90.2047   3
  -4   0   5 427.052 68.2588  11
   4   0  -5 430.309 48.4189   2
  -4   0  -6 38021.1 591.196   6
  -4   0  -6 38771.6 722.555   5
   4   0  -6 39194.9 736.479   8
  -4   0   6 38640.6 670.213  11
  -4   0   6 39019.2 509.467  10
  -4   0   6 38510.7 785.987   3
  -4   0  -6 39802.2 797.614  11
   4   0   6 38888.8 806.893  10
   4   0   6 39331.3 750.152  11
  -4   0  -7 13646.7 505.475  11
   4   0   7 13267.2 466.719  11
  -4   0   7 12473.4 403.743  11
   4   0   7 13408.0 502.460  10
  -4   0   7 13324.6 336.338  10
   4   0  -7 12819.4 456.584   8
  -4   0  -7 12942.1 388.401   6
  -4   0   7 12958.8 489.400   3
  -4   0  -7 13358.3 460.154   5
  -4   0   8 94.1300 46.3588  11
  -4   0  -8 99.5979 48.9412   6
   4   0  -8 109.574 80.7738   8
  -4   0   8 35.9442 27.6022  10
  -4   0  -8 27.6542 63.8749   5
   4   0   8 74.2647 41.1221   3
  -4   0  -9 1304.93 153.445   6
   4   0   9 1146.47 137.631   3
  -4   0  -9 1229.83 172.115   5
   4   0  -9 1032.67 156.332   8
  -4   0   9 1055.51 136.126  11
  -4   0 -10 51.9622 49.1840   6
  -4   0 -10 131.096 82.4042   5
   4   0 -10 266.309 98.3823   8
  -4   0 -11 643.379 128.602   6
   4   0 -11 608.133 159.078   6
   4   0 -11 838.646 169.464   8
  -4   0 -12 1285.38 180.834   6
   4   0 -12 1419.20 238.522   6
   4   0 -12 1524.57 229.047   8
  -4   0 -13 2690.57 275.823   6
   4   0 -13 2239.12 297.847   6
   4   0 -14 310.117 135.290   6
   4   0 -15 401.872 148.747   6
   4   0 -16 282.086 136.714   6
   4   1 -16 327.438 138.072   6
   4  -1  16-112.039 115.397   4
   4   1 -15 1960.36 299.721   6
   4   1 -14 306.179 132.924   6
   4   1 -13 647.152 166.763   6
  -4  -1 -12 584.365 130.142   6
   4   1 -11 2050.78 245.233   8
  -4  -1 -11 1909.38 210.986   6
  -4  -1 -10 7959.48 430.445   5
   4   1 -10 7871.49 439.327   8
  -4  -1 -10 7267.33 387.092   6
  -4  -1  -9 9960.76 455.757   5
  -4   1   9 9767.19 434.629  11
  -4  -1  -9 10799.2 432.476   6
   4   1  -9 10347.2 468.622   8
   4  -1   9 9095.38 373.504   3
  -4  -1  -8 1070.19 128.267   6
  -4   1   8 995.719 133.595  11
  -4  -1  -8 1121.92 150.002   5
   4   1  -8 1184.31 152.998   8
   4  -1   8 1020.38 116.376   3
   4  -1   8 1192.82 145.286  11
  -4   1   8 1190.47 109.591  10
  -4  -1  -7 21234.9 504.048   6
   4  -1   7 21442.4 578.902  11
  -4  -1  -7 21859.5 644.242  11
   4  -1   7 20154.7 470.902   3
   4  -1   7 22453.3 647.355  10
  -4  -1  -7 21563.0 571.049   5
  -4   1   7 22197.8 416.452  10
  -4   1   7 21260.6 634.916   3
   4   1  -7 21043.8 517.118  10
   4   1  -7 21941.1 584.207   8
  -4   1   7 21224.2 566.985  11
   4  -1   6 3517.49 221.912  11
  -4  -1  -6 3435.76 238.437  11
  -4   1   6 3551.55 217.452  11
  -4   1   6 3592.15 145.315  10
   4  -1   6 3801.83 253.142  10
   4   1  -6 3345.55 212.726   8
   4  -1   6 3402.49 171.746   3
  -4   1   6 3495.59 240.860   3
  -4  -1  -6 3522.18 183.923   6
  -4  -1  -6 3501.79 216.309   5
   4  -1   5 15604.5 475.208  10
  -4  -1  -5 16274.9 479.507  11
   4   1  -5 15216.5 412.492   8
  -4   1   5 15452.0 425.612  11
  -4  -1  -5 15103.1 411.007   5
   4   1  -5 14637.6 334.680  10
   4  -1   5 15453.8 316.298   3
  -4   1   5 15136.7 463.069   3
  -4  -1  -5 15553.4 344.593   6
  -4   1   5 16002.0 255.244  10
   4  -1   5 15672.0 437.063  11
   4  -1   4 6653.66 170.503   3
  -4   1   4 6415.52 275.525   3
   4  -1   4 6857.30 271.221  11
  -4   1   4 6623.67 120.124  10
   4   1  -4 6469.93 192.631  10
   4  -1   4 6626.79 286.413  10
  -4  -1  -4 6456.99 250.643   5
   4   1  -4 6750.63 247.236   8
   4  -1   3 71201.3 810.273  11
   4   1  -3 68472.9 546.405  10
   4  -1   3 68931.5 847.485  10
  -4  -1  -3 69521.0 744.365   5
   4  -1   3 68370.5 408.609   3
  -4   1   3 68741.9 674.026   1
   4   1  -3 70717.3 837.098   3
   4   1  -3 70140.5 710.133   8
   4   1  -3 69117.9 770.814   7
   4  -1   2 8124.66 257.000  11
   4   1  -2 8309.76 160.642   1
   4   1  -2 8446.28 175.422  10
   4  -1   2 8261.10 261.661  10
  -4   1   2 8133.66 235.664   1
  -4  -1  -2 8022.06 256.981  11
  -4   1   2 8151.18 247.068   3
   4   1  -2 8677.60 265.070   3
   4   1  -2 8477.51 254.859   7
  -4   1   1 93729.6 799.862  11
   4  -1   1 91462.1 810.943  11
   4  -1   1 94214.7 762.250  10
   4   1  -1 92986.8 650.470   9
  -4   1   1 91029.2 695.410   3
  -4  -1  -1 91693.3 771.235  11
   4   1  -1 91932.7 776.435   3
   4  -1   0 10.2769 14.5694  10
  -4   1   0 3.52525 12.6529   3
   4   1   0 9.86903 19.6720  11
   4  -1   0 4.69903 26.5669   1
  -4  -1   0 16.7886 19.2269  11
   4  -1  -1 92839.1 800.074   1
   4  -1  -1 96238.4 791.911   7
   4  -1  -1 95514.6 835.002   9
  -4  -1   1 96969.1 676.500  11
   4   1   1 95501.1 782.741  11
   4  -1  -1 95721.7 649.031   6
  -4  -1   2 8672.71 196.799  11
   4  -1  -2 8636.45 257.733   9
   4  -1  -2 8667.45 254.721   7
   4   1   2 9075.40 266.891  11
   4   1   3 72679.6 831.371  11
  -4  -1   3 73339.2 553.906  10
   4   1   4 6106.51 261.631  11
   4   1   4 6145.67 299.131  10
  -4  -1   4 6035.42 173.336  10
  -4   1  -4 6008.77 252.160   5
   4  -1  -4 6060.61 257.890   8
   4   1   5 15035.7 440.639  11
  -4   1  -5 15146.9 451.074  11
  -4  -1   5 15546.7 308.041  10
  -4   1  -5 14946.9 420.259   5
  -4  -1   5 14954.4 347.178  11
   4  -1  -5 14767.7 329.439   2
   4  -1  -5 14820.2 431.282   8
   4   1   5 14926.9 490.922  10
  -4  -1   5 14405.6 208.565   1
  -4  -1   5 14981.7 464.913   3
   4   1   6 3888.32 241.276  11
  -4  -1   6 3802.00 171.208  10
  -4   1  -6 3669.37 239.419  11
  -4  -1   6 3674.16 187.421  11
   4  -1  -6 3573.95 170.789   2
  -4   1  -6 3532.97 225.391   5
   4   1   6 3574.68 255.294  10
   4  -1  -6 3560.77 231.646   8
  -4  -1   6 3913.06 255.340   3
  -4  -1   7 21750.3 495.788  11
  -4   1  -7 21554.6 590.377   5
  -4   1  -7 21600.7 626.789  11
  -4  -1   7 21003.5 629.133   3
  -4  -1   7 21829.8 452.021  10
   4  -1  -7 21492.7 605.584   8
   4   1   7 22739.8 663.319  10
   4   1   7 22089.8 608.081  11
  -4  -1   8 1215.52 126.236  11
  -4   1  -8 1247.12 162.608  11
  -4  -1   8 1243.38 118.197  10
  -4   1  -8 1226.13 155.231   5
   4  -1  -8 1155.45 156.775   8
  -4   1  -9 11351.5 488.490   5
   4   1   9 9403.03 401.478   3
   4  -1  -9 10600.8 489.303   8
   4  -1  -9 10488.9 512.189   6
  -4   1  -9 10595.5 422.761   6
  -4   1 -10 7515.43 430.507   5
   4  -1 -10 7315.21 459.219   6
   4  -1 -10 7227.17 432.575   8
  -4   1 -10 7293.24 380.250   6
   4  -1 -11 1556.66 236.737   6
  -4   1 -11 1541.22 187.937   6
   4  -1 -11 1734.41 230.480   8
  -4   1 -12 453.857 106.607   6
   4  -1 -12 433.559 144.992   6
   4  -1 -12 617.807 157.973   8
   4  -1 -13 523.111 141.802   6
   4  -1 -13 856.007 181.078   8
   4  -1 -14 495.230 174.646   6
   4  -1 -15 2325.10 337.078   6
   4  -1 -16 294.389 126.134   6
   4   2 -16 214.093 140.812   6
   4  -2  16 202.376 127.565   4
   4   2 -15 743.873 198.527   6
   4  -2  15 913.500 248.032   4
   4   2 -14 1478.59 263.243   6
   4   2 -10 5362.11 358.551   8
  -4  -2  -9 12933.6 483.935   6
   4   2  -9 12408.4 509.036   8
   4   2  -9 10454.1 454.456  10
  -4  -2  -9 12340.2 495.832   5
  -4  -2  -8 8002.61 352.785   6
   4  -2   8 7691.53 363.980  11
  -4   2   8 7253.38 372.293  11
  -4  -2  -8 7531.42 359.088   5
  -4   2   8 7958.83 274.273  10
   4   2  -8 6756.18 335.606  10
   4   2  -8 7439.77 367.168   8
   4  -2   8 7408.55 300.772   3
  -4   2   7 356.576 93.5440   3
   4  -2   7 417.955 68.0528   3
   4  -2   7 460.136 88.3427  11
  -4  -2  -7 518.446 106.892  11
  -4   2   7 377.999 89.1233  11
  -4   2   7 408.864 56.7989  10
   4  -2   7 481.596 99.6535  10
   4   2  -7 387.759 76.0009  10
  -4  -2  -7 420.938 89.9244   5
   4   2  -7 439.764 86.7488   8
   4  -2   6 21102.3 584.435  10
  -4  -2  -6 21168.9 602.112  11
   4   2  -6 19384.6 465.717  10
  -4   2   6 21532.5 571.453  11
  -4   2   6 21248.8 351.540  10
  -4   2   6 21188.9 594.212   3
   4  -2   6 21163.6 402.761   3
   4   2  -6 20851.8 514.267   8
   4  -2   6 20514.9 529.686  11
  -4  -2  -6 20956.3 517.192   5
  -4   2   5 1585.32 79.6221  10
   4  -2   5 1540.76 150.177  10
  -4  -2  -5 1502.57 130.424   5
   4  -2   5 1493.88 91.0195   3
  -4   2   5 1535.16 149.358   3
   4   2  -5 1586.78 155.611   3
   4   2  -5 1653.22 134.822   8
   4  -2   5 1544.04 139.448  11
  -4  -2  -5 1499.82 153.687  11
   4  -2   4 24258.6 544.273  10
  -4  -2  -4 23000.3 454.654   5
  -4  -2  -4 24207.0 556.716  11
   4   2  -4 22884.5 412.131  10
  -4   2   4 21754.6 214.608  10
   4   2  -4 23583.2 444.203   8
   4   2  -4 25619.7 571.427   3
   4  -2   4 23804.1 510.878  11
  -4   2   3 25088.3 464.751   1
   4  -2   3 26182.7 511.910  10
  -4  -2  -3 25112.6 433.166   5
   4  -2   3 26381.2 502.387  11
   4   2  -3 26961.6 416.449   8
   4   2  -3 26119.1 529.327   3
   4   2  -3 25879.3 473.663   7
   4   2  -3 24566.0 390.472  10
  -4  -2  -3 26213.0 520.437  11
  -4  -2  -2 21560.5 428.001  11
   4   2  -2 21046.9 338.361  10
   4   2  -2 18374.4 189.719   2
   4  -2   2 20948.4 410.244  10
   4   2  -2 21071.5 441.955   3
   4   2  -2 19608.4 214.079   1
   4   2  -2 21041.9 315.638   8
   4   2  -2 21163.0 406.100   7
  -4   2   2 20218.0 418.059   1
   4  -2   2 20546.9 418.878  11
   4   2  -1 133054. 712.950  11
   4  -2   1 131535. 887.177   4
   4  -2   1 130157. 883.019  10
   4   2  -1 129784. 871.095  10
  -4   2   1 129945. 618.005  10
  -4  -2  -1 132091. 939.279  11
   4  -2   1 131429. 1126.98   1
   4  -2   1 132241. 1038.33  11
  -4   2   1 129436. 1079.53   1
   4  -2   0 3290.57 120.397   4
   4  -2   0 3205.59 115.182  10
  -4   2   0 3355.46 131.995  10
  -4   2   0 3178.82 104.243   3
   4   2   0 3415.95 131.128  11
  -4  -2   0 3290.71 130.119  11
   4  -2   0 3237.94 171.807   1
   4   2   1 132559. 927.327  11
   4  -2  -1 129093. 521.847  10
  -4   2  -1 131418. 988.320  10
  -4  -2   1 130803. 711.666  11
   4  -2  -1 130553. 721.487   4
   4  -2  -1 131459. 922.992   7
  -4  -2   2 20904.6 256.187  11
   4  -2  -2 21197.7 385.745   6
   4   2   2 20764.0 411.248  11
   4  -2  -2 20789.1 430.046   9
  -4   2  -2 20685.0 448.808  10
   4  -2  -2 20591.3 390.891   7
  -4  -2   2 20557.7 274.726   4
   4   2   3 26158.5 506.343  11
  -4  -2   3 25831.0 353.713   4
  -4  -2   3 26144.8 398.103  10
  -4   2  -3 26114.8 564.007  10
   4  -2  -3 25634.4 501.644   9
  -4   2  -3 26484.1 344.512  12
  -4  -2   3 26679.1 294.823  11
   4  -2  -3 26709.0 492.957   6
  -4   2  -4 23767.0 523.987  11
   4   2   4 24743.3 536.253  11
  -4  -2   4 24724.4 337.771  11
  -4  -2   4 23780.3 398.946  10
  -4  -2   4 23359.5 402.325   4
  -4   2  -4 23480.9 504.813   5
   4  -2  -4 23703.1 524.069   6
  -4   2  -4 24766.0 609.054  10
   4   2   5 1905.27 165.747  11
  -4   2  -5 1906.31 160.547  11
   4  -2  -5 1820.31 163.728   6
  -4  -2   5 1726.99 116.222  10
  -4   2  -5 1752.16 182.998  10
   4   2   5 1836.63 184.942  10
  -4  -2   5 1967.60 108.442  11
  -4   2  -5 1893.94 157.837   5
   4  -2  -5 1914.36 162.906   8
  -4  -2   5 1556.45 131.008   4
   4  -2  -5 1884.83 135.772   2
  -4  -2   5 1821.97 168.680   3
   4  -2  -6 20556.7 575.762   6
  -4   2  -6 21803.8 587.253  11
  -4  -2   6 22201.1 402.652  11
  -4   2  -6 20603.5 542.410   5
   4   2   6 20691.5 555.299   2
  -4  -2   6 21535.2 440.677  10
  -4  -2   6 17660.9 474.771   4
   4   2   6 22613.3 657.876  10
  -4   2  -6 22386.1 692.214  10
   4  -2  -6 21051.5 463.822   2
   4  -2  -6 20767.7 564.557   8
   4   2   6 22353.3 589.928  11
  -4  -2   6 21291.9 603.621   3
  -4  -2   7 479.108 69.7264  11
  -4   2  -7 484.590 96.0717  11
  -4  -2   7 373.936 89.1002   3
  -4  -2   7 454.380 73.3377  10
   4  -2  -7 433.123 103.738   6
  -4   2  -7 470.130 101.031   5
   4   2   7 450.186 93.4335  11
   4   2   7 383.358 85.9624   2
   4  -2  -7 406.888 97.6030   8
   4   2   7 506.733 110.898  10
  -4   2  -8 7611.46 398.611  11
   4  -2  -8 7722.26 419.125   6
  -4  -2   8 7551.35 281.632  11
  -4  -2   8 7276.65 302.717  10
  -4   2  -8 8435.63 398.144   5
   4  -2  -8 7257.48 388.177   8
   4  -2  -9 12647.6 567.179   6
  -4   2  -9 13614.7 544.483   5
   4  -2  -9 12660.8 542.852   8
   4  -2 -10 5779.94 413.681   6
   4  -2 -10 5946.06 395.673   8
  -4   2 -10 5884.46 381.932   5
  -4   2 -11 2934.10 262.067   6
  -4  -2  11 2630.30 295.506   4
   4  -2 -11 3398.77 324.680   8
  -4   2 -11 3780.45 322.475   5
   4  -2 -11 3544.02 342.298   6
   4  -2 -12 2387.66 305.160   6
   4  -2 -12 2421.55 290.266   8
  -4  -2  12 2544.87 274.781   4
  -4   2 -12 2249.91 242.480   6
   4  -2 -13 752.305 192.497   6
  -4  -2  13 679.210 165.183   4
   4  -2 -13 866.973 189.040   8
   4  -2 -14 1254.29 235.230   6
   4  -2 -15 1031.10 222.378   6
   4  -2 -16 41.2091 77.3305   6
   4   3 -16 218.845 120.928   6
   4  -3  16 153.630 133.385   4
   4   3 -15-137.231 131.344   6
   4  -3  15-107.944 110.615   4
   4  -3  14 1733.81 288.486   4
   4  -3  13 261.803 143.922   4
  -4   3  10 2671.26 225.946  12
   4   3  -9 2644.48 237.463  10
  -4   3   9 2379.50 210.759  12
   4  -3   8 9606.97 407.739  11
   4   3  -8 8409.08 387.093  10
   4   3  -8 9806.62 417.071   8
  -4  -3  -8 10197.0 416.664   5
   4  -3   7 27419.8 651.290  11
  -4  -3  -7 26433.9 618.886   5
  -4  -3  -7 28123.3 770.690  11
  -4   3   7 27849.6 724.714  11
   4  -3   7 27249.0 714.065  10
  -4   3   7 27680.4 471.860  10
   4   3  -7 24935.1 612.352  10
   4   3  -7 27134.5 634.774   8
   4   3  -6 3161.00 239.963   3
  -4   3   6 3078.22 231.885  11
   4  -3   6 3272.70 232.447  10
   4   3  -6 2963.00 196.581  10
  -4   3   6 3222.29 145.558  10
  -4  -3  -6 3502.58 253.611  11
   4   3  -6 3262.47 205.452   8
   4  -3   6 2985.58 205.077  11
  -4  -3  -6 2923.88 188.027   5
  -4  -3  -5 26397.2 641.533  11
   4  -3   5 26173.0 617.283  10
   4   3  -5 24743.5 515.411  10
  -4   3   5 26697.6 363.033  10
   4   3  -5 25492.1 506.776   8
   4   3  -5 26777.8 651.696   3
   4  -3   5 25805.4 569.626  11
  -4  -3  -5 24601.1 501.155   5
   4  -3   4 5482.33 263.426  10
  -4   3   4 5121.79 121.366  10
  -4  -3  -4 5168.04 210.343   5
   4   3  -4 5181.17 201.963   8
   4   3  -4 5510.38 275.814   3
  -4   3   4 5079.62 139.772  10
  -4  -3  -4 5227.71 263.725  11
   4  -3   4 5291.58 242.924  11
   4  -3   3 5689.95 257.599   4
  -4  -3  -3 5427.45 247.742  11
  -4   3   3 5574.77 111.150  10
   4  -3   3 5984.73 252.420  10
  -4  -3  -3 5535.14 194.331   5
   4   3  -3 5921.16 186.797   8
   4   3  -3 5901.72 267.175   3
   4  -3   3 5772.02 276.557   1
   4   3  -3 5562.66 221.383   7
   4  -3   3 5789.20 243.586  11
  -4  -3  -2 39553.2 604.904  11
   4   3  -2 40006.3 544.376  10
   4  -3   2 40101.7 579.980  10
  -4  -3  -2 39860.2 472.350   5
  -4   3   2 39824.6 323.680  10
   4  -3   2 40820.8 602.017   4
  -4   3   2 39880.6 644.909   1
   4  -3   2 39474.1 615.455  11
   4   3  -2 40674.8 393.065   8
   4   3  -2 41014.0 665.493   3
   4  -3   2 40132.2 693.522   1
   4   3  -2 39754.2 561.830   7
   4   3  -1 27874.7 305.879  11
  -4  -3  -1 27282.2 444.746  11
   4  -3   1 27020.3 443.796   4
   4   3  -1 27013.6 449.206  10
  -4   3   1 26561.3 536.471   1
   4  -3   1 27736.9 425.507  10
  -4   3   1 27538.8 328.051  10
   4   3  -1 27598.5 344.911   2
   4  -3   1 26791.6 545.122   1
   4  -3   0 405.265 45.1596  10
  -4   3   0 402.329 50.5536  10
   4  -3   0 497.004 58.7527   4
   4  -3   0 536.089 80.9790   1
   4  -3   0 701.714 62.9322   7
  -4  -3   0 396.030 52.3258   4
  -4  -3   0 361.958 47.9748  11
   4   3   0 446.581 54.6975   2
   4   3   0 446.416 48.9204  11
  -4   3  -1 27436.3 465.392  10
   4   3   1 28234.2 440.020  11
   4   3   1 28057.3 461.312   2
   4  -3  -1 27609.0 315.515  10
  -4  -3   1 27617.4 391.948   4
   4  -3  -1 27555.5 416.990   7
   4  -3  -1 28115.4 411.910   4
  -4  -3   1 27822.9 312.287  11
  -4   3  -1 27191.5 463.775  12
  -4   3  -2 40678.3 636.798  10
   4  -3  -2 39195.7 636.957   9
   4  -3  -2 40356.9 506.132   4
   4   3   2 41094.3 595.558  11
  -4   3  -2 40469.1 526.536  12
  -4  -3   2 40074.4 472.791   4
  -4  -3   3 6224.22 195.744   4
   4   3   3 6157.34 255.990  11
  -4   3  -3 6252.53 280.823  10
  -4  -3   3 6047.94 222.935  10
   4  -3  -3 6000.32 258.168   9
   4   3   3 6330.11 266.080   2
   4  -3  -3 6176.28 250.322   6
  -4   3  -3 6180.62 187.883  12
  -4   3  -3 6240.38 261.339  11
   4   3   4 5007.97 251.357  11
  -4   3  -4 5077.12 247.123  11
  -4  -3   4 5151.02 198.370   4
  -4   3  -4 5301.63 284.660  10
   4   3   4 4753.73 248.719   2
  -4   3  -4 4871.59 237.101   5
  -4  -3   4 5015.46 207.863  10
  -4  -3   4 3971.20 75.3506  11
   4  -3  -4 5067.58 251.481   6
   4  -3  -5 23231.9 519.091   2
  -4   3  -5 24548.9 577.831  11
   4   3   5 25866.2 613.945  11
  -4  -3   5 22617.4 261.828  11
  -4  -3   5 22612.9 477.158   4
  -4  -3   5 24907.1 483.362  10
  -4   3  -5 24430.9 558.618   5
   4   3   5 24789.7 600.865   2
  -4   3  -5 26817.0 703.540  10
   4  -3  -5 25133.6 601.954   8
   4  -3  -5 25500.4 608.602   6
  -4  -3   6 3012.89 178.986  10
   4   3   6 3105.93 226.821  11
  -4   3  -6 3083.00 220.978  11
  -4  -3   6 2645.75 185.464   4
   4  -3  -6 2862.69 219.011   8
  -4   3  -6 2804.25 206.100   5
   4   3   6 2950.60 248.635  10
   4   3   6 2975.11 221.929   2
   4  -3  -6 3067.36 232.056   6
   4  -3  -6 2807.44 189.767   2
  -4  -3   6 2859.81 115.217  11
  -4   3  -6 3179.31 265.275  10
   4  -3  -7 27051.2 731.999   6
  -4  -3   7 25484.5 397.346  11
   4   3   7 26580.4 708.962  11
   4  -3  -7 27183.2 711.770   8
  -4  -3   7 25739.2 553.275  10
  -4  -3   7 25697.9 619.549   4
  -4   3  -7 26409.9 668.010   5
   4   3   7 27012.7 782.540  10
  -4   3  -7 28595.1 851.182  10
   4  -3  -7 25375.6 583.361   2
   4   3   7 26609.6 700.209   2
  -4   3  -7 26689.0 691.734  11
   4  -3  -8 9725.46 474.220   6
  -4  -3   8 9248.69 362.290  10
  -4   3  -8 9348.94 423.655   5
   4  -3  -8 9830.40 460.832   8
  -4  -3   8 8616.13 408.039   4
  -4   3  -8 9383.08 435.831  11
  -4  -3   9 2328.03 193.586  10
  -4   3  -9 2373.70 231.565   5
  -4  -3   9 2167.23 212.764   4
   4  -3  -9 2224.20 237.411   8
   4  -3  -9 2337.80 251.984   6
  -4   3 -10 2597.73 268.421   5
  -4  -3  10 2315.52 238.377   4
   4  -3 -10 2887.59 290.943   8
   4  -3 -10 2580.97 287.174   6
   4  -3 -11 1980.69 276.025   6
  -4   3 -11 1882.82 249.058   5
   4  -3 -11 2200.32 267.945   8
  -4  -3  11 1806.86 228.781   4
   4  -3 -12 3534.74 370.363   6
  -4  -3  12 3166.07 310.681   4
   4  -3 -12 4380.58 389.431   8
  -4   3 -12 3172.40 290.600   6
   4  -3 -13 155.227 101.938   6
  -4  -3  13 394.060 147.389   4
   4  -3 -13 287.318 133.247   8
   4  -3 -14 1834.55 293.711   6
   4  -3 -14 1727.72 273.701   8
   4  -4  16 1158.75 251.961   4
   4   4 -16 1475.66 269.651   6
   4   4 -15 205.577 117.206   6
   4  -4  15 114.659 123.624   4
   4  -4  14 895.627 225.078   4
   4  -4  13 94.0403 107.029   4
   4  -4  12 2739.25 346.995   4
   4  -4  11 5266.66 470.719   4
   4  -4  10 10554.6 626.842   4
  -4   4  10 10606.7 457.024  12
   4  -4   9 30486.8 953.944   4
  -4   4   9 28470.0 740.311  12
   4   4  -8 3550.46 265.314  10
   4  -4   8 3802.15 256.868  11
   4  -4   8 3845.04 322.487   4
  -4   4   8 3767.64 264.898  12
  -4   4   7 3164.97 172.609  10
  -4   4   7 3118.65 259.752  11
   4  -4   7 2669.26 267.147   4
   4   4  -7 2588.95 211.675  10
   4  -4   7 3134.55 221.420  11
  -4   4   7 2778.84 227.320  12
  -4  -4  -7 2949.53 203.749   5
   4  -4   6 2119.18 174.218  11
  -4  -4  -6 1796.56 187.433  11
  -4  -4  -6 2059.33 155.741   5
   4  -4   6 2083.04 189.826  10
   4  -4   6 2121.11 207.882   4
   4   4  -6 2043.80 171.742  10
  -4   4   6 2040.88 127.697  10
  -4   4   6 2007.33 196.557  11
   4   4  -6 2218.83 207.490   3
   4  -4   6 2081.11 197.070   1
  -4  -4  -5 3683.18 188.320   5
   4   4  -5 4027.33 224.469  10
  -4   4   5 4303.96 177.495  10
   4  -4   5 4187.85 251.291  10
  -4  -4  -5 3980.57 260.324  11
   4  -4   5 4276.12 269.102   1
   4   4  -5 4526.28 278.700   3
   4  -4   5 3986.18 225.647  11
   4  -4   5 4319.99 272.031   4
  -4   4   5 3981.18 142.713  10
  -4  -4  -4 3238.16 159.337   5
  -4   4   4 3094.48 115.827  10
   4   4  -4 3389.47 192.352  10
   4  -4   4 3296.14 208.180  10
   4   4  -4 3094.04 151.849   8
   4  -4   4 2950.46 213.781   4
   4  -4   4 3466.67 234.590   1
  -4  -4  -4 3346.69 219.396  11
   4   4  -4 3133.62 222.958   3
   4  -4   4 2914.45 184.520  11
  -4  -4  -3 18943.0 343.211   5
  -4  -4  -3 19247.3 482.724  11
   4  -4   3 18877.3 476.782   4
  -4   4   3 19491.3 282.335  10
   4   4  -3 19137.2 437.732  10
   4  -4   3 20038.8 537.604   1
   4  -4   3 19998.2 471.217  10
   4   4  -3 18761.4 406.713   7
   4  -4   3 19053.5 459.813  11
   4   4  -3 20277.0 530.747   3
   4  -4   2 24457.0 496.851   4
  -4  -4  -2 23417.1 483.387  11
   4  -4   2 24228.3 474.653  10
  -4   4   2 23080.8 539.839   1
  -4  -4  -2 22825.0 334.057   5
   4  -4   2 24313.9 569.001   1
   4   4  -2 24156.2 443.246   7
  -4   4   2 24209.0 330.102  10
   4   4  -1 47508.1 396.491  11
   4  -4   1 46088.3 635.105   4
  -4  -4  -1 45715.8 604.716  11
   4  -4   1 46048.3 592.811  10
   4  -4   1 47272.3 767.130   1
  -4   4   1 47195.2 510.681  10
   4  -4   1 43886.8 469.820   7
  -4   4   1 44218.0 704.798  12
  -4   4   1 44832.0 762.999   1
   4   4   0 4861.44 166.044  11
   4  -4   0 4649.03 171.107  10
  -4  -4   0 5095.24 171.982  11
  -4   4   0 4921.72 184.898  10
  -4  -4   0 4947.53 200.875   4
   4   4   0 5122.77 225.478  10
  -4   4   0 4695.23 219.044  12
   4  -4   0 5213.41 166.451   7
   4  -4   0 4914.23 202.996   4
   4   4   1 47179.4 595.428  11
   4  -4  -1 47765.0 504.327  10
  -4   4  -1 46119.9 638.277  10
  -4  -4   1 47871.2 420.632  11
  -4   4  -1 45930.2 654.055  12
  -4  -4   1 46582.4 599.681   4
   4  -4  -1 48132.2 631.974   4
   4   4   2 24217.3 479.491  11
  -4   4  -2 25473.1 527.755  10
   4  -4  -2 24823.7 534.056   9
  -4   4  -2 24999.9 530.434  11
  -4   4  -2 24413.5 449.039  12
   4   4   2 25114.5 516.481   2
   4  -4  -2 24568.4 456.606   4
  -4  -4   2 25264.7 440.408   4
   4   4   3 19201.2 488.930   2
   4   4   3 19116.1 469.881  11
  -4  -4   3 18953.7 434.938  10
  -4   4  -3 18785.6 470.886  11
   4  -4  -3 18581.9 476.488   9
  -4   4  -3 19627.3 509.233  10
  -4   4  -3 17818.8 260.228   3
  -4   4  -3 18611.5 363.047  12
  -4  -4   3 18996.3 393.294   4
  -4   4  -4 3288.64 207.392  11
  -4  -4   4 3019.85 165.764   4
  -4  -4   4 3149.88 184.112  10
   4   4   4 3100.89 206.211  11
  -4   4  -4 3030.07 220.875  10
  -4   4  -4 3287.90 201.140   5
   4   4   4 3351.26 220.174   2
  -4   4  -5 4131.81 280.711  10
   4  -4  -5 3650.44 245.238   6
  -4   4  -5 3887.51 235.920  11
   4   4   5 4031.72 252.725  11
  -4  -4   5 3642.97 199.469   4
  -4  -4   5 3802.23 206.875  10
  -4   4  -5 3829.15 229.234   5
   4   4   5 3978.34 253.186   2
   4  -4  -5 3655.95 241.674   8
   4   4   6 2087.67 195.230  11
  -4  -4   6 2073.84 166.926   4
  -4  -4   6 1998.02 158.752  10
  -4   4  -6 1927.61 173.510   5
  -4   4  -6 1721.17 166.195  11
  -4   4  -6 2090.34 216.656  10
   4  -4  -6 1981.55 189.944   8
   4   4   6 1939.92 185.432   2
   4  -4  -6 1935.21 170.898   2
   4  -4  -6 2166.01 202.420   6
   4  -4  -7 3346.92 269.975   6
   4  -4  -7 2791.05 241.421   8
  -4   4  -7 2924.40 230.977  11
  -4  -4   7 2733.28 210.635   4
  -4  -4   7 3233.99 212.701  10
   4  -4  -7 3161.34 224.920   2
  -4   4  -7 3302.97 242.772   5
   4  -4  -8 4302.25 321.176   8
  -4   4  -8 3740.50 275.871  11
  -4  -4   8 4155.41 271.993   4
   4  -4  -8 3911.75 256.050   2
  -4   4  -8 4385.49 298.481   5
   4  -4  -8 4244.07 332.988   6
  -4  -4   8 3668.39 240.791  10
  -4  -4   9 29472.3 771.265   4
  -4   4  -9 30992.1 826.254   5
   4  -4  -9 30527.8 876.817   8
   4  -4  -9 31082.5 943.286   6
   4  -4 -10 11466.4 615.314   6
  -4  -4  10 10422.7 488.373   4
   4  -4 -10 10418.6 562.966   8
  -4   4 -10 11764.1 552.472   5
  -4  -4  11 5622.20 373.046   4
  -4   4 -11 5285.65 401.734   5
   4  -4 -11 5771.08 455.372   6
   4  -4 -11 5087.07 435.210   8
  -4  -4  12 2895.30 284.640   4
   4  -4 -12 3204.25 339.129   8
   4  -4 -12 3298.00 359.968   6
  -4  -4  13-40.7606 71.3995   4
   4  -4 -13 199.947 117.407   8
   4  -4 -14 956.704 203.172   8
   4  -5  15 64.4498 101.223   4
   4  -5  14 344.877 150.946   4
   4  -5  13 235.513 136.989   4
   4  -5  12 2198.60 312.481   4
   4  -5  11 2894.71 343.849   4
  -4   5  10 12208.3 505.972  12
   4  -5  10 13157.1 663.133   4
   4  -5   9 1668.32 239.124   4
  -4   5   9 1220.86 159.897  12
   4  -5   8 8948.80 498.575   4
  -4   5   8 8026.40 400.989  12
   4  -5   7 3784.19 304.743   4
   4   5  -7 3709.49 263.497  10
  -4   5   7 3365.94 254.646  12
   4  -5   7 3901.59 289.711   1
   4  -5   7 3533.84 237.433  11
  -4  -5  -6 12499.3 506.000  11
  -4   5   6 12007.0 505.802  11
  -4   5   6 11370.7 288.510  10
   4  -5   6 12325.1 507.292   4
   4  -5   6 12557.9 476.533  10
   4   5  -6 10699.4 422.354  10
  -4   5   6 12045.2 354.344  10
   4  -5   6 11656.8 479.123   1
   4   5  -6 13340.7 532.295   3
  -4   5   6 11348.6 449.824  12
   4  -5   6 12032.1 418.306  11
   4  -5   5 4931.94 256.254  11
  -4   5   5 4695.36 174.095  10
   4  -5   5 5387.73 313.233   1
   4  -5   5 4917.89 303.310   4
   4  -5   5 5343.60 293.997  10
  -4  -5  -5 4756.90 290.916  11
  -4  -5  -5 4462.40 200.858   5
   4   5  -5 5334.75 315.341   3
   4   5  -5 4841.93 266.438  10
  -4   5   5 4664.15 282.837  12
  -4  -5  -4 34801.5 731.626  11
   4  -5   4 35576.6 706.829  10
  -4   5   4 33715.2 448.097  10
  -4  -5  -4 32538.8 478.681   5
   4  -5   4 35621.2 770.910   1
  -4   5   4 34128.5 724.527  12
   4   5  -4 35120.2 777.769   3
   4   5  -4 33118.2 658.653  10
   4  -5   3 7866.16 325.369   4
  -4  -5  -3 7697.29 317.153  11
  -4   5   3 7780.11 216.661  10
  -4  -5  -3 7622.20 202.394   5
   4  -5   3 8339.81 360.795   1
   4  -5   3 7920.38 310.762  10
   4   5  -3 7755.26 259.960   7
   4   5  -3 7319.13 297.065  10
  -4   5   3 7379.20 329.486  12
   4   5  -3 8134.61 358.032   3
   4   5  -3 8210.57 176.685   1
   4  -5   2 57090.3 823.562   4
  -4  -5  -2 59882.6 806.721  11
  -4  -5  -2 55465.8 460.002   5
  -4   5   2 61807.8 957.572   1
  -4   5   2 59747.9 618.223  10
   4   5  -2 60138.5 700.619   7
   4  -5   2 60645.9 951.118   1
  -4   5   2 57715.9 879.575  12
   4  -5   2 57547.9 775.365  10
   4   5  -2 58952.4 822.116  10
  -4   5   1 13604.7 313.647  10
  -4  -5  -1 13825.8 347.590  11
   4  -5   1 13482.6 385.112   4
   4  -5   1 13538.1 350.552  10
   4   5  -1 13655.3 393.239  10
  -4  -5  -1 13020.4 387.451   4
  -4   5   1 13777.8 453.463   1
   4   5  -1 14168.8 228.369  11
   4  -5   1 13307.1 239.084   7
  -4   5   1 13820.1 416.338  12
   4  -5   0 81424.8 925.922   4
  -4   5   0 82340.5 841.172  10
   4   5   0 84255.1 722.023  11
  -4   5   0 85308.8 1140.67   1
  -4   5   0 81736.1 967.117  12
  -4   5   0 82849.5 999.811  11
  -4  -5   0 82756.4 925.363   4
   4  -5   0 82724.6 812.110  10
   4   5   0 83588.2 988.082  10
  -4   5  -1 13690.9 403.892  11
   4   5   1 13840.4 340.266  11
   4  -5  -1 14241.1 319.329  10
  -4   5  -1 13334.5 378.371  12
  -4   5  -1 13802.4 464.143   1
  -4  -5   1 13959.5 374.085   4
   4  -5  -1 13421.0 412.586   9
   4  -5  -1 13452.0 377.236   4
  -4   5  -1 13725.3 373.867  10
  -4   5  -2 60217.9 861.556  11
   4   5   2 61094.4 793.720  11
  -4   5  -2 61775.1 861.318  10
   4  -5  -2 60084.6 882.454   9
   4  -5  -2 60692.4 811.927   4
  -4   5  -2 60002.2 765.658  12
  -4  -5   2 59729.5 767.472   4
   4   5   3 7909.67 313.590  11
  -4   5  -3 8107.34 212.577   3
   4  -5  -3 7540.67 294.441   4
  -4   5  -3 8271.92 349.809  10
  -4  -5   3 7640.88 279.185   4
   4  -5  -3 7817.35 326.576   9
   4   5   3 7891.60 332.329   2
  -4   5  -3 7605.10 313.589  11
  -4   5  -4 33803.6 680.164  11
   4   5   4 35221.2 715.738  11
  -4  -5   4 34651.8 661.405  10
  -4   5  -4 35465.3 466.800   3
  -4   5  -4 36155.7 783.231  10
   4   5   4 35557.6 751.789   2
  -4   5  -4 33150.9 651.379   5
  -4  -5   4 34315.9 619.702   4
  -4   5  -5 4872.94 269.624  11
  -4   5  -5 5542.91 332.580  10
  -4  -5   5 4801.18 254.156  10
  -4   5  -5 4904.61 263.304   5
   4   5   5 5293.72 298.674  11
   4  -5  -5 4830.87 288.776   8
   4   5   5 4957.14 299.276   2
  -4  -5   5 5365.96 256.111   4
  -4   5  -6 10999.0 421.157  11
   4   5   6 11860.6 474.671  11
  -4  -5   6 11407.3 402.443   4
  -4  -5   6 11777.4 411.129  10
  -4   5  -6 11259.9 425.305   5
   4  -5  -6 11520.5 466.544   8
   4  -5  -6 12178.6 454.950   2
  -4  -5   7 4164.87 257.727   4
  -4   5  -7 4080.18 272.638   5
  -4  -5   7 3612.86 239.907  10
   4  -5  -7 3764.72 260.650   2
   4  -5  -7 3873.99 295.899   8
  -4   5  -7 3715.56 260.912  11
  -4   5  -8 8524.47 420.795   5
  -4  -5   8 8545.13 397.287   4
   4  -5  -8 8658.08 454.195   8
  -4  -5   9 1483.72 181.703   4
  -4   5  -9 1384.93 188.121   5
   4  -5  -9 1031.91 175.292   8
  -4  -5  10 12830.0 548.257   4
  -4   5 -10 12884.1 574.883   5
   4  -5 -10 11826.9 610.835   8
  -4   5 -11 2923.95 293.455   5
  -4  -5  11 2987.87 279.494   4
   4  -5 -11 3611.37 345.820   8
  -4  -5  12 2003.71 243.624   4
   4  -5 -12 2078.11 280.802   8
  -4  -5  13 322.021 119.951   4
   4  -5 -13 360.381 144.535   8
   4  -5 -14 145.831 107.152   8
   4  -6  15 1181.59 242.408   4
   4  -6  14 116.634 127.460   4
   4  -6  13 1592.45 270.777   4
   4  -6  12 1310.61 237.575   4
   4  -6  11 2650.52 328.992   4
   4  -6  10 1368.13 238.386   4
  -4   6  10 1379.72 181.596  12
   4  -6   9 2749.58 291.503   4
  -4   6   9 2399.96 234.381  12
   4  -6   8 7654.99 459.238   4
  -4   6   8 7441.15 400.841  12
   4  -6   7 461.331 87.2989  11
   4  -6   7 526.482 135.129   4
  -4   6   7 629.914 123.369  12
  -4   6   6 11719.8 316.984  10
   4  -6   6 9904.83 465.845   4
   4   6  -6 11818.9 471.460  10
  -4   6   6 12362.1 490.918  12
   4  -6   6 12582.2 509.823   1
   4  -6   5 4183.15 282.377   4
  -4   6   5 3744.51 173.021  10
   4   6  -5 3765.11 251.649  10
   4  -6   5 4027.00 278.025   1
   4  -6   5 4016.36 264.995  10
   4   6  -5 4256.09 298.401   3
  -4   6   5 3934.41 270.505  12
   4  -6   4 10949.4 429.590   4
  -4  -6  -4 10644.5 421.277  11
  -4   6   4 10682.4 288.039  10
   4  -6   4 11265.6 414.681  10
   4  -6   4 10839.7 440.795   1
  -4   6   4 10879.4 434.943  12
   4   6  -4 11819.5 477.285   3
   4   6  -4 10398.3 399.929  10
  -4   6   3 9086.19 267.114  10
   4   6  -3 9134.95 362.434  10
   4   6  -3 9943.30 246.955   1
  -4   6   3 8880.35 377.711  12
   4  -6   3 9648.32 362.596  10
   4  -6   3 8553.29 356.101   4
   4   6  -3 8332.21 268.835   7
   4  -6   2 7568.89 325.471   4
   4   6  -2 8413.69 340.190  10
   4  -6   2 8032.78 311.275  10
  -4   6   2 7815.03 256.453  10
  -4   6   2 8495.04 384.886   1
   4   6  -2 7838.68 254.757   7
  -4   6   2 7798.94 340.875  12
   4   6  -1 15683.2 258.802  11
   4   6  -1 15394.2 454.371  10
  -4   6   1 14937.9 371.847  10
   4  -6   1 14928.9 446.203   4
  -4  -6  -1 15005.0 452.878   4
  -4   6   1 15742.7 526.157   1
  -4   6   1 14625.5 453.208  12
   4  -6   1 14969.9 401.129  10
   4  -6   0 6373.97 290.400   4
   4   6   0 6662.95 217.535  11
   4  -6   0 6564.62 255.389  10
   4   6   0 6687.53 302.849  10
  -4   6   0 6589.35 340.541   1
  -4   6   0 6419.58 293.507  12
  -4   6   0 6273.94 255.048  10
  -4  -6   0 6195.01 280.733   4
  -4   6  -1 14861.1 445.656  11
   4   6   1 15603.5 380.828  11
  -4   6  -1 14972.6 422.795  10
   4  -6  -1 14305.8 448.033   9
  -4   6  -1 15930.1 531.697   1
  -4  -6   1 14904.8 427.312   4
   4  -6  -1 15332.9 447.324   4
  -4   6  -1 14979.8 431.385  12
   4   6   1 15906.2 477.164  10
   4   6   2 7723.27 298.983  11
  -4   6  -2 7757.25 325.287  10
   4  -6  -2 7836.93 335.276   9
  -4   6  -2 7907.46 328.644  11
   4  -6  -2 7693.06 322.021   4
  -4  -6   2 7682.24 306.084   4
  -4   6  -2 7858.07 303.610  12
   4   6   3 8547.05 344.444  11
  -4   6  -3 9106.94 379.870  10
   4  -6  -3 8524.75 359.470   9
  -4  -6   3 8571.18 329.184   4
   4  -6  -3 8967.97 351.381   4
  -4   6  -3 8677.86 327.308   5
  -4   6  -3 8632.43 349.446  11
  -4   6  -4 10916.0 400.632  11
  -4  -6   4 10858.3 399.553  10
  -4   6  -4 11986.0 472.182  10
  -4   6  -4 11765.6 396.658   5
   4   6   4 11115.2 422.384  11
  -4  -6   4 10938.8 380.880   4
  -4   6  -4 11147.3 296.734   3
  -4  -6   5 3650.54 229.558   4
  -4   6  -5 3854.59 240.514   5
  -4   6  -5 3561.83 236.154  11
  -4   6  -5 3628.21 177.141   3
   4   6   5 3889.10 267.630  11
  -4   6  -5 4141.56 298.870  10
  -4  -6   5 3529.04 235.852  10
  -4   6  -6 11120.0 435.094  11
  -4  -6   6 12004.2 447.490  10
  -4   6  -6 12491.8 460.354   5
   4  -6  -6 12602.3 507.224   8
  -4  -6   6 12691.9 448.321   4
  -4   6  -7 502.150 101.628  11
  -4  -6   7 694.044 120.675   4
  -4   6  -7 625.958 117.697   5
   4  -6  -7 621.129 129.590   8
  -4  -6   8 7066.32 373.100   4
  -4   6  -8 7325.82 396.246   5
   4  -6  -8 7274.93 430.202   8
  -4   6  -9 3042.64 271.618   5
   4  -6  -9 2616.09 294.541   8
  -4  -6   9 3138.38 269.532   4
  -4  -6  10 1428.92 192.117   4
   4  -6 -10 1123.37 205.544   8
  -4   6 -10 1191.94 182.190   5
  -4  -6  11 2801.28 280.025   4
  -4   6 -11 2931.91 297.389   5
   4  -6 -11 2815.34 312.323   8
  -4  -6  12 1459.59 208.134   4
   4  -6 -12 1621.23 253.809   8
   4  -6 -13 1430.67 249.235   8
   4  -6 -14 198.555 109.685   8
   4  -7  15 372.144 150.608   4
   4  -7  14 327.303 145.340   4
   4  -7  13-15.6995 96.1115   4
   4  -7  12 397.029 154.428   4
   4  -7  11 2054.93 282.815   4
  -4   7  11 1832.44 211.711  12
  -4   7  10 6865.99 400.677  12
   4  -7  10 7295.12 504.770   4
  -4   7   9 6041.49 382.882  12
   4  -7   9 5772.94 436.519   4
   4  -7   8 14662.9 650.239   4
  -4   7   8 13475.2 562.267  12
   4  -7   7 4578.25 349.427   4
  -4   7   7 4510.38 322.613  12
   4  -7   6 5004.52 344.666   4
  -4   7   6 5063.86 328.914  12
   4  -7   5 13141.0 519.766   4
  -4   7   5 11483.4 334.607  10
  -4   7   5 12865.4 506.793  12
   4  -7   4 31275.2 757.174   4
   4  -7   4 32771.3 743.842  10
   4   7  -4 30758.4 739.485  10
  -4   7   4 29859.4 538.170  10
  -4   7   4 31909.3 776.205  12
  -4   7   3 752.421 132.813   1
  -4   7   3 530.215 74.1358  10
   4   7  -3 633.115 106.161  10
   4   7  -3 738.831 80.5346   1
   4  -7   3 733.297 108.941  10
   4  -7   3 732.903 119.457   4
  -4   7   3 771.465 123.578  12
   4  -7   2 69111.1 979.123  10
   4   7  -2 72635.6 1073.47  10
  -4   7   2 67767.5 838.984  10
  -4   7   2 73471.2 1209.60   1
  -4   7   2 69920.5 1069.37  12
   4  -7   2 68294.9 1049.19   4
   4   7  -2 64918.5 726.925   7
   4   7  -1 8301.98 205.426  11
   4  -7   1 8354.55 327.146  10
   4   7  -1 8486.63 363.931  10
  -4   7   1 7821.29 296.667  10
  -4  -7  -1 8219.74 365.922   4
   4  -7   1 7804.94 350.318   4
  -4   7   1 8744.84 418.492   1
  -4   7   1 7974.16 355.845  12
   4   7  -1 7881.00 262.442   7
   4  -7   0 38406.8 771.345   4
  -4   7   0 37374.3 760.987  11
   4   7   0 40723.1 799.554  10
   4   7   0 39310.5 563.954  11
  -4   7   0 40139.1 898.409   1
   4  -7   0 37696.2 673.289  10
  -4   7   0 38845.7 694.563  10
  -4   7   0 39571.3 766.089  12
  -4  -7   0 38784.8 766.516   4
  -4   7  -1 8498.23 346.539  10
   4  -7  -1 8439.40 361.523   9
   4   7   1 8749.75 303.297  11
  -4  -7   1 8160.22 346.812   4
  -4   7  -1 8061.23 346.896  11
   4  -7  -1 8335.63 360.907   4
  -4   7  -1 8928.07 426.322   1
  -4   7  -1 8674.75 352.663  12
   4   7   1 8552.54 373.853  10
  -4   7  -2 67176.1 1005.33  11
   4   7   2 69569.8 948.632  11
  -4   7  -2 70968.2 1053.76  10
   4  -7  -2 70801.8 1056.03   9
   4  -7  -2 70412.6 1053.85   4
   4   7   2 72928.9 1114.78  10
  -4  -7   2 70498.3 1018.28   4
  -4  -7   2 72539.7 789.924   2
  -4  -7   3 667.256 107.632   4
  -4   7  -3 774.334 114.366  11
   4   7   3 960.286 125.258  11
  -4   7  -3 745.638 117.106  10
  -4   7  -3 592.418 91.5516   5
   4  -7  -3 866.269 127.158   9
   4  -7  -3 666.200 112.295   4
  -4   7  -4 30100.1 688.744  11
   4   7   4 32192.6 752.183  11
  -4   7  -4 33520.7 826.788  10
  -4   7  -4 31996.8 669.592   5
  -4  -7   4 31485.2 702.475   4
  -4   7  -4 31674.0 556.255   3
  -4   7  -5 12725.3 444.295   5
  -4   7  -5 12018.0 354.038   3
  -4   7  -5 11552.6 439.891  11
  -4  -7   5 12826.7 463.208   4
  -4   7  -6 3992.04 264.714  11
  -4  -7   6 4613.10 290.157   4
   4  -7  -6 4772.99 324.199   8
  -4   7  -6 4891.11 294.074   5
  -4  -7   7 4294.40 292.319   4
  -4   7  -7 4369.84 295.229   5
   4  -7  -7 4597.83 332.042   8
   4  -7  -8 14865.5 622.178   8
  -4  -7   8 13757.9 548.652   4
  -4   7  -8 14229.8 555.640   5
  -4  -7   9 5637.79 365.776   4
  -4   7  -9 5937.14 384.555   5
   4  -7  -9 5979.80 418.068   8
  -4  -7  10 6657.84 413.425   4
  -4   7 -10 6736.71 427.488   5
   4  -7 -10 7346.37 481.400   8
   4  -7 -11 2236.93 284.673   8
  -4  -7  11 2164.82 248.844   4
   4  -7 -12 283.131 132.423   8
  -4  -7  12 409.956 123.814   4
   4  -7 -13 218.949 113.575   8
   4  -7 -14 405.201 117.414   8
   4  -8  14 405.397 161.034   4
   4  -8  13 1141.09 244.931   4
   4  -8  12 1373.83 244.984   4
   4  -8  11 3488.94 375.413   4
  -4   8  10 28.1437 60.2781  12
   4  -8  10 119.137 105.963   4
   4  -8   9 3454.60 346.254   4
  -4   8   9 3555.98 303.569  12
  -4   8   8 368.218 107.101  12
   4  -8   8 329.849 124.116   4
   4  -8   7 5043.16 372.432   4
  -4   8   7 5263.60 358.783  12
   4  -8   6 4100.72 322.675   4
  -4   8   6 4668.84 327.542  12
  -4   8   5 17982.6 631.908  12
   4  -8   5 18531.4 643.278   4
   4  -8   4 5712.95 353.660   4
  -4   8   4 4795.87 237.891  10
  -4   8   4 6038.20 356.398  12
   4  -8   3 15114.3 543.567   4
  -4   8   3 13696.3 406.114  10
  -4   8   3 15505.7 551.737  12
  -4   8   2 4739.60 245.924  10
   4  -8   2 5185.56 288.135  10
   4  -8   2 5126.63 318.778   4
   4   8  -2 3966.74 177.910   7
  -4   8   2 5127.02 315.983  12
   4  -8   1 2438.34 192.796  10
   4   8  -1 2777.67 223.845  10
  -4   8   1 2301.60 176.439  10
   4   8  -1 2382.23 119.076  11
  -4  -8  -1 2248.27 216.067   4
   4  -8   1 2321.77 209.049   4
   4   8  -1 2164.64 136.098   7
  -4   8   1 2315.17 213.484  12
  -4   8   0 6909.24 344.570  11
   4   8   0 7684.93 262.548  11
   4   8   0 7369.50 362.780  10
  -4   8   0 6797.74 317.148  10
  -4   8   0 7683.87 364.439  12
  -4  -8   0 7621.37 369.409   4
   4  -8   0 7190.43 362.081   4
  -4   8   0 7732.61 421.279   1
  -4  -8   1 3060.99 196.526   2
  -4   8  -1 2729.36 211.671  10
  -4   8  -1 2683.45 250.478   1
   4  -8  -1 2826.05 222.798   9
  -4  -8   1 2366.94 206.726   4
   4  -8  -1 2726.04 229.192   4
   4   8   1 2993.86 189.050  11
  -4   8  -1 2560.96 207.677  11
   4   8   2 5021.46 269.602  11
  -4  -8   2 5013.49 230.326   2
  -4   8  -2 4653.85 239.832   5
  -4   8  -2 4467.78 282.732  10
   4  -8  -2 4777.05 288.175   9
   4  -8  -2 5386.52 316.621   4
  -4  -8   2 4573.61 284.292   4
  -4   8  -2 4184.76 263.968  11
  -4   8  -3 13979.0 488.228  11
  -4  -8   3 14398.3 354.638   2
   4  -8  -3 15180.1 524.165   9
  -4   8  -3 15322.0 449.841   5
   4  -8  -3 15365.2 539.886   4
   4   8   3 14909.9 498.069  11
  -4  -8   3 14773.0 513.966   4
   4   8   4 5302.23 318.948  11
  -4   8  -4 4798.64 286.957  11
  -4   8  -4 5235.83 280.386   5
  -4  -8   4 5351.34 316.493   4
  -4   8  -5 18400.3 546.891   5
   4  -8  -5 17812.3 615.687   8
  -4  -8   5 18012.9 592.601   4
  -4   8  -6 4323.24 282.564   5
   4  -8  -6 4404.77 321.083   8
  -4  -8   6 4700.62 311.068   4
  -4   8  -7 5123.47 323.501   5
  -4  -8   7 5321.15 342.945   4
   4  -8  -7 4970.98 358.421   8
  -4   8  -8 370.633 107.774   5
   4  -8  -8 252.729 109.303   8
  -4  -8   8 292.144 109.768   4
  -4  -8   9 3545.26 305.023   4
  -4   8  -9 3595.64 305.380   5
   4  -8  -9 3584.86 331.461   8
  -4  -8  10-113.966 79.4070   4
  -4   8 -10 33.2889 60.8266   5
   4  -8 -10 6.09724 70.7929   8
  -4  -8  11 2968.90 299.599   4
   4  -8 -11 3477.88 355.321   8
  -4  -8  12 1350.73 205.084   4
   4  -8 -12 1372.00 226.233   8
   4  -8 -13 725.646 172.527   8
   4  -8 -14 340.583 124.594   8
   4  -9  14 520.622 162.597   4
   4  -9  13 575.791 163.520   4
   4  -9  12 2387.31 319.162   4
   4  -9  11 170.931 100.391   4
   4  -9  10 3924.77 384.331   4
   4  -9   9 1545.03 245.650   4
  -4   9   9 1796.99 232.067  12
   4  -9   8 4096.76 370.452   4
  -4   9   8 3639.81 322.624  12
   4  -9   7 7695.36 473.750   4
  -4   9   7 8320.71 472.146  12
   4  -9   6 4955.68 375.720   4
  -4   9   6 5423.64 372.601  12
  -4   9   5 5187.91 363.397  12
   4  -9   5 5443.54 373.564   4
  -4   9   4 3704.90 294.638  12
   4  -9   4 3361.56 287.007   4
  -4   9   3 15073.6 581.788  12
   4  -9   3 14666.9 572.021   4
  -4   9   2 2653.18 201.781  10
  -4   9   2 2900.58 262.330  12
   4  -9   2 3090.57 266.007   4
   4  -9   1 3935.53 261.164  10
  -4   9   1 3797.54 245.440  10
  -4  -9  -1 4074.28 294.376   4
   4  -9   1 4152.35 305.703   4
  -4  -9   0 10620.7 409.194   2
  -4   9   0 10133.0 418.027  10
   4  -9   0 11367.4 460.619   9
  -4  -9   0 11530.1 490.290   4
   4  -9   0 11500.2 492.639   4
  -4   9  -1 3994.96 271.615  11
  -4  -9   1 4319.90 250.927   2
  -4   9  -1 4411.50 287.652  10
   4  -9  -1 4349.83 284.810   9
  -4  -9   1 4560.76 307.420   4
   4  -9  -1 4453.95 314.397   4
   4   9   1 4589.41 245.229  11
  -4   9  -2 2692.09 222.409  11
   4  -9  -2 3321.41 251.640   9
  -4   9  -2 3144.15 199.686   5
   4   9   2 3427.17 234.561  11
   4  -9  -2 3201.81 273.869   4
  -4  -9   2 3285.53 260.187   4
   4   9   3 14952.4 525.360  11
  -4   9  -3 15363.4 456.452   5
   4  -9  -3 15973.3 556.589   9
  -4   9  -3 13243.1 495.031  11
   4  -9  -3 15658.5 590.251   4
  -4  -9   3 16008.5 578.554   4
  -4   9  -4 3756.46 236.732   5
  -4  -9   4 3728.79 282.591   4
  -4   9  -5 5515.25 302.721   5
   4  -9  -5 5527.68 358.465   8
  -4  -9   5 5625.92 356.901   4
  -4   9  -6 5554.70 323.792   5
  -4  -9   6 5074.38 346.629   4
   4  -9  -6 5203.81 360.137   8
  -4   9  -7 7447.19 395.519   5
   4  -9  -7 7530.47 449.346   8
  -4  -9   7 7446.12 432.770   4
  -4   9  -8 4539.39 323.484   5
   4  -9  -8 4152.46 353.986   8
  -4  -9   8 3905.77 328.507   4
  -4  -9   9 1844.78 230.453   4
  -4   9  -9 1731.03 214.004   5
   4  -9  -9 1740.70 241.388   8
   4  -9 -10 4480.22 391.796   8
  -4  -9  10 4577.11 368.352   4
   4  -9 -11-46.3163 84.9255   8
  -4  -9  11 24.3376 74.7710   4
   4  -9 -12 1865.11 271.220   8
  -4  -9  12 1609.13 229.608   4
   4  -9 -13 548.199 148.323   8
   4  -9 -14 298.427 113.178   8
   4 -10  13 42.2905 83.6291   4
   4 -10  12 440.661 161.475   4
   4 -10  11 346.572 145.553   4
   4 -10  10 1319.87 227.289   4
   4 -10   9 3377.09 360.978   4
   4 -10   8 677.027 182.772   4
   4 -10   7 2513.17 286.649   4
   4 -10   6 4291.65 369.852   4
   4 -10   5 8801.17 496.186   4
  -4  10   5 9234.03 515.892  12
   4 -10   4 4249.30 347.988   4
   4 -10   3 31007.9 890.120   4
   4 -10   2 675.764 144.526   4
  -4 -10  -1 19699.5 692.322   4
   4 -10   1 19689.6 691.900   4
   4 -10   0 3467.44 265.231   9
  -4 -10   0 3488.10 294.465   4
   4 -10   0 3685.84 305.196   4
   4 -10  -1 19231.4 616.179   9
  -4 -10   1 19972.3 683.646   4
   4 -10  -1 19470.0 682.682   4
   4 -10  -2 516.784 107.659   9
  -4 -10   2 487.664 114.692   4
   4 -10  -2 697.047 143.066   4
   4 -10  -3 30527.8 879.205   4
  -4 -10   3 30958.5 859.515   4
  -4 -10   4 4133.34 324.945   4
   4 -10  -5 8757.83 463.438   8
  -4 -10   5 8966.90 477.002   4
  -4  10  -6 4034.43 274.818   5
   4 -10  -6 3692.61 312.235   8
  -4 -10   6 3964.71 327.693   4
  -4  10  -7 2649.55 237.278   5
   4 -10  -7 2435.35 264.871   8
  -4 -10   7 2661.93 276.235   4
  -4  10  -8 754.250 138.313   5
  -4 -10   8 720.465 154.249   4
   4 -10  -8 599.310 144.813   8
  -4  10  -9 3101.29 282.861   5
   4 -10  -9 2742.24 299.804   8
  -4 -10   9 3138.40 318.088   4
   4 -10 -10 1750.30 252.235   8
  -4 -10  10 1709.96 243.641   4
   4 -10 -11 342.570 120.898   8
  -4 -10  11 343.536 123.361   4
   4 -10 -12 391.930 139.311   8
   4 -10 -13 230.697 108.780   8
   4 -11  12 972.345 217.572   4
   4 -11  11 2712.13 344.107   4
   4 -11  10 652.495 187.538   4
   4 -11   9-31.9518 98.3475   4
   4 -11   8 1091.08 218.102   4
   4 -11   7 1553.50 238.609   4
   4 -11   6 454.945 140.789   4
   4 -11   5 4830.01 397.042   4
   4 -11   4 1365.87 226.465   4
   4 -11   3 2311.19 265.215   4
   4 -11   2 774.649 170.636   4
  -4 -11  -1 4757.00 366.801   4
   4 -11   1 4214.96 300.810   9
   4 -11   1 4618.19 362.974   4
  -4 -11   0 161.362 94.5426   4
   4 -11   0 295.248 94.7599   9
   4 -11   0 306.293 99.8665   4
   4 -11  -1 4313.36 303.091   9
  -4 -11   1 4233.54 343.863   4
   4 -11  -1 4651.02 364.685   4
   4 -11  -2 657.359 129.649   9
  -4 -11   2 954.224 171.999   4
   4 -11  -2 858.665 170.131   4
   4 -11  -3 2401.75 268.983   4
  -4 -11   3 2887.99 292.208   4
  -4 -11   4 1105.88 186.831   4
   4 -11  -5 4563.95 350.677   8
  -4 -11   5 4873.23 380.948   4
  -4 -11   6 481.496 141.747   4
   4 -11  -6 570.269 127.918   8
   4 -11  -7 1800.54 239.696   8
  -4 -11   7 1585.30 233.280   4
  -4 -11   8 952.754 185.090   4
   4 -11  -8 1002.59 183.484   8
  -4 -11   9 81.7767 84.9739   4
   4 -11  -9 55.5157 60.2179   8
   4 -11 -10 626.862 156.979   8
  -4 -11  10 475.835 147.382   4
  -4 -11  11 2374.25 290.467   4
   4 -11 -11 2350.21 297.214   8
   4 -11 -12 867.409 182.451   8
   4 -12  12 210.688 126.845   4
   4 -12  11 596.584 174.282   4
   4 -12  10 296.795 134.796   4
   4 -12   9 1576.42 268.944   4
   4 -12   8 3261.76 368.865   4
   4 -12   7 1000.16 206.633   4
   4 -12   6 1005.93 207.805   4
   4 -12   5 2197.14 283.905   4
   4 -12   4 1884.22 266.146   4
   4 -12   3 3327.30 336.438   4
   4 -12   2 4711.90 329.795   9
   4 -12   2 5487.21 420.025   4
   4 -12   1 6939.15 399.072   9
  -4 -12  -1 7193.08 489.853   4
   4 -12   1 8001.40 511.144   4
   4 -12   0 3015.03 260.312   9
  -4 -12   0 2945.27 310.712   4
   4 -12   0 2814.98 296.006   4
   4 -12  -1 7423.60 410.724   9
  -4 -12   1 7393.57 483.155   4
   4 -12  -1 8086.27 511.426   4
   4 -12  -2 5110.05 412.652   4
  -4 -12   2 5061.37 395.706   4
   4 -12  -3 3447.70 337.866   4
  -4 -12   3 3366.63 319.863   4
   4 -12  -4 2065.19 234.966   8
  -4 -12   4 2428.98 283.276   4
   4 -12  -5 1812.42 223.675   8
  -4 -12   5 2008.04 258.139   4
  -4 -12   6 1099.60 197.307   4
   4 -12  -6 1010.97 166.513   8
  -4 -12   7 1028.53 196.303   4
   4 -12  -7 1304.19 200.254   8
   4 -12  -8 2819.69 302.927   8
  -4 -12   8 2813.03 319.543   4
  -4 -12   9 1227.33 212.448   4
   4 -12  -9 1283.12 207.612   8
  -4 -12  10 255.518 117.258   4
   4 -12 -10 130.929 78.0401   8
   4 -12 -11 427.338 133.999   8
   4 -13  11 1768.10 281.692   4
   4 -13  10 1169.03 240.009   4
   4 -13   9-18.6361 95.0298   4
   4 -13   8 1234.41 235.014   4
   4 -13   7-7.22166 93.7045   4
   4 -13   6 487.421 157.433   4
   4 -13   5 552.721 168.387   4
   4 -13   4 2963.47 337.993   4
   4 -13   3 906.580 193.452   4
   4 -13   2 1692.26 266.657   4
   4 -13   1-5.71149 59.2684   9
   4 -13   1 18.5539 83.2223   4
   4 -13   0 500.215 118.161   9
  -4 -13   0 590.415 167.841   4
   4 -13   0 359.801 133.962   4
  -4 -13   1 90.3561 99.8193   4
   4 -13  -1 119.027 73.8096   9
   4 -13  -1 174.204 119.893   4
  -4 -13   2 1658.22 234.496   4
   4 -13  -2 1902.11 272.434   4
  -4 -13   3 863.071 186.233   4
   4 -13  -4 2280.44 245.771   8
  -4 -13   4 2979.76 326.483   4
  -4 -13   5 714.224 166.808   4
   4 -13  -5 274.638 92.1347   8
  -4 -13   6 352.965 137.038   4
  -4 -13   7 163.679 98.8916   4
  -4 -13   8 779.196 179.130   4
  -4 -13   9 241.058 110.901   4
  -4 -13  10 740.384 170.330   4
   4 -14   9 185.101 189.127   4
   4 -14   8 138.829 104.776   4
   4 -14   7 475.390 171.007   4
   4 -14   6 2312.65 315.588   4
   4 -14   5 443.361 167.301   4
   4 -14   4 3503.28 382.783   4
   4 -14   3 2719.79 334.415   4
   4 -14   2 1325.22 236.132   4
   4 -14   1 561.440 168.102   4
  -4 -14   0 4562.67 422.460   4
   4 -14   0 5036.27 439.228   4
  -4 -14   1 253.079 108.403   4
   4 -14  -1 533.888 177.058   4
   4 -14  -2 1239.53 233.059   4
  -4 -14   2 993.948 204.323   4
  -4 -14   3 2923.99 338.085   4
  -4 -14   4 3281.65 355.155   4
  -4 -14   5 283.589 130.898   4
  -4 -14   6 1798.24 265.963   4
  -4 -14   7 685.103 174.227   4
  -4 -14   8 388.089 139.857   4
  -4 -14   9-84.6052 74.3114   4
   4 -15   8 241.411 135.874   4
   4 -15   7 767.623 207.639   4
   4 -15   6-104.378 110.188   4
   4 -15   5 892.698 198.885   4
   4 -15   4 583.086 189.162   4
   4 -15   3 1897.13 282.626   4
   4 -15   2 864.824 213.557   4
   4 -15   1 607.444 178.856   4
   4 -15   0 1197.78 232.827   4
  -4 -15   1 621.316 178.278   4
   4 -15  -1 587.572 152.530   4
  -4 -15   2 982.593 213.409   4
  -4 -15   3 1500.54 246.967   4
  -4 -15   4 198.322 101.546   4
  -4 -15   5 1073.64 212.419   4
  -4 -15   6 45.9376 71.1875   4
  -4 -15   7 506.449 140.365   4
  -4 -15   8 61.5164 63.6972   4
   4 -16   6 320.242 128.524   4
   4 -16   5 2072.01 307.358   4
   4 -16   4 149.084 119.165   4
   4 -16   3 1049.87 222.218   4
   4 -16   2 31.0217 84.7762   4
   4 -16   1 72.6478 101.404   4
   4 -16   0 60.8770 88.3322   4
   4 -16  -1 18.5862 78.9964   4
  -4 -16   2-3.11188 81.4774   4
  -4 -16   3 792.881 197.810   4
  -4 -16   4 42.7589 74.3475   4
  -4 -16   5 1517.01 252.127   4
  -4 -16   6 352.673 125.527   4
   4 -17   3 547.943 163.466   4
   4 -17   2 1132.54 233.257   4
   4 -17   1 1101.97 230.201   4
   4 -17   0 28.4087 91.9740   4
  -4 -17   3 681.760 169.790   4
  -5   0   0 49.9839 26.8492  11
   5   0   0 66.7970 26.5313   3
   5   0   0 30.9901 23.8728  11
   5   0   1 65951.4 736.533  11
  -5   0   1 68069.1 703.760  11
   5   0   1 66082.2 505.231   3
  -5   0  -1 67893.0 758.860  11
   5   0  -1 67987.5 705.932   9
   5   0  -1 66018.6 758.419   7
   5   0  -1 68339.4 674.885   3
   5   0   1 66834.2 765.898  10
   5   0  -1 64427.8 686.085   1
   5   0   2 11005.0 322.295  11
  -5   0   2 10929.7 278.810  11
   5   0  -2 10228.7 147.107  10
   5   0   2 10435.3 335.656  10
   5   0  -2 11059.5 307.266   3
  -5   0   2 10061.4 296.690   3
   5   0  -2 10842.1 290.989   9
   5   0  -2 10253.0 306.529   7
   5   0   3 27471.3 541.917  11
   5   0   3 27782.1 593.730  10
   5   0  -3 26919.3 527.959   7
  -5   0   4 136.471 49.5152   3
   5   0   4 167.157 48.8122  11
   5   0   4 264.149 69.7402  10
   5   0  -4 167.613 27.8872  10
  -5   0  -4 160.131 51.1852   5
   5   0  -4 213.803 55.2880   8
  -5   0  -4 194.017 52.5267  11
  -5   0   4 165.182 35.8523   1
  -5   0  -5 22518.7 588.235  11
   5   0   5 21385.8 588.787  10
   5   0  -5 21600.5 335.568   2
  -5   0   5 22747.9 294.969  10
   5   0   5 22122.9 553.706  11
  -5   0  -5 21800.6 365.870   6
   5   0  -5 21654.4 523.839   8
  -5   0   5 21727.9 360.716   1
  -5   0   5 21469.4 570.693   3
  -5   0  -5 21253.4 522.446   5
  -5   0   6 748.695 118.780   3
  -5   0  -6 706.313 76.7549   6
  -5   0   6 800.299 102.822  11
  -5   0  -6 723.833 113.550  11
  -5   0   6 757.805 65.0292  10
  -5   0   6 679.056 68.0611   1
   5   0   6 685.115 116.839  10
  -5   0  -6 739.843 113.320   5
   5   0  -6 837.452 119.474   8
   5   0   6 703.760 110.215  11
  -5   0  -7 5059.03 295.154   5
  -5   0   7 5060.49 266.589  11
  -5   0   7 5430.75 195.236  10
   5   0   7 5411.95 333.801  10
  -5   0  -7 5036.88 232.242   6
   5   0   7 5673.55 314.694  11
   5   0  -7 5337.02 306.910   8
  -5   0   7 5103.64 317.325   3
  -5   0  -7 5536.38 335.885  11
  -5   0  -8 5679.83 271.585   6
  -5   0   8 5846.50 300.647  11
  -5   0  -8 6142.76 344.412   5
   5   0   8 5411.77 265.652   3
   5   0  -8 6375.31 355.435   8
  -5   0  -9 598.410 99.6104   6
  -5   0  -9 671.729 128.219   5
   5   0  -9 730.785 139.732   8
  -5   0 -10 1419.49 162.579   6
  -5   0 -10 1830.94 225.750   5
   5   0 -10 1611.87 215.079   8
  -5   0 -11 20.6949 53.6137   6
   5   0 -11 80.5622 98.8761   6
  -5   0 -11 255.328 110.646   5
   5   0 -11 9.47688 85.2023   8
   5   0 -12 1436.93 243.567   6
   5   0 -12 1365.91 218.120   8
   5   0 -13 2316.27 308.911   6
   5   0 -14 827.343 191.325   6
   5   0 -15 453.680 162.747   6
   5   0 -16 38.5836 91.1640   6
   5   1 -16-6.51023 94.7853   6
   5  -1  16 29.7821 108.978   4
   5   1 -15 1127.13 227.004   6
   5   1 -14-33.1840 100.297   6
   5   1 -13 644.883 176.607   6
   5   1 -12 4822.90 393.716   8
   5   1 -11 1969.23 238.529   8
  -5  -1 -10 5228.14 359.060   5
   5   1 -10 5409.35 371.462   8
  -5  -1 -10 5503.37 322.301   6
  -5  -1  -9 13402.3 465.840   6
  -5   1   9 11949.7 487.175  11
  -5  -1  -9 13366.3 530.777   5
   5   1  -9 13057.3 533.012   8
  -5  -1  -8 6648.62 300.121   6
  -5  -1  -8 6502.11 349.155   5
   5   1  -8 6742.63 358.049   8
  -5   1   8 5838.14 319.170  11
   5  -1   8 6263.22 270.356   3
  -5  -1  -7 13293.4 384.776   6
  -5  -1  -7 13369.7 466.971   5
   5  -1   7 13382.7 520.045  10
   5  -1   7 13201.9 475.584  11
   5  -1   7 13454.7 358.564   3
  -5  -1  -7 13601.6 528.994  11
   5   1  -7 13467.8 471.034   8
  -5   1   7 12986.3 507.582   3
  -5   1   7 13323.1 461.492  11
  -5   1   7 14211.5 286.652  10
   5  -1   6 15972.2 494.065  11
  -5  -1  -6 16207.1 542.961  11
  -5   1   6 16479.5 255.528  10
  -5  -1  -6 16082.0 477.849   5
   5  -1   6 16379.0 538.392  10
   5   1  -6 14927.9 368.912  10
  -5   1   6 16083.4 481.357  11
   5   1  -6 15728.6 470.199   8
   5  -1   6 16321.9 351.739   3
  -5   1   6 16089.7 528.476   3
   5  -1   5 20746.6 532.039  11
   5   1  -5 19942.7 372.769  10
  -5  -1  -5 21546.6 578.020  11
  -5   1   5 20949.4 207.195  10
   5  -1   5 21035.5 577.776  10
  -5   1   5 20641.5 415.143   1
  -5  -1  -5 20674.1 502.182   5
   5  -1   5 21814.5 342.682   3
   5   1  -5 21201.7 501.802   8
  -5   1   5 20633.3 552.679   3
  -5  -1  -4 16257.8 466.263  11
   5   1  -4 14880.3 278.950  10
   5  -1   4 15329.1 459.348  10
   5  -1   4 16177.0 235.425   3
   5  -1   4 16311.6 447.058  11
  -5  -1  -4 15675.7 410.877   5
   5   1  -4 15899.6 399.295   8
   5   1  -4 13458.7 182.536   2
  -5   1   4 15395.1 442.565   3
  -5   1   4 15181.7 349.864   1
   5  -1   3 75769.5 911.214  11
  -5  -1  -3 76521.5 926.734  11
   5   1  -3 74548.8 561.960  10
   5  -1   3 77893.1 944.413  10
   5   1  -3 76623.2 917.633   3
   5   1  -3 75920.1 792.374   8
  -5   1   3 75202.0 780.424   1
   5   1  -3 74831.2 876.884   7
   5  -1   2 24144.4 485.182  11
  -5  -1  -2 23986.7 479.567  11
   5   1  -2 25060.7 320.854  10
   5  -1   2 24228.9 476.953  10
   5   1  -2 24656.0 344.425   1
   5   1  -2 25256.1 482.505   3
  -5   1   2 23581.2 442.159   3
   5   1  -2 24949.3 482.262   7
  -5   1   1 38995.7 569.250  11
   5  -1   1 39162.6 531.962  10
   5   1  -1 38187.5 480.181   9
  -5  -1  -1 38176.1 554.931  11
   5   1  -1 38182.1 540.019   3
  -5   1   1 37530.8 484.645   3
   5  -1   1 38621.3 582.613  11
   5   1   0 10177.4 263.463  11
  -5  -1   0 10208.8 268.095  11
   5  -1   0 9644.48 301.540   1
   5  -1   0 10554.4 232.096  10
  -5   1   0 10796.9 307.360  11
   5  -1  -1 39903.1 590.641   9
  -5  -1   1 40311.3 501.079  11
   5  -1  -1 40373.1 441.877   6
   5  -1  -1 38690.9 322.121  10
   5  -1  -1 40290.5 579.959   7
   5  -1  -1 39985.6 579.902   1
   5   1   1 40121.6 565.395  11
   5   1   2 25323.1 484.411  11
  -5  -1   2 25689.0 392.134  11
   5  -1  -2 24888.3 474.867   9
   5  -1  -2 24247.3 474.834   7
  -5  -1   3 77866.0 687.332  11
   5   1   3 77189.2 911.093  11
   5  -1  -3 78639.6 888.199   7
  -5  -1   4 16062.6 465.125   3
  -5   1  -4 15820.7 433.670   5
  -5   1  -4 16379.1 462.459  11
   5   1   4 16969.1 521.355  10
  -5  -1   4 14450.4 273.097   4
   5   1   4 16271.9 449.616  11
  -5   1  -5 21264.7 562.102  11
  -5  -1   5 21294.9 432.518  11
  -5  -1   5 21551.2 350.393  10
   5   1   5 21874.2 625.074  10
  -5   1  -5 21213.5 530.128   5
  -5  -1   5 21776.4 581.924   3
   5  -1  -5 20441.4 525.786   8
   5  -1  -5 20255.7 396.153   2
   5   1   5 21308.8 553.006  11
   5   1   6 16237.5 513.029  11
  -5  -1   6 13009.9 198.522   1
  -5  -1   6 15358.2 395.329  11
  -5  -1   6 15546.8 325.216  10
  -5   1  -6 15084.3 476.181   5
   5   1   6 15434.1 550.063  10
   5  -1  -6 14813.1 348.956   2
   5  -1  -6 15273.5 486.813   8
  -5  -1   6 15271.8 521.151   3
  -5   1  -6 15450.6 519.651  11
  -5  -1   7 13728.5 525.112   3
  -5   1  -7 13285.9 373.130   6
  -5  -1   7 12878.3 384.269  11
  -5  -1   7 13279.8 332.089  10
  -5   1  -7 13058.5 478.017   5
   5  -1  -7 12804.8 479.228   8
   5   1   7 13677.6 538.830  10
  -5  -1   7 11180.2 200.199   1
  -5   1  -7 13398.1 512.830  11
   5   1   7 13235.2 493.576  11
  -5   1  -8 6381.70 289.631   6
  -5   1  -8 6309.12 355.448   5
   5  -1  -8 6231.32 361.618   8
  -5  -1   8 5944.85 279.848  11
   5  -1  -9 13291.8 586.449   6
  -5   1  -9 13389.0 545.732   5
  -5   1  -9 13215.6 451.393   6
   5  -1  -9 12972.2 551.802   8
  -5   1 -10 5284.74 312.129   6
   5  -1 -10 4779.02 392.376   6
   5  -1 -10 5886.07 396.434   8
  -5   1 -10 5856.98 385.126   5
   5  -1 -11 1376.44 241.720   6
  -5   1 -11 1630.20 221.984   5
   5  -1 -11 1640.82 228.129   8
   5  -1 -12 5424.79 446.641   6
   5  -1 -12 5124.80 417.213   8
   5  -1 -13 961.839 208.790   6
   5  -1 -13 785.273 182.878   8
   5  -1 -14 164.158 96.2617   6
   5  -1 -15 1053.73 231.842   6
   5  -1 -16 69.0694 86.8624   6
   5   2 -16 1184.18 246.489   6
   5  -2  16 701.381 218.535   4
   5   2 -15 301.830 155.063   6
   5  -2  15 430.541 167.180   4
   5   2 -14 2204.02 314.682   6
  -5   2  11 2833.59 244.088  12
  -5  -2 -10 1253.53 176.219   5
   5   2 -10 1272.78 189.634   8
  -5  -2  -9 1909.93 204.705   5
   5   2  -9 1836.65 203.946   8
   5   2  -8 877.619 118.315  10
  -5  -2  -8 1026.63 139.911   5
   5   2  -8 858.053 131.462   8
  -5   2   8 700.799 122.333  11
   5  -2   7 23761.4 443.364   3
   5  -2   7 23778.1 636.031  11
  -5   2   7 24596.3 353.238  10
  -5  -2  -7 23430.5 608.370   5
   5   2  -7 20995.6 517.209  10
   5   2  -7 23634.9 609.912   8
  -5   2   7 23825.1 701.102   3
  -5   2   7 24275.9 657.398  11
  -5  -2  -6 27108.3 706.785  11
  -5   2   6 26642.5 659.283  11
  -5   2   6 26295.5 284.321  10
  -5  -2  -6 25404.2 590.816   5
   5  -2   6 26357.3 676.232  10
   5  -2   6 26021.9 399.547   3
   5  -2   6 25998.2 631.279  11
   5   2  -6 25675.7 584.611   8
  -5   2   6 24663.6 665.487   3
   5  -2   5 39319.7 739.855  11
  -5   2   5 38132.9 640.850   1
  -5  -2  -5 40447.6 806.456  11
   5  -2   5 39598.5 779.067  10
  -5  -2  -5 38431.1 674.723   5
   5   2  -5 41229.6 812.860   3
  -5   2   5 38336.4 760.724   3
   5   2  -5 39148.3 656.270   8
   5  -2   4 82107.3 1016.38  11
  -5   2   4 79776.1 902.416   1
  -5  -2  -4 83319.5 1068.71  11
   5  -2   4 82911.0 1048.06  10
   5   2  -4 80086.4 758.445  10
  -5   2   4 79905.1 1014.52   3
   5   2  -4 84344.5 1084.91   3
   5   2  -4 83047.2 864.623   8
  -5  -2  -4 80949.5 905.460   5
   5  -2   3 12430.1 374.843  11
  -5  -2  -3 12818.5 387.719  11
   5   2  -3 12000.0 277.559  10
   5  -2   3 12483.3 372.996  10
  -5  -2  -3 12161.6 327.776   5
   5   2  -3 12481.6 301.199   8
   5   2  -3 12905.8 393.670   3
   5   2  -3 12000.0 356.609   7
  -5   2   3 12244.1 349.975   1
   5   2  -2 47855.3 678.649   7
   5   2  -2 48435.9 432.301   1
   5   2  -2 47948.7 537.649  10
   5  -2   2 47484.3 641.150   4
   5  -2   2 47844.5 655.909  10
  -5  -2  -2 47594.8 686.946  11
   5  -2   2 47075.2 695.167  11
  -5   2   2 45988.1 616.410   3
   5   2  -2 48058.2 527.422   8
   5   2  -2 48087.2 708.987   3
  -5   2   2 46008.0 686.959   1
   5   2  -1 5505.59 171.571  11
  -5  -2  -1 5232.06 206.371  11
   5  -2   1 5575.82 254.202   1
   5  -2   1 5426.40 184.613   4
   5  -2   1 5404.69 193.566  10
   5   2  -1 5363.17 156.092   9
   5   2  -1 5300.63 222.066   3
  -5   2   1 5430.50 186.317   3
   5   2  -1 5238.50 185.715  10
  -5   2   1 5136.28 223.218  11
   5   2   0 13580.5 296.645  11
   5  -2   0 13027.3 243.322   4
  -5  -2   0 13185.3 292.934  11
   5  -2   0 13251.2 249.835  10
   5  -2   0 12892.9 369.364   1
  -5   2   0 13049.5 224.931   3
   5   2   1 5199.80 202.930  11
   5  -2  -1 5143.15 227.874   1
   5  -2  -1 5087.56 111.517  10
  -5  -2   1 5164.87 169.716  11
   5  -2  -1 5240.97 142.312   4
  -5   2  -1 5123.13 215.161  10
   5  -2  -1 5213.53 206.849   7
   5   2   2 46556.0 660.962  11
  -5  -2   2 46696.9 468.294  11
   5  -2  -2 45561.6 697.127   9
  -5   2  -2 47107.8 727.633  10
   5  -2  -2 47434.7 598.903   6
   5  -2  -2 46649.4 647.812   7
   5   2   3 12877.1 380.579  11
   5  -2  -3 12729.0 353.423   6
   5  -2  -3 12669.2 377.038   9
  -5   2  -3 12619.2 421.561  10
  -5  -2   3 12418.1 237.648  11
  -5  -2   3 12446.0 220.202   4
  -5  -2   4 82728.4 633.733  11
  -5   2  -4 81451.9 1042.22  11
   5  -2  -4 82184.4 994.816   6
  -5  -2   4 83694.0 676.046   4
  -5  -2   4 82273.1 749.201  10
  -5   2  -4 84566.3 1186.54  10
  -5   2  -4 82584.9 1013.61   5
   5   2   4 83986.0 1041.33  11
  -5   2  -4 80436.4 583.618  12
   5   2   5 41434.8 780.513  11
  -5   2  -5 39798.2 776.676  11
  -5   2  -5 38525.4 728.890   5
   5  -2  -5 39406.1 748.886   6
  -5  -2   5 39423.3 510.253  11
  -5  -2   5 37482.1 539.877   4
   5   2   5 39674.8 882.491  10
   5  -2  -5 38183.9 749.390   8
  -5  -2   5 39591.4 547.587  10
   5  -2  -6 25729.5 662.300   6
  -5   2  -6 27126.0 681.418  11
  -5  -2   6 26127.6 446.002  11
  -5   2  -6 25419.5 628.390   5
  -5  -2   6 25694.1 470.858  10
  -5  -2   6 23567.8 503.407   4
   5   2   6 26692.3 746.231  10
   5  -2  -6 25396.2 516.609   2
   5  -2  -6 25860.8 655.661   8
   5   2   6 26391.4 662.165  11
  -5   2  -7 25203.2 702.206  11
  -5  -2   7 23187.1 458.288  11
  -5  -2   7 24250.3 491.576  10
   5  -2  -7 23245.4 513.681   2
  -5  -2   7 23209.6 556.179   4
  -5   2  -7 24149.8 656.059   5
   5  -2  -7 24372.8 695.270   6
   5  -2  -7 23887.1 671.211   8
   5  -2  -8 1010.49 161.082   6
  -5  -2   8 1025.49 111.793  10
  -5  -2   8 540.031 114.903   4
  -5   2  -8 1301.32 173.773   5
   5  -2  -8 1079.43 167.974   8
   5  -2  -9 1711.40 216.180   6
  -5   2  -9 1917.38 213.330   5
  -5  -2   9 1488.10 182.499   4
   5  -2  -9 1835.27 217.985   8
   5  -2 -10 1165.37 217.553   6
  -5   2 -10 1312.65 155.985   6
  -5  -2  10 1163.69 156.654   4
  -5   2 -10 1561.78 209.876   5
   5  -2 -10 1310.41 198.752   8
   5  -2 -11 2727.86 325.830   6
  -5  -2  11 2423.57 245.870   4
   5  -2 -11 2889.78 303.587   8
  -5   2 -11 3346.91 313.660   5
   5  -2 -12 672.243 173.547   6
   5  -2 -12 828.050 188.885   8
   5  -2 -13 1672.08 265.801   6
   5  -2 -13 1867.10 262.994   8
   5  -2 -14 2069.80 301.970   6
   5  -2 -14 2543.51 328.024   8
   5  -2 -15 363.571 155.185   6
   5  -2 -16 1021.45 230.238   6
   5   3 -16 1160.73 239.418   6
   5  -3  16 1015.26 232.881   4
   5   3 -15 263.389 143.219   6
   5  -3  15 409.899 185.815   4
   5  -3  14 1408.82 277.800   4
   5  -3  13 2528.59 362.291   4
  -5   3  11 1067.18 160.741  12
  -5   3  10 142.685 64.8525  12
  -5  -3  -9 1821.79 192.648   5
   5   3  -9 1806.02 200.532   8
  -5  -3  -8 396.821 91.2634   5
   5   3  -8 441.796 100.337   8
   5   3  -8 500.509 94.0675  10
  -5   3   7 457.204 105.415  11
   5   3  -7 372.140 77.0032  10
  -5  -3  -7 422.029 90.6284   5
   5   3  -7 423.145 88.1671   8
   5  -3   7 470.273 93.5387  11
   5   3  -6 4758.21 243.310  10
   5  -3   6 5179.96 283.779  11
  -5   3   6 4592.35 114.268  10
  -5   3   6 5004.22 125.117  10
   5  -3   6 5127.00 303.811  10
  -5  -3  -6 5316.22 265.666   5
  -5   3   6 5173.46 311.605   3
   5   3  -6 5485.59 325.535   3
  -5   3   6 5074.78 307.403  11
   5   3  -6 5429.46 263.946   8
  -5  -3  -6 5103.30 313.554  11
  -5  -3  -5 4810.38 283.613  11
   5  -3   5 4725.40 270.392  10
  -5  -3  -5 4261.94 219.759   5
   5   3  -5 4901.39 227.107  10
   5   3  -5 4910.74 226.258   8
   5   3  -5 4606.65 283.756   3
   5  -3   5 4883.94 264.136  11
  -5  -3  -4 1796.65 160.910  11
  -5   3   4 1525.98 140.917   1
   5  -3   4 1637.20 150.086  10
   5  -3   4 1655.93 154.942   4
  -5  -3  -4 1576.91 123.621   5
   5   3  -4 1606.06 116.331   8
   5   3  -4 1586.10 156.606   3
   5  -3   4 1766.27 151.671  11
   5   3  -3 323.194 71.2986   3
   5  -3   3 319.268 62.8291  11
  -5  -3  -3 320.513 71.1079  11
   5  -3   3 281.939 64.4195   4
   5  -3   3 372.730 67.4972  10
   5  -3   3 354.567 86.2060   1
  -5  -3  -3 313.855 57.1704   5
   5   3  -3 224.002 41.8038   8
  -5   3   3 266.209 64.3199   1
   5   3  -3 288.535 60.2031   7
   5  -3   2 32744.7 604.687  11
  -5  -3  -2 32935.0 576.531  11
   5  -3   2 33087.6 552.817   4
  -5   3   2 32650.3 628.232   1
   5  -3   2 32535.3 545.650  10
   5   3  -2 34424.6 642.100   3
   5   3  -2 32843.8 388.020   8
   5  -3   2 32883.7 673.816   1
   5   3  -2 32688.9 323.959   2
   5   3  -2 32410.5 564.460   7
   5   3  -1 25781.4 350.488  11
  -5  -3  -1 26448.1 469.815  11
   5  -3   1 25091.7 434.402   4
   5  -3   1 25276.0 422.743  10
  -5   3   1 26269.1 345.076  10
   5   3  -1 26179.8 367.646   2
   5  -3   1 25358.9 575.103   1
  -5   3   1 25472.2 559.262   1
   5  -3   0 34781.8 470.360   4
  -5  -3   0 35259.6 485.494  11
   5   3   0 34589.8 487.650   2
   5  -3   0 35158.6 427.732  10
   5  -3   0 34655.5 649.287   1
  -5   3   0 35388.0 491.680  10
   5   3   0 34479.6 465.681  11
   5  -3   0 35455.2 506.713   7
  -5  -3   1 26320.4 360.807  11
   5  -3  -1 25753.7 301.977  10
  -5   3  -1 26471.4 484.427  10
   5   3   1 26379.3 459.741  11
  -5  -3   1 25311.0 377.744   4
   5  -3  -1 26430.4 399.585   4
   5  -3  -1 25754.8 453.066   7
  -5  -3   2 33932.7 346.978  11
  -5   3  -2 35443.8 632.875  10
   5  -3  -2 34625.0 642.040   9
  -5   3  -2 33711.5 530.042  12
   5  -3  -2 33216.2 451.175   4
   5  -3  -2 34224.8 554.257   7
  -5  -3   2 33969.9 427.429   4
   5   3   2 34000.1 580.755  11
  -5  -3   3 227.427 24.5429  11
   5  -3  -3 265.111 58.0160   6
   5   3   3 330.313 68.6958  11
   5   3   3 315.328 61.2052   2
  -5   3  -3 294.522 76.3631  10
   5  -3  -3 308.815 69.0987   9
  -5  -3   3 272.564 41.8310   4
  -5   3  -3 307.488 66.6654  11
  -5   3  -3 270.117 47.6752  12
  -5  -3   4 1311.21 56.0954  11
   5  -3  -4 1532.20 146.414   6
  -5   3  -4 1580.74 149.090  11
   5   3   4 1589.32 148.883  11
  -5  -3   4 1134.77 55.9777  11
  -5  -3   4 1534.62 119.749  10
   5   3   4 1547.95 147.294   2
  -5   3  -4 1497.57 160.755  10
  -5   3  -4 1734.76 155.874   5
  -5  -3   4 1504.68 102.574   4
  -5   3  -4 1400.95 88.2565  12
  -5  -3   5 3952.27 111.670  11
  -5   3  -5 4688.71 269.156  11
  -5  -3   5 4338.60 193.816   4
  -5  -3   5 4419.24 205.934  10
   5   3   5 4622.69 269.185   2
  -5   3  -5 5049.65 319.709  10
  -5   3  -5 4624.81 261.340   5
   5  -3  -5 4361.29 266.632   8
   5   3   5 4457.09 262.752  11
  -5  -3   5 3642.42 110.777  11
   5  -3  -5 4750.32 274.271   6
   5   3   6 5146.03 300.567   2
   5  -3  -6 4898.40 301.819   6
   5   3   6 5218.04 301.984  11
  -5   3  -6 4776.08 290.371  11
  -5  -3   6 4310.89 140.658  11
  -5  -3   6 4919.89 227.064  10
  -5   3  -6 4838.85 285.209   5
  -5   3  -6 5289.14 355.676  10
   5  -3  -6 4972.11 300.672   8
   5  -3  -6 4476.06 242.251   2
   5   3   6 4754.77 330.008  10
  -5  -3   6 4381.10 216.822   4
   5  -3  -7 392.216 76.9286   2
  -5   3  -7 570.826 108.571  11
  -5  -3   7 420.307 79.1073   4
  -5  -3   7 418.366 74.6362  10
  -5   3  -7 534.921 113.401   5
   5  -3  -7 406.472 108.972   8
   5  -3  -7 375.141 104.055   6
   5  -3  -8 474.917 123.998   6
  -5  -3   8 312.039 77.4190   4
  -5  -3   8 310.932 66.1453  10
  -5   3  -8 272.478 103.925   5
   5  -3  -8 423.516 116.441   8
   5  -3  -9 2219.48 263.367   6
  -5  -3   9 2080.09 202.716   4
  -5   3  -9 2039.10 230.080   5
   5  -3  -9 2227.49 250.749   8
   5  -3 -10 160.764 102.720   6
  -5  -3  10 220.937 83.6717   4
  -5   3 -10 139.921 121.232   5
   5  -3 -10 75.2218 95.6135   8
  -5  -3  11 1208.03 175.312   4
  -5   3 -11 1019.60 206.309   5
   5  -3 -11 968.558 228.409   6
   5  -3 -11 1123.16 197.758   8
   5  -3 -12 1348.93 245.185   6
   5  -3 -12 1319.81 230.269   8
   5  -3 -13 2916.95 352.575   6
   5  -3 -13 3135.71 352.074   8
   5  -3 -14 1498.09 267.180   6
   5  -3 -14 1355.60 244.146   8
   5  -4  15 3199.08 401.399   4
   5   4 -15 2449.72 349.490   6
   5  -4  14 2773.36 366.845   4
   5  -4  13 1435.85 273.742   4
   5  -4  12 1560.82 276.224   4
   5  -4  11 4086.06 398.291   4
  -5   4  11 3812.61 294.228  12
   5  -4  10 2286.75 301.760   4
  -5   4  10 1405.10 178.136  12
   5  -4   9 2835.72 318.170   4
  -5   4   9 2808.95 249.181  12
  -5  -4  -8 9464.42 400.800   5
   5  -4   8 9003.59 506.279   4
   5   4  -8 7594.30 379.756  10
  -5   4   8 9083.33 435.851  12
   5   4  -7 439.128 88.6321  10
   5  -4   7 513.042 135.545   4
  -5  -4  -7 484.744 86.1170   5
   5   4  -7 414.795 91.5083   8
   5  -4   7 534.552 99.8522  11
   5  -4   6 18783.7 545.336  11
   5   4  -6 17561.2 496.521  10
  -5  -4  -6 19780.6 637.358  11
  -5   4   6 19235.8 625.691  11
   5  -4   6 19728.8 637.056   1
  -5   4   6 17121.5 247.788  10
  -5  -4  -6 18242.0 475.688   5
   5  -4   6 19819.7 596.156  10
   5  -4   6 18167.8 619.718   4
  -5   4   6 16560.2 269.374  10
   5   4  -6 19318.4 487.912   8
   5   4  -6 20029.2 642.301   3
   5  -4   5 7206.01 321.642  11
  -5  -4  -5 7456.95 362.251  11
   5  -4   5 6663.38 346.385   4
  -5  -4  -5 6823.28 268.916   5
   5   4  -5 6873.04 293.814  10
  -5   4   5 6132.71 129.142  10
   5   4  -5 6848.21 261.019   8
   5  -4   5 7660.99 381.599   1
   5  -4   5 7104.49 336.884  10
  -5   4   5 5630.85 136.258  10
   5   4  -5 7348.14 373.476   3
   5  -4   4 90790.0 1122.67  10
  -5  -4  -4 92525.7 1189.43  11
  -5   4   4 91131.2 1155.78   1
   5  -4   4 88500.8 1156.22   4
   5   4  -4 86101.4 982.918  10
  -5  -4  -4 88645.5 886.161   5
   5   4  -4 91382.4 836.492   8
   5  -4   4 94237.5 1282.26   1
   5   4  -4 94352.5 1250.51   3
   5  -4   4 89615.1 1094.63  11
   5   4  -3 3608.32 237.191   3
  -5  -4  -3 3492.31 216.104  11
   5  -4   3 3621.91 216.328   4
   5   4  -3 3371.99 188.385  10
   5  -4   3 3819.60 213.105  10
  -5   4   3 3142.87 97.1444  10
   5  -4   3 3871.53 250.712   1
  -5  -4  -3 3634.17 164.726   5
  -5   4   3 3328.37 220.966   1
   5   4  -3 3708.21 143.348   8
   5   4  -3 3590.64 197.262   7
  -5  -4  -2 45737.7 701.361  11
   5  -4   2 45020.7 688.383   4
   5   4  -2 44916.1 669.224  10
   5  -4   2 45888.8 670.049  10
  -5   4   2 46072.6 440.579  10
  -5  -4  -2 44111.9 523.438   5
   5   4  -2 40812.6 364.528   8
   5  -4   2 47378.5 843.304   1
   5   4  -2 46770.6 690.027   7
  -5   4   2 47000.0 817.034   1
   5   4  -1 6596.69 171.036  11
   5  -4   1 6342.08 240.813   4
  -5   4   1 6477.87 194.661  10
  -5  -4  -1 6308.47 234.652  11
   5   4  -1 6306.25 253.722  10
   5  -4   1 6301.06 225.016  10
   5  -4   1 6547.99 304.801   1
   5  -4   1 6425.74 208.299   7
  -5   4   1 6511.48 308.591   1
   5  -4   0 5419.55 215.222   4
   5  -4   0 5729.58 192.031  10
  -5   4   0 5307.03 205.734  10
  -5  -4   0 5168.48 191.348  11
   5   4   0 5423.65 188.783  11
  -5   4   0 5252.40 278.640   1
  -5  -4   0 5360.90 209.796   4
   5   4   0 5581.00 210.675   2
   5  -4   0 5235.03 190.550   7
  -5   4   0 5357.93 247.267  12
  -5   4  -1 6251.48 278.777  11
   5   4   1 6656.06 238.321  11
  -5  -4   1 6161.02 171.590  11
   5  -4  -1 6636.45 185.615  10
  -5   4  -1 6285.22 251.437  10
  -5  -4   1 6435.96 223.211   4
   5  -4  -1 6250.57 220.429   7
   5  -4  -1 6502.85 231.840   4
  -5   4  -1 6245.90 260.122  12
   5   4   2 48735.7 703.647  11
  -5   4  -2 47922.8 790.544  11
  -5   4  -2 49015.9 763.501  10
   5  -4  -2 47251.4 797.134   9
   5   4   2 48869.0 749.333   2
   5  -4  -2 47386.7 632.933   4
  -5  -4   2 47310.7 593.327   4
  -5   4  -2 47349.5 673.214  12
  -5   4  -3 3704.83 176.612  12
   5   4   3 3944.22 220.494  11
  -5   4  -3 3893.84 236.187  10
   5  -4  -3 4021.24 237.972   9
  -5   4  -3 4065.35 237.541  11
   5   4   3 4150.50 236.881   2
  -5  -4   3 3731.77 170.850   4
  -5  -4   4 89248.7 873.549   4
  -5   4  -4 94354.3 1278.36  10
  -5   4  -4 92368.0 1171.52  11
  -5   4  -4 91071.8 1118.15   5
   5   4   4 93998.8 1192.50   2
  -5   4  -4 91134.4 790.723  12
   5   4   4 93300.1 1155.68  11
   5  -4  -5 7056.98 342.630   6
  -5  -4   5 6731.45 280.793  10
   5   4   5 7255.54 343.848  11
  -5   4  -5 7001.02 334.926  11
  -5   4  -5 7899.09 403.433  10
  -5   4  -5 7549.82 339.151   5
   5   4   5 7403.45 354.035   2
  -5  -4   5 6753.76 256.779   4
   5  -4  -6 19972.3 615.474   6
   5   4   6 19707.2 602.814  11
  -5   4  -6 18303.0 570.234  11
  -5  -4   6 19164.7 474.406   4
  -5  -4   6 18540.1 477.917  10
  -5   4  -6 19265.4 565.738   5
   5   4   6 19316.6 603.409   2
  -5   4  -6 20269.4 700.564  10
   5  -4  -6 18843.7 600.033   8
   5  -4  -6 17927.9 524.894   2
   5  -4  -7 310.851 75.6174   2
  -5  -4   7 460.244 87.5975   4
   5  -4  -7 258.409 98.5762   6
  -5   4  -7 471.601 94.6902  11
  -5  -4   7 422.751 83.4147  10
  -5   4  -7 255.994 76.4411   5
   5  -4  -7 310.791 84.0328   8
  -5  -4   8 10306.4 407.978   4
  -5  -4   8 8521.16 362.418  10
   5  -4  -8 8212.59 374.174   2
  -5   4  -8 9802.89 461.667   5
   5  -4  -8 9809.42 499.549   6
   5  -4  -8 9782.00 483.763   8
   5  -4  -9 3298.15 323.322   6
  -5   4  -9 2921.14 275.452   5
   5  -4  -9 3289.29 306.399   8
  -5  -4   9 3326.23 250.440   4
  -5  -4  10 1292.41 170.618   4
  -5   4 -10 1557.27 219.523   5
   5  -4 -10 2040.07 260.335   8
   5  -4 -10 1347.90 261.345   6
  -5  -4  11 3775.64 298.611   4
  -5   4 -11 3898.09 356.636   5
   5  -4 -11 3850.56 408.355   6
   5  -4 -12 1459.03 237.747   8
   5  -4 -12 1279.25 232.022   6
   5  -4 -13 1607.47 258.650   8
   5  -4 -14 2957.98 349.981   8
   5  -5  15 785.765 206.248   4
   5  -5  14 1779.91 300.471   4
   5  -5  13 940.346 250.269   4
   5  -5  12 7580.69 554.818   4
   5  -5  11 2763.99 332.182   4
  -5   5  11 2396.02 238.075  12
   5  -5  10 2529.10 311.952   4
  -5   5  10 2754.90 256.001  12
   5  -5   9 999.584 196.018   4
  -5   5   9 850.246 142.529  12
   5  -5   8 4775.16 375.432   4
  -5   5   8 4325.98 311.366  12
  -5  -5  -7 2913.89 201.691   5
   5   5  -7 2695.40 223.155  10
   5  -5   7 2875.77 272.875   4
  -5   5   7 2893.99 250.247  12
  -5  -5  -6 21223.7 499.741   5
   5  -5   6 20962.3 669.346   4
   5   5  -6 20897.6 582.339  10
  -5   5   6 21485.5 644.141  12
   5  -5   6 21841.9 690.281   1
   5  -5   6 20775.7 580.119  11
   5  -5   5 29483.1 668.670  11
  -5  -5  -5 31342.6 766.944  11
   5  -5   5 29797.4 733.892   4
  -5   5   5 27626.2 353.624  10
   5  -5   5 31435.4 798.181   1
  -5  -5  -5 29637.9 536.748   5
   5  -5   5 30048.3 709.735  10
   5   5  -5 27579.5 636.286  10
  -5   5   5 26440.0 414.803  10
  -5   5   5 29802.6 734.704  12
   5   5  -5 31950.4 799.744   3
   5   5  -4 8764.34 404.684   3
  -5  -5  -4 8606.70 373.811  11
   5  -5   4 7056.25 340.485   4
  -5   5   4 8338.68 379.355   1
  -5   5   4 7564.22 185.997  10
   5  -5   4 8381.05 352.028  10
  -5  -5  -4 8044.77 253.042   5
   5  -5   4 8626.35 403.942   1
  -5   5   4 7944.51 373.241  12
   5   5  -4 7751.60 321.874  10
   5   5  -3 31321.7 281.918   1
   5  -5   3 32548.8 667.655   4
  -5  -5  -3 35019.6 699.433  11
   5  -5   3 33393.8 651.133  10
  -5   5   3 32497.8 407.230  10
  -5  -5  -3 32020.7 453.497   5
  -5   5   3 33758.9 751.820   1
  -5   5   3 33120.5 726.804  12
   5  -5   3 35361.2 783.723   1
   5   5  -3 32210.0 633.514  10
   5   5  -3 32131.0 587.854   7
   5   5  -3 36203.1 785.080   3
   5  -5   2 6219.51 274.920   4
   5   5  -2 6511.99 279.048  10
   5  -5   2 6549.51 266.982  10
  -5   5   2 6503.60 200.924  10
   5  -5   2 6845.73 335.823   1
  -5  -5  -2 6245.01 271.440  11
  -5  -5  -2 6220.52 179.490   5
  -5   5   2 6412.23 310.293  12
  -5   5   2 6218.95 325.521   1
   5   5  -2 6465.76 258.983   7
  -5  -5  -1 20506.4 443.519  11
   5   5  -1 20461.3 497.423  10
   5  -5   1 20769.6 437.492  10
  -5   5   1 20257.3 388.307  10
  -5   5   1 20861.9 589.937   1
  -5  -5  -1 17848.9 278.154   5
   5  -5   1 19668.5 472.628   4
   5   5  -1 21042.8 303.626  11
   5  -5   1 18860.3 339.210   7
  -5   5   1 19991.1 527.782  12
  -5  -5   0 91.5507 33.8386  11
  -5  -5   0 85.5186 46.5360   4
  -5   5   0 106.112 43.4004   1
   5   5   0 124.914 47.2708  10
   5  -5   0 77.4238 28.0023  10
  -5   5   0 40.7076 28.1589  10
  -5   5   0 71.7878 50.0359  12
  -5   5   0 102.637 44.5671  11
   5  -5   0 68.0315 37.0332   4
   5  -5   0 59.3425 20.9145   7
   5   5   0 58.8332 24.3658  11
  -5   5  -1 18702.0 505.211  11
   5  -5  -1 19409.9 370.568  10
  -5   5  -1 19550.6 467.094  10
   5  -5  -1 18532.0 519.040   9
   5   5   1 18825.1 453.498   2
  -5   5  -1 19037.0 477.426  12
  -5  -5   1 19440.9 440.502   4
   5  -5  -1 19341.0 450.078   4
   5   5   1 19157.9 414.220  11
   5   5   2 6521.13 266.997  11
  -5   5  -2 6754.64 298.275  10
   5  -5  -2 6285.48 306.748   9
   5  -5  -2 6419.30 265.151   4
  -5  -5   2 6400.24 249.453   4
   5   5   2 6419.14 288.815   2
  -5   5  -2 6224.73 298.098  11
  -5   5  -2 6206.95 263.316  12
  -5   5  -3 31917.3 691.260  11
  -5   5  -3 33152.6 716.198  10
   5  -5  -3 31944.3 699.149   9
   5   5   3 31957.5 646.450  11
  -5  -5   3 32083.7 566.238   4
  -5   5  -3 27193.6 300.984   3
  -5   5  -3 32080.0 559.669  12
   5  -5  -3 32010.7 596.875   4
   5   5   3 33773.2 707.982   2
  -5   5  -4 8596.33 368.295  11
  -5   5  -4 8708.74 397.639  10
  -5   5  -4 8189.46 346.224   5
  -5  -5   4 7953.56 291.317   4
   5   5   4 8923.05 387.206   2
   5   5   4 8181.48 352.828  11
  -5  -5   5 29506.7 588.271   4
  -5   5  -5 29896.8 710.750  11
  -5  -5   5 29414.9 635.246  10
  -5   5  -5 31409.5 815.814  10
  -5   5  -5 29771.9 682.034   5
   5   5   5 29880.9 720.708  11
   5   5   5 31376.0 766.360   2
  -5   5  -6 20603.3 613.236  11
  -5  -5   6 20882.4 551.416  10
  -5   5  -6 21282.2 610.644   5
   5  -5  -6 20761.3 605.037   2
   5  -5  -6 22007.1 674.692   8
  -5  -5   6 21714.0 531.873   4
  -5  -5   7 3220.29 219.930   4
  -5  -5   7 3058.68 223.386  10
  -5   5  -7 3132.46 254.387   5
   5  -5  -7 3104.79 271.571   8
  -5  -5   8 4750.33 287.822   4
  -5   5  -8 5118.10 334.909   5
   5  -5  -8 4616.86 347.091   8
  -5  -5   9 1347.71 166.570   4
  -5   5  -9 1332.51 186.723   5
   5  -5  -9 881.997 187.982   8
  -5  -5  10 2315.60 225.948   4
  -5   5 -10 2672.69 271.152   5
   5  -5 -10 1885.13 282.454   8
  -5  -5  11 2737.62 255.794   4
  -5   5 -11 2969.84 300.853   5
   5  -5 -11 2888.98 317.557   8
   5  -5 -12 7509.20 522.932   8
   5  -5 -13 1062.58 222.937   8
   5  -5 -14 1530.09 260.926   8
   5  -5 -15 564.428 180.409   8
   5  -6  15-48.1811 107.738   4
   5  -6  14 576.950 167.200   4
   5  -6  13 1700.53 280.067   4
   5  -6  12 1716.77 282.081   4
   5  -6  11 480.843 151.315   4
  -5   6  11 541.374 115.354  12
   5  -6  10 738.557 183.462   4
  -5   6  10 766.622 150.013  12
  -5   6   9 146.497 70.5024  12
   5  -6   9 251.278 125.943   4
   5  -6   8 2970.46 300.824   4
  -5   6   8 2804.86 254.315  12
   5  -6   7 3365.74 296.952   4
  -5   6   7 2653.44 246.239  12
   5  -6   6 11072.8 500.845   4
   5   6  -6 11347.2 463.976  10
  -5   6   6 12686.5 513.287  12
   5  -6   5 715.849 121.905   4
  -5  -6  -5 797.649 126.602  11
  -5  -6  -5 602.566 76.2899   5
   5   6  -5 542.420 99.0090  10
   5  -6   5 725.160 122.469   1
  -5   6   5 497.284 118.012  12
   5  -6   4 16338.9 531.528   4
  -5   6   4 16668.9 572.900   1
  -5  -6  -4 17561.7 553.682  11
  -5  -6  -4 15629.4 330.476   5
   5  -6   4 17667.8 526.690  10
  -5   6   4 15973.7 324.170  10
   5   6  -4 16482.9 509.230  10
   5  -6   4 17456.5 587.247   1
  -5   6   4 17053.1 569.144  12
   5   6  -4 18301.8 612.853   3
   5   6  -3 1836.71 189.905   3
   5  -6   3 1760.28 171.069   4
  -5  -6  -3 1727.80 163.457  11
   5  -6   3 1579.88 176.555   1
  -5  -6  -3 1655.97 92.8465   5
   5  -6   3 1876.54 162.952  10
   5   6  -3 1760.13 161.484  10
  -5   6   3 1665.75 109.239  10
  -5   6   3 1657.68 180.667  12
  -5   6   3 1918.91 195.451   1
   5   6  -3 1770.23 92.9490   1
   5   6  -3 1742.16 137.206   7
  -5  -6  -2 259.463 63.0238  11
   5   6  -2 178.085 55.4917  10
   5  -6   2 194.186 55.3597  10
  -5   6   2 174.137 41.1762  10
   5  -6   2 184.770 32.0395   7
  -5   6   2 112.312 55.8125   1
   5  -6   2 283.274 74.5014   4
  -5   6   2 261.958 77.5752  12
   5   6  -2 277.181 58.9292   7
   5   6  -1 4725.63 258.179  10
   5  -6   1 4520.73 221.383  10
  -5   6   1 4766.23 302.778   1
  -5   6   1 4452.56 204.505  10
  -5   6   1 4520.81 265.788  12
   5   6  -1 4831.48 146.427  11
   5  -6   1 4110.46 147.778   7
   5  -6   1 4599.74 248.652   4
   5   6   0 1851.03 166.779  10
   5  -6   0 1988.00 140.349  10
  -5   6   0 1905.77 193.546   1
   5   6   0 2001.65 120.948  11
  -5  -6   0 1704.95 150.865   4
  -5   6   0 1918.46 171.968  11
   5  -6   0 1896.82 161.935   4
  -5   6   0 1693.23 139.165  10
  -5   6   0 1824.19 168.370  12
   5   6   1 5048.50 220.333  11
  -5   6  -1 4728.51 270.541  11
   5   6   1 5084.77 282.394  10
  -5   6  -1 4652.51 242.660  10
   5  -6  -1 4591.70 273.942   9
  -5  -6   1 4602.83 240.721   4
   5  -6  -1 4793.56 253.481   4
  -5   6  -1 4939.15 261.464  12
   5   6   2 160.468 44.7671  11
  -5   6  -2 164.707 55.6966  10
   5  -6  -2 294.699 68.8454   4
   5  -6  -2 199.240 74.6283   9
  -5  -6   2 132.113 51.6158   4
  -5   6  -2 213.102 62.2981  12
  -5   6  -2 190.381 62.1667  11
   5   6   3 1792.83 160.992  11
   5  -6  -3 1619.34 167.029   9
  -5   6  -3 1631.44 167.333  10
   5  -6  -3 1410.99 143.043   4
  -5   6  -3 1662.58 141.268  12
  -5   6  -3 1675.28 97.4433   3
  -5   6  -3 1672.39 165.957  11
  -5  -6   3 1684.32 147.150   4
  -5   6  -4 15984.5 517.540  11
   5   6   4 16960.1 525.532  11
  -5   6  -4 17552.2 585.515  10
  -5  -6   4 16753.4 466.550   4
  -5   6  -4 14617.2 282.120   3
  -5   6  -4 16455.3 501.082   5
   5   6   5 708.933 115.486  11
  -5   6  -5 586.202 106.168   5
  -5  -6   5 483.617 85.4483   4
  -5   6  -5 424.520 90.4986  11
  -5  -6   6 10843.9 431.987  10
  -5   6  -6 10991.5 457.698  11
  -5   6  -6 11829.1 465.208   5
  -5  -6   6 11629.3 420.713   4
   5  -6  -6 12366.4 525.890   8
  -5  -6   7 2914.99 221.860   4
  -5   6  -7 2774.38 239.577   5
   5  -6  -7 2866.60 268.835   8
  -5   6  -8 3301.66 278.281   5
   5  -6  -8 2972.85 299.631   8
  -5  -6   8 3174.17 246.555   4
  -5   6  -9 395.592 116.574   5
  -5  -6   9 210.033 75.7343   4
   5  -6  -9 105.438 106.209   8
  -5   6 -10 722.464 152.091   5
   5  -6 -10 657.190 198.816   8
  -5  -6  10 598.640 124.678   4
  -5   6 -11 332.352 121.689   5
   5  -6 -11 280.114 111.977   8
   5  -6 -12 1522.15 247.907   8
   5  -6 -13 1141.32 232.582   8
   5  -6 -14 564.055 161.295   8
   5  -6 -15 49.5272 74.1108   8
   5  -7  14 1789.83 289.992   4
   5  -7  13 873.743 208.119   4
   5  -7  12 4826.61 447.594   4
   5  -7  11 833.847 201.817   4
  -5   7  11 1052.80 166.156  12
   5  -7  10 11872.2 651.733   4
  -5   7  10 10355.6 520.005  12
   5  -7   9 5915.58 441.654   4
  -5   7   9 5690.96 381.995  12
   5  -7   8 1134.53 195.414   4
  -5   7   8 1054.94 167.447  12
  -5   7   7 7488.82 428.328  12
   5  -7   7 7683.74 452.115   4
   5  -7   6 3162.02 277.773   4
  -5   7   6 3600.23 293.030  12
   5  -7   5 10636.2 478.768   4
  -5   7   5 11234.0 492.188  12
   5  -7   4 22297.3 649.282   4
  -5   7   4 19264.1 408.590  10
   5   7  -4 21111.9 620.012  10
  -5   7   4 22848.7 685.532  12
   5  -7   3 45909.6 893.234   4
   5  -7   3 47631.0 860.229  10
  -5   7   3 43401.2 635.865  10
   5   7  -3 45865.6 886.152  10
   5   7  -3 47367.8 577.741   1
  -5   7   3 47362.9 951.667  12
   5   7  -3 42497.1 676.646   7
   5  -7   2 1388.82 141.213  10
   5   7  -2 1207.71 141.870  10
  -5   7   2 1027.99 102.509  10
  -5   7   2 1273.29 162.280  12
  -5   7   2 1405.68 177.049   1
   5  -7   2 1143.94 144.219   4
   5   7  -2 1130.44 110.781   7
   5   7  -1 10198.8 217.242  11
   5  -7   1 9852.33 354.155  10
   5   7  -1 10280.0 409.159  10
  -5   7   1 10866.2 486.601   1
  -5   7   1 10189.5 338.406  10
   5   7  -1 9718.55 329.320   7
   5  -7   1 10179.7 403.865   4
  -5  -7  -1 10500.6 411.934   4
  -5   7   1 10361.6 420.771  12
   5   7   0 777.532 79.6457  11
  -5   7   0 623.295 122.504   1
  -5  -7   0 505.043 94.0138   4
   5  -7   0 626.416 89.9386  10
   5   7   0 646.270 108.250  10
  -5   7   0 608.340 90.8762  10
   5  -7   0 591.987 103.927   4
  -5   7   0 703.531 114.257  12
  -5   7   0 692.951 109.175  11
  -5   7  -1 9801.11 406.305  11
   5   7   1 10860.3 338.208  11
   5   7   1 10780.6 431.330  10
  -5   7  -1 10061.5 381.050  10
   5  -7  -1 10392.4 427.062   9
  -5  -7   1 9907.21 381.500   4
   5  -7  -1 11080.9 417.332   4
  -5   7  -1 10529.4 404.710  12
  -5   7  -2 1260.28 147.222  11
   5   7   2 1254.30 127.827  11
   5   7   2 1537.79 168.733  10
  -5   7  -2 1426.52 154.069  10
   5  -7  -2 1186.49 153.598   9
  -5   7  -2 1281.69 142.881  12
   5  -7  -2 1262.37 147.436   4
  -5  -7   2 1294.39 141.707   4
  -5   7  -3 45654.4 890.088  11
  -5   7  -3 46623.8 603.763   3
   5   7   3 47073.2 845.065  11
   5  -7  -3 48427.7 933.962   9
  -5   7  -3 48085.3 955.375  10
  -5   7  -3 47644.8 839.484   5
   5  -7  -3 47382.3 875.792   4
  -5  -7   3 47368.8 834.647   4
  -5   7  -4 20788.5 615.461  11
   5   7   4 22580.0 627.696  11
  -5   7  -4 22813.0 603.542   5
  -5  -7   4 22328.9 587.160   4
  -5   7  -5 10261.2 446.152  11
  -5   7  -5 12241.0 459.794   5
  -5  -7   5 11732.4 435.128   4
  -5   7  -6 3353.65 256.261   5
  -5  -7   6 3068.44 234.510   4
   5  -7  -6 3257.99 284.589   8
  -5  -7   7 8146.84 396.304   4
  -5   7  -7 8386.76 421.589   5
   5  -7  -7 7784.37 449.058   8
  -5   7  -8 1255.58 174.523   5
   5  -7  -8 1087.56 198.569   8
  -5  -7   8 1002.97 148.733   4
  -5  -7   9 5780.51 361.580   4
  -5   7  -9 6145.88 400.115   5
   5  -7  -9 5446.00 427.317   8
  -5   7 -10 11582.7 576.835   5
  -5  -7  10 10730.3 506.062   4
   5  -7 -10 10960.4 602.185   8
  -5   7 -11 1090.16 193.922   5
   5  -7 -11 1024.19 204.795   8
   5  -7 -12 3941.51 392.686   8
   5  -7 -13 500.874 151.771   8
   5  -7 -14 1387.71 249.612   8
   5  -7 -15 504.100 165.594   8
   5  -8  14 418.383 152.319   4
   5  -8  13 3532.81 397.055   4
   5  -8  12 290.558 120.887   4
   5  -8  11 6222.73 492.130   4
  -5   8  11 5226.67 374.378  12
  -5   8  10 4377.09 349.063  12
   5  -8  10 4489.12 406.361   4
   5  -8   9 479.702 152.043   4
  -5   8   9 583.880 130.394  12
  -5   8   8 2474.58 261.674  12
   5  -8   8 2211.74 274.765   4
  -5   8   7 1999.61 240.461  12
   5  -8   7 2110.70 249.405   4
   5  -8   6 3346.24 296.924   4
  -5   8   6 3358.24 292.719  12
   5  -8   5 2995.80 268.797   4
  -5   8   5 2942.75 268.569  12
  -5   8   4 4801.39 335.366  12
   5  -8   4 4900.76 326.028   4
  -5   8   3 1005.86 158.917  12
  -5   8   3 754.105 94.3102  10
   5  -8   3 902.892 140.949   4
   5  -8   2 6326.11 319.227  10
  -5   8   2 5892.52 271.184  10
  -5   8   2 7226.70 382.167  12
   5   8  -2 5560.91 239.439   7
   5  -8   2 6724.07 361.818   4
   5  -8   1 2791.34 204.622  10
  -5   8   1 2708.96 191.165  10
   5   8  -1 2547.61 166.572   7
  -5  -8  -1 2896.27 237.505   4
  -5   8   1 2993.37 242.920  12
   5  -8   1 2454.55 214.796   4
  -5   8   0 7710.47 380.406  11
   5  -8   0 8194.56 339.193  10
  -5   8   0 7940.04 346.632  10
  -5   8   0 8343.28 393.271  12
  -5  -8   0 8635.21 396.774   4
   5   8   0 8932.94 275.135  11
   5  -8   0 8977.50 406.860   4
  -5   8  -1 2557.44 206.353  10
   5  -8  -1 2742.37 231.147   9
  -5   8  -1 2672.94 221.341  12
  -5   8  -1 2758.32 227.092  11
   5   8   1 2637.55 173.931  11
  -5  -8   1 2802.87 224.377   4
   5  -8  -1 2871.97 237.430   4
   5   8   2 6479.10 300.840  11
  -5   8  -2 6282.06 340.542  10
   5  -8  -2 6490.68 352.844   9
   5  -8  -2 6700.44 357.076   4
  -5  -8   2 6356.08 333.964   4
  -5   8  -2 5830.39 329.730  11
   5  -8  -3 631.921 117.929   4
   5   8   3 847.742 119.883  11
  -5   8  -3 787.643 123.443  11
   5  -8  -3 980.679 148.811   9
  -5  -8   3 606.537 109.122   4
  -5   8  -3 734.987 115.096   5
  -5   8  -4 4518.85 275.512   5
  -5  -8   4 4391.92 284.156   4
  -5   8  -5 3350.82 247.518   5
  -5  -8   5 3038.34 242.434   4
  -5   8  -6 3418.70 265.987   5
  -5  -8   6 3248.68 259.264   4
   5  -8  -6 3677.22 309.250   8
  -5   8  -7 2320.94 227.065   5
  -5  -8   7 1808.29 200.944   4
   5  -8  -7 2130.37 245.625   8
  -5   8  -8 2871.97 266.605   5
   5  -8  -8 2485.25 282.569   8
  -5  -8   8 2560.70 245.596   4
  -5   8  -9 847.293 154.673   5
   5  -8  -9 799.596 180.453   8
  -5  -8   9 509.292 118.151   4
  -5  -8  10 4630.71 348.005   4
  -5   8 -10 5144.34 391.585   5
   5  -8 -10 4852.43 409.086   8
  -5   8 -11 5264.53 414.683   5
   5  -8 -11 5326.57 446.062   8
   5  -8 -12 297.207 145.711   8
   5  -8 -13 3372.33 374.890   8
   5  -8 -14 616.323 163.592   8
   5  -9  13 236.444 99.4306   4
   5  -9  12 4827.64 452.277   4
   5  -9  11 1692.74 277.457   4
   5  -9  10 903.344 209.087   4
  -5   9  10 744.500 159.686  12
   5  -9   9 3131.69 343.389   4
  -5   9   9 3047.54 307.034  12
   5  -9   8 293.708 144.691   4
  -5   9   8 225.236 100.598  12
   5  -9   7 4312.40 363.525   4
  -5   9   7 4546.50 364.476  12
   5  -9   6 167.589 82.5046   4
  -5   9   6 367.180 121.076  12
   5  -9   5 3349.35 301.899   4
  -5   9   5 3595.68 328.967  12
  -5   9   4 50.0004 86.4070  12
   5  -9   4 29.5733 72.5310   4
  -5   9   3 1070.23 178.626  12
   5  -9   3 973.407 164.149   4
   5  -9   2 7109.24 395.650   4
  -5   9   2 7625.64 412.869  12
  -5   9   1 1505.77 154.758  10
   5  -9   1 1613.62 202.182   4
  -5  -9  -1 1651.83 193.740   4
  -5   9   1 1781.50 197.340  12
  -5   9   0 11420.6 445.505  10
   5  -9   0 13340.0 524.388   9
  -5   9   0 13463.0 527.379  12
  -5  -9   0 13839.2 538.759   4
   5  -9   0 13236.6 530.051   4
   5  -9  -1 1497.99 177.247   9
  -5  -9   1 1748.08 199.084   4
   5  -9  -1 1569.93 190.445   4
   5  -9  -2 8039.37 408.987   9
  -5   9  -2 7215.85 331.256   5
   5  -9  -2 7402.86 405.507   4
  -5  -9   2 7421.03 384.396   4
   5   9   3 976.046 132.612  11
   5  -9  -3 1213.67 172.071   4
  -5   9  -3 1031.98 132.024   5
   5  -9  -3 1046.68 159.068   9
  -5  -9   3 881.010 145.142   4
  -5   9  -4 34.4692 52.7545   5
  -5  -9   4-2.39393 51.9875   4
  -5   9  -5 3131.45 244.423   5
  -5  -9   5 3117.73 264.337   4
  -5   9  -6 281.165 79.6370   5
  -5  -9   6 119.949 65.5605   4
   5  -9  -6 214.410 100.257   8
  -5   9  -7 4216.90 317.331   5
   5  -9  -7 4281.02 356.064   8
  -5  -9   7 4243.33 327.411   4
  -5   9  -8 338.497 110.924   5
  -5  -9   8 201.715 86.2837   4
   5  -9  -8 192.079 97.6382   8
  -5   9  -9 3339.08 304.110   5
  -5  -9   9 3181.26 297.012   4
   5  -9  -9 2971.20 317.136   8
  -5   9 -10 937.758 173.510   5
   5  -9 -10 1070.66 207.294   8
  -5  -9  10 903.310 171.672   4
   5  -9 -11 1405.87 236.256   8
   5  -9 -12 4444.82 420.507   8
   5  -9 -13 244.834 132.085   8
   5  -9 -14 637.257 169.880   8
   5 -10  13 1193.34 236.982   4
   5 -10  12 49.1219 107.159   4
   5 -10  11 5322.74 474.184   4
   5 -10  10 785.604 188.963   4
   5 -10   9 4883.06 436.699   4
   5 -10   8 3289.27 344.941   4
  -5  10   8 3145.59 319.104  12
  -5  10   7 3651.89 334.476  12
   5 -10   7 3832.09 359.273   4
   5 -10   6 1880.83 257.220   4
  -5  10   6 1936.30 251.275  12
   5 -10   5 8004.98 476.588   4
  -5  10   5 7630.26 483.209  12
   5 -10   4 10316.8 531.663   4
  -5  10   4 10898.7 559.712  12
  -5  10   3 5510.34 384.335  12
   5 -10   3 5436.52 382.501   4
   5 -10   2 12642.1 565.067   4
  -5  10   2 13115.9 578.726  12
   5 -10   1 732.067 151.665   4
  -5 -10  -1 805.469 158.589   4
   5 -10   0 4655.42 321.947   9
  -5 -10   0 4841.33 342.100   4
   5 -10   0 4747.68 347.317   4
  -5 -10   1 786.689 143.718   4
   5 -10  -1 570.411 128.740   4
   5 -10  -1 585.994 115.908   9
  -5  10  -2 12128.6 430.540   5
   5 -10  -2 13932.4 557.726   9
   5 -10  -2 13432.1 576.251   4
  -5 -10   2 12847.9 543.618   4
  -5  10  -3 4677.37 275.120   5
   5 -10  -3 5082.54 341.748   9
   5 -10  -3 5319.53 371.249   4
  -5 -10   3 4457.33 329.526   4
  -5  10  -4 9703.02 411.634   5
  -5 -10   4 10039.0 491.213   4
  -5  10  -5 7678.47 380.707   5
   5 -10  -5 7319.88 443.562   8
  -5 -10   5 7321.50 429.068   4
  -5  10  -6 1854.07 201.134   5
  -5 -10   6 1534.39 207.515   4
   5 -10  -6 1950.25 241.356   8
  -5  10  -7 3362.06 279.368   5
   5 -10  -7 3298.31 320.219   8
  -5 -10   7 3189.47 296.935   4
  -5  10  -8 3130.36 279.866   5
   5 -10  -8 2780.69 302.962   8
  -5 -10   8 2886.15 291.249   4
  -5  10  -9 5523.95 388.363   5
   5 -10  -9 4526.16 398.772   8
  -5 -10   9 4677.11 372.339   4
   5 -10 -10 647.137 163.083   8
   5 -10 -11 5799.56 468.823   8
   5 -10 -12 77.8731 64.1763   8
   5 -10 -13 1271.45 231.501   8
   5 -11  12 99.7920 114.277   4
   5 -11  11 365.305 149.441   4
   5 -11  10 368.521 152.589   4
   5 -11   9 502.002 166.620   4
   5 -11   8 1150.53 225.330   4
   5 -11   7 829.336 190.300   4
   5 -11   6 3663.79 357.774   4
   5 -11   5 3162.02 333.675   4
   5 -11   4 613.487 145.425   4
   5 -11   3 3967.36 348.264   4
   5 -11   2 894.153 178.632   4
   5 -11   1 1486.50 196.010   9
   5 -11   1 1332.17 207.960   4
  -5 -11   0 197.908 88.7059   4
   5 -11   0 245.203 103.778   9
   5 -11   0 346.558 121.389   4
   5 -11  -1 1558.77 211.946   4
   5 -11  -1 1394.37 189.744   9
  -5 -11   1 1175.60 183.969   4
  -5 -11   2 1465.23 211.143   4
   5 -11  -2 1157.75 188.987   4
   5 -11  -2 913.691 154.792   9
   5 -11  -3 3941.56 336.451   4
  -5 -11   3 4362.38 343.716   4
  -5 -11   4 509.244 137.974   4
   5 -11  -5 3002.01 288.204   8
  -5 -11   5 2873.52 284.686   4
   5 -11  -6 3596.71 328.490   8
  -5 -11   6 3539.13 321.976   4
  -5 -11   7 746.316 163.492   4
   5 -11  -7 838.458 173.393   8
  -5 -11   8 1199.07 199.380   4
   5 -11  -8 1338.34 214.408   8
  -5 -11   9 356.226 127.407   4
   5 -11  -9 387.695 110.096   8
   5 -11 -10 112.389 99.5330   8
   5 -11 -11 156.985 87.1440   8
   5 -11 -12 216.951 116.091   8
   5 -12  11 1556.80 274.859   4
   5 -12  10 1044.05 220.216   4
   5 -12   9 1527.70 242.518   4
   5 -12   8 3750.44 394.560   4
   5 -12   7 1014.48 211.405   4
   5 -12   6 1125.34 221.074   4
   5 -12   5 481.660 165.149   4
   5 -12   4 1110.63 205.731   4
   5 -12   3 3111.76 330.264   4
   5 -12   2 363.637 111.428   9
   5 -12   2 376.717 132.198   4
   5 -12   1 15932.3 630.080   9
   5 -12   1 15529.5 697.615   4
  -5 -12   0 273.082 114.592   4
   5 -12   0 292.205 112.771   4
   5 -12   0 120.620 79.0847   9
   5 -12  -1 15746.6 619.902   9
  -5 -12   1 15829.2 689.680   4
   5 -12  -1 15890.1 706.113   4
   5 -12  -2 434.487 113.790   9
  -5 -12   2 318.876 115.220   4
   5 -12  -2 248.902 107.872   4
   5 -12  -3 2633.97 295.980   4
  -5 -12   3 2517.45 279.038   4
  -5 -12   4 723.591 162.998   4
  -5 -12   5 499.461 128.959   4
   5 -12  -5 328.857 106.120   8
  -5 -12   6 1039.09 190.551   4
   5 -12  -6 1072.37 188.772   8
  -5 -12   7 833.228 172.893   4
   5 -12  -7 969.795 186.009   8
   5 -12  -8 3647.11 350.953   8
  -5 -12   8 3388.90 332.541   4
  -5 -12   9 1364.71 207.725   4
   5 -12  -9 1326.24 224.389   8
   5 -12 -10 813.335 171.694   8
   5 -12 -11 1170.77 211.630   8
   5 -13  10 376.666 131.953   4
   5 -13   9 807.142 200.868   4
   5 -13   8 594.459 166.157   4
   5 -13   7 1276.23 241.937   4
   5 -13   6 2084.95 294.535   4
   5 -13   5 5129.83 445.809   4
   5 -13   4 309.775 135.731   4
   5 -13   3 4887.06 363.968   9
   5 -13   3 5274.19 435.922   4
   5 -13   2 249.461 96.0080   9
   5 -13   2 330.725 126.246   4
   5 -13   1 1642.85 210.676   9
   5 -13   1 2172.32 281.872   4
   5 -13   0 1.43393 80.3453   4
   5 -13   0-2.96028 64.8348   9
  -5 -13   0-147.656 93.0705   4
  -5 -13   1 1647.57 240.854   4
   5 -13  -1 2088.61 276.638   4
   5 -13  -1 1982.80 229.791   9
   5 -13  -2 286.002 115.601   4
  -5 -13   2 274.398 104.709   4
  -5 -13   3 4894.92 408.591   4
  -5 -13   4 138.661 86.7734   4
   5 -13  -4 118.522 76.1511   8
   5 -13  -5 4325.05 362.319   8
  -5 -13   5 4501.89 394.505   4
  -5 -13   6 1372.97 226.933   4
   5 -13  -6 1789.32 237.076   8
  -5 -13   7 923.942 184.026   4
   5 -13  -7 902.828 176.996   8
  -5 -13   8 723.550 177.994   4
   5 -13  -8 533.321 144.997   8
   5 -13  -9 512.648 136.389   8
   5 -14   9 1020.23 220.708   4
   5 -14   8 1058.44 237.499   4
   5 -14   7 1868.56 294.651   4
   5 -14   6 494.581 168.999   4
   5 -14   5 2123.56 304.256   4
   5 -14   4 2201.91 303.233   4
   5 -14   3 966.675 214.626   4
   5 -14   2 5773.22 477.103   4
   5 -14   1 1135.82 223.823   4
   5 -14   0 2701.83 331.843   4
  -5 -14   1 1007.46 197.457   4
   5 -14  -1 1177.69 224.567   4
   5 -14  -2 5268.90 446.847   4
  -5 -14   2 5303.05 442.852   4
  -5 -14   3 434.772 152.582   4
  -5 -14   4 2086.86 277.631   4
  -5 -14   5 1862.29 267.295   4
  -5 -14   6 166.370 104.304   4
  -5 -14   7 1069.50 199.101   4
   5 -15   8 548.415 170.494   4
   5 -15   7 447.657 138.860   4
   5 -15   6 270.600 129.891   4
   5 -15   5 597.075 180.567   4
   5 -15   4 1275.76 244.956   4
   5 -15   3 2128.59 299.319   4
   5 -15   2 657.681 179.508   4
   5 -15   1 475.050 157.627   4
   5 -15   0 3416.06 384.187   4
   5 -15  -1 436.388 151.208   4
  -5 -15   2 835.390 206.750   4
  -5 -15   3 1892.77 272.669   4
  -5 -15   4 584.487 160.194   4
  -5 -15   5 445.216 138.928   4
  -5 -15   6 102.455 81.3156   4
  -5 -15   7 539.491 151.526   4
   5 -16   6 2091.82 299.674   4
   5 -16   5 156.978 111.375   4
   5 -16   4 1959.90 288.917   4
   5 -16   3 354.728 159.116   4
   5 -16   2 2429.44 322.355   4
   5 -16   1 321.699 143.108   4
   5 -16   0 3851.37 406.761   4
   5 -16  -1 316.767 127.445   4
  -5 -16   3 379.806 124.944   4
  -5 -16   4 1582.58 253.188   4
  -5 -16   5 169.361 102.448   4
   5 -17   2 643.218 178.878   4
   5 -17   1 344.298 143.188   4
   5 -17   0 223.771 110.510   4
   6   0   0 256300. 1540.24  11
   6   0   0 252786. 1426.27  10
  -6   0   0 261518. 1572.27  11
   6   0   0 262982. 1269.51   3
   6   0   1 17200.1 413.092  11
  -6   0   1 17825.1 401.457  11
  -6   0  -1 17641.8 429.486  11
   6   0   1 17808.0 417.365  10
   6   0  -1 18115.8 402.856   9
   6   0  -1 17319.7 394.510   1
   6   0  -1 18560.4 378.059   3
   6   0  -1 17797.2 433.049   7
   6   0   1 17533.2 287.993   3
  -6   0   2 55067.7 694.986  11
   6   0   2 56029.7 785.898  11
  -6   0  -2 56789.3 805.914  11
   6   0  -2 55165.2 652.500   1
   6   0  -2 55786.4 381.239  10
   6   0   2 55740.0 811.546  10
   6   0  -2 56039.9 715.016   9
   6   0  -2 55582.0 788.753   7
   6   0   3 4496.75 237.991  11
  -6   0   3 4386.47 230.158   3
  -6   0  -3 4291.72 235.299  11
   6   0   3 4435.58 253.384  10
   6   0  -3 4541.33 233.548   7
  -6   0   3 4462.49 198.571  11
   6   0   4 19224.2 513.771  11
  -6   0  -4 19057.7 529.478  11
   6   0   4 18728.9 547.435  10
  -6   0  -4 18973.3 498.694   5
   6   0  -4 17940.8 468.921   8
  -6   0   4 18805.2 513.733   3
  -6   0  -5 1460.43 158.647  11
   6   0   5 1690.04 175.715  10
  -6   0  -5 1649.00 160.589   5
   6   0  -5 1459.37 145.313   8
   6   0  -5 1468.73 90.9630   2
   6   0   5 1393.31 148.443  11
  -6   0   5 1519.41 159.562   3
   6   0   6 37757.0 802.667  11
  -6   0   6 35606.0 484.114   1
  -6   0  -6 38230.2 852.372  11
  -6   0   6 35900.4 692.877  11
   6   0   6 38410.4 872.975  10
  -6   0  -6 36276.3 761.787   5
   6   0  -6 35966.5 752.025   8
  -6   0   6 35501.8 812.243   3
  -6   0   7 39324.1 763.122  11
  -6   0  -7 40470.0 854.863   5
   6   0  -7 40938.0 858.645   8
  -6   0  -7 39965.2 611.842   6
  -6   0   8 2216.28 191.780  11
  -6   0  -8 2386.33 231.032   5
   6   0  -8 2337.47 222.882   8
  -6   0  -9 16504.0 615.932   5
   6   0  -9 16519.0 621.763   8
  -6   0 -10 3214.09 296.529   5
   6   0 -10 3043.92 286.263   8
   6   0 -11 3881.65 391.439   6
  -6   0 -11 4528.64 362.844   5
   6   0 -11 4838.02 384.681   8
   6   0 -12 5153.11 450.543   6
   6   0 -12 5364.65 422.470   8
   6   0 -13 4412.70 427.057   6
   6   0 -13 4662.01 413.050   8
   6   0 -14-158.784 152.282   6
   6   0 -15 990.824 225.513   6
   6   0 -16 0.50423 76.4752   6
   6   1 -16 1223.88 243.457   6
   6  -1  16 1103.46 257.984   4
   6   1 -15 2214.42 327.634   6
   6   1 -14 2271.01 314.319   6
   6   1 -13 1617.33 259.698   6
   6   1 -12 176.492 91.0915   6
   6   1 -12 174.300 90.4022   8
  -6  -1 -11 355.298 122.054   5
   6   1 -11 300.162 114.228   8
  -6  -1 -10 2175.50 244.614   5
   6   1 -10 2376.13 251.737   8
  -6  -1  -9 6126.83 370.199   5
   6   1  -9 6075.55 371.060   8
  -6   1   8 295.719 78.4575  11
  -6  -1  -8 325.026 85.2811   5
   6   1  -8 410.744 106.732   8
  -6   1   7 20638.9 591.607  11
  -6  -1  -7 22017.8 621.279   5
   6   1  -7 21791.5 613.958   8
  -6   1   7 20936.9 465.019   1
   6  -1   7 21141.4 413.278   3
   6  -1   6 3818.68 255.525  11
  -6  -1  -6 3820.64 270.926  11
   6  -1   6 3841.47 273.480  10
  -6  -1  -6 3670.40 240.010   5
   6   1  -6 3657.14 236.132   8
  -6   1   6 3658.02 188.571   1
   6  -1   6 3889.92 154.505   3
   6   1  -6 3156.19 158.101  10
  -6   1   6 3787.61 265.000   3
   6  -1   5 6292.87 311.034  11
   6  -1   5 6275.81 328.788  10
  -6   1   5 6133.80 240.616   1
   6   1  -5 5667.70 187.145  10
  -6  -1  -5 5987.55 288.353   5
   6  -1   5 6023.44 158.483   3
   6   1  -5 6189.12 283.016   8
  -6   1   5 6011.60 311.045   3
  -6  -1  -5 6629.58 335.894  11
   6   1  -4 4733.96 150.431  10
   6  -1   4 5042.71 276.264  10
  -6   1   4 4870.58 212.980   1
  -6  -1  -4 5220.43 279.383  11
  -6  -1  -4 5036.75 251.383   5
   6  -1   4 4250.64 94.2754   3
   6   1  -4 4677.37 228.673   8
   6  -1   4 5123.15 267.547  11
  -6   1   4 4788.82 256.374   3
   6  -1   3 9829.64 352.501  11
  -6  -1  -3 9605.37 350.942  11
   6  -1   3 9797.59 354.971  10
   6   1  -3 9375.88 338.565   3
   6   1  -3 9355.61 200.835  10
  -6   1   3 9355.71 328.043   3
   6   1  -3 9028.56 333.237   7
   6   1  -2 281.201 66.4779   7
   6   1  -2 275.880 49.5911   9
   6   1  -2 310.962 58.3801   3
  -6   1   2 155.209 44.2296  11
   6  -1   2 296.417 60.0896  11
  -6  -1  -2 301.433 61.3967  11
   6   1  -2 285.574 37.9647  10
   6  -1   2 265.093 58.7346  10
   6   1  -2 263.692 43.6889   1
   6  -1   1 3007.80 178.381  11
  -6  -1  -1 2988.36 171.691  11
   6  -1   1 2915.15 133.900   4
   6  -1   1 3065.86 162.068  10
   6   1  -1 3212.56 156.656   9
   6   1  -1 2913.51 162.231   3
  -6   1   1 2943.30 173.886  11
   6   1   0 761.858 76.7013   3
  -6   1   0 737.883 91.9185  11
  -6  -1   0 778.414 86.3848  11
   6  -1   0 870.891 74.4530  10
   6   1   0 777.647 83.2157  11
   6  -1   0 665.352 91.0655   1
   6   1   1 2621.25 159.897  11
   6  -1  -1 2670.11 120.612   6
  -6  -1   1 2757.51 150.173  11
   6  -1  -1 2669.46 98.8138  10
   6  -1  -1 2528.51 163.616   9
   6  -1  -1 2810.72 169.061   1
  -6   1  -1 2461.56 167.468  11
   6  -1  -1 2727.37 167.574   7
   6   1   2 233.791 57.9645  11
  -6   1  -2 251.949 58.2390  11
   6  -1  -2 233.561 46.1949   6
  -6  -1   2 241.273 46.9909  11
   6  -1  -2 242.626 63.5900   9
   6  -1  -2 212.755 58.3190   7
  -6  -1   3 9009.83 259.000  11
   6   1   3 9365.38 340.341  11
  -6   1  -3 9292.20 352.697  11
   6   1   3 9058.75 376.637  10
   6  -1  -3 9054.43 323.539   9
   6  -1  -3 9251.24 330.512   7
  -6  -1   4 4816.03 193.395  11
   6   1   4 5349.34 273.570  11
  -6   1  -4 5402.79 282.190  11
   6   1   4 5175.37 300.992  10
  -6   1  -4 5093.82 262.999   5
  -6  -1   5 6550.67 333.692   3
  -6   1  -5 6756.18 336.923  11
  -6  -1   5 5753.38 177.409   4
   6   1   5 6630.02 322.558  11
   6   1   5 6550.02 357.493  10
  -6   1  -5 6386.94 309.491   5
   6  -1  -5 6246.80 309.581   8
   6   1   6 3455.51 248.822  11
  -6   1  -6 3210.12 146.585   6
  -6  -1   6 3448.70 258.503   3
  -6   1  -6 3715.93 267.405  11
  -6  -1   6 3491.26 194.497  11
  -6   1  -6 3605.07 248.655   5
  -6  -1   6 3020.74 161.571   4
  -6  -1   6 3657.31 149.121  10
   6   1   6 3579.89 277.271  10
   6  -1  -6 3264.97 166.580   2
   6  -1  -6 3235.60 236.873   8
  -6  -1   7 20287.3 494.370  11
  -6  -1   7 21040.0 390.773  10
  -6  -1   7 18821.6 466.530   4
  -6   1  -7 21970.9 642.488   5
   6  -1  -7 21477.9 640.329   8
   6  -1  -8 501.184 125.748   6
  -6  -1   8 266.298 71.3705   4
  -6   1  -8 560.044 120.897   5
   6  -1  -8 554.801 119.211   8
   6  -1  -9 5456.00 407.805   6
  -6   1  -9 6166.22 389.461   5
   6  -1  -9 5905.56 385.774   8
   6  -1 -10 1801.14 919.462   6
  -6   1 -10 2262.74 251.563   5
   6  -1 -10 2277.16 255.917   8
   6  -1 -11 88.5622 100.183   6
  -6   1 -11 331.721 123.684   5
   6  -1 -11 233.335 98.4653   8
   6  -1 -12 11.2305 107.555   6
   6  -1 -12 77.9748 75.4632   8
   6  -1 -13 1610.11 252.487   6
   6  -1 -13 2060.50 277.870   8
   6  -1 -14 2258.78 319.089   6
   6  -1 -15 2172.59 317.216   6
   6  -1 -16 1221.57 247.981   6
   6   2 -16 2.52380 72.4877   6
   6  -2  16 64.7887 93.6883   4
   6   2 -15 3352.22 400.731   6
   6  -2  15 2812.37 407.951   4
   6   2 -14 1553.24 271.410   6
   6   2 -13 1650.93 274.324   6
   6   2 -11 2411.22 271.182   8
  -6  -2 -10 2420.43 246.873   5
   6   2 -10 2912.74 277.755   8
  -6  -2  -9 6823.71 387.896   5
   6   2  -9 7376.73 406.017   8
  -6  -2  -8 11859.8 479.494   5
   6   2  -8 12180.3 482.009   8
  -6   2   7 2252.72 210.140  11
  -6  -2  -7 3108.62 232.581   5
  -6   2   7 2485.62 183.744   1
   6   2  -7 2084.02 158.058  10
   6   2  -7 2601.98 210.012   8
   6  -2   6 7748.47 363.040  11
  -6  -2  -6 8157.03 405.346  11
   6  -2   6 8036.16 385.563  10
  -6  -2  -6 7981.69 346.946   5
  -6   2   6 7864.53 311.900   1
   6   2  -6 7484.92 327.194   8
  -6   2   6 7671.51 381.640   3
   6  -2   5 3864.85 245.851  11
  -6  -2  -5 4087.97 266.288  11
   6   2  -5 3783.05 174.997  10
   6  -2   5 4195.63 265.461  10
  -6  -2  -5 4098.24 231.945   5
   6   2  -5 4242.03 269.032   3
   6   2  -5 4122.13 222.596   8
  -6   2   5 3850.70 254.720   3
  -6   2   5 3898.02 215.137   1
   6  -2   4 10739.1 390.513  11
  -6  -2  -4 11135.9 410.005  11
   6   2  -4 10751.1 276.525  10
  -6   2   4 10573.2 350.443   1
   6  -2   4 11203.2 403.050  10
  -6  -2  -4 10772.5 355.267   5
   6   2  -4 11352.6 416.548   3
   6   2  -4 10791.4 328.665   8
  -6   2   4 11241.5 398.018   3
   6   2  -4 11339.2 386.869   7
   6  -2   3 8234.44 325.647  11
  -6  -2  -3 8351.32 333.527  11
   6   2  -3 8368.02 234.818  10
  -6   2   3 8201.19 306.205   1
   6  -2   3 8248.29 319.283  10
   6   2  -3 8591.99 266.833   8
  -6   2   3 7739.27 298.248   3
   6   2  -3 8830.26 341.825   3
   6   2  -3 8356.97 319.689   7
  -6   2   2 19559.7 472.983  11
   6  -2   2 19075.3 476.307  11
  -6  -2  -2 18812.0 460.256  11
   6   2  -2 18970.0 357.114  10
   6  -2   2 18765.3 414.120   4
   6  -2   2 18841.9 433.450  10
   6   2  -2 19513.8 326.750   1
   6   2  -2 19451.5 473.635   3
   6   2  -2 18616.5 466.077   7
   6  -2   1 8260.39 335.168   1
   6   2  -1 8998.05 305.513   3
  -6  -2  -1 8981.39 294.335  11
   6  -2   1 8795.35 243.457   4
   6  -2   1 8844.37 259.927  10
  -6   2   1 8837.66 316.207  11
   6   2  -1 8913.94 229.497   9
  -6   2   1 8714.70 245.222   3
   6   2   0 2313.45 137.772  11
   6  -2   0 2184.58 102.193   4
   6  -2   0 2437.26 114.673  10
   6  -2   0 2142.60 167.429   1
  -6  -2   0 2389.36 140.660  11
  -6   2   0 2199.09 161.227  11
   6   2   1 9050.26 291.411  11
  -6   2  -1 9290.85 338.127  11
  -6  -2   1 8829.20 252.703  11
   6  -2  -1 9277.55 325.877   1
   6  -2  -1 9013.03 161.482  10
   6  -2  -1 8735.48 180.248   4
   6  -2  -1 8836.27 295.089   7
   6   2   2 19680.3 461.562  11
   6  -2  -2 19262.7 397.732   6
  -6  -2   2 18936.3 347.591  11
   6  -2  -2 18486.3 474.396   9
  -6   2  -2 19653.1 505.045  11
   6  -2  -2 17795.5 436.946   7
  -6  -2   3 8321.00 223.656  11
  -6   2  -3 8195.18 340.337  11
   6  -2  -3 8230.05 294.081   6
   6  -2  -3 8130.31 320.171   9
   6   2   3 8295.79 322.571  11
  -6  -2   4 10674.8 213.434   4
   6   2   4 11476.2 404.882  11
  -6   2  -4 11431.4 416.383  11
   6  -2  -4 11155.4 379.932   6
  -6   2  -4 11474.0 403.967   5
  -6   2  -4 10803.6 259.965  12
  -6  -2   4 11464.4 262.320  11
   6  -2  -5 3756.14 240.525   6
  -6   2  -5 3836.04 256.698  11
  -6  -2   5 3786.34 151.627   4
   6   2   5 4087.70 298.343  10
  -6   2  -5 3840.41 248.661   5
   6  -2  -5 4180.23 260.631   8
  -6  -2   5 4015.91 173.015  11
  -6  -2   5 3480.84 150.036  11
   6   2   5 4161.40 259.161  11
   6  -2  -6 7926.35 375.562   6
  -6   2  -6 8426.58 401.783  11
  -6  -2   6 7437.15 248.382  11
  -6  -2   6 5673.88 219.027   4
  -6  -2   6 7908.31 255.026  10
   6   2   6 8079.89 429.305  10
  -6   2  -6 7892.13 370.019   5
   6  -2  -6 7408.20 366.296   8
   6  -2  -6 7677.22 288.511   2
   6   2   6 8483.93 393.524  11
   6  -2  -7 2306.80 221.519   6
  -6  -2   7 2491.79 153.845  10
  -6  -2   7 2675.23 169.169   4
   6  -2  -7 2634.10 174.325   2
  -6   2  -7 2654.95 232.864   5
   6  -2  -7 2423.83 231.472   8
   6  -2  -8 12692.3 547.001   6
  -6  -2   8 11516.5 397.801   4
  -6   2  -8 13202.9 536.299   5
   6  -2  -8 12102.9 526.063   8
   6  -2  -9 6715.37 442.964   6
  -6   2  -9 7041.41 418.135   5
   6  -2  -9 6953.74 421.781   8
   6  -2 -10 2572.45 302.947   6
  -6   2 -10 2825.02 279.832   5
   6  -2 -10 2576.12 277.111   8
   6  -2 -11 1669.09 280.044   6
  -6   2 -11 2716.16 287.522   5
   6  -2 -11 2571.54 288.520   8
  -6   2 -12 2338.17 284.604   5
   6  -2 -12 1789.31 270.597   6
   6  -2 -12 2246.16 289.664   8
   6  -2 -13 1385.89 249.716   6
   6  -2 -13 1603.29 251.859   8
   6  -2 -14 1735.04 285.206   6
   6  -2 -14 1482.24 259.468   8
   6  -2 -15 2782.65 358.631   6
   6   3 -15 1111.52 236.112   6
   6  -3  15 913.382 220.999   4
   6   3 -14 2298.09 328.359   6
   6  -3  14 2643.32 370.376   4
   6  -3  13 3435.51 407.840   4
  -6   3  11 4949.65 349.198  12
  -6  -3 -10 3542.77 288.894   5
   6   3 -10 3754.12 304.854   8
  -6  -3  -9 1716.38 196.296   5
   6   3  -9 1500.06 182.871   8
  -6  -3  -8 18306.6 580.750   5
   6   3  -8 17653.5 576.711   8
  -6   3   7 15813.1 587.633  11
  -6   3   7 15589.0 502.141   1
   6   3  -7 13919.7 435.850  10
  -6  -3  -7 16745.5 521.677   5
   6   3  -7 16722.0 512.457   8
   6  -3   6 6834.88 342.897  11
   6  -3   6 8144.34 388.217  10
  -6  -3  -6 7603.84 331.567   5
   6   3  -6 6501.58 275.506  10
  -6   3   6 6844.12 320.682   1
   6   3  -6 7725.29 318.235   8
  -6   3   6 7333.20 380.675   3
   6  -3   5 22864.5 599.980  11
  -6  -3  -5 22874.8 644.500  11
   6   3  -5 21793.4 472.672  10
   6  -3   5 23558.6 623.606  10
  -6  -3  -5 22676.8 528.762   5
  -6   3   5 22710.6 621.448   3
   6   3  -5 23930.2 666.783   3
   6   3  -5 23465.1 504.877   8
  -6   3   5 22888.2 569.748   1
  -6  -3  -4 1788.87 169.930  11
   6  -3   4 1960.11 169.228  10
   6  -3   4 1571.24 156.242   4
  -6  -3  -4 1788.20 141.117   5
  -6   3   4 1793.57 162.582   3
   6   3  -4 1846.33 129.905   8
   6   3  -4 1888.26 181.022   3
   6  -3   4 1753.98 161.389  11
   6   3  -4 1848.93 158.085   7
  -6   3   4 1721.41 157.103   1
   6  -3   3 9119.42 352.129  11
  -6  -3  -3 9999.26 367.248  11
   6  -3   3 9276.94 339.548   4
   6  -3   3 9103.18 332.839  10
  -6  -3  -3 9027.96 296.007   5
  -6   3   3 9371.46 359.747   1
  -6   3   3 9192.43 331.198   3
   6   3  -3 9579.47 260.292   8
   6  -3   3 9398.82 397.904   1
   6   3  -3 9592.57 374.642   3
   6   3  -3 9370.67 342.558   7
  -6  -3  -2 10223.6 343.900  11
   6  -3   2 9998.62 311.683   4
   6  -3   2 9980.12 316.624  10
   6   3  -2 10097.4 206.462   2
  -6   3   2 10134.0 373.034   1
   6   3  -2 9954.53 347.008   7
   6   3  -2 9681.56 231.825   8
   6  -3   2 10111.4 400.569   1
   6   3  -2 10299.7 372.404   3
   6   3  -1 78114.4 700.388  11
   6  -3   1 74400.7 757.616   4
   6   3  -1 76522.2 690.438   2
   6  -3   1 75386.7 765.238  10
   6  -3   1 77463.1 1061.83   1
  -6   3   1 76121.6 739.815   3
  -6   3   1 77261.6 981.907  11
  -6  -3  -1 79165.2 883.635  11
  -6  -3   0 4312.63 188.014  11
   6  -3   0 4239.35 155.349  10
  -6   3   0 4164.81 186.858  10
   6  -3   0 4192.47 243.181   1
   6   3   0 4411.20 185.876  11
   6   3   0 4103.94 129.175   9
  -6   3   0 4314.69 235.013  11
  -6   3   0 4366.89 142.621   3
   6  -3   0 4221.75 196.525   7
   6  -3   0 4240.00 168.121   4
   6   3   1 76920.7 845.713  11
  -6  -3   1 75963.9 711.115  11
   6  -3  -1 76959.4 525.749  10
  -6   3  -1 79397.8 908.641  10
  -6   3  -1 77692.2 1013.66  11
   6  -3  -1 76564.5 673.301   4
   6  -3  -1 75364.7 853.752   7
  -6   3  -2 10406.8 381.532  11
  -6  -3   2 10209.7 229.951  11
  -6   3  -2 10061.2 360.875  10
   6  -3  -2 10125.1 374.223   9
   6   3   2 10130.1 334.418  11
   6  -3  -2 9919.09 240.206   4
  -6  -3   2 9527.77 217.339   4
   6  -3  -2 9872.57 325.890   7
   6  -3  -3 9135.18 323.273   6
  -6   3  -3 9072.13 366.326  11
   6   3   3 9119.98 343.084  11
  -6  -3   3 8380.36 189.682  11
  -6   3  -3 9038.46 378.146  10
   6  -3  -3 8713.50 349.866   9
  -6  -3   3 8481.64 210.241   4
  -6   3  -3 8745.24 275.830  12
   6  -3  -4 1878.94 163.414   6
   6   3   4 1812.93 165.524  11
  -6   3  -4 1872.84 175.969  11
  -6   3  -4 1671.87 181.022  10
  -6   3  -4 1871.39 173.497   5
  -6  -3   4 1563.35 99.6014   4
  -6  -3   4 1461.69 73.8064  11
  -6   3  -4 1766.56 114.557  12
  -6  -3   5 19889.4 276.872  11
  -6  -3   5 22212.4 402.627   4
   6  -3  -5 23174.8 615.007   6
   6   3   5 24243.1 636.877  11
  -6   3  -5 23983.2 645.922  11
   6   3   5 23341.3 624.118   2
  -6   3  -5 22857.8 613.212   5
  -6   3  -5 23833.8 721.259  10
   6  -3  -6 6729.16 355.184   6
  -6   3  -6 7008.97 370.132  11
  -6  -3   6 7017.18 250.749   4
  -6   3  -6 7109.20 360.924   5
  -6  -3   6 6840.18 266.835  10
  -6  -3   6 4770.35 149.568  11
   6  -3  -6 6973.93 371.707   8
   6  -3  -6 6678.35 300.153   2
  -6  -3   6 5820.33 159.035  11
   6  -3  -7 17715.1 615.795   6
  -6  -3   7 17442.5 442.274   4
  -6  -3   7 16199.9 430.247  10
  -6   3  -7 17039.6 583.727   5
   6  -3  -7 15208.8 460.877   2
   6  -3  -7 17264.6 611.029   8
   6  -3  -8 18227.2 672.169   6
  -6  -3   8 17573.7 491.654   4
  -6   3  -8 19154.0 656.695   5
   6  -3  -8 18112.5 660.983   8
   6  -3  -9 1339.22 212.813   6
  -6   3  -9 1914.26 236.075   5
   6  -3  -9 1521.40 207.898   8
  -6   3 -10 4060.72 349.825   5
   6  -3 -10 3734.47 359.074   6
   6  -3 -10 4146.87 350.675   8
  -6   3 -11 5705.88 417.841   5
   6  -3 -11 5541.00 427.340   8
   6  -3 -11 4811.23 442.412   6
   6  -3 -12 3727.11 383.613   6
  -6   3 -12 3928.37 363.402   5
   6  -3 -12 3784.84 367.343   8
   6  -3 -13 3073.91 364.910   6
   6  -3 -13 3132.09 356.038   8
   6  -3 -14 2425.60 330.471   6
   6  -3 -14 2538.06 323.837   8
   6   4 -15 193.131 130.392   6
   6  -4  15 247.350 131.406   4
   6  -4  14 651.211 191.016   4
   6  -4  13 506.371 176.002   4
   6  -4  12 693.687 185.765   4
   6  -4  11 686.220 196.167   4
  -6   4  11 525.458 125.265  12
   6  -4  10 1315.35 234.962   4
  -6   4  10 1335.83 194.648  12
  -6  -4  -9 1548.23 179.557   5
   6  -4   9 1273.12 226.310   4
  -6   4   9 1472.00 196.030  12
   6  -4   8 1034.78 192.480   4
  -6  -4  -8 1022.94 139.858   5
   6   4  -8 949.815 134.210   8
  -6   4   7 1193.98 153.590   1
  -6  -4  -7 1167.02 138.341   5
   6   4  -7 993.593 126.559  10
   6  -4   7 1243.47 184.120   4
   6   4  -7 1238.05 142.632   8
   6  -4   6 2500.73 212.199  11
  -6  -4  -6 2850.70 197.996   5
  -6   4   6 2450.55 209.511   1
   6  -4   6 2442.15 230.575   4
   6   4  -6 2520.93 186.431  10
  -6   4   6 2535.41 229.551   3
   6   4  -6 3002.56 195.148   8
   6  -4   5 3849.00 251.673  11
  -6  -4  -5 3922.65 272.824  11
   6  -4   5 3301.66 247.708   4
   6   4  -5 3211.78 199.609  10
   6  -4   5 3838.36 254.905  10
  -6  -4  -5 3411.98 199.970   5
   6  -4   5 3539.49 272.841   1
  -6   4   5 3780.17 252.526   1
   6   4  -5 3605.40 191.823   8
   6   4  -5 3842.17 279.141   3
   6  -4   4 6673.43 325.108   4
   6   4  -4 6403.49 269.343  10
   6  -4   4 7331.26 329.237  10
  -6  -4  -4 7040.15 266.623   5
  -6  -4  -4 7408.32 346.653  11
   6  -4   4 6820.60 323.274  11
   6   4  -4 6930.24 234.781   8
   6  -4   4 7049.60 372.733   1
  -6   4   4 7155.09 341.138   1
   6   4  -4 7434.60 369.335   3
   6   4  -4 6855.26 302.595   7
  -6  -4  -3 3508.49 226.398  11
  -6   4   3 3471.49 236.742   1
   6  -4   3 3061.63 203.721   4
   6   4  -3 3354.80 191.853  10
   6  -4   3 3575.02 212.287  10
   6  -4   3 3324.37 245.978   1
  -6  -4  -3 3192.31 169.079   5
   6   4  -3 3418.12 141.037   8
   6   4  -3 3521.69 243.325   3
   6   4  -3 3443.08 208.800   7
   6   4  -2 5951.59 301.861   3
  -6  -4  -2 5704.88 262.750  11
   6  -4   2 5622.80 247.833   4
   6   4  -2 5766.98 247.596  10
   6  -4   2 5364.95 237.233  10
  -6   4   2 4812.28 138.479  10
   6  -4   2 5744.10 315.179   1
  -6   4   2 5580.51 298.965   1
   6   4  -2 4385.28 130.145   8
   6   4  -2 5746.98 264.196   7
   6  -4   1 7892.40 259.935   7
  -6   4   1 8417.31 343.655  11
   6   4  -1 8524.28 220.854  11
   6  -4   1 8185.13 278.058   4
  -6  -4  -1 8564.79 294.168  11
   6   4  -1 8190.19 299.687  10
   6  -4   1 8567.29 268.508  10
  -6   4   1 8663.60 237.214  10
   6  -4   1 8565.75 370.387   1
  -6   4   1 8226.89 365.725   1
   6   4  -1 8742.09 245.984   2
  -6  -4   0 2123.92 132.336  11
   6  -4   0 2438.94 127.174  10
  -6   4   0 2332.63 142.381  10
   6  -4   0 2292.83 141.861   4
   6   4   0 2395.48 135.757  11
   6  -4   0 2079.62 135.000   7
  -6   4   0 2347.71 181.871  11
  -6   4  -1 8606.59 353.282  11
   6   4   1 8729.99 286.669  11
  -6  -4   1 8582.03 231.186  11
   6  -4  -1 8554.31 207.185  10
  -6   4  -1 8638.00 310.321  10
   6   4   1 8424.43 300.010   2
  -6   4  -1 7711.99 143.941   3
  -6  -4   1 7813.08 245.064   4
   6  -4  -1 8249.44 279.427   7
   6  -4  -1 8492.71 264.560   4
  -6   4  -1 8351.78 321.732  12
   6  -4  -2 6056.94 303.142   9
  -6   4  -2 6077.12 285.559  10
   6   4   2 6215.25 278.803   2
   6  -4  -2 5757.44 218.737   4
  -6  -4   2 5589.61 203.264   4
  -6   4  -2 5994.25 301.804  11
   6   4   2 5975.96 262.179  11
  -6   4  -2 5670.44 252.186  12
  -6  -4   2 5449.43 150.294  11
  -6   4  -3 4018.82 254.866  11
   6   4   3 3714.08 224.217  11
  -6   4  -3 3981.80 255.079  10
   6   4   3 3509.21 225.386   2
  -6   4  -3 3729.85 193.269  12
  -6  -4   3 3666.62 165.072   4
   6  -4  -3 3796.53 242.780   9
   6   4   4 7662.63 341.274  11
  -6   4  -4 7750.39 362.426  11
  -6   4  -4 7166.72 372.097  10
   6   4   4 7479.43 348.424   2
  -6   4  -4 7011.90 334.730   5
  -6  -4   4 6928.58 233.818   4
  -6   4  -4 7428.50 244.541  12
  -6  -4   5 3649.74 180.556   4
   6  -4  -5 3759.02 257.921   6
   6   4   5 3798.17 257.981  11
  -6   4  -5 3654.16 260.912  11
  -6   4  -5 4088.03 304.202  10
  -6   4  -5 3610.46 248.954   5
   6   4   5 3979.01 268.713   2
   6  -4  -6 2394.80 196.350   2
   6  -4  -6 2852.85 243.928   6
  -6   4  -6 2612.30 229.353  11
  -6  -4   6 2410.10 176.824  10
  -6   4  -6 2663.67 230.403   5
   6  -4  -6 2747.01 248.249   8
  -6  -4   6 2700.94 167.555   4
  -6  -4   7 1229.76 125.867   4
   6  -4  -7 1054.29 165.259   6
  -6  -4   7 831.319 108.057  10
  -6   4  -7 1205.39 166.458   5
   6  -4  -7 1014.66 131.511   2
   6  -4  -7 1019.70 170.638   8
  -6  -4   8 1188.05 135.057   4
   6  -4  -8 855.110 166.234   6
  -6   4  -8 804.055 153.665   5
   6  -4  -8 1042.86 180.159   8
   6  -4  -9 1189.15 239.981   6
  -6   4  -9 1536.25 212.715   5
   6  -4  -9 1486.53 216.186   8
   6  -4 -10 599.171 223.228   6
  -6   4 -10 1083.43 203.977   5
   6  -4 -10 1280.27 224.729   8
   6  -4 -11 326.377 136.829   6
  -6   4 -11 516.634 144.893   5
   6  -4 -11 809.934 187.681   8
   6  -4 -12 704.257 189.870   6
  -6   4 -12 613.630 160.651   5
   6  -4 -12 528.577 159.297   8
   6  -4 -13 350.358 159.391   8
   6  -4 -14 688.213 187.266   8
   6  -4 -15 286.881 144.568   8
   6  -5  15 224.915 113.014   4
   6  -5  14 878.253 213.707   4
   6  -5  13 149.395 133.084   4
   6  -5  12 574.724 196.309   4
   6  -5  11 315.090 159.731   4
  -6   5  11 327.488 103.911  12
  -6   5  10 2755.79 270.170  12
   6  -5  10 2969.60 337.865   4
   6  -5   9 702.948 157.481   4
  -6   5   9 663.069 136.673  12
  -6  -5  -8 6278.29 328.727   5
   6  -5   8 6302.54 429.104   4
  -6   5   8 5840.32 377.480  12
  -6  -5  -7 4460.17 257.774   5
   6  -5   7 4232.07 325.194   4
   6   5  -7 3211.86 242.147  10
  -6   5   7 4059.13 304.014  12
   6  -5   6 5941.91 362.343   4
  -6  -5  -6 6111.80 277.633   5
  -6   5   6 5907.66 347.955   1
   6   5  -6 5681.27 303.452  10
  -6   5   6 5997.17 365.228  12
   6  -5   5 7876.96 367.087  11
  -6  -5  -5 9082.60 425.745  11
   6  -5   5 8304.78 393.160   4
  -6  -5  -5 8464.04 300.731   5
   6  -5   5 8419.09 385.860  10
  -6   5   5 8457.99 405.150   1
   6   5  -5 7779.58 337.145  10
   6  -5   4 7553.12 396.684   1
  -6  -5  -4 7931.47 374.505  11
   6  -5   4 7542.58 355.012   4
   6   5  -4 6919.26 310.453  10
   6  -5   4 7445.74 338.946  10
  -6  -5  -4 7123.10 255.930   5
  -6   5   4 7478.70 375.070   1
   6   5  -4 7483.22 318.000   7
   6   5  -4 8042.44 398.141   3
  -6   5   3 14057.3 508.485   1
   6  -5   3 13315.7 433.129   4
  -6  -5  -3 13768.4 454.296  11
   6   5  -3 13194.9 415.666  10
   6  -5   3 14225.9 434.964  10
  -6   5   3 10939.2 214.875  10
  -6  -5  -3 12882.2 315.971   5
   6  -5   3 14008.7 520.619   1
   6   5  -3 14283.0 514.384   3
   6   5  -3 13816.8 418.676   7
   6  -5   2 3302.37 203.099   4
  -6  -5  -2 3265.48 203.240  11
   6   5  -2 3145.15 199.321  10
   6  -5   2 3305.25 193.761  10
  -6   5   2 3374.60 144.366  10
   6  -5   2 3287.44 245.345   1
  -6  -5  -2 2973.69 142.006   5
  -6   5   2 3348.29 249.071   1
   6   5  -2 2979.48 193.760   7
  -6   5   2 2939.88 224.249  12
   6  -5   1 18860.5 467.200   4
  -6  -5  -1 20607.1 462.425  11
   6   5  -1 20225.9 513.261  10
   6  -5   1 19852.6 433.612  10
  -6   5   1 20416.3 405.721  10
   6   5  -1 20754.3 332.243  11
  -6   5   1 20927.3 619.130   1
   6  -5   1 18582.1 382.052   7
  -6   5   1 20044.6 555.863  12
  -6   5   1 19994.5 561.118  11
   6   5   0 18249.7 371.865  11
  -6  -5   0 18416.1 393.858  11
   6   5   0 18393.8 500.571  10
   6  -5   0 17563.4 374.224  10
  -6   5   0 18252.5 427.289  10
   6  -5   0 17752.9 439.511   4
   6  -5   0 16989.7 375.877   7
  -6   5   0 17398.8 502.583  12
  -6   5   0 17880.8 527.511  11
  -6   5  -1 19561.6 556.443  11
   6   5   1 20152.8 443.400  11
  -6  -5   1 20252.1 347.763  11
   6  -5  -1 19903.0 364.835  10
  -6   5  -1 20206.4 493.919  10
   6  -5  -1 19380.9 556.824   9
  -6   5  -1 19834.6 518.507  12
  -6  -5   1 18897.0 435.362   4
   6  -5  -1 19738.2 454.766   4
   6   5   1 19690.7 483.468   2
  -6   5  -2 3253.77 232.391  11
   6   5   2 3126.30 194.289  11
  -6   5  -2 3006.41 210.547  10
   6  -5  -2 3452.58 242.890   9
   6   5   2 3506.90 220.466   2
   6  -5  -2 3165.47 183.686   4
  -6  -5   2 3074.48 171.695   4
  -6   5  -2 3139.23 200.945  12
  -6   5  -3 14277.0 492.977  11
   6   5   3 14814.9 452.235  11
  -6   5  -3 14787.8 500.728  10
   6  -5  -3 14736.2 503.847   9
   6   5   3 14946.2 487.928   2
  -6  -5   3 13700.0 362.381   4
  -6   5  -3 14194.9 394.989  12
  -6   5  -4 6724.24 349.450  11
   6   5   4 7222.42 340.278  11
  -6   5  -4 7637.09 391.130  10
   6  -5  -4 7424.60 368.154   9
  -6   5  -4 7435.76 351.149   5
  -6  -5   4 6994.62 266.074   4
   6   5   4 7405.51 363.494   2
  -6   5  -4 7284.15 263.722  12
  -6  -5   5 8525.61 304.469   4
  -6   5  -5 8794.66 408.947  11
  -6   5  -5 9431.49 469.980  10
  -6   5  -5 8774.76 399.076   5
   6   5   5 8994.52 403.479  11
  -6   5  -6 6295.75 349.852   5
  -6  -5   6 6152.26 272.538   4
   6  -5  -6 5738.55 324.537   2
   6  -5  -6 6178.98 380.746   8
  -6  -5   7 3702.37 228.684   4
  -6  -5   7 3380.81 232.549  10
  -6   5  -7 4118.10 299.346   5
   6  -5  -7 3929.26 317.036   8
  -6  -5   8 6231.54 312.406   4
  -6   5  -8 6674.50 398.009   5
   6  -5  -8 6315.35 426.198   8
  -6   5  -9 654.208 143.635   5
   6  -5  -9 485.423 181.051   8
  -6   5 -10 3050.40 300.470   5
   6  -5 -10 2303.62 312.243   8
  -6   5 -11 358.816 127.013   5
   6  -5 -11 478.364 156.905   8
  -6   5 -12 649.739 168.999   5
   6  -5 -12 574.367 166.523   8
   6  -5 -13 61.8153 102.046   8
   6  -5 -14 735.111 194.033   8
   6  -5 -15 153.992 139.561   8
   6  -6  15 1225.41 241.985   4
   6  -6  14 924.422 218.361   4
   6  -6  13 2482.78 349.326   4
   6  -6  12 4871.60 458.198   4
   6  -6  11 734.672 184.642   4
  -6   6  11 666.510 141.554  12
   6  -6  10 1822.90 267.681   4
  -6   6  10 1587.18 209.138  12
   6  -6   9 3132.24 328.015   4
  -6   6   9 3278.35 301.679  12
   6  -6   8 5536.30 405.450   4
  -6   6   8 5568.83 380.264  12
   6  -6   7 2034.43 247.575   4
  -6   6   7 2125.59 231.360  12
   6  -6   6 14325.9 571.970   4
  -6  -6  -6 13689.1 402.034   5
  -6   6   6 14243.7 576.222  12
   6  -6   5 1422.54 173.715   4
  -6  -6  -5 1269.91 111.069   5
   6   6  -5 1319.24 153.414  10
  -6   6   5 1357.32 182.995  12
   6  -6   4 6919.09 348.421   4
  -6  -6  -4 6985.50 358.962  11
  -6  -6  -4 6245.68 223.850   5
   6  -6   4 7236.63 344.125  10
   6   6  -4 6391.77 319.991  10
  -6   6   4 6721.02 372.667  12
  -6   6   4 6821.77 384.960   1
   6  -6   3 4238.89 259.731   4
  -6  -6  -3 4284.96 263.872  11
   6   6  -3 3935.88 246.124  10
   6  -6   3 4538.85 255.963  10
   6  -6   3 4184.06 295.687   1
  -6  -6  -3 3474.10 150.220   5
  -6   6   3 4156.75 164.006  10
   6   6  -3 3927.32 119.089   1
  -6   6   3 4553.46 312.158   1
   6   6  -3 4117.19 229.654   7
  -6   6   3 4327.16 293.617  12
   6   6  -3 4652.45 310.231   3
  -6  -6  -2 18825.1 504.289  11
   6   6  -2 17966.7 515.912  10
   6  -6   2 17956.2 475.115  10
  -6   6   2 18023.3 378.682  10
  -6   6   2 19271.3 633.344   1
   6   6  -2 17972.5 474.769   7
   6  -6   2 17761.5 508.785   4
   6  -6   2 16683.4 337.805   7
  -6   6   2 17852.6 568.409  12
  -6   6   1 1073.80 141.531  11
   6   6  -1 1225.02 78.9546  11
  -6  -6  -1 1085.89 115.015  11
   6   6  -1 1173.29 133.791  10
   6  -6   1 1253.58 117.478  10
  -6   6   1 1223.04 166.017   1
  -6   6   1 1185.40 107.398  10
  -6   6   1 1204.66 147.198  12
   6  -6   1 1100.44 121.175   4
   6  -6   1 1079.78 88.2192   7
  -6   6   0 28708.6 699.107  11
  -6  -6   0 29914.9 511.751  11
   6   6   0 29164.2 674.006  10
   6  -6   0 27768.8 520.268  10
  -6   6   0 27319.8 567.076  10
   6  -6   0 27747.7 606.876   4
  -6  -6   0 28001.8 598.877   4
  -6   6   0 28905.1 678.456  12
   6   6   0 30205.4 482.952  11
   6   6   1 1266.76 115.508  11
   6   6   1 1112.31 138.652  10
  -6   6  -1 1112.17 127.586  10
   6  -6  -1 1208.81 159.232   9
  -6  -6   1 1154.02 122.585   4
   6  -6  -1 1152.25 129.666   4
  -6   6  -1 1149.58 134.991  12
  -6   6  -1 999.251 134.167  11
  -6   6  -2 19367.5 585.948  11
   6   6   2 19849.6 496.154  11
  -6   6  -2 19971.1 559.449  10
   6  -6  -2 19211.2 591.198   9
   6  -6  -2 19948.2 510.851   4
  -6  -6   2 19386.0 475.888   4
  -6   6  -2 19703.3 523.079  12
   6   6   3 4615.88 282.792   2
   6   6   3 4696.94 263.474  11
  -6   6  -3 4603.80 292.625  10
   6  -6  -3 4451.18 287.912   9
   6  -6  -3 4686.33 252.081   4
  -6   6  -3 4502.62 288.528  11
  -6   6  -3 4501.24 242.086  12
  -6  -6   3 4595.01 235.346   4
  -6   6  -4 6978.61 365.535  11
   6   6   4 7543.58 358.595  11
  -6   6  -4 7378.09 393.738  10
   6  -6  -4 6896.64 368.899   9
  -6   6  -4 7378.97 356.787   5
   6   6   4 7793.29 388.955   2
  -6  -6   4 7015.47 295.055   4
  -6   6  -5 1455.91 173.604   5
  -6  -6   5 1606.26 147.042   4
  -6  -6   6 14303.5 452.432   4
  -6   6  -6 14708.3 544.437   5
   6  -6  -6 14778.2 597.293   8
  -6   6  -7 2313.64 230.044   5
   6  -6  -7 1935.38 223.736   8
  -6  -6   7 2239.50 189.703   4
  -6  -6   8 5430.72 308.343   4
  -6   6  -8 5583.25 372.306   5
   6  -6  -8 4919.08 399.609   8
  -6   6  -9 3853.68 327.434   5
   6  -6  -9 2677.49 325.887   8
  -6   6 -10 1565.63 223.076   5
   6  -6 -10 1792.29 258.589   8
  -6   6 -11 871.874 181.218   5
   6  -6 -11 760.614 183.777   8
  -6   6 -12 5387.63 431.732   5
   6  -6 -12 5691.08 472.883   8
   6  -6 -13 2723.46 346.141   8
   6  -6 -14 622.537 176.568   8
   6  -6 -15 1224.01 239.705   8
   6  -7  14 82.1853 102.689   4
   6  -7  13 192.755 124.254   4
   6  -7  12 343.366 143.832   4
  -6   7  11 619.250 141.110  12
   6  -7  11 657.924 166.638   4
   6  -7  10 748.391 204.701   4
  -6   7  10 429.843 124.363  12
   6  -7   9 43.5329 96.9215   4
  -6   7   9 180.172 103.327  12
   6  -7   8 1384.07 206.949   4
  -6   7   8 1293.98 195.870  12
   6  -7   7 2448.81 264.176   4
  -6   7   7 2445.70 257.426  12
   6  -7   6 459.728 127.877   4
  -6   7   6 611.252 138.296  12
   6  -7   5 5497.28 347.329   4
  -6   7   5 5803.15 373.861  12
  -6  -7  -4 677.708 123.760  11
   6  -7   4 823.278 140.036   4
  -6   7   4 826.058 162.853  12
   6  -7   3 2144.91 202.907   4
   6  -7   3 1953.56 178.012  10
   6   7  -3 1917.90 187.818  10
  -6   7   3 2252.38 230.730  12
   6   7  -3 1937.27 158.851   7
   6  -7   2 4784.39 260.550  10
   6   7  -2 4875.28 291.650  10
  -6   7   2 4787.87 220.853  10
   6  -7   2 5234.93 301.450   4
   6   7  -2 5169.22 256.948   7
  -6   7   2 5154.18 325.669  12
   6   7  -1 5724.80 163.561  11
   6  -7   1 5730.41 269.446  10
  -6   7   1 5173.23 244.512  10
   6   7  -1 5579.01 272.413   7
  -6   7   1 5762.76 333.920  12
   6   7  -1 5695.92 313.824  10
   6  -7   1 6080.60 317.532   4
   6   7   0 588.350 69.6424  11
  -6   7   0 360.879 86.0592  11
  -6  -7   0 461.563 94.8080   4
   6  -7   0 480.951 77.8167  10
   6   7   0 507.979 97.6277  10
  -6   7   0 413.665 77.9297  10
  -6   7   0 460.285 94.9310  12
   6  -7   0 430.307 91.9598   4
  -6   7  -1 5196.19 314.142  11
   6   7   1 5918.97 254.461  11
   6   7   1 5769.19 328.211  10
  -6   7  -1 5263.50 285.100  10
   6  -7  -1 5694.90 335.403   9
  -6  -7   1 5808.36 294.046   4
   6  -7  -1 5497.34 295.093   4
  -6   7  -1 5970.09 319.201  12
   6   7   2 5514.33 269.198  11
  -6   7  -2 5092.16 301.861  10
  -6   7  -2 5518.31 326.246  11
   6  -7  -2 5420.50 326.958   9
   6  -7  -2 5044.84 285.049   4
  -6  -7   2 5148.99 272.140   4
  -6   7  -2 5358.55 292.703  12
   6   7   3 1892.48 174.764  11
  -6   7  -3 1735.58 188.101  10
   6  -7  -3 2104.23 214.301   9
   6  -7  -3 1899.03 179.075   4
  -6  -7   3 2010.54 175.375   4
  -6   7  -3 1886.79 170.287  12
   6   7   4 769.388 120.641  11
  -6  -7   4 738.340 108.436   4
  -6   7  -4 740.938 130.671   5
  -6   7  -5 5762.53 336.421   5
  -6  -7   5 5365.34 290.651   4
  -6   7  -6 507.710 114.706   5
  -6  -7   6 550.565 99.2068   4
   6  -7  -6 647.059 137.588   8
   6  -7  -7 1903.47 261.622   8
  -6   7  -7 2415.44 241.137   5
  -6  -7   7 2376.69 208.125   4
  -6   7  -8 1245.20 184.648   5
   6  -7  -8 829.145 185.272   8
  -6  -7   8 1053.58 152.667   4
  -6   7  -9 240.844 109.333   5
   6  -7  -9 89.7409 82.2980   8
  -6   7 -10 241.971 105.640   5
   6  -7 -10 510.751 157.259   8
  -6   7 -11 660.937 171.422   5
   6  -7 -11 668.072 168.921   8
  -6   7 -12 105.123 92.8240   5
   6  -7 -12-17.5196 80.1859   8
   6  -7 -13 81.9252 110.680   8
   6  -7 -14 32.3096 73.1671   8
   6  -8  14 288.595 123.432   4
   6  -8  13 972.349 222.269   4
   6  -8  12 673.933 180.198   4
   6  -8  11 878.638 198.226   4
  -6   8  11 990.649 181.495  12
   6  -8  10 476.612 166.014   4
  -6   8  10 789.858 165.966  12
   6  -8   9 1114.77 209.730   4
  -6   8   9 919.796 169.853  12
  -6   8   8 3142.13 305.624  12
   6  -8   8 2746.04 295.751   4
   6  -8   7 3143.75 308.659   4
  -6   8   7 3246.48 305.291  12
   6  -8   6 6642.92 411.971   4
  -6   8   6 6182.04 426.496  12
   6  -8   5 2231.97 239.223   4
  -6   8   5 2513.25 254.887  12
   6  -8   4 6844.13 386.886   4
  -6   8   4 7720.84 431.337  12
   6  -8   3 1690.27 191.423   4
   6   8  -3 1327.15 130.444   7
  -6   8   3 1512.34 194.216  12
   6  -8   2 5719.61 303.489  10
  -6   8   2 6968.04 388.069  12
   6  -8   2 6578.73 359.540   4
   6   8  -2 5520.92 263.522   7
   6  -8   1 5880.63 294.050  10
  -6   8   1 5333.25 268.872  10
   6  -8   1 6351.97 349.593   4
  -6   8   1 6177.22 354.744  12
   6   8  -1 5780.85 276.192   7
   6  -8   0 13222.3 427.339  10
  -6   8   0 12684.3 444.045  10
  -6  -8   0 14806.0 517.094   4
  -6   8   0 14774.6 534.603  12
   6  -8   0 13974.0 508.732   4
   6   8   1 6395.21 268.553  11
  -6   8  -1 5890.07 318.301  10
   6  -8  -1 6613.64 377.940   9
  -6  -8   1 6234.87 330.766   4
   6  -8  -1 6432.82 343.929   4
  -6   8  -1 6396.59 343.563  12
  -6   8  -2 5928.42 344.236  10
   6  -8  -2 7202.85 391.886   9
  -6   8  -2 6873.72 354.872  12
   6   8   2 6964.21 313.441  11
   6  -8  -2 6846.83 358.203   4
  -6  -8   2 6890.82 342.541   4
   6   8   3 1580.90 165.364  11
   6  -8  -3 1701.21 194.856   9
  -6   8  -3 1440.94 163.658   5
   6  -8  -3 1788.01 187.157   4
  -6  -8   3 1566.19 170.433   4
  -6   8  -4 7972.50 392.958   5
  -6  -8   4 7667.79 366.257   4
  -6   8  -5 2547.80 232.114   5
  -6  -8   5 2422.68 213.053   4
  -6   8  -6 6472.38 378.450   5
  -6  -8   6 6403.61 352.601   4
   6  -8  -6 7386.41 453.166   8
  -6   8  -7 3316.60 285.713   5
   6  -8  -7 3396.16 319.388   8
  -6  -8   7 3016.82 249.116   4
  -6   8  -8 3151.73 292.268   5
   6  -8  -8 2874.08 307.507   8
  -6  -8   8 2555.18 240.863   4
  -6   8  -9 877.322 170.048   5
   6  -8  -9 920.710 185.167   8
  -6   8 -10 660.677 165.182   5
   6  -8 -10 708.984 172.339   8
  -6   8 -11 836.018 176.594   5
   6  -8 -11 682.937 171.446   8
   6  -8 -12 864.527 208.020   8
   6  -8 -13 740.014 181.650   8
   6  -8 -14 109.235 97.8158   8
   6  -9  13 1668.01 283.708   4
   6  -9  12 479.189 173.642   4
   6  -9  11 633.924 180.679   4
  -6   9  11 988.714 178.248  12
   6  -9  10 2109.81 290.944   4
  -6   9  10 2429.17 275.062  12
  -6   9   9 1869.52 249.944  12
   6  -9   9 2335.23 291.616   4
   6  -9   8 3777.89 357.923   4
  -6   9   8 3493.39 333.867  12
   6  -9   7 8712.12 518.574   4
  -6   9   7 9388.08 523.524  12
   6  -9   6 908.995 168.572   4
  -6   9   6 938.076 199.245  12
  -6   9   5 9057.73 502.895  12
   6  -9   5 8946.91 487.716   4
   6  -9   4 1054.56 176.128   4
  -6   9   4 838.473 175.069  12
  -6   9   3 14133.7 593.996  12
   6  -9   3 13661.2 567.487   4
   6  -9   2 631.719 138.348   4
  -6   9   2 612.489 133.515  12
   6  -9   1 22358.7 693.820   4
  -6   9   1 22869.6 717.574  12
  -6  -9   0 75.2737 75.3992   4
  -6   9   0 75.2921 77.8563  12
   6  -9   0-21.7817 77.7707   9
   6  -9   0 84.2465 59.3607   4
   6  -9  -1 23879.1 734.126   9
  -6  -9   1 22436.1 675.966   4
   6  -9  -1 22522.3 687.781   4
  -6   9  -1 23627.5 703.017  12
   6  -9  -2 806.325 140.675   4
  -6  -9   2 702.693 124.116   4
   6  -9  -2 684.187 136.676   9
   6  -9  -3 14288.9 583.945   9
  -6   9  -3 14164.7 513.389   5
   6  -9  -3 13941.3 552.635   4
  -6  -9   3 13627.6 523.627   4
  -6  -9   4 792.194 134.507   4
  -6   9  -4 861.576 134.607   5
  -6   9  -5 9928.57 456.562   5
  -6  -9   5 8930.08 432.097   4
  -6   9  -6 1129.51 169.310   5
  -6  -9   6 893.397 145.982   4
   6  -9  -6 1196.95 199.521   8
  -6   9  -7 9808.43 492.476   5
  -6  -9   7 8262.13 440.781   4
   6  -9  -7 9280.61 536.986   8
  -6   9  -8 3762.49 317.465   5
   6  -9  -8 3378.64 336.610   8
  -6  -9   8 3451.60 292.743   4
  -6   9  -9 1675.24 224.616   5
   6  -9  -9 1763.44 261.736   8
  -6   9 -10 2676.90 300.657   5
   6  -9 -10 2497.15 309.803   8
  -6   9 -11 1043.88 191.672   5
   6  -9 -11 1158.69 218.793   8
   6  -9 -12 506.122 158.994   8
   6  -9 -13 1163.85 228.784   8
   6 -10  13 1202.97 238.307   4
   6 -10  12 1248.38 241.298   4
   6 -10  11 702.751 186.723   4
   6 -10  10 169.047 118.139   4
  -6  10   9 548.930 141.964  12
   6 -10   9 875.537 202.383   4
   6 -10   8 1147.82 208.984   4
  -6  10   8 863.770 183.762  12
   6 -10   7 1020.87 196.137   4
  -6  10   7 855.456 178.430  12
   6 -10   6 6555.71 451.485   4
  -6  10   6 7102.04 465.194  12
  -6  10   5 841.682 183.308  12
   6 -10   5 920.647 186.888   4
  -6  10   4 1133.74 211.334  12
   6 -10   4 1155.87 185.742   4
  -6  10   3 1134.75 196.609  12
   6 -10   3 936.891 168.034   4
  -6  10   2 1543.68 228.241  12
   6 -10   2 1593.25 221.865   4
   6 -10   1 3794.25 317.660   4
  -6  10   1 4038.20 324.849  12
   6 -10   0 1218.16 179.328   9
   6 -10   0 1293.83 188.698   4
  -6 -10   0 994.041 160.954   4
   6 -10  -1 4098.36 315.616   9
  -6 -10   1 3519.06 290.163   4
   6 -10  -1 3638.48 301.516   4
   6 -10  -2 1246.80 181.346   4
  -6 -10   2 1210.43 180.989   4
  -6  10  -2 1317.11 155.269   5
   6 -10  -2 1308.46 187.537   9
   6 -10  -3 1052.34 173.289   4
   6 -10  -3 1089.56 171.927   9
  -6 -10   3 653.281 130.278   4
  -6  10  -3 1079.95 148.624   5
  -6 -10   4 1022.20 168.621   4
  -6  10  -4 1016.81 144.812   5
  -6 -10   5 733.601 139.753   4
  -6  10  -5 698.932 127.265   5
  -6  10  -6 7475.37 415.722   5
   6 -10  -6 6267.87 443.340   8
  -6 -10   6 6691.83 408.394   4
  -6  10  -7 700.028 136.426   5
  -6 -10   7 909.160 165.275   4
   6 -10  -7 805.856 168.592   8
  -6  10  -8 980.592 170.712   5
   6 -10  -8 887.417 189.163   8
  -6  10  -9 843.840 161.941   5
   6 -10  -9 761.530 168.513   8
  -6  10 -10 545.014 140.864   5
   6 -10 -10 365.068 129.624   8
   6 -10 -11 150.808 91.9510   8
   6 -10 -12 638.846 156.708   8
   6 -10 -13 845.165 192.678   8
   6 -11  12 1513.28 266.308   4
   6 -11  11 2073.69 303.776   4
   6 -11  10 414.360 146.023   4
   6 -11   9 2131.99 295.596   4
   6 -11   8 628.246 167.291   4
   6 -11   7 5954.09 465.551   4
  -6  11   7 6153.73 461.526  12
   6 -11   6 230.538 122.675   4
  -6  11   6 207.352 107.510  12
  -6  11   5 10171.1 574.972  12
   6 -11   5 9966.27 562.343   4
  -6  11   4 441.722 147.488  12
   6 -11   4 364.123 134.546   4
   6 -11   3 2017.29 253.232   4
   6 -11   2 2333.02 265.308   4
   6 -11   1 5752.87 395.397   9
   6 -11   1 6439.96 426.875   4
   6 -11   0 6941.57 426.207   9
  -6 -11   0 6932.76 436.026   4
   6 -11   0 7548.48 455.673   4
   6 -11  -1 6021.99 396.810   9
  -6 -11   1 6183.86 406.961   4
   6 -11  -1 6203.37 419.463   4
   6 -11  -2 2258.17 257.641   9
   6 -11  -2 2249.41 262.360   4
  -6 -11   2 2182.03 246.650   4
   6 -11  -3 2168.66 255.559   4
  -6 -11   3 2183.78 244.825   4
  -6 -11   4 400.629 111.321   4
   6 -11  -5 9079.15 526.206   8
  -6 -11   5 9294.44 501.233   4
  -6 -11   6 211.712 81.0019   4
   6 -11  -6 195.990 91.9165   8
   6 -11  -7 5467.98 434.505   8
  -6 -11   7 5530.65 393.201   4
   6 -11  -8 496.668 137.801   8
   6 -11  -9 1870.90 263.011   8
   6 -11 -10 781.066 178.858   8
   6 -11 -11 1467.50 242.202   8
   6 -11 -12 1163.00 212.197   8
   6 -12  11 427.582 137.209   4
   6 -12  10 90.4324 79.3478   4
   6 -12   9 3808.56 403.150   4
   6 -12   8 3467.84 381.329   4
   6 -12   7 1866.84 283.382   4
   6 -12   6 5782.47 461.808   4
   6 -12   5 1773.07 256.828   4
   6 -12   4 7869.07 516.409   4
   6 -12   3 2719.61 305.566   4
   6 -12   2 14102.6 625.636   9
   6 -12   2 15001.4 689.241   4
   6 -12   1 603.278 134.465   9
   6 -12   1 994.186 187.149   4
   6 -12   0 16168.0 659.129   9
   6 -12   0 16166.6 701.791   4
  -6 -12   1 736.190 163.294   4
   6 -12  -1 825.808 165.001   4
   6 -12  -1 736.573 156.296   9
   6 -12  -2 14715.5 638.945   9
   6 -12  -2 14300.3 668.595   4
  -6 -12   2 13786.3 644.439   4
  -6 -12   3 2553.22 277.675   4
  -6 -12   4 6918.79 454.728   4
  -6 -12   5 1487.56 221.181   4
   6 -12  -5 1202.87 196.485   8
   6 -12  -6 4727.35 395.773   8
  -6 -12   6 4840.94 382.145   4
   6 -12  -7 1871.04 259.300   8
  -6 -12   7 1902.59 247.275   4
   6 -12  -8 2229.49 284.597   8
   6 -12  -9 3018.42 337.435   8
   6 -12 -10 243.486 105.510   8
   6 -12 -11 474.857 144.817   8
   6 -13  10 1219.19 235.693   4
   6 -13   9 396.948 145.193   4
   6 -13   8 292.391 124.547   4
   6 -13   7 1138.19 229.169   4
   6 -13   6 59.0438 94.7213   4
   6 -13   5 458.880 153.407   4
   6 -13   4 812.789 186.814   4
   6 -13   3 1576.12 217.557   9
   6 -13   3 1603.60 248.746   4
   6 -13   2 1491.53 211.904   9
   6 -13   2 2342.83 296.591   4
   6 -13   1 363.201 113.569   9
   6 -13   1 416.003 115.823   4
   6 -13   0 5245.74 383.817   9
   6 -13   0 5901.96 454.404   4
   6 -13  -1 412.372 136.136   4
   6 -13  -1 333.170 110.285   9
  -6 -13   1 209.817 110.745   4
   6 -13  -2 1583.05 242.191   4
  -6 -13   2 1630.16 241.066   4
  -6 -13   3 1614.20 233.970   4
  -6 -13   4 495.747 132.504   4
   6 -13  -4 486.777 140.056   8
  -6 -13   5 448.960 137.883   4
   6 -13  -5 290.034 108.968   8
  -6 -13   6 24.1782 62.8765   4
   6 -13  -6 73.0044 67.2896   8
   6 -13  -7 908.391 190.197   8
   6 -13  -8 490.703 138.940   8
   6 -13  -9 521.582 152.673   8
   6 -13 -10 673.637 163.904   8
   6 -14   9 77.5750 83.6170   4
   6 -14   8 1862.54 290.351   4
   6 -14   7 1202.04 238.347   4
   6 -14   6 6586.81 528.079   4
   6 -14   5 368.096 143.774   4
   6 -14   4 4277.58 415.166   4
   6 -14   3 529.422 155.491   4
   6 -14   2 2386.94 265.357   9
   6 -14   2 2805.19 330.787   4
   6 -14   1 579.188 175.877   4
   6 -14   1 524.442 125.344   9
   6 -14   0 5466.15 391.205   9
   6 -14   0 5928.27 475.370   4
   6 -14  -1 687.125 184.418   4
   6 -14  -2 3258.78 349.119   4
  -6 -14   2 2543.21 298.844   4
  -6 -14   3 569.316 157.904   4
   6 -14  -4 3478.71 332.517   8
  -6 -14   4 3704.88 359.766   4
  -6 -14   5 245.492 103.793   4
   6 -14  -5 251.399 99.6003   8
   6 -15   7 1133.10 224.359   4
   6 -15   6 128.507 101.454   4
   6 -15   5 860.531 198.994   4
   6 -15   4-85.9902 103.672   4
   6 -15   3 1240.42 229.629   4
   6 -15   2 607.845 166.369   4
   6 -15   1 2066.89 288.024   4
   6 -15   0 205.096 118.053   4
   6 -15  -1 1755.02 264.039   4
  -6 -15   3 1167.87 206.496   4
  -6 -15   4 125.575 94.3920   4
  -6 -15   5 976.050 195.230   4
   6 -16   5 170.125 105.348   4
   6 -16   4 220.159 103.067   4
   6 -16   3 93.6594 87.2307   4
   6 -16   2 776.293 198.947   4
   6 -16   1 397.427 144.135   4
   6 -16   0 63.1897 90.4170   4
   6 -16  -1 411.106 141.438   4
  -6 -16   4 233.013 114.265   4
   7   0   0 281.207 51.3135   3
  -7   0   0 135.200 47.2840  11
   7   0   0 239.900 56.3742  10
   7   0   1 53936.9 791.873  11
  -7   0   1 56951.5 785.339  11
  -7   0  -1 55052.0 818.257  11
   7   0  -1 52063.1 749.430   1
   7   0   1 53655.9 769.103  10
   7   0  -1 53779.9 606.808  10
   7   0  -1 54595.6 753.436   9
   7   0  -1 55553.4 699.139   3
   7   0   1 54583.2 547.648   3
   7   0  -1 53585.8 830.878   7
  -7   0   2 3542.80 192.742  11
  -7   0  -2 3748.35 223.844  11
   7   0  -2 3686.60 107.452  10
   7   0  -2 3670.83 186.365   1
   7   0   2 3663.22 222.377  10
   7   0  -2 3264.12 122.893  10
   7   0   2 3608.93 126.979   3
   7   0  -2 3553.64 198.603   9
   7   0  -2 3736.26 221.615   7
   7   0   2 3635.35 216.805  11
   7   0   3 2754.37 197.136  11
  -7   0   3 2335.44 155.336  11
  -7   0  -3 2606.90 197.784  11
   7   0   3 2626.80 204.012  10
   7   0  -3 2487.32 187.941   7
   7   0   4 253.280 67.8838  11
  -7   0  -4 180.536 55.1468  11
  -7   0   4 145.111 53.4899   3
   7   0   4 125.228 55.2945  10
  -7   0   4 85.6828 35.9772  11
  -7   0  -4 138.305 61.8784   5
   7   0  -4 169.872 68.3873   7
   7   0   5 13787.5 484.626  11
  -7   0   5 13629.9 491.817   3
  -7   0  -5 13543.8 501.781  11
   7   0   5 13384.5 508.511  10
  -7   0  -5 13133.1 460.233   5
   7   0  -5 13271.9 449.789   8
   7   0  -6 3840.79 148.126   2
  -7   0  -6 5107.60 303.317   5
   7   0  -6 4642.08 285.880   8
  -7   0   6 4959.85 317.185   3
  -7   0  -7 9675.41 440.505   5
  -7   0   7 8972.62 373.530  11
   7   0  -7 10452.4 450.724   8
  -7   0  -8 3540.98 281.273   5
   7   0  -8 2872.36 253.902   8
  -7   0  -9 5580.43 374.920   5
   7   0  -9 5692.47 376.573   8
   7   0 -10-30.8016 117.943   6
  -7   0 -10 60.4706 93.7670   5
   7   0 -10-40.3169 81.5159   8
   7   0 -11 3862.59 367.660   6
  -7   0 -11 4719.35 377.641   5
   7   0 -11 4156.05 359.962   8
   7   0 -12 407.005 139.502   6
  -7   0 -12 250.326 94.8231   5
   7   0 -12 244.590 100.043   8
   7   0 -13 179.899 82.7640   6
   7   0 -13 49.7294 87.6687   8
   7   0 -14-105.425 126.572   6
   7   0 -15 104.942 115.726   6
   7   1 -15 542.837 174.740   6
   7   1 -14 1920.23 301.061   6
   7   1 -13 19.2263 106.524   6
   7   1 -12 1450.47 231.383   6
   7   1 -12 1180.10 204.461   8
  -7  -1 -11 994.767 177.682   5
   7   1 -11 1184.54 201.935   8
  -7  -1 -10 1505.29 205.341   5
   7   1 -10 1434.57 207.256   8
  -7  -1  -9 4742.36 337.454   5
   7   1  -9 4708.67 337.129   8
  -7   1   8 2515.36 224.813  11
  -7  -1  -8 3088.72 260.155   5
   7   1  -8 2985.60 254.748   8
  -7   1   7 196.402 66.9355  11
  -7  -1  -7 223.373 75.2347   5
   7   1  -7 446.756 101.144   8
  -7  -1  -6 9387.48 400.659   5
   7   1  -6 10069.6 402.571   8
  -7   1   6 9015.19 303.341   1
  -7   1   6 9977.12 442.652   3
   7  -1   5 4953.57 291.192  11
  -7  -1  -5 4959.94 304.303  11
   7  -1   5 5220.17 310.543  10
   7   1  -5 3799.90 139.895  10
  -7  -1  -5 4892.75 277.024   5
   7   1  -5 4900.13 265.154   8
  -7   1   5 5163.48 299.380   3
   7  -1   4 2468.93 197.571  11
  -7  -1  -4 2422.89 201.275  11
   7   1  -4 1911.38 90.8351  10
   7  -1   4 2355.29 195.284  10
  -7  -1  -4 2263.16 182.605   5
   7   1  -4 2246.75 168.869   8
   7   1  -4 2310.69 187.003   7
  -7   1   4 2455.04 190.730   3
  -7   1   3 10873.6 358.025  11
   7  -1   3 11553.9 407.469  11
  -7  -1  -3 11574.4 412.093  11
   7   1  -3 10923.7 219.713  10
   7  -1   3 11112.0 393.510  10
   7   1  -3 11166.2 389.539   3
   7   1  -3 11778.2 405.053   7
  -7   1   3 11235.8 376.823   3
   7  -1   2 33862.8 669.971  11
  -7   1   2 34465.0 633.363  11
  -7  -1  -2 35622.6 675.562  11
   7   1  -2 35045.6 430.518  10
   7  -1   2 34932.7 638.032  10
   7   1  -2 35786.9 574.964   9
   7   1  -2 35395.7 640.339   3
   7   1  -2 35233.7 535.215   1
   7   1  -2 35323.3 682.921   7
   7  -1   1 9575.84 345.847  11
  -7   1   1 9982.30 345.159  11
  -7  -1  -1 10171.5 345.149  11
   7  -1   1 9240.60 243.847   4
   7  -1   1 9859.34 305.377  10
   7   1  -1 10464.1 305.556   9
   7   1  -1 9959.50 315.433   3
   7   1  -1 9701.86 356.311   7
   7   1  -1 9798.82 309.437   1
  -7   1   0 3692.88 214.740  11
  -7  -1   0 3613.64 197.083  11
   7  -1   0 3644.39 162.179  10
   7   1   0 3325.86 184.943  11
   7  -1   0 3415.53 213.162   1
   7   1   0 3644.08 177.710   3
  -7  -1   1 11427.5 332.898  11
  -7   1  -1 11393.2 386.277  11
   7  -1  -1 10982.5 252.277   6
   7   1   1 10531.7 281.970   3
   7  -1  -1 10844.3 219.740  10
   7   1   1 10651.1 344.935  11
   7  -1  -1 10764.9 361.294   9
   7  -1  -1 10459.1 357.947   7
   7  -1  -1 10852.4 359.601   1
  -7  -1   2 36140.5 579.490  11
  -7   1  -2 37572.6 727.424  11
   7  -1  -2 35972.8 541.818   6
   7  -1  -2 35594.6 660.715   9
   7   1   2 36375.3 674.076  11
   7  -1  -2 36131.7 675.380   7
  -7  -1   3 11469.2 321.042  11
   7   1   3 12197.1 415.185  11
  -7   1  -3 12182.3 431.414  11
   7  -1  -3 11442.9 346.940   6
   7   1   3 12135.3 454.081  10
   7  -1  -3 11510.2 387.326   9
   7  -1  -3 12132.3 405.011   7
  -7  -1   4 2293.46 145.720  11
   7   1   4 2445.33 196.041  11
  -7   1  -4 2611.49 211.989  11
   7   1   4 2374.55 216.190  10
  -7  -1   5 4660.78 209.102  11
   7   1   5 5322.10 304.648  11
  -7   1  -5 5087.71 309.464  11
   7   1   5 5265.60 334.092  10
  -7   1  -5 4814.63 285.562   5
   7  -1  -5 5002.46 290.876   8
  -7  -1   6 8777.76 326.257  11
  -7   1  -6 8935.35 409.054   5
   7  -1  -6 9244.88 412.999   8
   7  -1  -6 8278.02 270.495   2
   7  -1  -7 249.436 79.8840   6
  -7   1  -7 360.560 99.5249   5
   7  -1  -7 336.235 103.937   8
  -7   1  -8 3713.91 295.884   5
   7  -1  -8 3070.59 275.559   6
   7  -1  -8 3729.57 295.745   8
   7  -1  -9 4399.36 350.826   6
  -7   1  -9 4531.46 339.528   5
   7  -1  -9 4608.95 349.789   8
   7  -1 -10 949.183 204.211   6
  -7   1 -10 1395.33 207.952   5
   7  -1 -10 1484.97 215.521   8
   7  -1 -11 844.932 185.888   6
  -7   1 -11 970.841 192.909   5
   7  -1 -11 641.423 160.223   8
   7  -1 -12 1153.29 227.106   6
  -7   1 -12 1437.83 223.071   5
   7  -1 -12 1094.35 206.025   8
   7  -1 -13 45.6246 86.4416   6
   7  -1 -13 66.9441 90.8859   8
   7  -1 -14 2175.10 318.034   6
   7  -1 -14 2458.07 317.024   8
   7  -1 -15 427.823 147.491   6
   7   2 -15 88.4120 92.0852   6
   7  -2  15-1.07079 99.4175   4
   7   2 -14 132.807 77.9136   6
   7  -2  14 267.736 133.848   4
   7   2 -13 1206.03 240.443   6
  -7  -2 -11 4521.49 359.670   5
   7   2 -11 4341.20 358.881   8
  -7  -2 -10 5662.58 382.104   5
   7   2 -10 5422.48 376.590   8
  -7  -2  -9 6525.74 387.686   5
   7   2  -9 5835.65 364.865   8
  -7  -2  -8 3549.48 275.199   5
   7   2  -8 3785.03 279.668   8
  -7   2   7 2809.45 245.739  11
  -7  -2  -7 3246.75 247.936   5
   7   2  -7 3301.61 241.965   8
  -7   2   6 491.281 101.360   3
  -7  -2  -6 609.344 106.684   5
  -7   2   6 554.058 88.2130   1
   7   2  -6 661.282 104.548   8
   7  -2   5 13096.9 476.212  11
  -7   2   5 12570.1 403.753   1
  -7  -2  -5 13535.4 504.890  11
   7   2  -5 10984.5 287.833  10
   7  -2   5 12739.1 478.539  10
  -7  -2  -5 12683.2 432.026   5
   7   2  -5 13211.5 413.724   8
  -7   2   5 13020.4 473.351   3
   7  -2   4 9316.16 386.028  11
  -7  -2  -4 9473.36 399.452  11
  -7   2   4 9892.09 355.740   1
   7   2  -4 8635.71 245.626  10
   7  -2   4 9455.04 383.178  10
  -7  -2  -4 9682.33 358.345   5
   7   2  -4 9745.38 400.385   3
   7   2  -4 9149.28 319.602   8
  -7   2   4 9167.19 368.890   3
   7   2  -4 9790.69 386.330   7
  -7   2   3 16702.2 473.003  11
   7  -2   3 17725.9 509.781  11
  -7  -2  -3 17678.8 511.480  11
   7   2  -3 17036.5 338.872  10
   7  -2   3 17221.6 477.860  10
   7   2  -3 18365.4 520.291   3
   7   2  -3 16981.3 402.264   8
  -7   2   3 16978.0 456.137   3
   7   2  -3 17067.6 491.280   7
   7  -2   2 34737.7 696.395  11
  -7   2   2 35284.9 678.533  11
   7  -2   2 36667.2 775.563   1
   7   2  -2 36216.1 515.234  10
   7  -2   2 35671.1 582.034   4
   7  -2   2 35179.1 618.310  10
   7   2  -2 36496.2 511.083   1
  -7  -2  -2 36895.7 688.208  11
   7   2  -2 37176.6 687.607   3
   7   2  -2 35806.4 690.020   7
  -7   2   1 24308.1 565.455  11
  -7   2   1 24448.8 433.442   3
  -7  -2  -1 24537.2 525.422  11
   7  -2   1 24042.8 404.819   4
   7  -2   1 24725.3 458.931  10
   7   2  -1 25494.7 430.976   9
   7  -2   1 24310.2 608.011   1
   7   2  -1 25239.6 537.082   3
   7  -2   0 33324.9 401.786   4
   7   2   0 33492.3 566.262  11
  -7  -2   0 34968.0 583.578  11
   7   2   0 35155.5 605.638   3
   7  -2   0 34573.2 458.213  10
   7   2   0 34600.9 506.396   9
   7  -2   0 34599.9 699.226   1
  -7   2   0 35306.6 689.987  11
   7  -2   0 33573.8 623.592   7
   7   2   1 24146.2 511.840  11
  -7   2  -1 24750.8 588.292  11
  -7  -2   1 25452.3 474.514  11
   7  -2  -1 24079.3 565.868   1
   7  -2  -1 23750.8 570.266   9
   7  -2  -1 24494.5 286.461  10
   7  -2  -1 24171.6 533.857   7
   7   2   2 35105.6 663.210  11
  -7   2  -2 36841.8 740.211  11
   7  -2  -2 35076.6 695.204   9
  -7  -2   2 35518.2 527.874  11
   7  -2  -2 36155.0 560.924   6
   7  -2  -2 36260.1 673.360   7
  -7  -2   3 16933.3 355.042  11
   7   2   3 17154.5 490.001  11
   7  -2  -3 17176.0 434.749   6
  -7   2  -3 18147.8 541.617  11
   7  -2  -3 17562.2 501.691   9
   7  -2  -3 17498.1 489.650   7
  -7  -2   4 8893.74 256.527  11
   7   2   4 9493.35 387.181  11
   7  -2  -4 9470.53 357.385   6
  -7   2  -4 9282.88 401.168  11
   7   2   4 9885.86 452.169  10
   7   2   5 13744.7 490.406  11
   7  -2  -5 13415.6 462.314   6
  -7   2  -5 13829.8 514.431  11
   7   2   5 13736.6 556.903  10
  -7   2  -5 13323.8 490.262   5
  -7  -2   5 12550.3 305.568  11
   7  -2  -6 506.346 78.1964   2
   7  -2  -6 593.235 110.134   6
  -7  -2   6 388.629 57.3868  11
  -7  -2   6 374.920 60.3976  11
  -7   2  -6 515.466 116.023   5
   7  -2  -6 552.973 113.036   8
   7  -2  -7 2920.79 257.657   6
  -7   2  -7 3099.48 265.463   5
   7  -2  -7 3282.60 271.384   8
   7  -2  -8 3197.28 282.185   6
  -7   2  -8 3960.64 316.964   5
   7  -2  -8 3677.00 303.239   8
   7  -2  -9 5848.02 412.051   6
  -7   2  -9 6124.65 402.079   5
   7  -2  -9 6207.58 411.693   8
   7  -2 -10 4429.81 407.821   6
  -7   2 -10 5641.42 403.504   5
   7  -2 -10 5339.66 398.953   8
   7  -2 -11 4065.28 382.866   6
  -7   2 -11 4797.89 391.350   5
   7  -2 -11 4647.19 392.337   8
   7  -2 -12 288.467 133.166   6
  -7   2 -12 261.021 125.407   5
   7  -2 -12 316.985 139.813   8
   7  -2 -13 931.166 199.805   6
   7  -2 -13 860.973 193.370   8
   7  -2 -14 104.790 115.923   6
   7  -2 -14 5.62759 88.6625   8
   7  -2 -15 132.687 76.1403   6
   7   3 -15 140.065 89.0004   6
   7  -3  15 646.349 196.866   4
   7   3 -14 169.917 100.656   6
   7  -3  14-2.05829 98.6432   4
   7  -3  13 919.960 232.231   4
   7  -3  12 1303.05 261.565   4
  -7   3  11 2754.36 285.625  12
  -7  -3 -10 3878.40 312.612   5
   7   3 -10 3992.99 317.971   8
  -7  -3  -9 6788.32 388.051   5
   7   3  -9 6748.50 389.990   8
  -7  -3  -8 5476.51 329.946   5
   7   3  -8 5328.66 322.741   8
  -7  -3  -7 10680.6 433.156   5
   7   3  -7 10147.3 408.123   8
  -7   3   6 17937.5 540.173   1
  -7  -3  -6 18552.3 537.757   5
   7   3  -6 19997.1 527.326   8
   7  -3   5 1355.58 156.197  11
  -7  -3  -5 1634.78 180.459  11
  -7  -3  -5 1483.53 147.823   5
   7   3  -5 1399.33 120.293  10
   7  -3   5 1769.05 178.041  10
   7  -3   5 1415.83 167.409   4
  -7   3   5 1317.60 144.647   1
   7   3  -5 1685.89 185.634   3
   7   3  -5 1486.81 135.745   8
  -7   3   5 1575.67 171.243   3
  -7   3   4 9357.17 378.164   1
   7  -3   4 9529.23 395.427  11
  -7  -3  -4 9490.70 405.313  11
   7  -3   4 9522.80 381.517   4
   7  -3   4 8881.43 370.495  10
   7  -3   4 9468.92 436.602   1
  -7  -3  -4 9018.64 337.287   5
   7   3  -4 9399.46 301.836   8
  -7   3   4 9377.48 381.608   3
   7   3  -4 10098.9 428.088   3
   7   3  -4 9186.89 374.538   7
   7  -3   3 782.494 113.449  11
  -7  -3  -3 689.198 103.300  11
   7  -3   3 680.843 98.2349   4
   7  -3   3 710.116 98.8430  10
  -7   3   3 656.549 103.519   1
   7   3  -3 691.354 75.6945   8
  -7   3   3 707.727 97.9057   3
   7   3  -3 608.832 98.8839   7
   7  -3   3 775.039 123.825   1
  -7  -3  -3 692.139 94.0205   5
   7   3  -3 845.476 118.865   3
  -7   3   2 9936.56 379.370  11
   7  -3   2 9985.44 316.633   4
   7   3  -2 10531.7 237.606   2
   7  -3   2 10197.3 331.729  10
   7  -3   2 9993.51 420.163   1
   7   3  -2 9424.14 251.136   8
  -7  -3  -2 9823.71 359.879  11
   7   3  -2 9996.39 372.069   7
   7   3  -2 9958.71 382.360   3
  -7   3   1 2358.99 184.535  11
   7   3  -1 2607.46 190.104   3
   7  -3   1 2433.53 140.645   4
  -7  -3  -1 2260.76 163.369  11
   7   3  -1 2342.95 155.942  10
   7  -3   1 2475.37 145.969  10
  -7   3   1 2519.29 139.817   3
   7  -3   1 2545.11 209.816   1
   7   3   0 32722.8 545.423  11
  -7   3   0 34035.6 706.325  11
  -7   3   0 33905.0 406.665   3
  -7  -3   0 33469.7 568.413  11
   7  -3   0 33217.4 449.245  10
   7   3   0 32442.3 420.944   9
   7  -3   0 33367.2 713.224   1
   7  -3   0 31628.7 589.261   7
   7  -3   0 31596.5 461.524   4
   7   3   1 2351.11 161.134  11
  -7   3  -1 2485.27 197.483  11
  -7  -3   1 2252.03 136.488  11
   7  -3  -1 2455.92 95.4481  10
   7  -3  -1 2301.87 191.132   9
   7  -3  -1 2358.53 117.489   4
   7  -3  -1 2307.44 165.477   7
   7   3   2 10208.0 356.147  11
  -7   3  -2 10418.3 409.017  11
  -7  -3   2 9657.31 257.830  11
   7  -3  -2 10590.2 403.122   9
   7  -3  -2 9627.68 346.778   7
  -7   3  -3 536.784 78.0884  12
   7  -3  -3 698.402 94.7421   6
  -7  -3   3 725.279 65.8825  11
   7   3   3 598.150 94.3699  11
  -7   3  -3 703.128 110.516  11
   7  -3  -3 661.424 111.571   9
   7  -3  -4 9217.35 366.050   6
   7   3   4 9570.35 393.562  11
  -7  -3   4 8218.33 205.448  11
  -7   3  -4 9082.41 407.147  11
  -7   3  -4 9174.86 280.915  12
  -7  -3   5 1113.52 73.7798  11
   7  -3  -5 1466.02 161.501   6
   7   3   5 1714.76 176.375  11
  -7   3  -5 1464.78 170.727  11
  -7  -3   5 1102.78 77.0936  11
  -7   3  -5 1440.83 173.248   5
  -7   3  -6 18946.2 616.862   5
   7  -3  -6 18957.3 631.422   8
   7  -3  -6 18392.2 605.569   6
   7  -3  -7 10920.0 495.893   6
  -7   3  -7 10548.3 481.317   5
   7  -3  -7 9671.45 477.188   8
   7  -3  -7 8904.22 358.985   2
   7  -3  -8 5387.74 371.657   6
  -7   3  -8 5971.04 384.937   5
   7  -3  -8 5720.85 386.109   8
   7  -3  -9 6408.47 443.466   6
  -7   3  -9 6760.21 435.949   5
   7  -3  -9 6809.90 443.755   8
   7  -3 -10 3978.49 364.904   6
  -7   3 -10 3805.77 354.090   5
   7  -3 -10 3853.19 350.694   8
  -7   3 -11 2784.40 307.122   5
   7  -3 -11 2545.88 308.208   6
   7  -3 -11 2461.37 296.997   8
   7  -3 -12 895.171 196.037   6
  -7   3 -12 929.060 184.888   5
   7  -3 -12 1210.52 225.163   8
   7  -3 -13 1049.34 227.221   6
   7  -3 -13 971.352 211.505   8
   7  -3 -14 34.6866 89.1939   6
   7  -3 -14 15.4264 89.3042   8
   7  -3 -15 339.296 140.191   8
   7   4 -15 1398.24 269.824   6
   7  -4  15 1859.85 315.905   4
   7  -4  14 598.458 209.539   4
   7  -4  13 3371.48 407.564   4
   7  -4  12 936.969 213.670   4
   7  -4  11 5765.64 474.396   4
  -7   4  11 5381.84 393.652  12
  -7  -4 -10 9464.15 477.732   5
   7  -4  10 10464.1 614.093   4
  -7   4  10 9442.72 513.579  12
   7  -4   9 1184.95 206.706   4
  -7  -4  -9 796.770 134.173   5
  -7  -4  -8 14344.4 519.818   5
   7  -4   8 14724.0 646.153   4
   7   4  -8 14258.6 512.003   8
   7  -4   7 187.656 80.1812   4
  -7  -4  -7 418.250 92.6603   5
   7   4  -7 362.280 88.2568   8
  -7   4   7 378.958 95.1184   1
  -7  -4  -6 1188.73 137.224   5
   7   4  -6 1064.09 120.795  10
   7  -4   6 1340.98 177.390   4
   7   4  -6 1223.33 127.561   8
  -7   4   6 1188.96 153.616   1
  -7   4   5 3233.85 245.558   1
   7  -4   5 3185.44 247.842   4
   7   4  -5 3261.15 201.630  10
   7  -4   5 3593.62 253.595  10
  -7  -4  -5 3456.88 213.484   5
  -7   4   5 3266.12 250.256   3
   7   4  -5 3430.43 191.678   8
   7  -4   4 3352.24 241.581  11
  -7  -4  -4 3694.33 259.928  11
   7  -4   4 3859.07 251.532   4
   7   4  -4 3473.21 201.100  10
   7  -4   4 3707.29 240.952  10
  -7  -4  -4 3430.36 199.832   5
  -7   4   4 3580.02 254.850   1
  -7   4   4 3876.43 250.308   3
   7   4  -4 3506.10 171.978   8
   7   4  -4 3904.33 277.417   3
   7  -4   4 3597.52 282.298   1
   7   4  -4 3738.78 241.735   7
  -7  -4  -3 4514.89 268.652  11
   7  -4   3 4543.28 303.206   1
   7   4  -3 4258.77 221.093  10
  -7   4   3 4403.92 279.661   1
   7  -4   3 4456.21 244.776  10
  -7  -4  -3 4039.04 205.974   5
  -7   4   3 4385.38 244.639   3
   7   4  -3 3896.44 158.638   8
   7  -4   3 4243.66 241.644   4
   7   4  -3 4298.16 280.076   3
   7   4  -3 4523.35 256.317   7
   7  -4   2 12560.6 375.238   4
  -7  -4  -2 13924.6 434.006  11
   7   4  -2 13306.0 387.874  10
   7  -4   2 13154.6 378.441  10
   7   4  -2 14235.1 487.099   3
  -7   4   2 13850.8 473.917  11
  -7   4   2 13574.6 384.782   3
   7   4  -2 10364.9 220.970   8
   7  -4   2 14539.4 523.147   1
   7   4  -2 13778.3 441.267   7
   7   4  -1 1820.49 115.147  11
  -7   4   1 1706.71 167.060  11
   7  -4   1 1721.36 130.508   4
  -7  -4  -1 1757.74 145.942  11
   7   4  -1 1741.96 146.855  10
   7  -4   1 1906.84 130.561  10
   7  -4   1 1933.95 189.547   1
   7   4  -1 1927.31 123.488   2
  -7   4   1 2034.53 129.785   3
   7  -4   1 1748.71 136.326   7
  -7   4   0 9872.40 397.067  11
   7   4   0 10202.4 302.301  11
  -7  -4   0 10350.4 314.810  11
   7  -4   0 10071.4 262.615  10
  -7   4   0 10493.2 323.336  10
   7   4   0 10382.8 318.467   2
   7  -4   0 9885.34 323.276   7
  -7   4   0 10298.3 233.581   3
   7  -4   0 10055.1 296.114   4
  -7   4  -1 1925.61 179.544  11
   7   4   1 1974.02 147.142  11
  -7  -4   1 1935.61 123.894  11
   7  -4  -1 1995.60 98.3478  10
   7   4   1 1912.22 151.101   2
  -7   4  -1 1797.97 154.775  10
   7  -4  -1 2030.98 187.929   9
   7  -4  -1 1790.27 123.288   4
   7  -4  -1 1793.90 143.494   7
  -7   4  -2 14181.1 490.018  11
   7   4   2 14016.5 422.040  11
   7   4   2 13983.9 435.962   2
  -7   4  -2 14542.0 471.663  10
   7  -4  -2 13824.3 489.142   9
  -7  -4   2 13058.3 291.662   4
   7  -4  -2 13223.5 322.884   4
  -7  -4   2 13863.8 284.063  11
   7  -4  -2 13706.9 410.298   7
  -7   4  -2 13580.7 419.861  12
  -7   4  -3 4596.08 288.349  11
  -7  -4   3 2714.97 103.034  11
   7   4   3 4267.05 258.844   2
  -7   4  -3 4468.99 287.930  10
   7  -4  -3 4478.49 284.664   9
  -7  -4   3 4217.74 165.527   4
   7   4   3 4360.87 252.666  11
  -7   4  -3 4664.94 231.734  12
   7   4   4 3700.87 248.369  11
  -7   4  -4 3482.66 260.266  11
   7   4   4 3791.12 259.900   2
  -7   4  -4 3691.56 280.957  10
   7  -4  -4 3678.89 262.132   9
  -7   4  -4 3521.28 183.356  12
   7   4   5 3395.46 253.853  11
  -7   4  -5 3452.75 296.785  10
  -7   4  -5 3498.72 265.776   5
   7  -4  -6 1088.90 160.281   6
  -7   4  -6 1259.87 172.911   5
   7  -4  -6 1149.40 167.703   8
   7  -4  -7 347.826 80.9872   2
   7  -4  -7 304.129 105.919   6
  -7   4  -7 344.920 116.239   5
   7  -4  -7 255.823 99.8639   8
   7  -4  -8 14678.4 627.072   6
  -7   4  -8 15010.8 619.460   5
   7  -4  -8 14609.0 631.836   8
   7  -4  -9 842.039 174.762   6
  -7   4  -9 425.912 1156.22   5
   7  -4  -9 652.906 152.774   8
   7  -4 -10 10638.5 602.830   6
  -7   4 -10 9641.05 552.486   5
   7  -4 -10 9706.86 562.999   8
   7  -4 -11 5746.63 464.408   6
  -7   4 -11 5647.67 429.570   5
   7  -4 -11 6125.61 465.031   8
   7  -4 -12 636.546 180.899   6
  -7   4 -12 719.041 166.648   5
   7  -4 -12 532.010 161.632   8
   7  -4 -13 3435.58 381.523   8
   7  -4 -14 410.231 146.924   8
   7  -4 -15 1591.76 269.591   8
   7  -5  15 358.749 140.343   4
   7   5 -15 398.529 143.021   6
   7  -5  14 310.713 155.350   4
   7  -5  13 139.927 130.985   4
   7  -5  12 2522.36 335.244   4
   7  -5  11 2898.60 346.067   4
  -7   5  11 2941.36 294.455  12
   7  -5  10 3560.38 364.860   4
  -7   5  10 3424.12 318.235  12
  -7  -5  -9 11351.3 482.529   5
   7  -5   9 11714.8 620.377   4
  -7   5   9 10432.7 540.806  12
  -7  -5  -8 1986.88 193.508   5
   7  -5   8 2477.82 272.446   4
  -7   5   8 2267.59 252.487  12
   7  -5   7 6358.90 400.791   4
  -7  -5  -7 6093.52 311.009   5
  -7   5   7 6257.66 393.121  12
   7  -5   6 4199.98 306.642   4
  -7  -5  -6 4224.37 242.553   5
   7   5  -6 3418.87 236.934  10
  -7   5   5 9276.12 441.728   1
   7  -5   5 9149.71 427.283   4
   7   5  -5 8351.66 353.019  10
  -7  -5  -5 8909.91 329.294   5
  -7   5   5 9521.54 442.898   3
  -7  -5  -4 4285.39 285.775  11
   7  -5   4 4532.93 276.386   4
   7   5  -4 4179.02 243.297  10
  -7   5   4 4438.22 301.398   1
   7  -5   4 4636.32 272.138  10
  -7  -5  -4 4211.45 210.793   5
   7   5  -4 4528.74 267.508   7
   7  -5   3 26205.1 619.138   4
  -7  -5  -3 28643.0 680.300  11
   7   5  -3 25983.5 592.978  10
   7  -5   3 26612.8 607.622  10
  -7  -5  -3 25200.1 481.040   5
   7  -5   3 28618.9 778.513   1
  -7   5   3 27740.1 748.808   1
   7   5  -3 27930.0 644.154   7
   7   5  -3 28723.6 754.044   3
  -7   5   2 15925.8 534.264  11
   7  -5   2 15330.6 442.810   4
   7   5  -2 16856.1 563.313   3
  -7  -5  -2 16141.7 475.278  11
   7   5  -2 15054.7 449.029  10
   7  -5   2 15556.8 425.608  10
  -7   5   2 12543.0 265.067  10
   7  -5   2 15988.2 565.000   1
  -7  -5  -2 14503.7 347.858   5
  -7   5   2 16370.6 570.424   1
   7   5  -2 16214.7 483.962   7
   7  -5   2 14036.3 370.262   7
   7  -5   1 37916.0 666.500   4
   7   5  -1 40360.2 510.868  11
  -7   5   1 38800.5 823.187  11
  -7  -5  -1 39381.9 677.564  11
   7   5  -1 37831.6 724.862  10
   7  -5   1 39112.8 618.086  10
  -7   5   1 40349.5 593.683  10
   7  -5   1 37239.6 599.636   7
  -7   5   1 38087.2 812.691  12
  -7   5   0 18853.6 553.650  12
  -7   5   0 18579.2 571.399  11
   7   5   0 19725.1 413.849  11
  -7  -5   0 19634.7 429.377  11
   7   5   0 19496.5 537.516  10
   7  -5   0 19595.8 396.501  10
  -7   5   0 19705.1 468.900  10
  -7   5   0 19750.6 353.943   3
   7  -5   0 19056.7 439.933   7
   7   5   0 19515.2 464.095   2
   7  -5   0 18779.3 457.915   4
  -7   5  -1 39495.2 837.568  11
   7   5   1 39214.4 651.041  11
  -7  -5   1 39286.3 533.117  11
   7  -5  -1 38348.5 494.069  10
  -7   5  -1 40311.0 741.598  10
   7  -5  -1 39042.5 836.394   9
   7   5   1 39297.8 710.484   2
   7  -5  -1 37611.3 645.755   7
   7  -5  -1 38200.6 633.258   4
  -7   5  -1 37905.6 759.830  12
  -7   5  -2 15859.5 539.856  11
   7   5   2 15516.7 446.952  11
  -7  -5   2 12306.2 236.951  11
  -7   5  -2 15274.9 505.822  10
   7  -5  -2 15763.0 538.383   9
   7   5   2 15739.9 482.285   2
  -7  -5   2 14411.5 361.985   4
   7  -5  -2 15489.2 399.612   4
  -7   5  -2 15732.3 473.261  12
  -7   5  -3 26439.3 709.301  11
   7   5   3 27258.4 641.697  11
  -7   5  -3 27829.9 727.649  10
   7  -5  -3 27514.0 719.714   9
   7   5   3 27658.5 680.519   2
  -7  -5   3 26192.6 485.089   4
  -7   5  -3 27461.6 587.672  12
   7   5   4 4909.60 292.977  11
  -7   5  -4 4679.06 324.853  10
   7  -5  -4 4763.54 312.518   9
  -7   5  -4 4435.12 218.561  12
   7   5   4 4865.42 302.803   2
  -7  -5   4 4486.16 203.822   4
  -7   5  -5 9202.23 432.550   5
  -7   5  -6 4766.72 324.410   5
   7  -5  -6 4618.98 344.872   8
  -7   5  -7 7009.25 406.134   5
   7  -5  -7 7117.05 438.391   8
  -7   5  -8 2462.48 270.981   5
   7  -5  -8 2041.63 244.568   8
  -7   5  -9 12621.5 607.072   5
   7  -5  -9 11721.8 612.771   8
  -7   5 -10 3476.31 328.713   5
   7  -5 -10 3594.85 358.372   8
  -7   5 -11 3000.88 323.565   5
   7  -5 -11 3045.97 338.250   8
  -7   5 -12 2289.20 292.327   5
   7  -5 -12 2267.93 303.189   8
   7  -5 -13 48.9597 81.3345   8
   7  -5 -14 76.3985 106.029   8
   7  -5 -15 170.543 124.765   8
   7  -6  14 1648.52 277.538   4
   7  -6  13 1827.87 299.414   4
   7  -6  12 1384.80 261.982   4
   7  -6  11 2024.38 302.055   4
  -7   6  11 1666.93 225.203  12
   7  -6  10 1532.50 247.927   4
  -7   6  10 1623.61 228.842  12
   7  -6   9 3278.18 332.270   4
  -7   6   9 2977.14 303.086  12
   7  -6   8 3277.57 312.773   4
  -7   6   8 3395.34 313.515  12
   7  -6   7 5167.44 373.616   4
  -7  -6  -7 4650.91 263.102   5
  -7   6   7 4614.68 350.698  12
   7  -6   6 3465.69 283.285   4
  -7  -6  -6 3241.84 202.094   5
  -7   6   6 3591.51 308.751  12
   7  -6   5 4882.80 318.733   4
  -7  -6  -5 4407.79 218.168   5
   7   6  -5 3881.35 260.274  10
  -7   6   5 4984.39 350.964  12
   7  -6   4 2721.56 226.388   4
  -7  -6  -4 2967.51 243.048  11
   7   6  -4 2824.98 216.013  10
  -7  -6  -4 2672.58 158.919   5
   7   6  -4 2797.82 212.129   7
  -7   6   4 2791.84 258.432  12
   7  -6   3 8184.09 362.851   4
  -7  -6  -3 8099.36 372.575  11
   7   6  -3 7823.18 354.307  10
   7  -6   3 8212.39 348.827  10
  -7   6   3 8464.20 428.561  12
   7  -6   3 7357.95 259.491   7
   7   6  -3 8469.32 358.405   7
  -7  -6  -2 685.338 100.844  11
   7   6  -2 799.616 113.901  10
   7  -6   2 721.216 98.6997  10
  -7   6   2 633.046 71.5847  10
  -7   6   2 713.835 129.725  12
   7   6  -2 798.609 116.451   7
   7  -6   2 690.654 79.1866   7
  -7   6   2 787.266 136.184   1
   7  -6   2 662.171 108.011   4
   7   6  -1 9279.79 232.060  11
  -7  -6  -1 9109.18 333.053  11
   7   6  -1 9200.07 383.031  10
   7  -6   1 8863.42 313.126  10
  -7   6   1 8809.30 303.793  10
   7  -6   1 8971.64 284.839   7
  -7   6   1 9004.11 411.865  12
   7  -6   1 9049.17 357.305   4
   7   6   0 4744.86 202.858  11
  -7  -6   0 4719.22 215.180  11
   7   6   0 4356.55 269.820  10
   7  -6   0 4289.30 203.220  10
  -7   6   0 4540.11 239.268  10
   7  -6   0 3910.07 195.916   7
   7  -6   0 4158.42 239.247   4
  -7   6   0 4491.21 283.728  12
  -7   6   0 4093.35 282.812  11
   7   6   1 8636.76 310.699  11
   7   6   1 8855.80 396.779  10
  -7   6  -1 7990.45 349.630  10
   7  -6  -1 8760.65 417.086   9
  -7   6  -1 8336.75 398.728  11
  -7  -6   1 8219.96 317.390   4
   7  -6  -1 8678.85 336.113   4
  -7   6  -1 8313.62 373.599  12
   7   6   2 758.229 104.179  11
   7   6   2 669.128 107.966   2
  -7   6  -2 674.465 107.906  12
  -7   6  -2 636.381 108.389  10
   7  -6  -2 691.045 97.1225   4
   7  -6  -2 694.124 126.000   9
  -7  -6   2 827.951 102.021   4
   7   6   3 8645.55 370.061  11
  -7   6  -3 8126.07 403.882  10
   7  -6  -3 7854.49 413.792   9
  -7  -6   3 7576.14 299.798   4
   7   6   3 8141.44 386.909   2
  -7   6  -3 8207.50 340.724  12
   7   6   4 2720.14 221.572  11
   7  -6  -4 2901.15 258.965   9
  -7   6  -4 3143.37 251.943   5
  -7   6  -4 2881.80 190.997  12
  -7  -6   4 2807.47 182.745   4
  -7   6  -5 5381.27 335.258   5
  -7  -6   5 4660.57 240.552   4
  -7   6  -6 3359.00 278.261   5
   7  -6  -6 3399.05 309.185   8
  -7   6  -7 5463.99 366.388   5
   7  -6  -7 4891.84 398.656   8
  -7   6  -8 3842.05 320.615   5
   7  -6  -8 3563.96 362.482   8
  -7   6  -9 3308.35 319.696   5
   7  -6  -9 3513.20 341.744   8
  -7   6 -10 1477.36 225.779   5
   7  -6 -10 2100.65 281.287   8
  -7   6 -11 1520.70 235.674   5
   7  -6 -11 1413.34 231.197   8
  -7   6 -12 1116.10 208.752   5
   7  -6 -12 1313.31 248.797   8
   7  -6 -13 1655.60 267.558   8
   7  -6 -14 1101.19 226.997   8
   7  -7  14 552.699 168.309   4
   7  -7  13 194.900 99.8094   4
   7  -7  12 511.239 162.943   4
   7  -7  11 2026.10 289.301   4
  -7   7  11 1474.21 214.401  12
   7  -7  10 2494.49 316.010   4
  -7   7  10 2359.80 269.616  12
   7  -7   9 7812.77 510.369   4
  -7   7   9 6905.92 459.720  12
   7  -7   8 1618.67 230.319   4
  -7   7   8 1629.57 226.807  12
   7  -7   7 6534.05 426.969   4
  -7   7   7 6365.37 422.089  12
   7  -7   6 6257.16 394.851   4
  -7   7   6 5603.02 404.103  12
   7  -7   5 10459.2 479.032   4
  -7   7   5 10867.6 532.801  12
   7  -7   4 5454.76 329.850   4
  -7   7   4 5784.46 383.081  12
   7  -7   3 33242.9 781.092   4
  -7  -7  -3 34612.4 795.093  11
   7  -7   3 31443.9 714.218  10
  -7   7   3 34851.2 893.833  12
   7   7  -3 31578.9 689.242   7
  -7  -7  -2 1048.48 133.297  11
   7  -7   2 1007.30 122.964  10
   7  -7   2 963.153 133.437   4
   7   7  -2 1220.33 136.605   7
  -7   7   2 1374.32 186.254  12
   7  -7   1 22262.2 531.378  10
  -7   7   1 22709.3 526.974  10
  -7   7   1 23963.6 697.875  12
   7   7  -1 24751.1 618.748   7
   7  -7   1 24051.7 628.127   4
   7  -7   0 1030.59 108.268  10
  -7   7   0 1005.08 120.946  10
   7  -7   0 943.371 128.489   4
  -7   7   0 1071.11 153.877  12
   7   7   1 25064.1 529.679  11
  -7   7  -1 23109.4 620.347  10
   7  -7  -1 24753.4 727.614   9
  -7  -7   1 24408.4 598.169   4
   7  -7  -1 23721.6 610.306   4
  -7   7  -1 24479.6 667.744  12
  -7   7  -2 1295.87 155.854  12
   7   7   2 1135.12 129.860  11
  -7   7  -2 1138.43 150.354  10
   7  -7  -2 953.990 154.768   9
  -7  -7   2 1108.46 131.354   4
   7  -7  -2 1173.93 138.995   4
   7   7   3 34203.9 751.642  11
  -7   7  -3 31059.6 816.926  10
   7  -7  -3 35347.8 883.985   9
   7  -7  -3 33474.3 722.061   4
  -7  -7   3 33885.8 688.636   4
  -7   7  -3 36382.0 759.814  12
   7  -7  -4 5877.07 365.736   9
  -7   7  -4 5570.46 338.097   5
  -7  -7   4 5401.11 278.634   4
  -7   7  -5 10789.0 485.017   5
  -7  -7   5 10152.8 387.032   4
  -7   7  -6 6026.03 381.819   5
   7  -7  -6 5773.65 420.850   8
  -7   7  -7 6515.24 406.940   5
   7  -7  -7 84890.4 1566.06   8
  -7   7  -8 1739.72 223.664   5
   7  -7  -8 1420.62 253.712   8
  -7   7  -9 7227.89 464.789   5
   7  -7  -9 7444.25 510.394   8
  -7   7 -10 2236.38 273.386   5
   7  -7 -10 2256.23 305.883   8
  -7   7 -11 1707.82 246.905   5
   7  -7 -11 1622.96 257.333   8
  -7   7 -12 492.541 148.063   5
   7  -7 -12 233.521 115.041   8
   7  -7 -13 566.336 169.792   8
   7  -7 -14 144.897 108.490   8
   7  -8  13 340.153 158.892   4
   7  -8  12 2530.69 334.659   4
   7  -8  11 2022.45 304.562   4
  -7   8  11 1924.01 246.231  12
   7  -8  10 6146.03 482.984   4
  -7   8  10 5895.43 436.416  12
   7  -8   9 1116.12 212.659   4
  -7   8   9 966.287 187.018  12
   7  -8   8 5145.84 403.615   4
  -7   8   8 4566.36 380.446  12
   7  -8   7 992.770 184.437   4
  -7   8   7 951.170 179.833  12
   7  -8   6 3345.15 298.467   4
  -7   8   6 3296.63 329.972  12
  -7   8   5 589.477 169.019  12
   7  -8   5 690.476 147.000   4
   7  -8   4 7657.49 416.594   4
  -7   8   4 7239.79 438.736  12
   7  -8   3 5511.23 338.622   4
   7   8  -3 4695.76 265.390   7
  -7   8   3 5746.30 380.297  12
   7  -8   2 4376.77 263.623  10
   7  -8   2 5340.61 329.460   4
   7   8  -2 4321.85 255.941   7
  -7   8   2 5007.00 349.525  12
   7  -8   1 13068.0 438.117  10
  -7   8   1 15352.0 581.206  12
   7  -8   1 15163.4 540.469   4
   7   8  -1 14192.7 466.099   7
   7  -8   0 1432.67 164.691   4
  -7   8   0 1728.11 198.863  12
  -7   8  -1 12280.5 477.343  10
   7  -8  -1 14585.5 579.067   9
  -7  -8   1 14238.5 499.398   4
   7  -8  -1 14954.5 522.291   4
  -7   8  -1 15766.9 561.717  12
   7  -8  -2 4760.94 336.487   9
  -7  -8   2 4826.82 287.704   4
   7  -8  -2 4777.57 299.887   4
  -7   8  -2 5843.73 336.562  12
   7  -8  -3 5401.71 361.780   9
   7  -8  -3 5384.61 315.384   4
  -7  -8   3 5056.28 294.412   4
  -7   8  -4 7745.94 409.558   5
  -7  -8   4 7563.42 357.022   4
  -7  -8   5 521.058 97.8166   4
  -7   8  -5 532.587 131.668   5
  -7   8  -6 3480.67 297.394   5
   7  -8  -6 3203.10 332.088   8
  -7   8  -7 1075.85 175.480   5
   7  -8  -7 818.645 212.935   8
  -7   8  -8 5773.06 411.652   5
   7  -8  -8 5685.78 440.848   8
  -7   8  -9 1200.94 193.968   5
   7  -8  -9 892.450 205.067   8
  -7   8 -10 7082.11 483.476   5
   7  -8 -10 6352.40 498.033   8
  -7   8 -11 2235.57 290.883   5
   7  -8 -11 1854.13 287.705   8
  -7   8 -12 2325.63 292.882   5
   7  -8 -12 2413.53 322.560   8
   7  -8 -13-110.798 117.201   8
   7  -9  13 712.647 179.545   4
   7  -9  12 447.808 166.078   4
  -7   9  11 1095.22 195.273  12
   7  -9  11 1589.76 264.028   4
  -7   9  10 109.121 100.431  12
   7  -9  10 275.109 132.403   4
   7  -9   9 2710.53 315.327   4
  -7   9   9 2403.21 288.365  12
   7  -9   8 2999.12 319.475   4
  -7   9   8 3479.69 343.256  12
   7  -9   7 4716.13 382.585   4
  -7   9   7 5464.00 418.552  12
   7  -9   6 1818.31 235.941   4
  -7   9   6 1542.08 245.325  12
   7  -9   5 8926.34 493.407   4
  -7   9   5 9471.69 537.151  12
  -7   9   4 3978.49 340.319  12
   7  -9   4 3658.56 307.580   4
   7  -9   3 4291.88 321.500   4
  -7   9   3 4406.85 348.095  12
  -7   9   2 3999.84 324.198  12
   7   9  -2 3080.87 214.117   7
   7  -9   2 3878.73 300.915   4
   7   9  -1 684.534 109.901   7
   7  -9   1 780.416 140.341   4
  -7   9   1 783.621 156.758  12
   7  -9   0 690.787 140.250   9
   7  -9   0 488.875 111.837   4
  -7   9   0 514.386 117.666  12
  -7  -9   1 685.041 126.900   4
   7  -9  -1 733.116 134.332   4
   7  -9  -1 835.200 169.322   9
  -7   9  -1 580.219 126.468  12
   7  -9  -2 4190.27 331.125   9
  -7  -9   2 3886.83 278.644   4
   7  -9  -2 3770.66 288.242   4
   7  -9  -3 4127.06 331.555   9
  -7   9  -3 4251.18 303.910   5
   7  -9  -3 3979.58 293.541   4
  -7  -9   3 3976.34 279.815   4
  -7   9  -4 3728.43 292.036   5
  -7  -9   4 3422.73 260.151   4
  -7   9  -5 9438.29 472.825   5
  -7  -9   5 9038.54 426.795   4
  -7   9  -6 2227.22 239.385   5
   7  -9  -6 1553.76 224.455   8
  -7   9  -7 5401.85 388.396   5
   7  -9  -7 5156.94 414.875   8
  -7   9  -8 3640.59 330.901   5
   7  -9  -8 3360.56 347.680   8
  -7   9  -9 3030.90 309.598   5
   7  -9  -9 2574.65 317.756   8
  -7   9 -10 161.233 79.1822   5
   7  -9 -10 238.794 122.526   8
  -7   9 -11 1627.17 249.171   5
   7  -9 -11 1548.25 255.473   8
   7  -9 -12 105.832 86.2579   8
   7  -9 -13 590.612 177.112   8
   7 -10  12 322.515 125.935   4
   7 -10  11 546.022 163.067   4
   7 -10  10 1203.40 226.670   4
  -7  10  10 1204.84 210.451  12
   7 -10   9 1730.65 269.453   4
  -7  10   9 1688.03 251.347  12
   7 -10   8 1454.88 238.192   4
  -7  10   8 1987.66 269.497  12
   7 -10   7 2161.48 281.043   4
  -7  10   7 2180.66 286.175  12
   7 -10   6 1315.24 216.474   4
  -7  10   6 1286.65 231.342  12
  -7  10   5 6119.99 446.532  12
   7 -10   5 5830.22 416.478   4
   7 -10   4 10774.8 548.797   4
  -7  10   4 11664.5 591.389  12
   7 -10   3 155.395 100.355   4
  -7  10   3 93.4872 116.973  12
   7 -10   2 16898.7 659.011   4
  -7  10   2 17034.2 681.664  12
   7 -10   1 846.850 169.951   9
   7 -10   1 932.357 158.926   4
  -7  10   1 1083.02 196.138  12
   7 -10   0 10444.8 525.393   9
   7 -10   0 10272.3 503.641   4
  -7  10   0 10432.2 516.953  12
   7 -10  -1 896.557 163.686   4
   7 -10  -1 947.024 160.625   9
  -7 -10   1 1023.63 161.862   4
   7 -10  -2 17997.2 694.279   9
  -7  10  -2 16099.5 575.620   5
  -7 -10   2 16027.3 606.720   4
   7 -10  -2 16039.8 624.870   4
  -7 -10   3 42.2403 51.5101   4
   7 -10  -3 88.9393 83.0715   9
  -7  10  -3 32.4312 57.3984   5
   7 -10  -3-27.3710 55.3121   4
  -7  10  -4 11446.5 508.598   5
  -7 -10   4 10929.9 495.529   4
  -7  10  -5 6545.82 397.964   5
  -7 -10   5 5662.52 360.810   4
  -7  10  -6 1351.60 196.496   5
   7 -10  -6 1494.12 242.982   8
  -7  10  -7 2353.93 257.623   5
   7 -10  -7 2103.89 282.281   8
  -7  10  -8 1873.36 238.362   5
   7 -10  -8 1908.84 272.427   8
  -7  10  -9 1248.49 202.002   5
   7 -10  -9 1186.29 225.143   8
  -7  10 -10 1075.53 194.270   5
   7 -10 -10 1122.85 214.341   8
  -7  10 -11 228.747 95.5704   5
   7 -10 -11 414.552 141.159   8
   7 -10 -12 135.825 122.872   8
   7 -11  11 1737.77 281.752   4
   7 -11  10 1067.42 224.940   4
   7 -11   9 2510.32 323.215   4
  -7  11   8 40.6694 82.1163  12
   7 -11   8 239.761 124.919   4
  -7  11   7 2865.67 323.968  12
   7 -11   7 3219.06 343.767   4
  -7  11   6 733.411 180.244  12
   7 -11   6 751.220 176.274   4
   7 -11   5 706.521 161.007   4
  -7  11   5 682.912 166.089  12
   7 -11   4 388.700 126.477   4
  -7  11   4 275.084 125.195  12
   7 -11   3 435.551 125.483   4
  -7  11   3 600.390 172.572  12
   7 -11   2 1616.15 221.738   4
  -7  11   2 1120.21 206.127  12
   7 -11   1 815.822 165.544   9
   7 -11   1 646.710 148.516   4
   7 -11   0 7017.13 450.316   9
   7 -11   0 7143.79 442.281   4
   7 -11  -1 1025.55 175.812   4
   7 -11  -1 681.264 140.137   9
  -7 -11   1 908.128 169.538   4
  -7 -11   2 1131.25 178.616   4
   7 -11  -2 1350.09 204.985   4
   7 -11  -2 1324.51 200.170   9
  -7 -11   3 459.582 122.509   4
  -7 -11   4 194.563 82.9408   4
  -7 -11   5 575.636 127.560   4
   7 -11  -6 492.833 142.605   8
   7 -11  -7 2983.09 332.623   8
   7 -11  -8 116.822 98.8006   8
   7 -11  -9 2574.26 318.694   8
   7 -11 -10 1054.88 209.163   8
   7 -11 -11 1494.94 249.793   8
   7 -12  10 410.938 141.091   4
   7 -12   9 512.632 164.638   4
   7 -12   8 427.772 157.366   4
   7 -12   7 2125.28 288.023   4
   7 -12   6 860.155 194.873   4
   7 -12   5 1820.02 260.804   4
   7 -12   4 3513.75 350.032   4
   7 -12   3 4568.68 394.209   4
   7 -12   2 1560.15 222.409   9
   7 -12   2 1865.24 257.228   4
   7 -12   1 243.560 103.051   9
   7 -12   1 348.553 115.845   4
   7 -12   0 3645.58 331.399   9
   7 -12   0 3416.24 328.744   4
   7 -12  -1 397.205 124.643   4
   7 -12  -1 131.473 69.5872   9
  -7 -12   2 1722.28 228.063   4
   7 -12  -2 2030.90 255.744   9
   7 -12  -2 1771.25 240.677   4
  -7 -12   3 4905.76 375.460   4
  -7 -12   4 2815.40 285.195   4
   7 -12  -5 1613.59 238.417   8
   7 -12  -6 929.293 183.279   8
   7 -12  -7 1590.14 248.093   8
   7 -12  -8 527.182 151.513   8
   7 -12  -9 864.644 188.410   8
   7 -12 -10 319.962 127.881   8
   7 -12 -11 33.8946 59.6217   8
   7 -13   9 1819.76 286.817   4
   7 -13   8 220.257 138.415   4
   7 -13   7 92.4067 121.184   4
   7 -13   6 373.432 142.117   4
   7 -13   5 589.660 171.590   4
   7 -13   4 209.472 112.229   4
   7 -13   3 941.847 183.949   9
   7 -13   3 928.295 192.986   4
   7 -13   2 316.603 108.513   9
   7 -13   2 245.296 104.018   4
   7 -13   1 1562.42 238.039   4
   7 -13   1 1619.78 223.447   9
   7 -13   0 1465.20 233.986   4
   7 -13   0 960.667 179.871   9
   7 -13  -1 1575.10 242.145   4
   7 -13  -1 1351.84 211.119   9
   7 -13  -2 175.723 95.5118   4
  -7 -13   2 111.816 79.9339   4
  -7 -13   3 992.663 181.473   4
  -7 -13   4 193.206 107.191   4
   7 -13  -5 703.435 162.077   8
   7 -13  -6 320.900 110.286   8
   7 -13  -7 160.285 97.8033   8
   7 -13  -8 31.2382 74.9318   8
   7 -13  -9 1525.60 235.710   8
   7 -14   8 402.071 128.507   4
   7 -14   7 498.329 159.432   4
   7 -14   6 769.111 192.730   4
   7 -14   5 1630.65 241.667   9
   7 -14   5 1803.26 272.026   4
   7 -14   4 772.025 169.937   9
   7 -14   4 780.093 187.815   4
   7 -14   3 249.287 92.2613   9
   7 -14   3 225.737 103.393   4
   7 -14   2 1241.85 202.573   9
   7 -14   2 1342.25 235.652   4
   7 -14   1 1926.53 246.531   9
   7 -14   1 2383.81 301.950   4
   7 -14   0 322.994 133.084   4
   7 -14   0 44.5684 65.4919   9
   7 -14  -1 2018.64 275.207   4
   7 -14  -1 2050.43 251.537   9
  -7 -14   3 315.900 114.074   4
   7 -14  -4 556.141 141.640   8
   7 -14  -5 1937.87 259.369   8
   7 -14  -6 593.387 154.641   8
   7 -14  -7 391.671 127.568   8
   7 -15   6 1042.37 216.902   4
   7 -15   5 342.155 131.474   4
   7 -15   4 2222.06 304.276   4
   7 -15   3 556.342 160.781   4
   7 -15   2 1316.25 240.239   4
   7 -15   1 1006.10 213.043   4
   7 -15   0 137.776 99.9303   4
   7 -15  -1 777.416 173.703   4
   7 -16   4 454.954 152.926   4
   7 -16   3 123.775 95.8649   4
   7 -16   2 608.552 169.303   4
   7 -16   1 192.443 99.9640   4
   7 -16   0 137.343 98.1658   4
  -8   0   0 146050. 1391.00  11
   8   0   0 138681. 1169.68  10
   8   0   0 142719. 1065.85   3
   8   0   0 137395. 1373.48   1
   8   0  -1 175.446 68.8488   7
   8   0   1 310.780 46.5834   3
   8   0   1 218.671 64.0655  11
  -8   0   1 252.829 63.2606  11
  -8   0  -1 328.680 74.2304  11
   8   0  -1 184.628 55.3710   1
   8   0   1 350.683 72.2837  10
   8   0  -1 292.419 52.0191  10
   8   0  -1 163.995 58.6458   9
   8   0   2 42010.7 782.469  11
  -8   0   2 41868.3 717.167  11
  -8   0  -2 43862.6 820.534  11
   8   0  -2 41769.9 386.170  10
   8   0  -2 43275.6 686.776   1
   8   0  -2 39164.7 433.253  10
   8   0   2 42262.9 778.961  10
   8   0  -2 42738.8 726.927   9
   8   0   2 40182.3 445.808   3
   8   0  -2 42574.9 795.573   7
   8   0  -3 852.497 125.281   7
   8   0   3 1067.92 133.315  11
  -8   0   3 838.416 103.180  11
  -8   0  -3 849.533 120.588  11
   8   0   3 923.352 126.917  10
   8   0   3 784.615 56.7421   3
  -8   0   4 39.6561 25.9906  11
   8   0   4 79.5273 50.8284  11
  -8   0  -4 40.1963 33.7048  11
   8   0   4-10.7557 35.8580  10
   8   0  -4-5.15236 52.6041   7
  -8   0   5 99.6569 39.3631  11
   8   0   5 187.647 66.0826  10
  -8   0  -5 146.456 73.7403   5
   8   0  -5 117.529 57.2847   8
  -8   0   6 395.216 75.0976  11
  -8   0  -6 509.667 116.927   5
   8   0  -6 492.730 109.428   8
  -8   0  -7 5944.13 360.474   5
   8   0  -7 6099.19 359.001   8
  -8   0  -8 4272.36 326.834   5
   8   0  -8 3865.06 303.948   8
   8   0  -9 5810.31 408.498   6
  -8   0  -9 5730.43 393.028   5
   8   0  -9 5925.56 394.097   8
   8   0 -10 3393.60 334.170   6
  -8   0 -10 3754.80 330.400   5
   8   0 -10 3496.97 325.182   8
   8   0 -11-107.181 126.439   6
  -8   0 -11 183.877 112.188   5
   8   0 -11 204.998 103.648   8
   8   0 -12 2003.42 290.242   6
  -8   0 -12 2141.58 276.267   5
   8   0 -12 2032.26 278.911   8
   8   0 -13 233.608 121.500   6
   8   0 -13 307.251 129.410   8
   8   0 -14-109.405 119.297   6
   8   0 -15 99.0460 71.7387   6
   8   1 -15 332.673 144.145   6
   8  -1  15 565.387 208.225   4
   8   1 -14 595.404 185.938   6
   8   1 -13 2387.12 320.856   6
   8   1 -13 2050.24 276.729   8
   8   1 -12 90.8809 82.7581   6
  -8  -1 -12 396.784 119.111   5
   8   1 -12 499.789 160.094   8
   8   1 -11 7181.13 511.471   6
  -8  -1 -11 7615.36 483.810   5
   8   1 -11 6915.11 470.131   8
  -8  -1 -10 5065.73 376.357   5
   8   1 -10 4522.58 357.432   8
  -8  -1  -9 1661.12 213.172   5
   8   1  -9 1736.35 213.506   8
  -8  -1  -8 9787.25 477.987   5
   8   1  -8 9334.21 451.506   8
  -8   1   7 3621.77 266.900  11
  -8  -1  -7 4151.21 295.350   5
   8   1  -7 4552.00 300.456   8
  -8  -1  -6 8396.82 398.377   5
   8   1  -6 8950.18 394.428   8
  -8   1   5 2391.98 184.998  11
  -8   1   5 2667.99 223.561   3
   8  -1   5 2731.84 231.307  10
  -8  -1  -5 2759.49 223.694   5
   8   1  -5 2597.21 205.934   8
  -8   1   4 21178.0 538.211  11
   8  -1   4 23547.2 639.373  11
  -8   1   4 22587.5 602.323   3
  -8  -1  -4 23369.3 655.930  11
   8  -1   4 23802.1 642.508  10
  -8  -1  -4 23255.7 611.679   5
   8   1  -4 23249.1 563.939   8
   8   1  -4 23214.1 632.734   7
  -8   1   3 11829.3 398.873  11
   8  -1   3 12676.4 451.038  11
  -8  -1  -3 12850.1 461.056  11
  -8   1   3 12116.8 407.852   3
   8   1  -3 11317.6 225.452  10
   8  -1   3 12853.8 439.028  10
   8   1  -3 12769.2 434.696   3
   8   1  -3 12716.0 454.117   7
   8  -1   2 26560.4 631.253  11
  -8   1   2 25871.2 593.792  11
  -8  -1  -2 26508.8 624.900  11
   8   1  -2 26034.9 388.786  10
   8  -1   2 26952.8 583.691  10
   8   1  -2 26468.5 535.706   9
   8   1  -2 26025.9 576.302   3
   8   1  -2 26857.5 513.523   1
   8   1  -2 27174.1 642.356   7
  -8   1   1 2435.71 186.950  11
  -8  -1  -1 2222.13 175.693  11
   8   1  -1 2360.96 167.656   1
   8  -1   1 2367.46 121.891   4
   8  -1   1 2387.08 158.541  10
   8   1  -1 2146.54 183.474   7
   8   1  -1 2418.17 161.579   9
   8   1  -1 2440.85 168.945   3
   8  -1   1 2390.75 197.898   1
  -8   1   0 13611.1 440.607  11
  -8  -1   0 13043.6 406.198  11
   8  -1   0 13480.4 323.290  10
   8  -1   0 12433.6 432.449   1
   8   1   0 13184.6 355.156   3
   8  -1  -1 2416.53 183.580   7
   8   1   1 2582.59 185.095  11
   8  -1  -1 2378.42 120.311   6
  -8   1  -1 2438.45 194.341  11
  -8  -1   1 2475.82 169.143  11
   8  -1  -1 2555.35 112.865  10
   8  -1  -1 2516.95 187.091   9
   8  -1  -1 2451.02 184.353   1
   8   1   1 2677.29 150.705   3
   8   1   2 26015.0 610.393  11
  -8  -1   2 25879.1 530.085  11
  -8   1  -2 27459.7 665.243  11
   8  -1  -2 25906.0 474.231   6
   8   1   2 25704.6 644.622  10
   8  -1  -2 25599.9 600.511   9
   8  -1  -2 25849.3 615.332   7
   8   1   3 13293.7 459.211  11
  -8  -1   3 12310.3 364.206  11
  -8   1  -3 13066.0 475.636  11
   8  -1  -3 12519.7 373.757   6
   8   1   3 12785.2 485.584  10
   8  -1  -3 13083.2 438.022   9
   8  -1  -3 13280.2 453.706   7
  -8  -1   4 21188.2 473.363  11
   8   1   4 23821.3 642.852  11
  -8   1  -4 23544.4 668.676  11
   8  -1  -4 22419.3 552.510   6
   8   1   4 23322.8 691.787  10
  -8  -1   5 2346.26 158.946  11
   8  -1  -5 2440.10 200.761   6
   8   1   5 2910.30 256.412  10
  -8   1  -5 2787.87 237.513   5
   8  -1  -5 2314.56 219.590   8
  -8  -1   6 6781.08 275.032  11
   8  -1  -6 8841.63 409.560   6
  -8   1  -6 8330.92 416.195   5
   8  -1  -6 8611.75 414.355   8
   8  -1  -7 3945.26 293.548   6
  -8   1  -7 3985.23 304.557   5
   8  -1  -7 3469.57 282.720   8
   8  -1  -8 9121.31 477.814   6
  -8   1  -8 9465.81 488.093   5
   8  -1  -8 9900.81 492.672   8
   8  -1  -9 1574.48 221.635   6
  -8   1  -9 1610.73 218.315   5
   8  -1  -9 1549.66 214.792   8
   8  -1 -10 4320.28 375.842   6
  -8   1 -10 4930.21 381.139   5
   8  -1 -10 4296.60 357.962   8
   8  -1 -11 7779.76 528.359   6
  -8   1 -11 7434.04 492.665   5
   8  -1 -11 7115.09 481.724   8
   8  -1 -12 83.1650 82.8754   6
  -8   1 -12 321.080 133.080   5
   8  -1 -12 223.241 78.7059   8
   8  -1 -13 1990.38 293.512   6
  -8   1 -13 2322.50 297.934   5
   8  -1 -13 2148.02 296.600   8
   8  -1 -14 428.267 150.126   6
   8  -1 -14 516.491 152.345   8
   8  -1 -15 231.514 125.259   6
   8   2 -15 474.133 160.633   6
   8  -2  15 401.887 168.556   4
   8   2 -14 437.693 158.429   6
   8  -2  14 300.588 144.928   4
   8   2 -13 239.788 121.232   6
   8  -2  13 5.92006 91.6493   4
   8   2 -12 3749.09 351.409   8
  -8  -2 -11 1134.98 190.290   5
   8   2 -11 1060.20 186.820   8
  -8  -2 -10 6538.25 419.525   5
   8   2 -10 6531.15 422.326   8
  -8  -2  -9 450.036 117.319   5
   8   2  -9 346.790 98.2676   8
  -8  -2  -8 11246.7 497.730   5
   8   2  -8 10525.9 469.508   8
  -8  -2  -7 4714.23 310.805   5
   8   2  -7 4441.88 288.604   8
  -8  -2  -6 12054.6 466.179   5
   8   2  -6 12728.6 453.771   8
   8  -2   5 31497.8 771.946  10
  -8  -2  -5 30800.2 713.965   5
   8   2  -5 30802.0 656.407   8
  -8   2   5 30131.7 747.119   3
  -8   2   4 2611.91 200.690  11
   8  -2   4 2904.88 228.404  11
  -8  -2  -4 2949.69 235.884  11
   8   2  -4 2638.12 133.519  10
   8  -2   4 2954.87 226.268  10
  -8  -2  -4 2924.53 214.233   5
   8   2  -4 2997.45 242.349   3
   8   2  -4 3133.36 197.774   8
   8   2  -4 3254.96 247.114   7
  -8   2   4 3132.37 224.692   3
   8  -2   3 27766.7 676.196  11
  -8   2   3 25912.2 620.611  11
  -8  -2  -3 27766.1 676.715  11
   8   2  -3 25255.3 422.706  10
   8  -2   3 25917.7 568.532   4
   8  -2   3 25903.5 607.747  10
   8   2  -3 26424.5 651.126   3
   8   2  -3 26107.0 530.921   8
   8   2  -3 26880.6 661.437   7
  -8   2   3 25364.8 583.854   3
   8  -2   2 8437.30 365.234  11
  -8   2   2 7811.23 341.217  11
  -8   2   2 8037.40 297.328   3
  -8  -2  -2 7980.55 344.811  11
   8   2  -2 8344.16 271.378   1
   8  -2   2 7849.90 275.198   4
   8  -2   2 7986.38 307.885  10
   8  -2   2 8169.09 388.492   1
   8   2  -2 8574.72 347.780   3
   8   2  -2 7967.65 353.985   7
   8   2  -1 12961.2 445.302   7
  -8   2   1 13117.4 443.809  11
  -8  -2  -1 12955.1 414.707  11
   8  -2   1 12413.8 291.809   4
   8  -2   1 13124.3 348.006  10
   8   2  -1 13014.4 336.339   9
   8  -2   1 12318.0 462.782   1
   8   2  -1 12764.3 400.325   3
   8   2   0 26875.3 550.087  11
  -8   2   0 29937.9 682.714  11
  -8  -2   0 28933.0 577.360  11
   8  -2   0 28426.1 435.345  10
   8  -2   0 26869.0 601.628   7
   8   2   0 28333.0 501.104   9
   8   2   0 28809.1 573.866   3
   8  -2   0 28425.4 673.194   1
   8  -2   0 25137.5 343.105   4
   8   2   1 12735.5 398.949  11
  -8   2  -1 12998.9 457.620  11
  -8  -2   1 12617.0 364.739  11
   8  -2  -1 12776.5 438.164   1
   8  -2  -1 12680.0 216.508  10
   8  -2  -1 12569.7 437.610   9
   8  -2  -1 12604.2 414.181   7
   8  -2  -2 8148.78 271.936   6
   8   2   2 8148.64 340.389  11
  -8   2  -2 8338.95 376.210  11
  -8  -2   2 7665.88 273.311  11
   8  -2  -2 7895.73 354.626   9
   8  -2  -2 8064.82 344.278   7
   8   2   3 26985.9 653.139  11
  -8  -2   3 25623.0 483.037  11
   8  -2  -3 26740.5 557.417   6
  -8   2  -3 28455.5 721.319  11
   8  -2  -3 26734.5 651.371   9
   8  -2  -3 26649.0 644.015   7
  -8  -2   4 2668.57 153.906  11
   8   2   4 3266.55 239.623  11
   8  -2  -4 2825.87 203.550   6
  -8   2  -4 3194.58 249.731  11
   8   2   4 3059.18 268.298  10
   8  -2  -5 30412.6 713.082   6
  -8   2  -5 33020.4 811.477   5
   8  -2  -6 12938.9 501.832   6
  -8   2  -6 12821.9 530.399   5
   8  -2  -6 12299.8 515.324   8
   8  -2  -7 4540.22 321.401   6
  -8   2  -7 4781.30 345.927   5
   8  -2  -7 4459.59 329.282   8
   8  -2  -8 10814.2 530.363   6
  -8   2  -8 11044.6 533.450   5
   8  -2  -8 11359.5 543.086   8
   8  -2  -9 317.362 112.976   6
  -8   2  -9 548.396 145.567   5
   8  -2  -9 378.103 125.853   8
   8  -2 -10 7060.17 479.344   6
  -8   2 -10 6727.46 454.268   5
   8  -2 -10 6833.82 463.277   8
   8  -2 -11 945.102 200.588   6
  -8   2 -11 1330.17 219.116   5
   8  -2 -11 1477.02 240.657   8
   8  -2 -12 4127.54 408.525   6
  -8   2 -12 3952.10 383.693   5
   8  -2 -12 3894.33 381.262   8
   8  -2 -13 143.765 109.533   6
  -8   2 -13 350.048 150.197   5
   8  -2 -13 46.1561 78.1593   8
   8  -2 -14 284.446 122.525   6
   8  -2 -14 460.054 156.720   8
   8  -2 -15 294.196 131.438   6
   8   3 -15 249.436 128.991   6
   8  -3  15 431.365 166.445   4
   8   3 -14 350.191 136.634   6
   8  -3  14 347.495 150.992   4
   8  -3  13 1613.73 295.819   4
  -8   3  12 438.919 122.264  12
   8  -3  12 663.084 186.095   4
  -8  -3 -11 2097.43 249.758   5
   8  -3  11 1847.38 282.060   4
   8  -3  10 248.930 115.520   4
  -8  -3 -10 288.968 93.6326   5
   8   3 -10 234.334 91.8874   8
  -8  -3  -9 387.377 110.554   5
   8   3  -9 356.252 98.2016   8
  -8  -3  -8 8445.47 424.995   5
   8   3  -8 7912.09 395.162   8
   8  -3   7 418.521 120.702   4
  -8  -3  -7 397.905 101.586   5
   8   3  -7 427.558 97.3187   8
  -8   3   6 1393.07 157.723   1
   8  -3   6 1589.03 192.511   4
  -8  -3  -6 1120.44 140.916   5
   8   3  -6 1526.04 152.454   8
  -8   3   5 122.562 48.1825   1
  -8   3   5 227.223 68.5904   3
   8  -3   5 147.641 67.1438   4
   8  -3   5 255.954 81.4871  10
  -8  -3  -5 274.273 79.3942   5
   8   3  -5 207.953 54.7558   8
  -8  -3  -4 5703.78 328.139  11
   8  -3   4 5747.97 302.973   4
   8   3  -4 5016.14 215.713  10
   8  -3   4 5806.35 306.936  10
  -8  -3  -4 5494.15 283.223   5
   8   3  -4 5879.84 337.439   3
   8   3  -4 5502.30 242.756   8
  -8   3   4 5506.81 298.693   3
   8   3  -4 5857.38 321.524   7
   8  -3   3 2448.31 207.376  11
  -8   3   3 2194.90 190.373  11
   8  -3   3 2279.15 219.365   1
  -8  -3  -3 2424.81 202.978  11
   8  -3   3 2311.72 173.232   4
   8   3  -3 2516.52 153.709  10
   8  -3   3 2423.97 186.193  10
   8   3  -3 2050.87 91.2405   2
   8   3  -3 2486.53 151.586   8
   8   3  -3 2622.89 214.360   3
  -8   3   3 2295.36 177.629   3
   8   3  -3 2622.28 212.991   7
  -8   3   2 6242.62 318.140  11
   8   3  -2 6262.69 224.152   1
  -8  -3  -2 6128.64 305.579  11
   8  -3   2 6200.60 251.583   4
   8   3  -2 5828.40 241.917  10
   8  -3   2 6181.74 267.687  10
   8  -3   2 5951.38 342.153   1
   8   3  -2 5704.49 213.259   8
   8   3  -2 6121.91 311.508   3
  -8   3   2 6076.75 257.020   3
   8   3  -2 6351.25 320.999   7
  -8   3   1 25949.1 651.884  11
  -8   3   1 26688.0 466.413   3
   8  -3   1 25155.2 449.908   4
  -8  -3  -1 25788.9 582.686  11
   8   3  -1 25635.8 530.574  10
   8  -3   1 26329.1 484.508  10
   8  -3   1 27184.3 706.440   1
   8   3  -1 26144.3 619.661   3
   8  -3   0 11132.8 273.142   4
   8   3   0 11502.3 350.480  11
  -8   3   0 12252.1 453.004  11
  -8  -3   0 11553.8 361.652  11
   8   3   0 11994.7 403.936   3
   8  -3   0 11885.5 279.044  10
   8  -3   0 11841.0 451.414   1
   8   3   0 10826.4 273.460   9
   8  -3   0 11470.5 385.692   7
   8   3   1 25720.0 564.589  11
  -8   3  -1 27763.7 691.486  11
  -8  -3   1 25671.5 502.522  11
   8  -3  -1 25616.2 308.727  10
   8  -3  -1 25758.0 660.756   9
   8  -3  -1 25291.3 581.121   7
   8   3   2 6143.73 294.753  11
  -8   3  -2 6178.77 335.288  11
  -8  -3   2 5869.78 223.885  11
   8  -3  -2 5992.91 323.592   9
   8  -3  -2 6014.29 299.295   7
   8   3   3 2726.85 211.035  11
  -8   3  -3 2690.47 228.372  11
  -8  -3   3 2419.47 133.825  11
   8  -3  -3 2925.17 233.620   9
   8  -3  -4 5519.69 290.272   6
   8   3   4 5826.92 321.975  11
  -8  -3   4 4460.66 172.236  11
  -8   3  -4 5819.55 244.288  12
   8  -3  -5 122.957 61.6000   6
  -8   3  -5 225.957 95.4835   5
   8  -3  -6 1556.99 185.125   6
  -8   3  -6 1699.64 207.065   5
   8  -3  -6 1387.08 189.680   8
   8  -3  -7 394.195 115.282   6
  -8   3  -7 289.711 113.627   5
   8  -3  -7 326.445 118.225   8
   8  -3  -8 8636.22 482.335   6
  -8   3  -8 9135.95 492.206   5
   8  -3  -8 8210.84 477.241   8
   8  -3  -9 376.081 125.856   6
  -8   3  -9 194.611 98.9414   5
   8  -3  -9 355.622 134.240   8
   8  -3 -10 185.032 92.4019   6
  -8   3 -10 411.728 135.509   5
   8  -3 -10 425.525 140.115   8
   8  -3 -11 1710.24 261.789   6
  -8   3 -11 1631.53 243.867   5
   8  -3 -11 1729.21 257.030   8
   8  -3 -12 233.576 134.554   6
  -8   3 -12 570.916 168.846   5
   8  -3 -12 279.852 123.573   8
   8  -3 -13 1472.60 260.112   6
  -8   3 -13 1505.86 248.367   5
   8  -3 -13 1573.36 259.079   8
   8  -3 -14 545.357 170.491   8
   8  -3 -15 494.476 149.419   8
   8   4 -15 863.788 220.639   6
   8   4 -14 1656.74 285.082   6
   8  -4  14 1157.22 247.500   4
   8  -4  13 1767.36 299.472   4
   8  -4  12 1952.16 301.835   4
  -8   4  12 2162.35 258.818  12
  -8   4  11 519.913 136.827  12
   8  -4  11 308.720 136.087   4
  -8  -4 -10 6738.53 412.658   5
   8  -4  10 7113.91 506.598   4
  -8   4  10 6471.56 457.841  12
  -8  -4  -9 3254.50 274.424   5
   8  -4   9 3041.46 317.647   4
   8   4  -9 2719.19 245.762   8
  -8  -4  -8 2122.93 207.385   5
   8  -4   8 2198.10 255.721   4
   8   4  -8 2016.23 194.852   8
   8  -4   7 8982.57 478.380   4
  -8  -4  -7 9427.23 413.933   5
   8   4  -7 8742.88 377.192   8
   8  -4   6 1030.42 160.251   4
  -8  -4  -6 1216.79 144.543   5
   8   4  -6 1107.20 123.496   8
  -8   4   6 864.781 139.425   1
  -8   4   5 22950.6 676.572   1
   8  -4   5 22698.5 657.206   4
  -8  -4  -5 23014.9 578.597   5
   8   4  -5 22047.4 492.729   8
  -8   4   5 24907.1 710.090   3
  -8   4   4 6350.87 350.722   1
  -8  -4  -4 6122.05 350.760  11
   8  -4   4 6674.61 328.872   4
   8   4  -4 5608.49 256.167  10
   8  -4   4 6328.59 322.630  10
  -8  -4  -4 6289.80 289.265   5
   8   4  -4 5655.44 226.364   8
  -8   4   4 6402.04 332.338   3
   8   4  -4 6386.06 337.141   7
  -8   4   3 45124.9 906.989  11
  -8  -4  -3 48701.2 921.691  11
   8  -4   3 46614.7 796.664   4
   8   4  -3 46199.9 736.253  10
   8  -4   3 46747.5 808.213  10
  -8  -4  -3 46213.4 747.652   5
  -8   4   3 48366.6 824.789   3
   8   4  -3 48967.3 967.991   3
   8   4  -3 49442.1 914.293   7
  -8   4   2 4685.67 289.030  11
   8  -4   2 4884.26 237.048   4
  -8  -4  -2 5217.78 279.762  11
   8   4  -2 5113.05 247.668  10
   8  -4   2 5167.79 244.328  10
  -8   4   2 4928.66 235.540   3
   8   4  -2 5585.69 191.247   2
   8  -4   2 4775.75 315.992   1
   8   4  -2 4744.08 280.013   7
   8   4  -2 5321.37 310.314   3
   8  -4   1 4121.41 201.895   4
  -8   4   1 3797.55 260.022  11
   8   4  -1 4119.41 262.999   3
  -8  -4  -1 4189.41 235.083  11
   8   4  -1 3717.20 218.760  10
   8  -4   1 3984.40 193.518  10
   8  -4   1 4371.59 292.115   1
  -8   4   1 3682.61 174.457   3
   8  -4   1 4119.65 227.867   7
   8   4   0 3914.81 200.303  11
  -8   4   0 3758.76 260.763  11
  -8  -4   0 3961.74 209.882  11
   8  -4   0 4012.53 168.299  10
   8   4   0 4114.01 213.261   2
   8  -4   0 3769.92 219.001   7
   8  -4   0 3759.27 182.015   4
   8   4   1 4697.78 239.456  11
  -8   4  -1 4484.39 290.407  11
  -8  -4   1 4511.47 206.068  11
   8  -4  -1 4402.02 141.739  10
   8   4   1 4553.28 243.877   2
   8  -4  -1 4666.78 298.897   9
   8  -4  -1 4030.40 176.649   4
   8  -4  -1 4350.94 238.465   7
   8   4   2 5207.12 271.388  11
  -8   4  -2 5081.87 314.673  11
  -8  -4   2 4743.86 190.452  11
   8   4   2 5178.66 280.967   2
   8  -4  -2 5331.64 317.598   9
  -8   4  -2 4866.29 269.217  12
   8  -4  -2 5048.64 270.128   7
   8   4   3 49550.3 890.401  11
   8   4   3 47977.5 902.076   2
   8  -4  -3 48502.9 966.611   9
  -8   4  -3 48483.5 799.995  12
   8   4   4 6904.67 353.109  11
   8  -4  -4 6622.48 372.677   9
  -8   4  -4 6529.38 270.889  12
  -8   4  -5 25354.2 741.829   5
   8  -4  -6 847.455 143.254   6
  -8   4  -6 1204.26 180.036   5
   8  -4  -6 812.282 168.513   8
   8  -4  -7 9632.71 487.449   6
  -8   4  -7 10096.0 507.373   5
   8  -4  -7 9341.49 504.473   8
   8  -4  -8 2646.13 274.851   6
  -8   4  -8 2602.17 288.172   5
   8  -4  -8 2394.60 273.505   8
   8  -4  -9 2955.16 315.145   6
  -8   4  -9 2648.93 300.924   5
   8  -4  -9 3238.75 328.903   8
   8  -4 -10 7822.79 519.341   6
  -8   4 -10 8073.38 511.747   5
   8  -4 -10 7431.47 505.593   8
   8  -4 -11 214.100 118.305   6
  -8   4 -11 376.068 129.672   5
   8  -4 -11 628.445 167.581   8
  -8   4 -12 1881.99 271.376   5
   8  -4 -12 1924.80 283.646   8
  -8   4 -13 1680.25 263.331   5
   8  -4 -13 1587.31 255.619   8
   8  -4 -14 1896.73 293.873   8
   8  -5  14 99.0281 119.755   4
   8  -5  13 2213.06 324.776   4
   8  -5  12 2088.32 299.069   4
  -8   5  12 2228.60 271.983  12
   8  -5  11 2212.71 304.956   4
  -8   5  11 2031.46 256.172  12
   8  -5  10 2103.57 284.910   4
  -8   5  10 1958.07 256.621  12
   8  -5   9 486.663 148.020   4
  -8  -5  -9 452.440 107.628   5
  -8   5   9 592.264 139.100  12
   8  -5   8 4228.18 352.906   4
  -8  -5  -8 3751.66 267.536   5
  -8   5   8 3775.49 335.952  12
   8  -5   7 6096.71 398.341   4
  -8  -5  -7 5961.39 319.080   5
   8  -5   6 14913.8 580.846   4
  -8  -5  -6 13869.2 458.696   5
   8  -5   5 2899.50 239.874   4
  -8  -5  -5 2949.53 202.716   5
   8  -5   4 14520.5 497.542   4
   8   5  -4 12512.7 427.120  10
   8  -5   4 13824.5 482.334  10
  -8  -5  -4 14083.6 410.321   5
  -8   5   4 14804.2 521.163   3
   8   5  -4 14513.6 510.619   7
   8  -5   3 2177.96 183.034   4
  -8  -5  -3 1993.13 190.978  11
   8   5  -3 1984.89 169.210  10
   8  -5   3 2216.05 181.788  10
  -8  -5  -3 1858.77 144.663   5
  -8   5   3 2096.29 214.553   1
  -8   5   3 2134.04 182.234   3
   8   5  -3 2384.24 205.292   7
   8   5  -2 7297.64 384.579   3
   8  -5   2 7715.09 319.602   4
  -8  -5  -2 7786.90 345.728  11
   8   5  -2 7310.73 320.265  10
   8  -5   2 7586.74 304.517  10
  -8  -5  -2 6717.96 260.628   5
  -8   5   2 7824.89 307.748   3
   8   5  -2 7875.17 362.727   7
   8  -5   2 7338.41 294.135   7
  -8  -5  -1 8685.54 337.771  11
   8   5  -1 8589.13 356.604  10
   8  -5   1 8521.05 292.730  10
   8  -5   1 8552.22 319.423   4
   8  -5   1 7821.73 302.124   7
   8   5  -1 8432.53 376.605   7
   8   5   0 14646.0 379.595  11
  -8  -5   0 14427.3 399.755  11
   8   5   0 14355.9 477.495  10
   8  -5   0 14265.7 337.101  10
  -8   5   0 14292.5 423.192  10
   8   5   0 15353.9 424.946   2
  -8   5   0 14169.9 280.849   3
   8  -5   0 13598.9 405.499   7
   8  -5   0 14146.3 394.389   4
  -8   5   0 14326.4 511.970  12
   8   5   1 9276.97 334.609  11
  -8  -5   1 8603.07 272.314  11
   8  -5  -1 7945.72 217.020  10
  -8   5  -1 8471.63 365.285  10
   8  -5  -1 8460.77 415.534   9
   8   5   1 8711.03 348.355   2
   8  -5  -1 8338.89 292.240   4
   8  -5  -1 8057.68 322.224   7
  -8   5  -1 8271.27 377.419  12
   8   5   2 7850.52 335.323  11
  -8   5  -2 7978.22 380.779  10
   8  -5  -2 8201.30 411.959   9
   8   5   2 7913.93 355.624   2
   8  -5  -2 7176.88 264.134   4
  -8   5  -2 7678.11 351.137  12
   8   5   3 2234.18 193.183  11
  -8   5  -3 2054.27 210.625  10
   8  -5  -3 2260.72 228.086   9
   8   5   3 2171.84 198.392   2
  -8   5  -3 2199.20 180.528  12
  -8   5  -4 14473.9 590.878  10
   8  -5  -4 14604.2 571.050   9
  -8   5  -4 15215.7 430.976  12
  -8   5  -5 3345.45 284.094   5
  -8   5  -6 15043.0 603.719   5
   8  -5  -6 15133.8 643.914   8
  -8   5  -7 6354.00 412.359   5
   8  -5  -7 6172.03 427.109   8
  -8   5  -8 3752.65 340.737   5
   8  -5  -8 3798.35 345.201   8
  -8   5  -9 361.054 153.897   5
   8  -5  -9 553.967 165.758   8
  -8   5 -10 2181.36 275.674   5
   8  -5 -10 2095.16 277.149   8
  -8   5 -11 2415.51 299.792   5
   8  -5 -11 1955.46 278.589   8
  -8   5 -12 2498.62 312.162   5
   8  -5 -12 2260.16 311.455   8
  -8   5 -13 1783.25 271.104   5
   8  -5 -13 1915.26 293.675   8
   8  -5 -14-75.8124 114.828   8
   8  -6  14 175.593 118.326   4
   8  -6  13 454.294 170.759   4
   8  -6  12 1380.85 265.811   4
  -8   6  12 1281.53 208.159  12
  -8   6  11 513.707 136.178  12
   8  -6  11 326.843 125.727   4
   8  -6  10 182.205 127.014   4
  -8   6  10 17.2457 82.7230  12
   8  -6   9 2551.44 287.601   4
  -8   6   9 2696.25 296.667  12
  -8   6   8 798.582 160.033  12
   8  -6   8 567.159 154.775   4
  -8  -6  -8 724.315 118.671   5
  -8   6   7 1605.69 223.750  12
   8  -6   7 1877.77 235.811   4
  -8  -6  -7 1484.65 154.624   5
   8  -6   6 1443.41 189.486   4
  -8  -6  -6 1161.96 128.807   5
  -8   6   6 1179.43 193.908  12
   8  -6   5 12589.0 514.313   4
  -8  -6  -5 10450.4 355.099   5
  -8   6   5 12626.6 585.303  12
   8  -6   4 6376.77 344.754   4
   8   6  -4 5340.03 301.670  10
  -8   6   4 6369.51 352.997   3
   8   6  -4 5922.08 330.558   7
  -8   6   4 6188.05 392.841  12
   8  -6   3 3328.72 237.418   4
  -8  -6  -3 3524.12 259.416  11
   8   6  -3 2939.73 222.012  10
   8  -6   3 2865.00 211.292  10
  -8   6   3 3256.14 233.500   3
   8   6  -3 3489.67 249.471   7
   8  -6   3 3035.10 181.715   7
  -8   6   3 3244.63 283.818  12
   8  -6   2 1240.47 144.336   4
  -8  -6  -2 1192.23 140.360  11
   8   6  -2 1045.84 131.173  10
   8  -6   2 1321.53 133.832  10
  -8   6   2 1362.21 135.530   3
  -8   6   2 1102.91 167.794  12
   8  -6   2 1257.84 117.982   7
   8   6  -2 1286.40 153.041   7
   8   6  -1 186.920 65.5144   7
  -8  -6  -1 162.636 53.5152  11
   8   6  -1 216.468 59.5980  10
   8  -6   1 260.841 57.3513  10
   8  -6   1 164.091 53.3028   4
  -8   6   1 214.976 88.4345  12
   8  -6   1 280.999 60.6829   7
   8   6   0 1245.17 110.616  11
  -8  -6   0 1186.85 116.575  11
   8   6   0 1296.54 152.796  10
   8  -6   0 1250.65 108.877  10
  -8   6   0 1079.01 129.201  10
  -8   6   0 1239.58 155.477  12
   8  -6   0 1251.12 121.470   7
   8  -6   0 1133.78 125.963   4
   8   6   1 226.597 63.2745   2
   8   6   1 162.533 46.9870  11
  -8   6  -1 234.980 68.6344  10
   8  -6  -1 229.708 64.3050   4
   8  -6  -1 290.418 109.449   9
  -8   6  -1 122.238 53.9110  12
   8   6   2 1465.24 149.435  11
  -8   6  -2 1393.60 164.207  10
   8  -6  -2 1760.57 211.243   9
   8  -6  -2 1278.40 128.242   4
   8   6   2 1346.19 154.271   2
  -8   6  -2 1431.72 162.248  12
   8   6   3 3430.45 240.861  11
  -8   6  -3 2980.39 261.026  10
   8  -6  -3 3449.84 288.523   9
  -8   6  -3 3591.07 236.305  12
   8  -6  -4 7211.89 417.492   9
  -8   6  -4 6264.12 293.395  12
  -8   6  -5 13050.8 551.021   5
  -8   6  -6 1733.42 219.713   5
   8  -6  -6 1600.57 234.314   8
  -8   6  -7 2104.23 241.344   5
   8  -6  -7 1649.09 242.368   8
  -8   6  -8 1016.50 181.811   5
   8  -6  -8 904.875 174.536   8
  -8   6  -9 2796.93 301.411   5
   8  -6  -9 3050.19 334.955   8
  -8   6 -10 385.274 137.717   5
   8  -6 -10 260.523 128.404   8
  -8   6 -11 541.681 154.274   5
   8  -6 -11 228.995 136.840   8
  -8   6 -12 1303.04 229.008   5
   8  -6 -12 1244.64 237.090   8
  -8   6 -13 679.212 162.663   5
   8  -6 -13 737.614 189.959   8
   8  -6 -14-0.94123 70.2069   8
   8  -7  13 1199.79 236.519   4
   8  -7  12 4.38992 87.1934   4
  -8   7  12 333.383 122.984  12
   8  -7  11 5163.35 453.349   4
  -8   7  11 5312.58 423.605  12
   8  -7  10 1012.08 196.552   4
  -8   7  10 938.356 188.214  12
   8  -7   9 4004.19 372.254   4
  -8   7   9 3723.78 351.378  12
   8  -7   8 5672.27 416.947   4
  -8   7   8 5580.92 418.700  12
   8  -7   7 874.087 168.622   4
  -8   7   7 604.162 152.900  12
   8  -7   6 3384.91 290.697   4
  -8   7   6 3548.24 349.679  12
   8  -7   5 7162.08 400.651   4
  -8   7   5 7771.39 481.027  12
   8  -7   4 22086.7 671.741   4
  -8   7   4 23490.0 793.962  12
   8   7  -4 20951.3 617.431   7
   8  -7   3 5811.41 336.228   4
   8   7  -3 5664.69 317.885   7
  -8   7   3 6121.60 397.274  12
   8  -7   2 27408.8 632.489  10
   8   7  -2 30108.7 727.282   7
  -8   7   2 30514.8 849.926  12
   8  -7   2 31233.9 742.430   4
   8   7  -1 301.390 81.3813   7
   8  -7   1 271.868 62.7224  10
   8  -7   1 340.664 89.9389   4
  -8   7   1 428.126 109.514  12
   8  -7   0 5175.32 290.240   4
  -8   7   0 5091.78 329.486  12
   8  -7  -1 267.022 72.9635   4
   8  -7  -1 202.051 99.0832   9
  -8   7  -1 188.865 73.0710  12
  -8   7  -2 30325.1 785.719  10
   8  -7  -2 33673.2 897.499   9
  -8  -7   2 31284.0 655.853   4
   8  -7  -2 30137.1 673.893   4
  -8   7  -2 33168.6 787.728  12
   8   7   3 5904.18 320.665  11
   8  -7  -3 6411.65 400.444   9
  -8   7  -3 6449.93 334.437  12
   8  -7  -4 23539.7 784.102   9
  -8   7  -4 24165.9 740.937   5
  -8   7  -5 7740.69 435.913   5
  -8   7  -6 4172.47 334.041   5
   8  -7  -6 3784.55 372.149   8
  -8   7  -7 502.620 121.938   5
   8  -7  -7 357.585 147.458   8
  -8   7  -8 5102.06 394.780   5
   8  -7  -8 5925.38 450.515   8
  -8   7  -9 4618.13 390.188   5
   8  -7  -9 4395.68 404.212   8
  -8   7 -10 822.248 184.463   5
   8  -7 -10 1198.94 225.773   8
  -8   7 -11 5925.16 466.242   5
   8  -7 -11 5597.35 479.520   8
  -8   7 -12 364.808 144.405   5
   8  -7 -12 145.623 92.6181   8
   8  -7 -13 1021.60 221.346   8
   8  -8  13-0.45200 69.8050   4
   8  -8  12 2849.65 342.776   4
  -8   8  12 2849.36 307.627  12
   8  -8  11 2362.93 314.378   4
  -8   8  11 1924.98 264.379  12
   8  -8  10 800.103 201.195   4
  -8   8  10 594.687 162.813  12
  -8   8   9 2669.72 301.175  12
   8  -8   9 2799.18 319.379   4
   8  -8   8 12.7027 80.1496   4
  -8   8   8 289.703 103.348  12
   8  -8   7 3296.11 312.417   4
  -8   8   7 3344.05 327.941  12
   8  -8   6 856.765 161.908   4
  -8   8   6 713.684 185.744  12
   8  -8   5 4167.49 322.718   4
  -8   8   5 3342.97 335.170  12
   8  -8   4 2018.10 220.396   4
  -8   8   4 1898.28 239.384  12
   8  -8   3 1293.57 176.951   4
   8   8  -3 1538.59 164.168   7
  -8   8   3 1708.62 227.711  12
  -8   8   2 1197.34 183.046  12
   8  -8   2 1305.47 171.136   4
   8   8  -2 933.656 130.541   7
  -8   8   1 6764.47 408.005  12
   8  -8   1 6433.13 353.583   4
   8   8  -1 6544.86 342.608   7
   8  -8   0 202.851 86.8211   9
   8  -8   0 322.139 85.0663   4
  -8   8   0 280.659 100.821  12
   8  -8  -1 6795.00 424.258   9
   8  -8  -1 6827.11 351.963   4
  -8   8  -1 7233.15 395.479  12
   8  -8  -2 955.313 137.603   4
   8  -8  -2 1186.89 190.857   9
  -8  -8   2 1040.87 133.604   4
  -8   8  -2 1343.38 173.548  12
   8  -8  -3 1770.72 221.967   9
  -8   8  -3 1584.02 176.843  12
  -8   8  -4 2221.98 238.439   5
  -8   8  -5 3935.83 319.768   5
  -8   8  -6 869.399 164.367   5
   8  -8  -6 919.872 216.915   8
  -8   8  -7 3637.32 324.500   5
   8  -8  -7 3595.93 355.688   8
  -8   8  -8 164.453 110.719   5
   8  -8  -8 245.016 105.041   8
  -8   8  -9 2871.23 312.145   5
   8  -8  -9 3132.48 349.095   8
  -8   8 -10 513.295 156.368   5
   8  -8 -10 549.460 144.099   8
  -8   8 -11 2351.34 298.433   5
   8  -8 -11 2366.30 320.988   8
  -8   8 -12 3145.48 349.255   5
   8  -8 -12 3168.79 375.694   8
   8  -8 -13-34.2179 78.7880   8
   8  -9  12 602.954 176.586   4
   8  -9  11 826.328 187.016   4
  -8   9  11 1087.90 196.840  12
  -8   9  10 1096.41 207.369  12
   8  -9  10 571.545 161.132   4
   8  -9   9 478.835 148.788   4
  -8   9   9 480.906 148.797  12
   8  -9   8 2528.64 297.964   4
  -8   9   8 2747.88 309.333  12
  -8   9   7 96.8187 93.8447  12
   8  -9   7 133.179 106.329   4
   8  -9   6 1991.08 248.044   4
  -8   9   6 1791.10 256.376  12
   8  -9   5 127.630 83.7029   4
  -8   9   5 84.6860 102.438  12
   8  -9   4 1152.99 179.959   4
  -8   9   4 1130.69 196.498  12
   8  -9   3 902.466 158.289   4
   8   9  -3 1002.41 127.526   7
  -8   9   3 1363.17 210.128  12
   8   9  -2 982.563 133.710   7
   8  -9   2 1150.81 169.535   4
  -8   9   2 1184.77 195.437  12
   8  -9   1 3238.91 272.613   4
   8   9  -1 3004.31 233.839   7
   8  -9   0 2400.15 262.688   9
   8   9   0 1800.53 185.815   7
   8  -9   0 2381.83 232.404   4
  -8   9   0 2489.67 254.472  12
   8  -9  -1 4072.25 343.936   9
  -8   9  -1 4258.94 322.695  12
   8  -9  -1 3601.75 278.196   4
   8  -9  -2 1160.61 198.873   9
  -8  -9   2 1149.59 150.561   4
   8  -9  -2 1174.77 164.225   4
  -8   9  -2 1441.19 187.280  12
   8  -9  -3 1473.00 216.450   9
  -8   9  -3 1143.45 173.935   5
  -8   9  -4 890.248 155.723   5
  -8   9  -5 223.499 94.9624   5
  -8   9  -6 1834.03 228.491   5
   8  -9  -6 1992.32 264.006   8
  -8   9  -7 26.2737 92.7373   5
   8  -9  -7 13.1316 100.709   8
  -8   9  -8 2060.71 256.535   5
   8  -9  -8 1990.44 279.098   8
  -8   9  -9 404.304 133.154   5
   8  -9  -9 489.194 147.833   8
  -8   9 -10 1141.83 205.987   5
   8  -9 -10 1025.30 217.498   8
  -8   9 -11 1112.17 213.755   5
   8  -9 -11 1203.10 230.334   8
  -8   9 -12 739.786 177.126   5
   8  -9 -12 953.422 213.144   8
   8 -10  12 1191.47 242.573   4
  -8  10  11 222.357 90.5649  12
   8 -10  11 271.770 136.348   4
   8 -10  10 2879.93 340.421   4
  -8  10  10 3131.60 334.937  12
   8 -10   9 2260.00 297.501   4
  -8  10   9 2236.89 293.349  12
  -8  10   8 1644.35 252.157  12
   8 -10   8 2084.10 279.882   4
   8 -10   7 2835.26 319.156   4
  -8  10   7 2731.25 312.040  12
   8 -10   6 7027.67 475.153   4
  -8  10   6 7623.54 511.350  12
   8 -10   5 3996.44 350.264   4
  -8  10   5 4793.31 402.442  12
  -8  10   4 7752.14 499.545  12
   8 -10   4 7169.04 451.446   4
  -8  10   3 13507.0 640.093  12
   8 -10   3 12792.2 586.750   4
  -8  10   2 767.508 168.290  12
   8 -10   2 540.178 146.635   4
   8 -10   1 8335.84 494.099   9
   8 -10   1 8519.71 465.458   4
  -8  10   1 8089.20 475.142  12
   8 -10   0 292.307 122.677   9
   8 -10   0 444.412 114.767   4
  -8  10   0 488.123 118.142  12
   8 -10  -1 9002.35 508.489   9
   8 -10  -1 8453.22 453.885   4
   8 -10  -2 558.654 123.446   4
   8 -10  -2 409.097 127.105   9
  -8 -10   2 373.806 101.044   4
   8 -10  -3 14113.0 645.570   9
  -8  10  -3 12662.6 559.325   5
  -8  10  -4 7896.96 445.482   5
  -8  10  -5 3926.64 325.483   5
  -8  10  -6 6797.93 437.817   5
   8 -10  -6 6427.71 479.588   8
  -8  10  -7 2860.78 294.619   5
   8 -10  -7 2616.45 319.709   8
  -8  10  -8 2066.52 258.984   5
   8 -10  -8 1686.00 264.693   8
  -8  10  -9 2219.27 268.840   5
   8 -10  -9 2407.10 315.983   8
  -8  10 -10 2797.57 309.432   5
   8 -10 -10 2707.82 345.762   8
  -8  10 -11 147.146 92.9448   5
   8 -10 -11 175.985 118.907   8
   8 -10 -12 1117.76 224.355   8
   8 -11  11-34.7148 87.1344   4
   8 -11  10 488.473 145.284   4
   8 -11   9 476.226 157.433   4
  -8  11   9 425.561 129.426  12
   8 -11   8 646.659 170.372   4
  -8  11   8 311.956 135.724  12
  -8  11   7 1291.88 239.074  12
   8 -11   7 1198.95 221.877   4
   8 -11   6 1521.36 241.309   4
  -8  11   6 1686.41 252.440  12
  -8  11   5 547.153 160.654  12
   8 -11   5 303.979 118.473   4
   8 -11   4 3314.57 327.341   4
  -8  11   4 3252.13 339.386  12
   8 -11   3 560.549 142.779   4
  -8  11   3 669.978 172.476  12
   8 -11   2 2106.34 253.773   4
  -8  11   2 2464.06 288.213  12
   8 -11   1 616.920 168.127   9
   8 -11   1 633.044 145.945   4
  -8  11   1 698.541 165.226  12
   8 -11   0 1053.20 180.204   4
   8 -11   0 1300.09 208.285   9
   8 -11  -1 696.275 146.185   4
   8 -11  -1 578.280 151.153   9
   8 -11  -2 1964.05 253.300   9
   8 -11  -2 1700.90 222.049   4
   8 -11  -3 475.498 144.683   9
  -8  11  -4 2656.92 258.553   5
  -8  11  -5 291.208 94.5797   5
   8 -11  -6 1162.83 217.783   8
   8 -11  -7 1052.25 203.794   8
   8 -11  -8 302.422 127.197   8
   8 -11  -9 508.211 165.880   8
   8 -11 -10 442.408 147.218   8
   8 -11 -11-18.9168 93.5611   8
   8 -12  10 411.956 145.977   4
   8 -12   9 357.114 152.482   4
   8 -12   8 276.743 119.800   4
   8 -12   7 1399.78 243.134   4
   8 -12   6 2505.03 316.532   4
   8 -12   5 649.412 157.838   4
   8 -12   4 1953.87 263.974   4
   8 -12   3 852.225 181.948   4
   8 -12   2 2662.02 304.036   9
   8 -12   2 2073.04 267.186   4
   8 -12   1 1084.74 200.354   9
   8 -12   1 1129.17 196.287   4
   8 -12   0 6190.07 446.433   9
   8 -12   0 6009.24 433.446   4
   8 -12  -1 1319.27 209.978   4
   8 -12  -1 1188.69 198.696   9
   8 -12  -2 2841.49 311.110   9
   8 -12  -2 2127.02 253.312   4
   8 -12  -5 436.038 143.465   8
   8 -12  -6 2151.92 289.122   8
   8 -12  -7 1107.15 214.603   8
   8 -12  -8 232.846 118.438   8
   8 -12  -9 515.542 149.707   8
   8 -12 -10 615.443 168.220   8
   8 -13   9 416.714 147.218   4
   8 -13   8 1368.30 247.138   4
   8 -13   7 1886.37 277.091   4
   8 -13   6 2653.18 327.514   4
   8 -13   5 1454.72 238.585   4
   8 -13   4 3804.77 363.194   9
   8 -13   4 3856.71 379.152   4
   8 -13   3 52.2694 81.8822   9
   8 -13   3 36.5705 82.0179   4
   8 -13   2 3187.26 332.036   9
   8 -13   2 3265.29 341.077   4
   8 -13   1 223.621 106.429   4
   8 -13   1 37.9818 78.9441   9
   8 -13   0 1973.67 255.705   9
   8 -13   0 2027.64 266.438   4
   8 -13  -1-24.5000 67.4376   4
   8 -13  -1 43.8412 67.6164   9
   8 -13  -2 2830.86 303.338   4
   8 -13  -5 1336.00 222.552   8
   8 -13  -6 2660.56 319.081   8
   8 -13  -7 1203.68 221.988   8
   8 -13  -8 1042.68 207.116   8
   8 -13  -9 161.932 110.810   8
   8 -14   7 74.3326 93.8787   4
   8 -14   6 1282.89 238.139   4
   8 -14   5 217.545 120.476   9
   8 -14   5 199.460 98.2719   4
   8 -14   4 1302.13 215.905   9
   8 -14   4 1432.64 244.903   4
   8 -14   3 2152.91 273.307   9
   8 -14   3 2373.96 303.988   4
   8 -14   2 413.745 139.151   4
   8 -14   2 331.704 108.989   9
   8 -14   1 1558.66 246.672   4
   8 -14   1 1894.87 254.338   9
   8 -14   0 14.5158 84.6672   4
   8 -14   0-139.486 106.841   9
   8 -14  -1 934.812 183.183   4
   8 -14  -1 1795.37 240.037   9
   8 -14  -4 1111.99 203.164   8
   8 -14  -5 285.065 113.496   8
   8 -14  -6 908.374 187.384   8
   8 -14  -7 248.282 114.388   8
   8 -15   5 431.128 141.325   4
   8 -15   4 721.876 171.112   4
   8 -15   3 360.473 130.080   4
   8 -15   2 1017.89 208.192   4
   8 -15   1 697.493 171.562   4
   8 -15   0 134.397 79.3279   4
   8 -15  -1 872.287 188.517   4
   8 -16   2 404.802 138.844   4
   8 -16   1 1265.27 221.350   4
   8 -16   0 39.8565 79.0098   4
   9   0   0 58.1772 45.9627   1
  -9   0   0 57.6532 45.5930  11
   9   0   0-12.2626 24.6566  10
   9   0   1 20004.4 557.726  11
  -9   0   1 19240.4 529.814  11
  -9   0  -1 20313.1 576.994  11
   9   0  -1 18818.6 340.078   6
   9   0  -1 20559.9 396.667  10
   9   0   1 19897.5 508.496  10
   9   0  -1 20686.2 531.570   9
   9   0   1 19294.5 368.300   3
   9   0  -1 19502.3 567.007   7
   9   0  -1 19586.0 529.305   1
   9   0   2 14218.3 483.821  11
  -9   0   2 13756.7 442.658  11
  -9   0  -2 14454.2 499.386  11
   9   0  -2 13733.2 351.781   6
   9   0  -2 14745.1 430.579   1
   9   0  -2 12503.9 217.600  10
   9   0  -2 12212.9 236.153  10
   9   0   2 13163.2 449.577  10
   9   0  -2 14238.8 446.584   9
   9   0   2 12180.8 254.487   3
   9   0  -2 14276.7 494.991   7
   9   0   3 15961.6 534.302  11
  -9   0   3 15217.5 458.442  11
  -9   0  -3 16446.1 556.067  11
   9   0   3 16934.7 541.519  10
   9   0  -3 16459.1 546.500   7
  -9   0   4 2706.07 194.054  11
   9   0   4 3415.79 259.646  10
   9   0  -4 3560.05 266.544   7
  -9   0  -5 42720.8 931.766   5
   9   0  -5 39896.5 854.981   8
  -9   0  -6 12413.9 518.924   5
   9   0  -6 12301.5 500.646   8
  -9   0  -7 9134.67 467.754   5
   9   0  -7 8754.22 443.548   8
   9   0  -8 14941.4 625.847   6
  -9   0  -8 15771.8 639.713   5
   9   0  -8 15768.1 626.909   8
   9   0  -9 182.515 93.4255   6
  -9   0  -9 385.200 136.856   5
   9   0  -9 261.560 97.8740   8
   9   0 -10 3157.02 326.727   6
  -9   0 -10 2975.39 308.385   5
   9   0 -10 3217.50 312.060   8
   9   0 -11 424.212 136.734   6
  -9   0 -11 868.210 179.634   5
   9   0 -11 775.176 184.894   8
   9   0 -12 3226.88 367.368   6
  -9   0 -12 3653.90 365.668   5
   9   0 -12 3409.90 357.726   8
   9   0 -13 1721.44 282.857   6
  -9   0 -13 1777.75 265.474   5
   9   0 -13 1718.39 259.018   8
   9   0 -14 3241.52 386.672   6
   9   0 -15 317.524 116.956   6
   9   1 -15 569.684 173.093   6
   9  -1  15 1135.48 241.660   4
   9   1 -14 354.403 105.179   6
   9  -1  14 657.983 203.895   4
   9   1 -13 1700.35 276.137   6
   9   1 -13 1340.89 228.043   8
   9   1 -12 672.617 170.034   6
   9   1 -12 798.295 177.210   8
   9   1 -11 1974.00 276.662   6
  -9  -1 -11 2165.73 265.108   5
   9   1 -11 2060.14 257.725   8
  -9  -1 -10 845.166 175.908   5
   9   1 -10 599.927 144.019   8
  -9  -1  -9 2272.09 255.734   5
   9   1  -9 2178.10 244.187   8
  -9  -1  -8 13306.4 574.183   5
   9   1  -8 12290.5 533.672   8
  -9  -1  -7 2025.06 218.163   5
   9   1  -7 1526.26 184.960   8
  -9   1   6 5749.47 307.306  11
  -9  -1  -6 6869.94 378.074   5
   9   1  -6 6542.76 351.612   8
  -9   1   5 1147.59 135.328  11
  -9   1   5 1268.28 162.828   3
  -9  -1  -5 1321.89 169.292   5
   9   1  -5 1413.48 162.284   8
  -9   1   4 2130.79 181.291  11
   9  -1   4 3130.22 243.124  10
   9   1  -4 2792.59 210.078   8
   9   1  -4 2785.33 240.544   7
   9  -1   3 4012.12 270.936  11
  -9   1   3 3459.82 232.063  11
  -9  -1  -3 3806.06 268.750  11
   9   1  -3 2972.07 113.777  10
   9  -1   3 3883.50 252.076  10
   9   1  -3 3887.76 273.169   7
   9  -1   2 7749.82 365.808  11
  -9   1   2 7550.54 342.508  11
  -9  -1  -2 7805.21 365.412  11
   9   1  -2 7593.34 215.629  10
   9  -1   2 7132.66 261.773   4
   9  -1   2 7752.70 327.041  10
   9   1  -2 7904.08 312.390   9
   9   1  -2 7999.51 333.924   3
   9   1  -2 8256.04 307.199   1
   9   1  -2 7746.66 369.649   7
  -9   1   1 13387.9 460.522  11
  -9  -1  -1 14100.1 467.418  11
   9  -1   1 13802.4 501.523   1
   9  -1   1 14498.2 403.950  10
   9   1  -1 14306.1 415.670   9
   9   1  -1 13944.2 413.118   3
   9   1  -1 13494.9 427.235   1
   9   1  -1 14318.1 496.829   7
   9  -1   0 627.524 108.022   7
  -9   1   0 550.486 97.7335  11
  -9  -1   0 435.130 84.1403  11
   9  -1   0 720.312 80.0183  10
   9  -1   0 630.647 108.143   1
   9   1   0 573.211 90.9855  10
   9   1   0 435.935 77.7061   9
   9   1   0 694.927 90.2230   3
   9   1   1 13695.2 452.288  11
  -9   1  -1 13844.5 487.806  11
  -9  -1   1 13574.5 427.923  11
   9  -1  -1 13140.3 262.193  10
   9   1   1 13729.4 457.289  10
   9  -1  -1 14430.5 470.761   9
   9  -1  -1 13696.7 458.654   1
   9   1   1 13864.6 354.817   3
   9  -1  -1 14169.7 479.930   7
   9   1   2 7107.16 338.490  11
  -9  -1   2 6638.12 292.461  11
   9  -1  -2 7319.68 256.625   6
  -9   1  -2 7672.08 379.030  11
   9   1   2 6867.75 349.083  10
   9  -1  -2 7475.10 344.885   9
   9  -1  -2 7163.34 352.926   7
   9   1   2 6883.86 236.425   3
   9   1   3 3829.38 261.317  11
  -9  -1   3 3506.19 207.698  11
   9   1   3 3554.72 162.230   3
  -9   1  -3 4027.71 283.737  11
   9  -1  -3 3688.01 206.950   6
   9   1   3 4025.27 284.778  10
   9  -1  -3 3933.46 256.965   9
   9  -1  -3 3866.67 268.722   7
  -9  -1   4 2269.11 167.216  11
   9  -1  -4 2468.38 189.273   6
   9   1   4 2806.78 247.443  10
   9  -1  -4 2756.45 234.582   7
  -9  -1   5 934.454 109.006  11
   9  -1  -5 1053.43 134.815   6
  -9   1  -5 1282.81 182.054   5
   9  -1  -5 1223.71 164.913   8
   9  -1  -6 7275.08 384.730   6
  -9   1  -6 7486.17 420.412   5
   9  -1  -6 7480.22 407.183   8
   9  -1  -7 1486.39 189.511   6
  -9   1  -7 1366.18 199.055   5
   9  -1  -7 1365.77 189.469   8
   9  -1  -8 12129.3 563.274   6
  -9   1  -8 12691.7 589.269   5
   9  -1  -8 12350.9 565.243   8
   9  -1  -9 1808.86 238.568   6
  -9   1  -9 2316.07 266.805   5
   9  -1  -9 2177.38 252.608   8
   9  -1 -10 550.207 141.788   6
  -9   1 -10 865.829 185.687   5
   9  -1 -10 652.263 159.905   8
   9  -1 -11 2080.40 280.801   6
  -9   1 -11 2152.37 277.151   5
   9  -1 -11 1794.16 252.497   8
   9  -1 -12 645.411 170.271   6
   9  -1 -12 817.294 186.643   8
   9  -1 -13 1674.24 273.157   6
  -9   1 -13 1400.50 246.414   5
   9  -1 -13 1244.96 232.543   8
   9  -1 -14 437.490 143.112   6
   9  -1 -14 610.294 177.276   8
   9  -1 -15 982.864 215.660   6
   9   2 -14 2968.83 376.270   6
   9  -2  14 2978.30 393.496   4
   9   2 -13 2403.68 327.334   6
   9  -2  13 1977.16 311.823   4
   9   2 -12 1923.72 285.945   6
  -9  -2 -12 2336.48 284.485   5
   9  -2  12 1660.11 283.456   4
   9   2 -12 1940.00 257.691   8
  -9  -2 -11 150.031 87.5815   5
   9   2 -11 102.461 73.2349   8
  -9  -2 -10 4884.72 374.474   5
   9   2 -10 5272.34 383.972   8
  -9  -2  -9 550.004 132.022   5
   9   2  -9 380.195 108.878   8
  -9  -2  -8 4355.99 325.938   5
   9   2  -8 4148.36 303.351   8
  -9  -2  -7 4296.76 309.864   5
   9   2  -7 4584.25 300.482   8
  -9  -2  -6 1662.52 189.051   5
   9   2  -6 1833.62 180.738   8
  -9   2   5 8604.45 411.687   3
  -9  -2  -5 8271.56 392.913   5
   9   2  -5 8756.23 365.048   8
  -9   2   4 2881.76 221.332  11
  -9   2   4 2996.47 227.494   3
   9  -2   4 3042.77 222.829   4
   9  -2   4 3124.68 234.518  10
  -9  -2  -4 2915.74 229.245   5
   9   2  -4 3120.43 245.359   3
   9   2  -4 3018.99 203.337   8
   9   2  -4 2851.58 246.760   7
  -9   2   3 9198.45 391.873  11
  -9   2   3 10092.8 380.298   3
  -9  -2  -3 10689.3 447.676  11
   9  -2   3 10109.7 360.631   4
   9  -2   3 10237.7 393.352  10
   9   2  -3 10060.4 417.362   3
   9   2  -3 9768.78 345.603   8
   9   2  -3 10281.2 438.827   7
   9   2  -2 392.707 95.8971   7
   9  -2   2 210.628 75.8216   1
   9   2  -2 400.072 68.0660   1
   9   2  -2 326.477 78.5971   3
   9  -2   2 373.376 64.1622   4
  -9   2   2 281.173 74.7937  11
  -9  -2  -2 356.583 82.6867  11
   9  -2   2 355.472 70.7169  10
   9   2  -1 585.959 133.728   7
   9   2  -1 513.460 88.5507   3
  -9   2   1 541.751 99.7582  11
  -9  -2  -1 495.052 90.2482  11
   9   2  -1 560.249 77.7706  10
   9  -2   1 477.030 73.7855  10
   9  -2   1 402.139 93.3625   1
   9   2  -1 584.493 82.2825   9
   9   2  -1 438.262 80.2337   1
  -9   2   0 16586.1 537.132  11
  -9  -2   0 15789.3 461.921  11
   9  -2   0 15473.7 334.855  10
   9   2   0 15685.9 403.757   9
   9  -2   0 16310.2 538.378   1
   9   2   0 16055.8 449.277   3
   9  -2   0 15779.4 496.937   7
   9   2   1 387.038 69.8259   3
   9   2   1 361.242 74.3692  11
  -9   2  -1 305.131 79.9189  11
  -9  -2   1 388.121 76.9313  11
   9  -2  -1 325.230 36.3779  10
   9  -2  -1 361.767 95.0274   9
   9  -2  -1 272.001 71.0214   1
   9  -2  -1 377.876 89.5612   7
   9  -2  -2 267.881 72.2790   7
   9   2   2 546.227 97.4719  11
  -9   2  -2 340.781 84.1664  11
  -9  -2   2 284.806 61.6608  11
   9  -2  -2 371.337 84.7664   9
   9   2   3 10255.4 425.729  11
   9  -2  -3 10778.8 361.043   6
  -9  -2   3 9272.85 317.794  11
   9   2   3 10293.4 479.346  10
   9  -2  -3 10558.3 434.636   9
   9  -2  -3 10500.8 433.180   7
  -9  -2   4 2361.28 157.071  11
   9  -2  -4 2981.48 213.289   6
   9  -2  -5 9021.14 398.626   6
  -9   2  -5 9562.13 463.494   5
   9  -2  -6 1510.84 180.636   6
  -9   2  -6 1539.76 205.056   5
   9  -2  -6 1651.15 205.181   8
   9  -2  -7 4680.46 333.333   6
  -9   2  -7 4950.96 360.587   5
   9  -2  -7 4780.95 351.274   8
   9  -2  -8 4309.23 343.013   6
  -9   2  -8 4433.92 354.451   5
   9  -2  -8 4689.36 365.866   8
   9  -2  -9 529.799 132.298   6
  -9   2  -9 497.310 139.028   5
   9  -2  -9 384.226 136.007   8
   9  -2 -10 5203.66 425.655   6
  -9   2 -10 5562.14 426.439   5
   9  -2 -10 4890.73 403.503   8
   9  -2 -11 180.741 107.980   6
  -9   2 -11 50.1036 81.0410   5
   9  -2 -11 233.709 112.276   8
   9  -2 -12 2460.78 318.597   6
  -9   2 -12 2591.96 318.855   5
   9  -2 -12 2339.66 303.544   8
   9  -2 -13 2264.53 314.194   6
  -9   2 -13 2387.52 315.983   5
   9  -2 -13 2881.79 344.514   8
   9  -2 -14 2601.19 348.265   6
   9  -2 -14 2475.02 323.348   8
   9   3 -14 84.5203 96.7146   6
   9  -3  14 211.084 114.300   4
   9   3 -13 4996.74 470.338   6
   9  -3  13 4053.29 437.890   4
  -9   3  12 1334.08 223.369  12
   9  -3  12 996.948 225.099   4
  -9  -3 -11 5084.05 391.560   5
   9  -3  11 5151.26 459.951   4
   9   3 -11 5044.55 383.701   8
   9  -3  10 1148.57 212.331   4
  -9  -3 -10 1338.99 198.716   5
   9   3 -10 1007.52 171.254   8
  -9  -3  -9 3787.34 308.910   5
   9  -3   9 3598.91 346.699   4
   9   3  -9 3651.95 292.938   8
  -9  -3  -8 5066.61 343.438   5
   9  -3   8 4652.67 375.446   4
   9   3  -8 4668.69 310.331   8
   9  -3   7 2849.13 274.432   4
  -9  -3  -7 2712.98 238.985   5
   9   3  -7 2664.80 225.236   8
   9  -3   6 20266.7 675.661   4
  -9  -3  -6 20294.8 621.012   5
   9   3  -6 18764.6 541.105   8
   9  -3   5 1773.12 188.423   4
  -9  -3  -5 1757.10 179.327   5
   9   3  -5 1501.61 148.020   8
  -9   3   5 1545.92 175.642   3
   9  -3   4 13311.4 460.690   4
   9  -3   4 12981.4 474.812  10
  -9  -3  -4 13401.5 466.793   5
   9   3  -4 11467.0 369.921   8
   9   3  -4 13355.3 513.941   7
  -9   3   4 13133.1 473.746   3
  -9  -3  -3 8700.59 406.246  11
   9  -3   3 8825.61 340.024   4
   9   3  -3 8164.25 282.750  10
   9  -3   3 8809.15 361.677  10
  -9   3   3 9017.06 357.734   3
   9   3  -3 7626.83 281.814   8
   9   3  -3 8934.58 414.729   3
   9   3  -3 8964.07 414.064   7
  -9   3   2 11802.5 462.965  11
  -9   3   2 12028.5 371.747   3
  -9  -3  -2 12122.3 455.131  11
   9  -3   2 11519.0 345.332   4
   9   3  -2 11920.4 353.573  10
   9  -3   2 12258.9 387.616  10
   9   3  -2 12889.4 348.359   1
   9   3  -2 9811.56 301.580   8
   9   3  -2 12083.2 456.279   3
   9   3  -2 11954.7 470.924   7
   9  -3   1 10238.7 290.962   4
  -9   3   1 10453.2 437.819  11
  -9  -3  -1 10689.8 396.759  11
   9   3  -1 10266.0 347.972  10
   9  -3   1 10865.5 321.665  10
   9  -3   1 10958.8 473.354   1
   9  -3   1 10119.3 390.311   7
   9   3  -1 10744.1 412.393   3
   9   3  -1 10780.9 441.537   7
   9   3   0 28108.3 589.052  11
   9   3   0 29814.4 662.494   3
  -9   3   0 29192.2 743.373  11
  -9  -3   0 28569.5 612.468  11
   9  -3   0 29640.4 449.287  10
   9  -3   0 30058.2 752.862   1
   9   3   0 26118.4 464.090   9
   9  -3   0 27993.3 648.354   7
   9   3   1 10000.2 373.901  11
  -9   3  -1 10530.8 450.867  11
  -9  -3   1 10169.9 345.893  11
   9  -3  -1 9626.61 183.685  10
   9  -3  -1 10626.3 442.502   9
   9  -3  -1 9955.63 394.717   7
   9   3   2 12097.0 436.048  11
  -9  -3   2 10657.1 331.537  11
   9  -3  -2 12067.0 483.783   9
   9  -3  -2 11594.6 436.898   7
   9   3   3 8785.92 393.828  11
  -9  -3   3 7638.05 262.337  11
   9  -3  -3 9490.44 431.328   9
   9  -3  -3 9121.91 400.351   7
   9  -3  -4 13805.1 465.246   6
  -9   3  -4 13089.1 398.854  12
   9  -3  -5 1729.00 183.428   6
  -9   3  -5 1740.00 219.816   5
   9  -3  -6 21648.2 679.262   6
  -9   3  -6 22196.8 748.774   5
   9  -3  -6 20683.7 721.129   8
   9  -3  -7 2424.96 251.009   6
  -9   3  -7 3265.11 297.758   5
   9  -3  -7 2993.25 289.335   8
   9  -3  -8 4905.11 372.579   6
  -9   3  -8 5361.17 402.998   5
   9  -3  -8 5083.64 387.227   8
   9  -3  -9 4127.65 358.442   6
  -9   3  -9 3777.04 347.163   5
   9  -3  -9 3320.47 331.522   8
   9  -3 -10 958.448 186.558   6
  -9   3 -10 1240.01 215.313   5
   9  -3 -10 1314.23 226.673   8
   9  -3 -11 5555.81 462.645   6
  -9   3 -11 5595.24 448.048   5
   9  -3 -11 5682.46 460.541   8
   9  -3 -12 729.384 183.161   6
  -9   3 -12 1387.95 242.440   5
   9  -3 -12 1476.10 246.654   8
   9  -3 -13 3837.22 410.732   6
  -9   3 -13 4528.05 431.508   5
   9  -3 -13 3820.44 400.339   8
   9  -3 -14 441.625 155.422   8
   9   4 -14-41.8726 77.2360   6
   9  -4  14 76.1312 102.985   4
   9  -4  13-164.233 120.399   4
   9  -4  12 251.337 135.504   4
  -9   4  12 58.9813 70.4893  12
  -9   4  11 171.116 106.420  12
   9  -4  11 244.797 146.268   4
  -9   4  10 685.283 168.497  12
   9  -4  10 859.303 188.912   4
  -9  -4 -10 805.846 153.325   5
  -9  -4  -9 2469.46 245.873   5
   9  -4   9 2702.23 307.806   4
  -9  -4  -8 2086.95 216.552   5
   9  -4   8 1927.33 241.692   4
   9  -4   7 2990.67 281.089   4
  -9  -4  -7 2630.93 231.676   5
   9  -4   6 537.858 120.611   4
  -9  -4  -6 709.447 117.271   5
   9  -4   5 1349.45 165.392   4
  -9  -4  -5 1267.20 150.143   5
   9  -4   4 991.023 132.537   4
  -9   4   4 779.392 119.143   3
   9  -4   4 1013.38 137.290  10
  -9  -4  -4 966.130 128.196   5
   9   4  -4 963.912 146.991   7
  -9  -4  -3 2775.16 236.490  11
   9  -4   3 3153.83 209.508   4
   9   4  -3 2863.09 187.209  10
   9  -4   3 3258.78 221.150  10
  -9  -4  -3 3071.51 212.329   5
  -9   4   3 3135.53 213.532   3
   9   4  -3 3069.58 246.903   7
   9  -4   2 7132.37 289.249   4
  -9  -4  -2 7892.23 365.239  11
   9   4  -2 7059.27 300.453  10
   9  -4   2 7303.14 299.251  10
   9   4  -2 7620.56 384.473   3
   9   4  -2 7446.55 373.961   7
  -9   4   2 7595.90 294.679   3
   9   4  -1 9042.88 404.614   3
  -9  -4  -1 9249.05 370.506  11
   9   4  -1 8963.38 350.882  10
   9  -4   1 9037.05 295.228  10
   9   4  -1 9542.46 311.269   2
   9  -4   1 8514.76 351.062   7
   9   4  -1 9070.05 412.913   7
   9  -4   1 8490.70 292.869   4
   9   4   0 15286.5 424.744  11
   9   4   0 15578.3 517.063   3
  -9  -4   0 15952.1 453.490  11
   9   4   0 15803.4 483.664  10
   9  -4   0 15547.6 332.093  10
   9   4   0 16077.3 441.595   2
   9  -4   0 14752.1 463.141   7
   9   4   1 8874.14 347.770  11
  -9  -4   1 8530.93 310.952  11
   9   4   1 8974.40 358.446   2
   9  -4  -1 8891.16 423.074   9
   9  -4  -1 8915.01 366.938   7
   9   4   2 7588.10 344.246  11
   9   4   2 7467.86 348.744   2
   9  -4  -2 7975.26 408.499   9
   9  -4  -2 7697.35 356.686   7
   9   4   3 3098.74 235.141  11
   9   4   3 3219.68 242.509   2
   9  -4  -3 3090.81 262.468   9
  -9   4  -3 3113.83 217.975  12
   9  -4  -4 978.909 162.224   9
  -9   4  -4 1080.52 118.903  12
  -9   4  -5 1366.31 198.647   5
  -9   4  -6 607.797 152.996   5
   9  -4  -6 605.310 152.761   8
  -9   4  -7 3396.56 324.408   5
   9  -4  -7 3355.51 318.728   8
   9  -4  -8 1979.67 243.312   6
  -9   4  -8 2053.75 272.011   5
   9  -4  -8 1771.68 245.942   8
   9  -4  -9 2772.58 303.654   6
  -9   4  -9 2935.96 316.439   5
   9  -4  -9 2867.22 317.838   8
  -9   4 -10 878.107 183.337   5
   9  -4 -10 678.422 173.717   8
  -9   4 -11 284.821 125.968   5
   9  -4 -11 29.5049 78.1560   8
  -9   4 -12 206.250 107.697   5
   9  -4 -12 168.358 90.0631   8
  -9   4 -13 258.402 127.852   5
   9  -4 -13-14.7439 72.2130   8
   9  -4 -14 298.551 130.481   8
   9  -5  14 199.608 115.745   4
   9  -5  13 1673.20 277.780   4
   9  -5  12 127.457 126.889   4
  -9   5  12 86.8237 74.2609  12
   9  -5  11 3886.98 392.192   4
  -9   5  11 2999.61 328.529  12
  -9   5  10 122.674 86.1475  12
  -9  -5 -10 216.597 86.8442   5
   9  -5  10-84.3877 90.6455   4
   9  -5   9 4123.26 369.519   4
  -9  -5  -9 3505.33 285.240   5
  -9   5   9 3369.28 336.646  12
  -9   5   8 976.505 191.295  12
   9  -5   8 1216.31 198.677   4
  -9  -5  -8 1015.67 149.288   5
   9  -5   7 697.102 149.533   4
  -9  -5  -7 650.469 115.446   5
   9  -5   6 1796.23 207.063   4
  -9  -5  -6 1925.21 181.299   5
   9  -5   5 1673.56 187.820   4
  -9  -5  -5 1575.89 157.382   5
   9  -5   4 5696.34 316.600   4
  -9  -5  -4 5181.33 269.541   5
  -9   5   4 5703.82 323.361   3
   9   5  -4 5648.30 340.306   7
   9  -5   3 11472.8 417.004   4
  -9  -5  -3 11669.0 475.655  11
   9   5  -3 10233.6 386.300  10
   9  -5   3 10408.6 397.239  10
  -9  -5  -3 10432.8 363.779   5
   9   5  -3 12197.3 490.163   7
   9  -5   2 10469.7 376.951   4
  -9  -5  -2 9831.99 413.105  11
   9   5  -2 9370.81 376.309  10
   9  -5   2 10168.0 359.126  10
   9   5  -2 10671.2 450.158   7
   9  -5   2 9764.21 367.175   7
  -9  -5  -1 3573.62 231.180  11
   9   5  -1 3424.19 233.877  10
   9  -5   1 3930.30 201.553  10
   9  -5   1 3577.73 220.614   7
   9   5  -1 3665.20 269.112   7
   9  -5   1 3425.36 204.812   4
   9   5   0 10865.6 348.722  11
  -9  -5   0 11114.3 377.022  11
   9   5   0 11183.2 436.102  10
   9   5   0 11672.6 389.884   2
   9  -5   0 10675.1 389.268   7
   9  -5   0 10265.5 334.133   4
   9   5   1 3757.87 226.001  11
   9  -5  -1 3320.34 282.492   9
   9   5   1 3701.16 238.445   2
   9  -5  -1 3443.24 227.955   7
  -9   5  -1 3705.24 269.990  12
   9   5   2 10036.3 399.856  11
   9  -5  -2 10766.3 493.030   9
   9   5   2 10381.5 423.520   2
  -9   5  -2 10672.0 438.556  12
   9   5   3 10892.4 439.998  11
   9  -5  -3 11478.4 514.251   9
  -9   5  -3 12335.5 444.361  12
   9  -5  -4 6066.69 388.442   9
  -9   5  -4 6351.33 294.808  12
  -9   5  -5 1676.53 222.986   5
  -9   5  -6 2281.51 266.987   5
   9  -5  -6 2376.83 272.552   8
  -9   5  -7 796.352 170.222   5
   9  -5  -7 644.282 157.743   8
  -9   5  -8 885.803 197.971   5
   9  -5  -8 1072.42 201.458   8
  -9   5  -9 3846.17 360.357   5
   9  -5  -9 3787.68 367.789   8
  -9   5 -10 351.675 127.963   5
   9  -5 -10 343.100 144.057   8
  -9   5 -11 3805.02 379.127   5
   9  -5 -11 3181.79 361.128   8
  -9   5 -12-22.6100 81.6510   5
   9  -5 -12 93.4540 94.0182   8
  -9   5 -13 1181.78 236.393   5
   9  -5 -13 1279.06 236.099   8
   9  -5 -14-143.299 101.394   8
   9  -6  13 1042.28 225.336   4
   9  -6  12 636.303 164.283   4
  -9   6  12 585.242 155.283  12
   9  -6  11 1196.27 232.127   4
  -9   6  11 934.824 188.477  12
   9  -6  10 1691.00 257.185   4
  -9   6  10 1525.99 239.536  12
  -9   6   9 1629.88 238.416  12
   9  -6   9 1904.62 257.873   4
  -9   6   8 950.007 182.497  12
   9  -6   8 978.406 189.819   4
   9  -6   7 13083.9 594.050   4
  -9   6   7 12103.3 644.517  12
   9  -6   6 186.406 98.3124   4
  -9   6   6 80748.0 1552.48  12
   9  -6   5 16305.6 591.469   4
  -9   6   5 15315.9 685.460  12
  -9   6   4 1680.77 230.958  12
   9  -6   4 1720.12 184.677   4
   9   6  -4 1662.83 190.360   7
   9  -6   3 7394.48 356.525   4
   9   6  -3 7352.65 383.976   7
   9  -6   3 7251.10 304.475   7
  -9   6   3 7780.16 451.168  12
  -9  -6  -2 2482.37 209.943  11
   9   6  -2 1921.41 184.575  10
   9  -6   2 2212.96 167.211   7
   9   6  -2 2388.44 217.671   7
   9  -6   2 2205.47 188.335   4
  -9   6   2 2034.90 228.525  12
   9  -6   1 9033.46 341.295   7
   9   6  -1 10350.7 452.900   7
   9  -6   1 9465.07 371.015   4
  -9   6   1 10109.2 481.203  12
   9  -6   0 8962.74 347.519   7
   9  -6   0 8246.11 331.156   4
  -9   6   0 9425.82 454.133  12
   9  -6  -1 10612.2 507.805   9
   9   6   1 10174.3 405.138   2
  -9   6  -1 10843.1 472.436  12
   9   6   2 2359.02 194.376  11
   9  -6  -2 2388.65 249.659   9
  -9   6  -2 2036.05 198.464  12
   9   6   2 2537.57 216.737   2
   9  -6  -3 8588.18 465.744   9
  -9   6  -3 8004.97 370.365  12
   9  -6  -4 1802.81 229.540   9
  -9   6  -4 1897.90 171.198  12
  -9   6  -5 16994.8 666.033   5
  -9   6  -6 249.987 98.6072   5
  -9   6  -7 13996.6 639.181   5
   9  -6  -7 13182.1 660.432   8
  -9   6  -8 829.015 165.126   5
   9  -6  -8 561.588 162.365   8
  -9   6  -9 1836.78 256.493   5
   9  -6  -9 1769.01 262.916   8
  -9   6 -10 1986.46 270.407   5
   9  -6 -10 1790.81 271.008   8
  -9   6 -11 1196.66 223.077   5
   9  -6 -11 1072.22 227.403   8
  -9   6 -12 498.217 128.806   5
   9  -6 -12 555.365 167.230   8
  -9   6 -13 926.105 204.579   5
   9  -6 -13 1242.49 243.503   8
   9  -7  13 94.7769 69.1004   4
   9  -7  12 103.621 88.5684   4
  -9   7  12 218.815 99.4857  12
   9  -7  11 617.919 163.456   4
  -9   7  11 380.420 132.355  12
   9  -7  10 410.547 141.745   4
  -9   7  10 63.2181 88.7215  12
   9  -7   9 77.9784 78.5523   4
  -9   7   9 205.627 97.7037  12
   9  -7   8 828.377 172.262   4
  -9   7   8 582.207 171.086  12
   9  -7   7 1242.68 198.241   4
  -9   7   7 1268.50 212.284  12
   9  -7   6 2893.37 273.376   4
  -9   7   6 2758.40 326.652  12
   9  -7   5 452.698 106.274   4
  -9   7   5 478.572 155.998  12
   9  -7   4 2550.92 235.717   4
  -9   7   4 2863.48 304.096  12
   9   7  -4 2616.84 235.047   7
  -9   7   3 106.779 113.890  12
   9  -7   3 145.121 79.2113   4
   9   7  -3 52.7552 56.5326   7
   9   7  -2 3815.42 280.487   7
  -9   7   2 4131.50 330.354  12
   9  -7   2 4345.65 281.105   4
   9   7  -1 119.203 60.3716   7
   9  -7   1 226.180 72.3759   4
  -9   7   1 11.3827 91.1187  12
   9  -7   0 5570.10 385.537   9
   9  -7   0 5039.54 283.549   4
  -9   7   0 5825.75 369.482  12
   9  -7  -1 135.085 52.9836   4
   9  -7  -1 146.659 90.2790   9
  -9   7  -1 222.880 92.0245  12
   9  -7  -2 3808.34 330.621   9
  -9   7  -2 4413.12 303.823  12
   9  -7  -3 6.79205 95.7802   9
  -9   7  -3 108.460 51.9577  12
   9  -7  -4 2939.62 303.268   9
  -9   7  -4 2982.13 284.651   5
  -9   7  -4 2845.48 220.817  12
  -9   7  -5 801.487 167.984   5
  -9   7  -6 3122.00 300.671   5
  -9   7  -7 1731.24 235.892   5
   9  -7  -7 1726.70 253.274   8
  -9   7  -8 856.477 182.613   5
   9  -7  -8 602.612 168.777   8
  -9   7  -9-22.9181 74.1768   5
   9  -7  -9 134.304 117.511   8
  -9   7 -10 332.213 143.201   5
   9  -7 -10 83.9486 86.7611   8
  -9   7 -11 622.995 169.990   5
   9  -7 -11 700.536 191.942   8
  -9   7 -12 152.399 102.425   5
   9  -7 -12 210.007 126.525   8
  -9   7 -13 129.321 92.3686   5
   9  -7 -13 1.40400 88.2653   8
   9  -8  12 608.993 171.564   4
  -9   8  12 329.273 117.249  12
   9  -8  11-99.0313 114.787   4
  -9   8  11 223.189 115.270  12
   9  -8  10 931.195 200.812   4
  -9   8  10 910.897 199.666  12
   9  -8   9-102.036 90.4115   4
  -9   8   9-205.234 131.901  12
   9  -8   8 1141.37 204.499   4
  -9   8   8 1493.32 241.288  12
   9  -8   7 3076.40 308.007   4
  -9   8   7 3096.09 326.176  12
   9  -8   6 3847.54 329.828   4
  -9   8   6 3535.43 348.939  12
   9  -8   5 8098.62 453.382   4
  -9   8   5 8203.59 525.699  12
   9  -8   4 1205.68 179.682   4
  -9   8   4 918.495 175.515  12
   9   8  -3 5163.68 321.931   7
  -9   8   3 6384.08 433.827  12
   9  -8   3 6096.61 367.191   4
  -9   8   2 1399.88 214.076  12
   9   8  -2 1027.32 145.950   7
   9  -8   2 1192.19 161.015   4
   9  -8   1 6223.26 349.130   4
   9   8  -1 6586.43 369.123   7
  -9   8   1 7598.35 447.748  12
   9  -8   0 1476.46 207.057   9
   9  -8   0 1270.69 160.811   4
  -9   8   0 1656.81 208.415  12
   9  -8  -1 7844.07 470.907   9
   9  -8  -1 6001.41 329.213   4
  -9   8  -1 7491.45 420.164  12
   9  -8  -2 1172.90 189.719   9
  -9   8  -2 1077.60 159.866  12
   9  -8  -3 6813.58 439.148   9
  -9   8  -3 6790.11 374.261  12
  -9   8  -4 1445.71 203.819   5
  -9   8  -5 9021.79 508.669   5
  -9   8  -6 3620.69 329.246   5
   9  -8  -6 3549.11 351.435   8
  -9   8  -7 3358.55 325.028   5
   9  -8  -7 3144.73 346.282   8
  -9   8  -8 1095.79 206.460   5
   9  -8  -8 929.477 201.827   8
  -9   8  -9 18.2568 93.2306   5
   9  -8  -9 418.680 143.095   8
  -9   8 -10 524.887 151.011   5
   9  -8 -10 745.015 194.587   8
  -9   8 -11 109.545 99.4070   5
   9  -8 -11 218.540 134.435   8
  -9   8 -12 454.553 144.206   5
   9  -8 -12 810.064 195.887   8
  -9   9  12 531.934 140.261  12
   9  -9  12 630.268 175.428   4
  -9   9  11 54.7469 75.3610  12
   9  -9  11-137.034 88.5382   4
  -9   9  10 142.784 114.082  12
   9  -9  10 137.049 116.905   4
   9  -9   9 1120.10 210.559   4
  -9   9   9 1311.84 233.621  12
   9  -9   8 4619.23 401.311   4
  -9   9   8 4834.59 420.190  12
   9  -9   7 1363.93 215.776   4
  -9   9   7 1524.91 244.264  12
   9  -9   6 11675.9 589.104   4
  -9   9   6 11460.5 628.280  12
   9  -9   5 739.522 155.221   4
  -9   9   5 401.453 137.361  12
   9  -9   4 11449.9 547.019   4
  -9   9   4 11723.2 614.230  12
   9  -9   3 992.907 164.103   4
   9   9  -3 655.339 117.953   7
  -9   9   3 1157.61 213.282  12
   9  -9   2 11507.0 522.333   4
  -9   9   2 12752.1 608.830  12
   9   9  -1 432.011 95.6349   7
   9  -9   1 480.559 111.607   4
  -9   9   1 575.683 149.607  12
   9  -9   0 12129.1 602.561   9
   9  -9   0 10512.7 474.955   4
  -9   9   0 12169.0 567.698  12
   9   9   0 10255.4 470.201   7
   9  -9  -1 369.482 94.4385   4
   9  -9  -1 468.320 137.007   9
  -9   9  -1 758.923 156.808  12
   9  -9  -2 12270.2 603.502   9
  -9   9  -2 12828.6 558.819  12
   9  -9  -3 752.003 157.485   9
  -9   9  -3 1191.90 187.251   5
  -9   9  -4 11362.2 562.232   5
  -9   9  -5 686.709 155.194   5
  -9   9  -6 12364.1 613.084   5
   9  -9  -6 11047.1 629.261   8
  -9   9  -7 1116.03 195.384   5
   9  -9  -7 1631.26 257.332   8
  -9   9  -8 4484.91 390.631   5
   9  -9  -8 4498.23 431.505   8
  -9   9  -9 1300.87 217.445   5
   9  -9  -9 1336.57 242.987   8
  -9   9 -10 268.585 116.643   5
   9  -9 -10 122.882 97.7782   8
  -9   9 -11 197.284 98.0159   5
   9  -9 -11 228.503 134.178   8
  -9   9 -12 954.988 196.074   5
   9  -9 -12 789.403 189.436   8
   9 -10  11 342.983 135.063   4
  -9  10  11 384.115 128.176  12
   9 -10  10-65.8659 93.5341   4
  -9  10  10 171.444 115.565  12
  -9  10   9 495.521 148.381  12
   9 -10   9 541.042 157.940   4
   9 -10   8 244.481 114.925   4
  -9  10   8 536.223 161.207  12
   9 -10   7 1081.04 198.376   4
  -9  10   7 1350.41 237.226  12
   9 -10   6 311.515 114.532   4
  -9  10   6 359.140 144.806  12
   9 -10   5 87.9281 85.2148   4
  -9  10   5 141.301 127.620  12
   9 -10   4 674.943 161.904   4
  -9  10   4 710.917 156.078  12
   9 -10   3 457.546 129.498   4
  -9  10   3 867.723 201.230  12
   9 -10   2 642.682 143.532   4
  -9  10   2 487.763 130.251  12
   9 -10   1 1143.60 199.484   9
   9 -10   1 920.917 160.065   4
  -9  10   1 1059.97 196.821  12
   9 -10   0 114.258 72.2985   4
   9 -10   0 58.6675 100.650   9
   9  10   0 145.144 69.8762   7
  -9  10   0 116.615 84.0506  12
   9 -10  -1 783.181 150.225   4
   9 -10  -1 1110.65 198.641   9
  -9  10  -1 1267.90 200.851  12
   9 -10  -2 450.570 104.141   4
   9 -10  -2 574.944 146.972   9
   9 -10  -3 831.602 184.529   9
  -9  10  -3 450.062 128.295   5
  -9  10  -4 836.813 157.220   5
  -9  10  -5 121.437 78.5102   5
  -9  10  -6 447.527 129.421   5
   9 -10  -6 339.633 129.170   8
  -9  10  -7 928.541 184.485   5
   9 -10  -7 1215.94 222.050   8
  -9  10  -8 331.135 122.993   5
   9 -10  -8 324.210 139.996   8
  -9  10  -9 710.620 163.919   5
   9 -10  -9 486.779 165.974   8
  -9  10 -10 193.073 98.0158   5
   9 -10 -10 44.1953 81.0656   8
  -9  10 -11 414.574 135.677   5
   9 -10 -11 564.970 163.795   8
   9 -11  10 955.595 204.407   4
  -9  11  10 997.180 191.704  12
   9 -11   9 125.861 105.865   4
  -9  11   9-47.7026 76.4974  12
   9 -11   8 851.708 189.589   4
  -9  11   8 995.837 209.685  12
   9 -11   7 979.272 194.187   4
  -9  11   7 1367.80 234.228  12
  -9  11   6 6192.78 489.031  12
   9 -11   6 5684.24 447.217   4
   9 -11   5 1468.55 231.521   4
  -9  11   5 1790.15 266.766  12
  -9  11   4 5792.85 456.276  12
   9 -11   4 5544.83 423.964   4
   9 -11   3 231.187 105.162   4
  -9  11   3 377.460 143.568  12
   9 -11   2 5348.31 430.139   9
   9 -11   2 5472.81 403.201   4
  -9  11   2 6491.48 471.749  12
   9 -11   1 1313.33 216.758   9
   9 -11   1 1422.07 204.851   4
  -9  11   1 2105.61 272.290  12
   9 -11   0 5344.12 426.990   9
   9 -11   0 5208.64 381.955   4
   9 -11  -1 1499.14 203.232   4
   9 -11  -1 1723.90 244.142   9
   9 -11  -2 5822.59 440.832   9
  -9  11  -2 4949.84 357.997   5
   9 -11  -3 260.052 105.474   9
  -9  11  -3 281.138 86.6273   5
  -9  11  -4 4837.51 370.693   5
  -9  11  -5 1489.37 212.898   5
  -9  11  -6 5722.94 414.449   5
   9 -11  -6 5363.40 457.961   8
  -9  11  -7 1286.27 206.443   5
   9 -11  -7 1490.77 250.947   8
   9 -11  -8 1045.97 215.943   8
   9 -11  -9 38.7774 78.0568   8
   9 -11 -10 844.235 201.058   8
   9 -12   9 754.814 183.357   4
   9 -12   8 1287.28 230.542   4
  -9  12   7 3940.31 398.900  12
   9 -12   7 3381.30 360.455   4
   9 -12   6 536.476 158.858   4
  -9  12   6 389.903 136.599  12
   9 -12   5 2082.32 275.446   4
  -9  12   5 2702.03 322.617  12
   9 -12   4 1641.33 240.717   4
  -9  12   4 2029.15 281.785  12
   9 -12   3 4189.09 390.049   9
   9 -12   3 4297.00 378.382   4
   9 -12   2 1465.25 231.092   9
   9 -12   2 1306.46 212.930   4
   9 -12   1 8264.92 536.384   9
   9 -12   1 8311.75 503.251   4
   9 -12   0 89.4083 75.2900   4
   9 -12   0 35.8116 111.674   9
   9 -12  -1 9839.81 576.496   9
   9 -12  -1 6880.73 450.298   4
   9 -12  -2 1456.36 221.660   9
   9 -12  -5 2364.33 311.257   8
   9 -12  -6 635.515 178.943   8
   9 -12  -7 2958.04 342.516   8
   9 -12  -8 1305.43 237.980   8
   9 -12  -9 527.988 158.608   8
   9 -13   8 33.6170 84.6624   4
   9 -13   7 928.552 194.422   4
   9 -13   6 241.427 127.329   4
   9 -13   5 1306.31 225.423   4
   9 -13   4 295.226 108.335   9
   9 -13   4 582.944 154.977   4
   9 -13   3 640.517 160.760   9
   9 -13   3 574.783 161.701   4
   9 -13   2 1574.13 245.828   9
   9 -13   2 1484.94 230.839   4
   9 -13   1 1166.44 201.849   4
   9 -13   1 1320.58 223.111   9
   9 -13   0 107.366 78.9295   4
   9 -13   0-51.5541 86.9554   9
   9 -13  -1 1220.95 196.940   4
   9 -13  -1 1299.34 217.419   9
   9 -13  -5 1033.13 204.800   8
   9 -13  -6 106.235 93.2157   8
   9 -13  -7 952.404 201.589   8
   9 -13  -8 163.191 106.720   8
   9 -14   6 335.508 123.529   9
   9 -14   6 480.864 152.518   4
   9 -14   5 1592.68 250.477   9
   9 -14   5 2180.23 294.460   4
   9 -14   4 94.0389 84.4990   9
   9 -14   4 181.114 106.276   4
   9 -14   3 1288.63 224.359   9
   9 -14   3 1052.76 204.277   4
   9 -14   2 712.832 168.737   4
   9 -14   2 344.229 116.433   9
   9 -14   1 3246.90 339.600   9
   9 -14   1 3228.13 341.701   4
   9 -14   0 97.5005 86.6086   4
   9 -14   0 15.0303 99.4231   9
   9 -14  -1 3453.51 347.400   9
   9 -14  -4-25.6262 76.4653   8
   9 -14  -5 2016.81 280.366   8
   9 -14  -6 401.240 129.803   8
   9 -14  -7 1035.82 206.708   8
   9 -15   4 334.676 131.629   4
   9 -15   3 586.602 152.902   4
   9 -15   3 340.505 134.751   9
   9 -15   2 482.061 142.352   4
   9 -15   2 557.488 151.493   9
   9 -15   1 9.83645 59.9236   4
   9 -15   1-141.195 85.2519   9
   9 -15   0 216.469 97.2526   9
   9 -15  -3 113.040 64.9218   8
   9 -15  -4 353.164 122.960   8
 -10   0   0 31612.5 744.528  11
  10   0   0 31751.9 593.047  10
  10   0   0 32286.3 704.872   9
  10   0   0 32607.0 764.062   1
  10   0   0 32069.0 777.240   7
 -10   0   1 3882.40 256.038  11
 -10   0  -1 4008.30 272.933  11
  10   0  -1 4273.84 184.667  10
  10   0   1 4016.85 232.336  10
  10   0  -1 4274.30 261.537   9
  10   0  -1 4116.54 260.350   1
  10   0   1 4120.36 284.418   1
  10   0  -1 3955.29 276.663   7
 -10   0   2 7086.06 339.840  11
  10   0   2 7832.96 357.693  10
  10   0  -2 8404.52 363.732   9
  10   0  -2 7902.39 391.869   7
 -10   0   3 2319.58 192.315  11
  10   0  -3 2554.24 174.948   6
  10   0   3 2794.55 228.544  10
  10   0  -3 2742.65 243.317   7
 -10   0   4 3626.44 238.372  11
  10   0  -4 4180.57 247.462   6
  10   0  -4 4739.36 320.013   7
  10   0  -5 301.980 76.8417   6
 -10   0  -5 242.902 100.882   5
  10   0  -5 291.159 85.2372   8
  10   0  -6 11720.6 488.547   6
 -10   0  -6 11865.4 540.513   5
  10   0  -6 11835.7 511.587   8
  10   0  -7 229.371 82.8694   6
 -10   0  -7 392.541 132.264   5
  10   0  -7 284.889 102.742   8
  10   0  -8 6869.48 431.034   6
 -10   0  -8 7103.52 447.579   5
  10   0  -8 7194.59 436.785   8
  10   0  -9 402.361 110.084   6
 -10   0  -9 527.580 148.839   5
  10   0  -9 752.102 168.235   8
  10   0 -10 3172.24 328.242   6
 -10   0 -10 3416.21 333.822   5
  10   0 -10 3320.38 325.909   8
  10   0 -11 314.153 112.016   6
 -10   0 -11 166.428 107.756   5
  10   0 -11 352.188 119.796   8
  10   0 -12-40.6151 96.5024   6
  10   0 -12 18.2021 78.3216   8
  10   0 -13 1041.29 217.105   6
 -10   0 -13 1120.90 209.889   5
  10   0 -13 710.451 174.894   8
  10   0 -14 439.915 146.074   6
  10   1 -14 134.474 98.1226   6
  10  -1  14 140.550 120.713   4
  10   1 -13 354.314 138.040   6
  10  -1  13 399.369 167.399   4
  10   1 -13 193.450 104.982   8
  10   1 -12-42.8144 86.8878   6
 -10  -1 -12-60.7631 89.4048   5
  10   1 -12 71.7117 78.2478   8
  10   1 -11 209.329 123.199   6
 -10  -1 -11 466.303 137.890   5
  10   1 -11 232.706 84.5147   8
  10   1 -10 2959.65 324.768   6
 -10  -1 -10 3644.59 340.238   5
  10   1 -10 3532.12 327.601   8
 -10  -1  -9 1366.23 207.926   5
  10   1  -9 1096.08 178.696   8
 -10  -1  -8 1933.88 238.440   5
  10   1  -8 1785.31 214.676   8
 -10  -1  -7 759.539 150.739   5
  10   1  -7 584.168 126.694   8
 -10  -1  -6 732.393 143.067   5
  10   1  -6 658.819 117.902   8
  10   1  -5 1083.31 149.407   8
 -10  -1  -5 1215.17 173.544   5
 -10   1   4 4792.45 288.647  11
  10   1  -4 5637.43 310.912   8
  10   1  -4 6325.35 378.900   7
 -10   1   3 9687.24 409.180  11
  10  -1   3 10722.9 371.945   4
  10  -1   3 10808.6 430.927  10
  10   1  -3 12194.8 499.439   7
 -10   1   2 7256.91 358.347  11
  10  -1   2 8241.17 346.538  10
  10   1  -2 8235.05 325.700   1
  10   1  -2 8736.37 349.385   9
  10   1  -2 8732.76 419.182   7
  10   1  -1 6640.83 360.438   7
 -10   1   1 6305.57 335.017  11
 -10  -1  -1 6439.51 335.321  11
  10   1  -1 6825.40 324.706   1
  10  -1   1 6741.80 283.374  10
  10   1  -1 6071.82 261.961  10
  10   1  -1 6922.32 307.901   9
  10   1  -1 6539.89 296.450   3
  10  -1   1 6735.07 372.492   1
  10   1   0 679.283 111.518   1
  10  -1   0 651.308 115.367   7
  10   1   0 560.001 81.4366   3
  10  -1   0 515.068 102.412   1
 -10   1   0 759.028 122.160  11
 -10  -1   0 498.001 98.5000  11
  10  -1   0 610.818 78.3653  10
  10   1   0 448.056 83.4680  10
  10   1   0 641.767 99.5749   9
  10   1   1 6585.23 332.987  11
 -10  -1   1 6423.95 317.932  11
  10   1   1 7043.84 334.348  10
  10  -1  -1 7168.33 351.917   1
  10  -1  -1 6884.89 344.347   9
  10   1   1 6774.54 261.687   3
  10  -1  -1 6980.89 360.311   7
  10   1   2 8337.07 389.811  11
 -10  -1   2 7845.15 339.963  11
  10   1   2 9013.26 405.067  10
  10  -1  -2 9029.72 396.274   9
  10  -1  -2 8533.91 405.733   7
 -10  -1   3 9314.87 365.351  11
  10  -1  -3 11544.7 370.968   6
  10   1   3 11471.3 488.401  10
  10  -1  -3 11538.2 456.726   9
  10  -1  -3 11633.4 486.399   7
 -10  -1   4 4621.32 253.662  11
  10  -1  -4 5818.13 294.848   6
  10  -1  -4 6422.18 373.159   7
  10  -1  -5 947.073 134.251   6
 -10   1  -5 839.413 157.749   5
  10  -1  -5 837.376 142.399   8
  10  -1  -6 473.518 103.650   6
 -10   1  -6 468.073 132.990   5
  10  -1  -6 677.672 135.869   8
  10  -1  -7 552.352 115.199   6
 -10   1  -7 681.550 149.384   5
  10  -1  -7 886.972 161.814   8
  10  -1  -8 1869.40 227.499   6
 -10   1  -8 2084.54 259.602   5
  10  -1  -8 2119.70 248.357   8
  10  -1  -9 1094.25 188.258   6
 -10   1  -9 1458.59 220.241   5
  10  -1  -9 1134.77 189.913   8
  10  -1 -10 3072.40 331.888   6
 -10   1 -10 3720.96 358.867   5
  10  -1 -10 3184.80 321.456   8
  10  -1 -11 123.418 103.034   6
 -10   1 -11 232.829 122.132   5
  10  -1 -11 97.5255 83.9219   8
  10  -1 -12-25.4039 88.3191   6
 -10   1 -12 204.186 111.919   5
  10  -1 -12 36.1286 75.1727   8
  10  -1 -13 291.115 113.432   6
 -10   1 -13 592.077 156.317   5
  10  -1 -13 504.727 157.636   8
  10  -1 -14 152.587 98.8048   6
  10  -1 -14 86.0374 79.0140   8
  10   2 -14 56.7733 79.3517   6
  10  -2  14 124.494 87.8214   4
  10   2 -13-0.46351 88.4349   6
  10  -2  13 176.881 135.352   4
  10   2 -12 740.546 190.529   6
  10  -2  12 1089.15 230.324   4
 -10  -2 -12 859.693 181.065   5
  10   2 -12 653.265 158.811   8
  10   2 -11 889.928 193.961   6
  10  -2  11 826.160 197.800   4
 -10  -2 -11 904.274 179.892   5
  10   2 -11 825.310 172.745   8
 -10  -2 -10 2305.32 268.494   5
  10   2 -10 1860.88 233.191   8
 -10  -2  -9 2635.95 275.297   5
  10   2  -9 2295.46 243.712   8
 -10  -2  -8 5084.53 364.119   5
  10   2  -8 4368.72 319.323   8
 -10  -2  -7 1889.43 218.094   5
  10   2  -7 1460.92 179.306   8
  10  -2   6 3675.56 290.839   4
 -10  -2  -6 3862.27 296.730   5
  10   2  -6 3793.57 268.953   8
  10  -2   5 1597.72 177.833   4
 -10  -2  -5 1730.44 193.419   5
  10   2  -5 1808.07 179.931   8
  10  -2   4 4849.01 282.801   4
 -10  -2  -4 4666.18 302.800   5
  10   2  -4 4055.46 251.548   8
  10   2  -4 5298.79 347.831   7
  10  -2   3 13722.2 413.424   4
  10  -2   3 13241.8 462.401  10
  10   2  -3 12849.2 489.633   3
  10   2  -3 12074.7 406.911   8
  10   2  -3 14665.1 550.406   7
 -10  -2  -2 12539.2 486.139  11
  10  -2   2 12505.4 407.013  10
  10   2  -2 12042.1 448.644   3
  10   2  -2 13286.8 521.234   7
  10  -2   1 14844.9 562.668   1
 -10  -2  -1 13889.3 489.102  11
  10   2  -1 13982.8 386.727  10
  10  -2   1 14197.9 385.539  10
  10   2  -1 13831.3 405.902   9
  10   2  -1 14208.5 468.420   3
  10   2  -1 15016.1 465.904   1
  10   2  -1 15258.1 554.176   7
 -10  -2   0 8905.70 375.226  11
  10   2   0 8827.20 324.565   9
  10  -2   0 9874.23 443.053   1
  10   2   0 9321.99 355.894   3
  10  -2   0 9335.24 407.312   7
  10   2   1 13640.4 468.269  11
 -10  -2   1 12524.2 426.139  11
  10  -2  -1 14011.1 510.978   1
  10  -2  -1 13860.1 514.416   9
  10   2   1 13132.7 402.298   3
  10  -2  -1 13826.2 502.134   7
  10   2   2 12078.7 460.893  11
 -10  -2   2 10994.2 385.622  11
  10   2   2 11573.2 496.194  10
  10  -2  -2 13378.4 504.730   9
  10  -2  -2 13762.1 505.929   7
  10   2   2 11278.2 356.873   3
  10  -2  -3 14209.8 419.126   6
 -10  -2   3 11079.9 373.091  11
  10   2   3 12368.8 533.669  10
  10  -2  -3 14205.0 529.777   9
  10  -2  -3 12939.1 509.850   7
  10  -2  -4 5505.69 290.245   6
  10  -2  -5 1588.48 172.128   6
 -10   2  -5 2207.84 247.429   5
  10  -2  -6 4033.26 292.311   6
 -10   2  -6 4698.54 361.497   5
  10  -2  -6 4198.21 331.797   8
  10  -2  -7 1343.44 181.776   6
 -10   2  -7 1871.42 237.977   5
  10  -2  -7 1525.80 213.697   8
  10  -2  -8 4793.10 363.011   6
 -10   2  -8 5582.38 413.671   5
  10  -2  -8 5156.26 389.660   8
  10  -2  -9 2137.78 266.651   6
 -10   2  -9 2402.98 285.669   5
  10  -2  -9 2565.27 292.759   8
  10  -2 -10 1896.45 261.603   6
 -10   2 -10 2172.47 281.101   5
  10  -2 -10 2191.61 281.116   8
  10  -2 -11 541.665 144.861   6
 -10   2 -11 868.946 194.715   5
  10  -2 -11 872.359 199.628   8
  10  -2 -12 1230.05 227.626   6
 -10   2 -12 919.784 199.210   5
  10  -2 -12 620.610 166.376   8
  10  -2 -13 110.662 94.0974   6
 -10   2 -13 295.634 132.715   5
  10  -2 -13 64.8171 74.0080   8
  10  -2 -14 156.987 116.379   6
  10  -2 -14 111.922 86.0935   8
  10   3 -14 708.706 185.657   6
  10  -3  14 854.227 205.983   4
  10   3 -13 594.981 175.722   6
  10  -3  13 612.553 190.510   4
 -10   3  12 645.805 167.959  12
  10  -3  12 705.732 188.255   4
  10  -3  11 848.561 197.269   4
 -10  -3 -11 872.777 172.680   5
  10  -3  10 1185.15 214.563   4
 -10  -3 -10 1096.57 184.670   5
  10   3 -10 842.388 157.733   8
  10  -3   9 1289.29 211.008   4
 -10  -3  -9 1517.20 205.794   5
  10   3  -9 1313.61 180.582   8
  10  -3   8 2512.04 276.387   4
 -10  -3  -8 2816.68 265.948   5
  10   3  -8 2052.21 211.894   8
  10  -3   7 8704.99 477.879   4
 -10  -3  -7 8838.45 447.868   5
  10   3  -7 7401.82 374.166   8
  10  -3   6 6047.11 371.132   4
 -10  -3  -6 5734.85 346.690   5
  10   3  -6 4823.45 282.575   8
  10  -3   5 17109.6 573.758   4
 -10  -3  -5 17336.8 582.450   5
 -10   3   4 375.424 84.0559   3
  10  -3   4 348.712 82.5113   4
 -10  -3  -4 374.508 94.8425   5
  10   3  -4 429.504 80.5363   8
  10   3  -4 484.980 112.056   7
  10  -3   3 7729.19 317.227   4
  10  -3   3 8172.79 358.378  10
  10   3  -3 7764.10 412.712   7
  10   3  -2 276.060 90.7230   7
  10   3  -2 422.468 94.2833   3
 -10  -3  -2 376.759 90.1652  11
  10  -3   2 464.788 79.4585  10
  10   3  -1 8403.48 340.672   1
 -10  -3  -1 8011.17 370.742  11
  10   3  -1 7747.89 311.837  10
  10   3  -1 7772.25 364.222   3
  10   3  -1 8884.39 429.086   7
  10  -3   1 8355.54 385.993   7
  10   3   0 734.144 107.940   3
 -10  -3   0 673.268 103.490  11
  10  -3   0 578.960 98.9856   7
  10   3   1 7751.45 339.937   3
  10   3   1 7737.23 351.093  11
 -10  -3   1 7054.05 312.805  11
  10  -3  -1 8501.05 416.569   9
  10  -3  -1 8058.86 376.627   7
  10   3   2 376.387 83.9052  11
  10  -3  -2 345.127 104.911   9
  10  -3  -2 213.437 83.8601   7
  10  -3  -3 7944.40 415.637   9
  10  -3  -3 8144.40 405.347   7
 -10   3  -4 352.018 76.4141  12
  10  -3  -5 18054.9 582.362   6
 -10   3  -5 19188.1 710.738   5
  10  -3  -6 5642.32 351.092   6
 -10   3  -6 6372.35 424.854   5
  10  -3  -6 5513.80 394.024   8
  10  -3  -7 8433.56 462.108   6
 -10   3  -7 8917.14 512.348   5
  10  -3  -7 8393.53 496.589   8
  10  -3  -8 2199.90 255.125   6
 -10   3  -8 2431.23 275.489   5
  10  -3  -8 2135.37 268.742   8
  10  -3  -9 1332.42 210.661   6
 -10   3  -9 1802.47 270.965   5
  10  -3  -9 1762.65 253.110   8
  10  -3 -10 880.340 197.486   6
 -10   3 -10 839.753 174.102   5
  10  -3 -10 710.321 178.320   8
  10  -3 -11 1081.31 208.493   6
 -10   3 -11 818.366 181.689   5
  10  -3 -11 1010.22 203.313   8
  10  -3 -12 486.508 150.509   6
 -10   3 -12 641.643 173.647   5
  10  -3 -12 569.677 162.421   8
 -10   3 -13 721.666 179.676   5
  10  -3 -13 579.146 162.392   8
  10  -3 -14 1030.68 207.531   8
  10   4 -14 705.053 183.023   6
  10  -4  14 883.156 198.313   4
  10   4 -13 93.0426 94.3999   6
  10  -4  13-22.9705 80.5009   4
 -10   4  12 1556.88 237.583  12
  10  -4  12 1984.61 293.138   4
 -10   4  11 3109.57 349.003  12
 -10  -4 -11 2777.00 288.393   5
  10  -4  11 2906.31 346.774   4
 -10  -4 -10 1957.80 231.395   5
  10  -4  10 1921.29 267.523   4
  10  -4   9 10361.5 580.540   4
 -10  -4  -9 10698.2 519.528   5
  10  -4   8 515.210 142.260   4
 -10  -4  -8 70.5210 67.5012   5
  10  -4   7 4115.91 329.755   4
 -10  -4  -7 3597.70 280.662   5
  10  -4   6 609.379 125.361   4
 -10  -4  -6 634.248 119.762   5
  10  -4   5 1707.39 189.590   4
 -10  -4  -5 1540.05 173.111   5
  10   4  -4 884.300 148.444   7
  10  -4   4 1063.64 135.888   4
 -10  -4  -4 915.107 133.018   5
  10  -4   3 7210.05 319.658   4
  10  -4   3 6904.65 326.005  10
 -10  -4  -3 7342.37 347.086   5
  10   4  -3 7571.15 409.563   7
  10  -4   2 3665.31 209.175   4
 -10  -4  -2 3386.68 254.089  11
  10   4  -2 3957.98 295.113   7
  10  -4   2 3527.88 245.559   7
 -10  -4  -1 7393.19 353.726  11
  10   4  -1 7558.20 331.501  10
  10   4  -1 7229.12 375.612   3
  10  -4   1 7546.72 354.879   7
  10   4  -1 8590.64 428.345   7
  10   4   0 607.550 92.0452  11
  10   4   0 638.163 116.721   3
 -10  -4   0 648.000 103.535  11
  10   4   0 659.673 96.9648   2
  10   4   0 631.781 104.100  10
  10  -4   0 647.351 111.987   7
  10   4   1 7789.69 345.593  11
  10   4   1 7800.33 369.391   3
  10   4   1 8829.25 370.843   2
  10  -4  -1 8285.16 432.218   9
  10  -4  -1 7882.97 369.918   7
  10   4   2 3678.06 253.564  11
  10   4   2 3739.82 259.936   2
  10  -4  -2 4208.54 313.466   9
  10  -4  -2 3929.74 269.555   7
  10  -4  -3 7893.69 428.165   9
 -10   4  -3 8301.83 375.501  12
  10  -4  -4 999.264 174.142   9
 -10   4  -5 1757.76 236.643   5
 -10   4  -6 710.628 164.590   5
  10  -4  -6 668.997 160.674   8
 -10   4  -7 3730.90 360.605   5
  10  -4  -7 3555.09 337.800   8
 -10   4  -8 198.975 101.261   5
  10  -4  -8 125.041 106.736   8
 -10   4  -9 11088.4 618.239   5
  10  -4  -9 10037.1 596.899   8
 -10   4 -10 1872.58 267.759   5
  10  -4 -10 1911.58 270.050   8
 -10   4 -11 3101.95 354.818   5
  10  -4 -11 2955.90 347.134   8
 -10   4 -12 1793.91 281.580   5
  10  -4 -12 1860.45 283.980   8
 -10   4 -13 272.200 144.440   5
  10  -4 -13-1.35893 72.4544   8
  10  -4 -14 1062.98 220.842   8
  10  -5  13 631.709 157.696   4
  10  -5  12 185.818 113.186   4
 -10   5  12 37.3345 65.5139  12
  10  -5  11 3481.38 368.406   4
 -10   5  11 2346.89 293.525  12
  10  -5  10 2727.71 315.857   4
 -10  -5 -10 2210.69 238.577   5
 -10   5  10 2501.69 306.417  12
 -10   5   9 1096.24 217.177  12
 -10  -5  -9 1358.38 182.842   5
  10  -5   8 2309.05 268.497   4
 -10  -5  -8 2414.93 230.785   5
  10  -5   7 2970.54 284.527   4
 -10  -5  -7 2470.16 224.841   5
  10  -5   6 2638.02 252.589   4
 -10  -5  -6 2226.36 204.765   5
  10  -5   5 8988.30 428.060   4
 -10  -5  -5 7584.71 356.768   5
  10  -5   4 7840.73 372.509   4
 -10  -5  -4 6617.11 321.635   5
  10   5  -4 7774.08 422.584   7
  10  -5   3 8067.26 354.126   4
 -10  -5  -3 6991.13 320.509   5
  10   5  -3 8967.20 448.757   7
  10  -5   3 7668.92 354.213   7
  10  -5   2 12484.9 415.149   4
  10   5  -2 13667.6 543.651   7
  10  -5   2 12660.4 447.535   7
  10   5  -1 3984.27 258.497  10
  10  -5   1 3835.29 245.954   7
  10   5  -1 4266.37 306.850   7
  10  -5   0 6642.80 328.882   7
  10  -5  -1 4122.07 319.925   9
  10   5   1 4156.83 260.339   2
  10  -5  -1 3764.38 253.815   7
 -10   5  -1 4224.80 305.666  12
  10  -5  -2 13069.2 569.924   9
 -10   5  -2 13603.4 520.679  12
  10  -5  -3 8356.50 468.834   9
 -10   5  -3 8990.39 401.210  12
  10  -5  -4 8380.61 471.693   9
 -10   5  -5 9699.98 530.628   5
 -10   5  -6 2277.96 288.417   5
  10  -5  -6 2831.16 306.594   8
 -10   5  -7 3107.14 328.825   5
  10  -5  -7 2646.67 304.290   8
 -10   5  -8 2501.40 291.696   5
  10  -5  -8 2696.80 312.813   8
 -10   5  -9 1415.73 230.420   5
  10  -5  -9 1488.62 240.170   8
 -10   5 -10 2609.31 325.658   5
  10  -5 -10 2910.55 346.797   8
 -10   5 -11 2847.73 339.226   5
  10  -5 -11 2473.42 328.400   8
 -10   5 -12 96.8974 94.5535   5
  10  -5 -12-14.8412 75.4127   8
 -10   5 -13 693.649 180.790   5
  10  -5 -13 412.494 139.776   8
  10  -6  13 701.909 181.582   4
  10  -6  12 71.7715 75.4449   4
 -10   6  12-37.5426 77.4806  12
  10  -6  11 750.772 187.357   4
 -10   6  11 687.788 176.807  12
  10  -6  10 1087.21 209.894   4
 -10   6  10 1780.71 275.111  12
 -10   6   9 2085.41 281.342  12
  10  -6   9 1975.98 260.675   4
  10  -6   8 4045.40 350.996   4
 -10   6   8 3699.35 373.641  12
  10  -6   7 3096.71 294.557   4
 -10   6   7 3238.62 340.354  12
  10  -6   6 3337.39 285.618   4
 -10   6   6 2949.55 340.645  12
  10  -6   5 3850.49 289.171   4
 -10   6   5 4122.37 367.895  12
  10  -6   4 4385.32 293.266   4
  10   6  -4 4386.34 323.179   7
 -10   6   4 4569.85 375.976  12
 -10   6   3 968.987 173.832  12
  10  -6   3 941.175 131.660   4
  10  -6   3 1010.12 122.844   7
  10   6  -3 1138.42 179.527   7
  10  -6   2 6141.43 299.340   7
  10   6  -2 6624.04 381.560   7
 -10   6   2 6920.76 433.907  12
  10  -6   2 5695.74 300.839   4
 -10   6   1 1942.19 222.633  12
  10  -6   1 2129.99 179.385   7
  10   6  -1 2037.77 215.544   7
  10  -6   0 6538.63 425.064   9
  10  -6   0 6446.30 318.547   7
 -10   6   0 6857.48 402.359  12
  10  -6  -1 2658.72 277.541   9
 -10   6  -1 2210.27 228.642  12
  10  -6  -2 7019.44 437.634   9
 -10   6  -2 6589.17 371.911  12
  10  -6  -3 1183.16 196.542   9
 -10   6  -3 1092.35 145.176  12
  10  -6  -4 4627.30 373.335   9
 -10   6  -5 4018.40 351.827   5
 -10   6  -6 3365.56 327.917   5
 -10   6  -7 3206.38 331.834   5
  10  -6  -7 3447.34 349.389   8
 -10   6  -8 4058.93 373.989   5
  10  -6  -8 3778.45 386.295   8
 -10   6  -9 2481.10 300.444   5
  10  -6  -9 2192.20 298.341   8
 -10   6 -10 1888.51 273.825   5
  10  -6 -10 1488.90 260.309   8
 -10   6 -11 1417.36 243.038   5
  10  -6 -11 1254.86 241.769   8
 -10   6 -12 95.4082 98.7554   5
  10  -6 -12 243.354 108.717   8
 -10   6 -13 657.344 172.166   5
  10  -6 -13 823.530 205.745   8
  10  -7  12 793.190 179.589   4
 -10   7  12 676.526 166.940  12
  10  -7  11 2479.62 310.905   4
 -10   7  11 2069.41 283.988  12
  10  -7  10 3024.56 338.406   4
 -10   7  10 2817.71 332.257  12
  10  -7   9 2521.13 299.166   4
 -10   7   9 2299.84 298.034  12
  10  -7   8 3288.19 321.778   4
 -10   7   8 3370.08 353.328  12
  10  -7   7 2816.65 284.406   4
 -10   7   7 3023.16 336.237  12
 -10   7   6 1985.15 273.430  12
  10  -7   6 1694.13 212.144   4
  10  -7   5 6619.64 395.277   4
 -10   7   5 6289.54 459.878  12
  10  -7   4 9065.41 443.458   4
  10   7  -4 8071.70 435.271   7
 -10   7   4 9258.17 541.930  12
 -10   7   3 574.297 150.159  12
  10  -7   3 578.326 110.230   4
  10   7  -3 390.518 98.2350   7
  10   7  -2 13076.4 544.214   7
  10  -7   2 11674.1 462.247   4
 -10   7   2 12980.5 609.170  12
  10  -7   1 2550.44 210.788   4
  10   7  -1 3029.22 264.341   7
 -10   7   1 2918.07 287.857  12
  10  -7   0 9127.26 513.053   9
 -10   7   0 8896.08 473.729  12
  10  -7  -1 3333.80 318.987   9
 -10   7  -1 3270.05 283.365  12
  10  -7  -2 14212.3 632.015   9
 -10   7  -2 14372.5 563.588  12
  10  -7  -3 544.894 121.726   9
 -10   7  -3 546.769 111.031  12
  10  -7  -4 9593.59 536.108   9
 -10   7  -4 10079.4 536.689   5
 -10   7  -5 6169.58 430.737   5
 -10   7  -6 1777.66 244.482   5
 -10   7  -7 3180.67 331.946   5
  10  -7  -7 2839.67 329.641   8
 -10   7  -8 2856.99 320.970   5
  10  -7  -8 3351.96 360.426   8
 -10   7  -9 2367.54 300.007   5
  10  -7  -9 2333.93 315.538   8
 -10   7 -10 3423.05 368.147   5
  10  -7 -10 3295.20 377.295   8
 -10   7 -11 2367.22 310.985   5
  10  -7 -11 2403.17 325.845   8
 -10   7 -12 736.311 180.683   5
  10  -7 -12 447.893 154.402   8
 -10   8  12 907.579 186.974  12
  10  -8  12 790.085 185.617   4
  10  -8  11 1599.43 252.635   4
 -10   8  11 1860.24 266.670  12
 -10   8  10 1608.41 257.196  12
  10  -8  10 1641.13 251.293   4
  10  -8   9 2192.30 276.581   4
 -10   8   9 2029.63 293.543  12
  10  -8   8 1117.48 193.298   4
 -10   8   8 1097.90 222.879  12
  10  -8   7 1961.34 245.543   4
 -10   8   7 1781.31 264.767  12
  10  -8   6 1179.39 187.143   4
 -10   8   6 1402.34 232.511  12
  10  -8   5 1883.55 225.159   4
 -10   8   5 2213.57 285.746  12
  10  -8   4 888.361 154.114   4
  10   8  -4 877.860 145.439   7
 -10   8   4 633.270 155.463  12
  10   8  -3 2272.10 230.589   7
 -10   8   3 2749.79 310.474  12
  10  -8   3 2158.43 221.597   4
  10   8  -2 3998.49 305.565   7
  10  -8   2 3559.93 273.158   4
 -10   8   2 4465.10 371.223  12
  10   8  -1 180.328 83.1775   7
  10  -8   1 52.5950 39.4868   4
 -10   8   1 204.391 111.976  12
  10  -8   0 9728.07 545.812   9
 -10   8   0 9633.01 506.273  12
  10   8   0 8698.59 457.356   7
  10  -8  -1 192.922 120.794   9
 -10   8  -1 290.314 118.185  12
  10  -8  -2 4517.38 376.213   9
 -10   8  -2 4203.95 317.288  12
  10  -8  -3 2657.95 293.377   9
 -10   8  -3 2856.85 250.933  12
 -10   8  -4 936.245 179.648   5
 -10   8  -5 1675.16 237.993   5
 -10   8  -6 1379.61 218.970   5
  10  -8  -6 1582.09 245.675   8
 -10   8  -7 2347.23 292.912   5
  10  -8  -7 2201.93 296.181   8
 -10   8  -8 824.908 182.189   5
  10  -8  -8 931.167 206.948   8
 -10   8  -9 2278.74 300.400   5
  10  -8  -9 2418.18 324.884   8
 -10   8 -10 1931.17 278.700   5
  10  -8 -10 1978.05 296.581   8
 -10   8 -11 1948.75 281.751   5
  10  -8 -11 2389.41 324.609   8
 -10   8 -12 1021.12 213.576   5
  10  -8 -12 719.687 194.291   8
  10  -9  11 270.228 113.380   4
 -10   9  11 252.498 110.914  12
  10  -9  10 2589.79 315.593   4
 -10   9  10 2504.99 318.546  12
  10  -9   9 2822.78 324.871   4
 -10   9   9 3548.34 374.584  12
  10  -9   8 1656.49 249.465   4
 -10   9   8 2460.68 315.369  12
  10  -9   7 1637.62 243.448   4
 -10   9   7 1840.03 270.783  12
  10  -9   6 1900.66 244.661   4
 -10   9   6 2243.01 295.236  12
  10  -9   5 69.7290 72.1941   4
 -10   9   5 8.06219 101.266  12
 -10   9   4 2764.88 316.978  12
  10  -9   4 2628.05 268.295   4
  10   9  -3 2572.47 240.720   7
  10  -9   3 2807.63 267.776   4
 -10   9   3 2893.53 315.703  12
  10  -9   2 238.979 86.1106   4
  10   9  -2 335.108 99.9310   7
  10  -9   1 3269.06 335.036   9
  10  -9   1 2576.52 238.114   4
  10   9  -1 2588.73 243.796   7
 -10   9   1 2924.05 302.166  12
  10   9   0 741.140 134.704   7
  10  -9   0 728.911 167.541   9
 -10   9   0 854.508 182.503  12
  10  -9  -1 3202.34 329.100   9
 -10   9  -1 3464.85 308.660  12
  10  -9  -2 276.663 114.802   9
 -10   9  -2 321.597 116.552  12
  10  -9  -3 3507.68 342.812   9
 -10   9  -4 2829.23 290.778   5
 -10   9  -5 31.4918 85.5003   5
 -10   9  -6 1935.32 259.353   5
  10  -9  -6 2388.07 308.456   8
 -10   9  -7 1534.61 238.249   5
  10  -9  -7 1533.86 261.706   8
 -10   9  -8 2339.21 290.518   5
  10  -9  -8 2118.28 299.886   8
 -10   9  -9 2931.67 333.532   5
  10  -9  -9 3231.18 376.698   8
 -10   9 -10 2724.13 322.547   5
  10  -9 -10 3092.30 375.847   8
 -10   9 -11 225.345 112.459   5
  10  -9 -11 285.014 137.773   8
 -10  10  11 84.3015 93.8543  12
  10 -10  10 948.333 204.280   4
 -10  10  10 1031.37 212.540  12
  10 -10   9 608.534 153.926   4
 -10  10   9 668.694 180.456  12
  10 -10   8 1499.62 238.348   4
 -10  10   8 1981.19 290.088  12
  10 -10   7 1082.12 202.011   4
 -10  10   7 849.110 211.723  12
 -10  10   6 2713.40 330.514  12
  10 -10   6 2243.49 274.297   4
  10 -10   5 1803.28 239.643   4
 -10  10   5 2322.95 302.052  12
 -10  10   4 2790.22 317.480  12
  10 -10   4 2164.68 262.091   4
  10 -10   3 5839.39 403.472   4
 -10  10   3 8199.10 532.980  12
  10 -10   2 16.3102 67.3955   4
 -10  10   2 9.13217 83.4591  12
  10 -10   1 3084.91 332.238   9
  10 -10   1 2484.61 251.623   4
 -10  10   1 3458.15 339.714  12
  10  10   0 1126.66 167.582   7
  10 -10   0 1471.72 231.801   9
 -10  10   0 1491.51 235.036  12
  10 -10  -1 3400.09 345.373   9
 -10  10  -1 3678.01 333.228  12
  10  10   1 2460.59 251.767   7
  10 -10  -2-9.00638 118.706   9
  10 -10  -3 8434.24 545.701   9
 -10  10  -3 8156.60 494.068   5
 -10  10  -4 2141.57 255.757   5
 -10  10  -5 2061.68 254.575   5
 -10  10  -6 2179.86 267.957   5
  10 -10  -6 2278.24 309.429   8
 -10  10  -7 866.050 178.326   5
  10 -10  -7 941.591 221.392   8
 -10  10  -8 1855.56 257.626   5
  10 -10  -8 1274.85 237.618   8
 -10  10  -9 463.966 141.003   5
  10 -10  -9 400.468 156.820   8
 -10  10 -10 741.496 174.028   5
  10 -10 -10 824.897 188.509   8
 -10  10 -11-158.252 85.0711   5
  10 -10 -11 155.942 104.954   8
  10 -11  10 656.869 170.803   4
 -10  11  10 953.666 201.174  12
  10 -11   9 53.6294 68.9599   4
 -10  11   9 128.539 73.2199  12
  10 -11   8 1695.49 248.150   4
 -10  11   8 2374.93 309.301  12
  10 -11   7 216.997 109.312   4
 -10  11   7 283.466 120.619  12
 -10  11   6 1402.86 246.086  12
  10 -11   6 1486.47 230.783   4
  10 -11   5 331.030 126.703   4
 -10  11   5 552.877 157.227  12
 -10  11   4 483.312 161.664  12
  10 -11   4 333.546 114.591   4
  10 -11   3 62.3708 81.1385   4
 -10  11   3 156.638 118.549  12
  10 -11   2 390.548 136.394   9
  10 -11   2 191.727 86.3785   4
 -10  11   2 216.011 106.055  12
  10 -11   1 3664.17 363.291   9
  10 -11   1 2670.74 271.911   4
 -10  11   1 3892.92 368.427  12
  10 -11   0-150.523 138.924   9
 -10  11   0 118.321 98.6449  12
  10 -11  -1 3377.52 346.889   9
  10 -11  -2 110.226 97.0972   9
 -10  11  -2 500.610 130.006   5
 -10  11  -3 28.8285 63.6733   5
 -10  11  -4 157.714 85.3805   5
 -10  11  -5 233.469 102.050   5
 -10  11  -6 1332.68 213.829   5
  10 -11  -6 1559.42 262.653   8
 -10  11  -7 394.041 119.782   5
  10 -11  -7 282.163 127.027   8
 -10  11  -8 1537.77 231.049   5
  10 -11  -8 1618.00 268.146   8
  10 -11  -9 42.2132 78.7013   8
  10 -11 -10 623.383 173.792   8
  10 -12   8 1255.63 223.789   4
 -10  12   8 1142.30 217.016  12
  10 -12   7 325.892 117.411   4
 -10  12   7 291.355 113.112  12
  10 -12   6 78.4611 66.9627   4
 -10  12   6 327.555 137.157  12
  10 -12   5 630.532 156.322   4
 -10  12   5 1164.49 230.244  12
  10 -12   4 1350.13 223.811   4
 -10  12   4 1599.42 262.794  12
  10 -12   3 42.6897 84.6470   9
  10 -12   3 220.792 119.373   4
 -10  12   3 197.424 106.329  12
  10 -12   2 1771.39 268.117   9
  10 -12   2 1483.36 223.683   4
  10 -12   1 1330.33 228.103   9
  10 -12   0 27.1349 98.1019   9
  10 -12  -1 1011.05 199.784   9
  10 -12  -2 1702.87 265.493   9
  10 -12  -5 712.011 181.532   8
  10 -12  -6 28.4020 92.0573   8
  10 -12  -7 296.317 138.015   8
  10 -12  -8 1219.85 232.231   8
  10 -12  -9 569.472 166.421   8
  10 -13   7-22.2772 73.7020   4
  10 -13   6 59.6868 56.4789   4
  10 -13   5 59.5959 87.6198   9
  10 -13   5 381.776 131.603   4
  10 -13   4 1279.80 228.372   9
  10 -13   4 957.051 191.318   4
  10 -13   3 139.744 106.652   9
  10 -13   3-10.9244 58.5231   4
  10 -13   2 418.666 133.339   4
  10 -13   2 510.181 157.706   9
  10 -13   1 814.844 185.148   9
  10 -13   0-39.6778 111.139   9
  10 -13  -1 1033.01 206.100   9
  10 -13  -5 151.729 92.1138   8
  10 -13  -6 212.805 102.887   8
  10 -13  -7 135.179 102.426   8
  10 -14   5 306.122 129.432   9
  10 -14   5 43.5025 52.8224   4
  10 -14   4 395.924 148.953   9
  10 -14   4 416.760 128.895   4
  10 -14   3 1563.45 243.351   4
  10 -14   3 1552.41 249.977   9
  10 -14   2 358.513 128.513   9
  10 -14   1 338.010 102.245   9
  10 -14   0 2161.51 288.072   9
  10 -14  -1 145.478 97.1931   9
  10 -14  -4 505.556 160.378   8
  10 -14  -5 118.339 80.8988   8
  10 -15   2-53.8092 69.7731   9
  10 -15   1 768.473 175.872   9
  10 -15   0 73.0594 79.7769   9
  10 -15  -3 927.054 185.587   8
  11   0   0-72.5176 101.722   7
  11   0   0 172.647 71.4064   1
  11   0   0 22.8204 51.8537   9
  11   0  -1 31687.9 741.049   9
  11   0  -1 30427.1 738.395   1
  11   0  -1 31000.6 815.491   7
  11   0   2 2081.91 187.633  10
  11   0  -2 1877.73 187.809   9
  11   0  -2 2044.58 225.023   7
  11   0   3 2727.22 231.636  10
  11   0  -3 2529.95 246.525   7
  11   0  -4 777.469 110.535   6
  11   0  -4 541.754 132.899   7
  11   0  -5 107.201 53.5108   6
 -11   0  -5 354.184 116.706   5
  11   0  -5 214.108 78.2582   8
  11   0  -6-48.3823 58.8303   6
 -11   0  -6 74.3380 90.8668   5
  11   0  -6 179.144 93.0209   8
  11   0  -7 3789.21 306.898   6
 -11   0  -7 4250.27 348.964   5
  11   0  -7 4130.47 333.191   8
  11   0  -8 479.982 110.906   6
 -11   0  -8 602.961 152.465   5
  11   0  -8 690.334 147.444   8
  11   0  -9 1765.49 239.094   6
 -11   0  -9 1926.33 258.063   5
  11   0  -9 1605.31 222.654   8
  11   0 -10 260.096 109.727   6
 -11   0 -10 193.000 97.9052   5
  11   0 -10 443.233 134.414   8
  11   0 -11-94.0446 109.987   6
 -11   0 -11-43.8328 72.7891   5
  11   0 -11 85.9030 86.2232   8
  11   0 -12-40.9869 78.7133   6
 -11   0 -12-12.1204 72.5417   5
  11   0 -12 101.749 93.3486   8
  11   0 -13 46.6869 92.2943   6
 -11   0 -13-59.4593 75.7354   5
  11   0 -13-77.6907 74.4808   8
  11   0 -14 92.7246 110.025   6
  11   1 -13 447.804 154.673   6
 -11  -1 -13 468.672 142.643   5
  11  -1  13 364.572 148.330   4
  11   1 -13 362.370 125.905   8
  11   1 -12 2485.05 325.945   6
  11  -1  12 1795.32 289.197   4
 -11  -1 -12 1808.11 262.058   5
  11   1 -12 1747.42 248.444   8
  11   1 -11 2343.98 301.691   6
 -11  -1 -11 2581.92 306.236   5
  11   1 -11 1989.38 263.583   8
  11   1 -10 4158.64 390.130   6
 -11  -1 -10 4512.93 385.432   5
  11   1 -10 3773.48 343.458   8
  11   1  -9 4370.21 377.239   6
 -11  -1  -9 4869.49 392.710   5
  11   1  -9 4174.23 347.013   8
  11   1  -8 4228.87 348.456   6
 -11  -1  -8 4290.75 353.601   5
  11   1  -8 3730.42 312.924   8
 -11  -1  -7 2887.54 283.159   5
  11   1  -7 2738.68 258.043   8
 -11  -1  -6 4725.20 353.127   5
  11   1  -6 4819.79 331.727   8
  11  -1   5 2989.33 245.766   4
 -11  -1  -5 3243.98 288.917   5
  11   1  -5 2848.04 245.863   8
  11   1  -4 1175.74 154.075   8
  11   1  -4 1369.79 198.035   7
  11  -1   3 9220.90 411.093  10
  11   1  -3 9536.24 479.605   7
  11   1  -2 744.016 113.633   9
  11   1  -2 663.615 137.980   7
  11   1  -1 14124.6 564.063   7
  11   1  -1 13327.9 450.839   9
  11   1  -1 13427.2 478.214   1
  11  -1   0 126.433 69.8184   7
  11   1   0 141.246 88.1610   7
  11   1   0 120.232 55.9312   9
  11  -1   0 232.654 80.9951   9
  11   1   0 300.569 89.0358   1
 -11  -1   1 10619.5 440.509  11
  11   1   1 13613.2 539.225   1
  11  -1  -1 13048.0 498.013   1
  11   1   1 12431.7 460.879  10
  11  -1  -1 13870.3 514.801   9
  11  -1  -1 13688.3 534.959   7
 -11  -1   2 622.367 105.173  11
  11   1   2 702.576 119.936  10
  11  -1  -2 855.163 134.213   9
  11  -1  -2 717.984 135.975   7
  11  -1  -3 9706.40 442.981   9
  11  -1  -3 8966.52 451.378   7
  11  -1  -4 1324.94 143.506   6
  11  -1  -4 1480.03 195.166   7
  11  -1  -5 2855.78 227.884   6
 -11   1  -5 3122.18 300.046   5
  11  -1  -5 2859.58 267.943   8
  11  -1  -6 5196.75 330.399   6
 -11   1  -6 5523.38 399.352   5
  11  -1  -6 5169.42 367.920   8
  11  -1  -7 2533.06 249.887   6
 -11   1  -7 2759.33 298.084   5
  11  -1  -7 2899.69 288.096   8
  11  -1  -8 4267.16 347.203   6
 -11   1  -8 4665.00 385.271   5
  11  -1  -8 4126.53 352.309   8
  11  -1  -9 4296.37 367.922   6
 -11   1  -9 4858.71 407.400   5
  11  -1  -9 4305.91 375.296   8
  11  -1 -10 3734.79 363.285   6
 -11   1 -10 4580.20 405.937   5
  11  -1 -10 4095.43 375.889   8
  11  -1 -11 2546.29 312.184   6
 -11   1 -11 2707.89 324.877   5
  11  -1 -11 2310.29 291.916   8
  11  -1 -12 2284.24 305.458   6
 -11   1 -12 2347.67 305.553   5
  11  -1 -12 1712.34 264.776   8
  11  -1 -13 312.864 104.854   6
 -11   1 -13 540.788 165.911   5
  11  -1 -13 503.264 156.864   8
  11   2 -13 1046.49 218.884   6
  11  -2  13 624.163 182.912   4
  11   2 -12 845.412 187.521   6
  11  -2  12 531.208 147.526   4
 -11  -2 -12 842.790 183.284   5
  11   2 -11 2121.68 289.126   6
 -11  -2 -11 2146.48 271.062   5
  11  -2  11 1918.73 279.189   4
  11   2 -10 2072.32 277.982   6
  11  -2  10 1643.18 251.846   4
 -11  -2 -10 1737.19 235.647   5
  11   2 -10 1483.35 209.578   8
 -11  -2  -9 4649.66 374.926   5
  11  -2   9 4495.73 393.024   4
  11   2  -9 3752.12 314.893   8
  11  -2   8 1357.88 205.745   4
 -11  -2  -8 1356.86 200.802   5
  11   2  -8 1099.04 169.658   8
  11  -2   7 11749.7 552.882   4
 -11  -2  -7 10611.4 525.484   5
  11  -2   6 4301.56 318.667   4
 -11  -2  -6 4277.01 326.741   5
  11   2  -6 3503.71 264.729   8
  11  -2   5 3508.70 262.843   4
 -11  -2  -5 3890.57 306.725   5
  11   2  -5 3259.97 245.925   8
 -11  -2  -4 7671.47 411.384   5
  11   2  -4 6470.17 326.401   8
  11   2  -4 8244.54 451.925   7
  11   2  -3 100.442 51.8233   8
  11   2  -3 240.123 99.1668   7
  11   2  -2 11970.6 465.485   3
  11   2  -2 13899.2 566.935   7
  11   2  -1 7251.10 309.581   9
  11   2  -1 6990.98 335.677   3
  11   2  -1 8834.52 451.600   7
  11  -2   1 7993.16 406.625   7
 -11  -2   0 14220.4 506.493  11
  11   2   0 14415.4 437.975   9
  11  -2   0 16528.2 581.760   9
  11   2   0 16835.0 557.732   1
  11  -2   0 17135.9 586.329   7
 -11  -2   1 6679.08 331.937  11
  11   2   1 7966.62 396.880  10
  11  -2  -1 8378.27 417.443   9
  11   2   1 7783.08 327.934   9
  11  -2  -1 8323.88 409.990   7
  11   2   2 12118.7 516.345  10
  11  -2  -2 13378.8 533.536   9
  11  -2  -2 12508.0 512.999   7
  11  -2  -3 200.783 88.1034   9
  11  -2  -3 152.892 77.2369   7
  11  -2  -5 3989.67 271.820   6
 -11   2  -5 5003.32 375.145   5
  11  -2  -6 4589.61 316.626   6
 -11   2  -6 4742.02 379.878   5
  11  -2  -6 4193.04 341.479   8
  11  -2  -7 11143.2 524.902   6
 -11   2  -7 12540.6 621.955   5
  11  -2  -7 10673.0 562.766   8
  11  -2  -8 1238.81 193.843   6
 -11   2  -8 1354.45 220.397   5
  11  -2  -8 1610.50 229.370   8
  11  -2  -9 4646.00 382.331   6
 -11   2  -9 4955.04 415.458   5
  11  -2  -9 4206.25 380.197   8
  11  -2 -10 1747.01 248.978   6
 -11   2 -10 2611.31 322.375   5
  11  -2 -10 2033.23 273.637   8
  11  -2 -11 2342.92 304.728   6
 -11   2 -11 2514.37 315.659   5
  11  -2 -11 2616.21 317.835   8
  11  -2 -12 768.858 183.051   6
 -11   2 -12 968.842 205.414   5
  11  -2 -12 710.454 162.818   8
  11  -2 -13 526.953 160.170   6
 -11   2 -13 835.135 197.758   5
  11  -2 -13 457.958 154.737   8
  11   3 -13-30.4979 90.4394   6
  11  -3  13-250.079 125.701   4
 -11   3  12 503.354 147.562  12
  11   3 -12 341.520 139.501   6
 -11  -3 -12 307.355 111.446   5
  11  -3  12 640.647 193.781   4
  11  -3  11 755.343 180.886   4
 -11  -3 -11 911.973 177.098   5
  11  -3  10 129.845 90.9198   4
 -11  -3 -10 132.251 87.9446   5
  11  -3   9 253.474 99.8597   4
 -11  -3  -9 311.250 105.613   5
  11  -3   8 1512.00 222.360   4
 -11  -3  -8 1403.62 199.468   5
  11  -3   7 2100.19 242.583   4
 -11  -3  -7 1721.78 212.198   5
  11  -3   6 2376.25 236.003   4
 -11  -3  -6 2470.37 240.700   5
  11  -3   5 200.706 76.4814   4
 -11  -3  -5 25.0192 52.1076   5
 -11  -3  -4 200.731 82.7885   5
  11   3  -4 215.924 110.453   7
  11   3  -3 1647.53 207.837   7
  11   3  -2 924.178 156.191   7
  11   3  -1 1218.51 175.560   7
  11   3  -1 1475.69 167.885   3
  11  -3   1 1573.50 180.339   7
 -11  -3   0 2839.96 221.248  11
  11  -3   0 2991.56 268.210   9
  11  -3   0 2954.28 246.130   7
  11  -3  -1 1304.79 180.495   9
  11  -3  -1 1537.71 185.260   7
  11  -3  -2 1250.62 174.682   9
  11  -3  -2 900.172 141.021   7
  11  -3  -3 1563.65 195.747   9
  11  -3  -3 1629.61 196.619   7
 -11   3  -5 153.560 108.300   5
 -11   3  -6 2476.26 286.320   5
  11  -3  -6 2610.07 283.808   8
  11  -3  -7 2038.07 228.602   6
 -11   3  -7 2451.06 287.036   5
  11  -3  -7 1976.07 252.881   8
  11  -3  -8 1527.91 212.228   6
 -11   3  -8 1759.42 252.574   5
  11  -3  -8 1247.62 214.406   8
  11  -3  -9 349.116 117.443   6
  11  -3  -9 296.814 136.897   8
  11  -3 -10 234.646 112.934   6
 -11   3 -10 450.334 154.647   5
  11  -3 -10 355.710 133.562   8
 -11   3 -11 875.811 198.484   5
  11  -3 -11 630.375 164.364   8
 -11   3 -12 805.160 197.055   5
  11  -3 -12 564.242 165.525   8
 -11   3 -13-27.7596 68.7428   5
  11  -3 -13-105.786 76.8623   8
  11  -4  13 450.370 147.730   4
  11   4 -13 188.895 83.8902   6
 -11   4  12 586.659 154.400  12
  11  -4  12 875.862 199.215   4
 -11   4  11 1864.82 276.405  12
 -11  -4 -11 1744.89 230.954   5
  11  -4  11 1779.25 262.440   4
  11  -4  10 2303.56 286.104   4
 -11  -4 -10 2277.27 260.206   5
  11  -4   9 7459.46 487.886   4
 -11  -4  -9 6762.48 425.318   5
  11  -4   8 5618.36 403.077   4
 -11  -4  -8 5260.96 364.615   5
  11  -4   7 3036.28 279.822   4
 -11  -4  -7 3146.56 277.253   5
  11  -4   6 2612.25 246.891   4
 -11  -4  -6 2243.71 226.033   5
  11  -4   5 2312.00 215.962   4
 -11  -4  -5 2104.48 211.482   5
  11  -4   4 7235.46 347.848   4
 -11  -4  -4 6731.05 366.243   5
  11   4  -4 7735.24 445.173   7
 -11  -4  -3 1972.20 199.123   5
  11   4  -3 2499.27 256.158   7
  11   4  -2 14277.7 580.959   7
  11  -4   2 12916.1 498.446   7
  11   4  -1 1558.29 202.117   7
  11  -4   1 1412.95 164.780   7
  11  -4   0 7332.99 426.934   9
  11  -4   0 6619.95 356.317   7
  11  -4  -1 1581.59 206.489   9
  11  -4  -1 1316.20 165.280   7
  11  -4  -2 14517.9 599.070   9
  11  -4  -2 13515.2 530.880   7
  11  -4  -3 2407.99 253.602   9
 -11   4  -3 2212.90 206.833  12
 -11   4  -5 2728.32 311.334   5
 -11   4  -6 2334.26 305.747   5
  11  -4  -6 3127.42 322.021   8
 -11   4  -7 3233.63 337.517   5
  11  -4  -7 3212.30 332.443   8
 -11   4  -8 6340.67 470.908   5
  11  -4  -8 6174.77 469.446   8
 -11   4  -9 7812.34 538.420   5
  11  -4  -9 7633.02 534.827   8
 -11   4 -10 1922.25 274.673   5
  11  -4 -10 2321.18 313.542   8
 -11   4 -11 2514.79 325.150   5
  11  -4 -11 2011.10 291.064   8
 -11   4 -12 979.941 215.783   5
  11  -4 -12 820.597 194.228   8
 -11   4 -13 423.522 172.256   5
  11  -4 -13 269.982 121.590   8
  11  -5  13 170.504 99.6395   4
  11   5 -13 58.6644 93.4440   6
  11  -5  12 881.027 189.545   4
 -11   5  12 878.963 190.757  12
 -11   5  11 1803.45 270.046  12
  11  -5  11 2602.44 312.852   4
 -11   5  10 878.501 206.267  12
  11  -5  10 808.090 182.652   4
 -11   5   9 458.028 159.607  12
  11  -5   9 719.853 166.952   4
  11  -5   8 676.889 155.049   4
 -11  -5  -8 597.371 124.362   5
  11  -5   7 4405.85 340.175   4
 -11  -5  -7 3964.30 292.203   5
  11  -5   6 3429.85 285.285   4
 -11  -5  -6 3355.60 262.741   5
  11  -5   5 9531.63 442.328   4
 -11  -5  -5 8482.99 398.683   5
  11  -5   4 1525.85 169.116   4
 -11  -5  -4 1224.10 152.528   5
  11   5  -4 1736.73 217.364   7
 -11  -5  -3 5257.99 299.070   5
  11   5  -3 7026.38 422.235   7
  11  -5   3 6120.67 336.730   7
  11  -5   2 1173.28 144.963   7
  11   5  -2 1322.96 186.619   7
  11  -5   1 10083.5 426.975   7
  11   5  -1 11606.5 528.104   7
  11  -5   0 1210.41 193.425   9
  11  -5   0 1113.69 146.663   7
  11  -5  -1 12028.2 561.077   9
  11  -5  -1 10361.1 448.740   7
 -11   5  -1 11538.8 524.586  12
 -11   5  -2 1322.07 172.862  12
  11  -5  -2 1235.17 198.432   9
  11  -5  -3 6678.26 428.734   9
 -11   5  -3 6980.56 372.318  12
 -11   5  -5 10287.0 582.474   5
 -11   5  -6 3895.54 382.153   5
  11  -5  -6 4080.51 375.918   8
 -11   5  -7 5125.11 422.879   5
  11  -5  -7 4255.38 390.329   8
 -11   5  -8 630.425 168.383   5
  11  -5  -8 685.423 171.039   8
 -11   5  -9 581.036 143.756   5
  11  -5  -9 656.694 174.706   8
 -11   5 -10 665.432 172.300   5
  11  -5 -10 1002.36 215.695   8
 -11   5 -11 2634.60 332.301   5
  11  -5 -11 2713.01 347.129   8
 -11   5 -12 876.594 203.636   5
  11  -5 -12 1246.94 241.395   8
 -11   5 -13-4.06281 80.0895   5
  11  -5 -13 100.339 90.6330   8
  11  -6  12 133.181 104.237   4
 -11   6  12 116.787 76.6408  12
  11  -6  11 224.994 105.391   4
 -11   6  11 378.693 157.346  12
  11  -6  10 328.853 117.333   4
 -11   6  10 398.211 154.027  12
  11  -6   9 364.898 101.828   4
 -11   6   9 321.714 132.854  12
 -11   6   8 863.307 206.682  12
  11  -6   8 806.372 167.934   4
  11  -6   7 2921.90 290.001   4
 -11   6   7 2795.82 324.537  12
 -11   6   6 180.977 113.248  12
  11  -6   6 216.199 88.6249   4
 -11   6   5 1224.04 211.777  12
  11  -6   5 1176.48 164.153   4
  11  -6   4 1814.70 194.436   4
  11   6  -4 2041.28 232.058   7
 -11   6   4 2423.06 295.552  12
 -11   6   3 4763.44 395.647  12
  11   6  -3 4804.10 349.405   7
  11  -6   3 4581.40 276.968   7
 -11   6   2 116.423 88.9020  12
  11   6  -2 148.141 81.6627   7
  11  -6   2 105.845 54.3624   7
 -11   6   1 21.5824 86.2334  12
  11   6  -1 58.6339 59.4007   7
  11  -6   1 52.5403 47.1379   7
  11  -6   0 2435.83 280.005   9
  11  -6   0 2288.45 204.497   7
  11   6   0 2632.65 267.192   7
 -11   6   0 2537.31 260.223  12
 -11   6  -1 255.117 97.1525  12
  11  -6  -1 102.530 89.3331   9
  11  -6  -2 90.6310 98.2509   9
 -11   6  -2 93.1295 59.7423  12
  11  -6  -3 5232.59 394.147   9
 -11   6  -3 5053.21 323.409  12
 -11   6  -5 1103.80 222.300   5
 -11   6  -6 158.853 119.487   5
  11  -6  -6 311.476 136.218   8
 -11   6  -7 2911.27 323.703   5
  11  -6  -7 2831.95 328.080   8
 -11   6  -8 1036.03 204.078   5
  11  -6  -8 746.628 199.140   8
 -11   6  -9 916.767 201.196   5
  11  -6  -9 474.145 160.450   8
 -11   6 -10 232.685 120.797   5
  11  -6 -10 248.132 127.064   8
 -11   6 -11 232.532 134.662   5
  11  -6 -11 311.763 139.407   8
 -11   6 -12 223.298 124.029   5
  11  -6 -12 33.1213 86.0159   8
  11  -7  12 240.729 98.8797   4
 -11   7  12 194.521 105.405  12
  11  -7  11 548.176 168.340   4
 -11   7  11 214.267 106.316  12
  11  -7  10 1714.26 250.854   4
 -11   7  10 1752.75 272.643  12
  11  -7   9 3165.48 324.272   4
 -11   7   9 3614.82 389.315  12
  11  -7   8 947.558 174.501   4
 -11   7   8 968.092 210.251  12
  11  -7   7 2594.94 274.318   4
 -11   7   7 3170.40 352.781  12
 -11   7   6 1397.97 239.353  12
  11  -7   6 961.898 162.174   4
  11  -7   5 3107.84 276.338   4
 -11   7   5 3521.48 361.273  12
  11  -7   4 2631.59 242.743   4
  11   7  -4 3228.61 293.850   7
 -11   7   4 3161.57 337.284  12
  11   7  -3 14968.8 618.600   7
 -11   7   3 16659.2 731.275  12
 -11   7   2 189.519 112.077  12
  11   7  -2 191.055 91.8702   7
  11   7  -1 12706.7 566.798   7
 -11   7   1 13332.9 621.069  12
  11  -7   0 1808.94 250.732   9
  11   7   0 2270.85 249.400   7
 -11   7   0 2448.97 264.464  12
  11  -7  -1 14189.1 655.927   9
 -11   7  -1 13510.6 592.190  12
  11  -7  -2 12.8665 102.831   9
 -11   7  -2 141.434 89.6612  12
  11  -7  -3 16651.8 722.169   9
 -11   7  -3 18256.1 625.428  12
 -11   7  -4 3821.68 352.065   5
 -11   7  -5 2745.56 305.391   5
 -11   7  -6 1394.84 230.669   5
  11  -7  -6 1587.80 249.618   8
 -11   7  -7 2725.00 317.471   5
  11  -7  -7 2639.73 327.119   8
 -11   7  -8 823.516 180.735   5
  11  -7  -8 1092.34 215.024   8
 -11   7  -9 3470.85 370.207   5
  11  -7  -9 3606.44 393.724   8
 -11   7 -10 2069.77 293.759   5
  11  -7 -10 2138.13 315.310   8
 -11   7 -11 689.098 181.527   5
  11  -7 -11 593.984 169.748   8
 -11   7 -12 416.466 148.064   5
  11  -7 -12 113.768 86.0158   8
  11  -8  11 609.713 154.351   4
 -11   8  11 663.578 173.882  12
  11  -8  10 624.500 159.056   4
 -11   8  10 732.568 174.305  12
  11  -8   9 83.2035 69.6788   4
 -11   8   9-23.8820 102.996  12
  11  -8   8 877.604 179.863   4
 -11   8   8 1044.10 222.442  12
  11  -8   7 20.0271 55.3588   4
 -11   8   7 139.286 131.881  12
  11  -8   6 4621.60 361.670   4
 -11   8   6 5434.01 458.744  12
  11  -8   5 805.212 152.861   4
 -11   8   5 671.986 180.948  12
  11   8  -4 4777.20 352.083   7
 -11   8   4 5756.95 453.098  12
  11  -8   4 4739.94 342.325   4
  11   8  -3 838.821 149.137   7
 -11   8   3 1113.38 204.265  12
  11   8  -2 3425.00 298.799   7
 -11   8   2 2939.40 309.353  12
  11   8  -1 602.387 139.033   7
  11  -8   1 303.643 135.684   9
 -11   8   1 484.404 128.904  12
  11  -8   0 5293.90 424.852   9
  11   8   0 4660.18 352.211   7
 -11   8   0 5596.69 406.628  12
  11  -8  -1 138.679 120.339   9
 -11   8  -1 534.857 137.827  12
  11  -8  -2 3585.30 348.248   9
 -11   8  -2 3803.73 312.139  12
  11  -8  -3 980.951 197.765   9
 -11   8  -3 960.958 152.371  12
 -11   8  -4 5679.87 434.591   5
 -11   8  -5 1018.27 191.902   5
 -11   8  -6 4770.60 403.732   5
  11  -8  -6 4833.81 446.436   8
 -11   8  -7 90.4581 90.5571   5
  11  -8  -7 19.1383 86.7553   8
 -11   8  -8 919.898 211.107   5
  11  -8  -8 1080.70 231.336   8
 -11   8  -9-50.8946 73.9643   5
  11  -8  -9-44.9162 90.8309   8
 -11   8 -10 1067.53 230.374   5
  11  -8 -10 970.617 214.019   8
 -11   8 -11 1131.33 216.189   5
  11  -8 -11 724.966 192.059   8
  11  -9  11 560.662 161.381   4
 -11   9  11 522.684 149.907  12
  11  -9  10 100.930 78.8429   4
 -11   9  10 102.675 81.4624  12
  11  -9   9 1031.23 202.077   4
 -11   9   9 877.706 198.220  12
  11  -9   8 379.141 126.724   4
 -11   9   8 379.861 130.810  12
  11  -9   7 1181.19 200.010   4
 -11   9   7 1124.39 209.622  12
 -11   9   6-46.4356 113.465  12
  11  -9   6-10.7701 59.5899   4
  11  -9   5 439.256 120.670   4
 -11   9   5 690.274 177.198  12
  11  -9   4 1901.07 230.791   4
 -11   9   4 2371.93 305.988  12
  11   9  -3 95.7406 68.9472   7
 -11   9   3 90.9670 105.102  12
  11   9  -2 25.3342 49.5882   7
 -11   9   2-220.954 121.148  12
  11  -9   1 3143.74 343.190   9
  11   9  -1 2653.27 264.557   7
 -11   9   1 2865.35 307.458  12
  11  -9   0 4978.33 420.206   9
  11   9   0 4259.13 336.284   7
 -11   9   0 5389.51 403.959  12
  11  -9  -1 3373.94 347.468   9
 -11   9  -1 2879.78 294.882  12
  11   9   1 2807.77 283.251   7
  11  -9  -2 145.395 100.297   9
 -11   9  -2 5.37229 55.6254  12
  11  -9  -3 139.483 126.826   9
 -11   9  -3 66.6876 64.7183  12
 -11   9  -4 1975.53 262.275   5
 -11   9  -5 936.330 190.054   5
 -11   9  -6 256.663 119.031   5
  11  -9  -6 121.320 90.0935   8
 -11   9  -7 1267.26 219.572   5
  11  -9  -7 1130.38 224.539   8
 -11   9  -8 453.079 155.138   5
  11  -9  -8 221.192 116.947   8
 -11   9  -9 863.421 193.140   5
  11  -9  -9 994.736 225.009   8
 -11   9 -10 194.192 111.586   5
  11  -9 -10 235.817 130.889   8
 -11   9 -11 439.396 137.790   5
  11  -9 -11 704.116 189.954   8
  11 -10  10 476.206 145.708   4
 -11  10  10 842.552 189.641  12
  11 -10   9 592.090 154.110   4
 -11  10   9 892.809 201.021  12
 -11  10   8 2209.25 299.348  12
  11 -10   8 2323.52 289.839   4
  11 -10   7 825.342 172.311   4
 -11  10   7 1103.85 220.861  12
 -11  10   6 3144.37 360.876  12
  11 -10   6 2050.23 260.137   4
  11 -10   5 1582.73 229.053   4
 -11  10   5 1976.90 283.724  12
  11 -10   4 5399.65 394.843   4
 -11  10   4 8062.76 551.659  12
 -11  10   3 1146.39 218.050  12
  11 -10   2 9547.91 599.440   9
 -11  10   2 9734.85 580.648  12
  11 -10   1 249.429 129.541   9
 -11  10   1 428.985 153.958  12
  11 -10   0 6122.93 469.309   9
  11  10   0 5056.37 365.513   7
 -11  10   0 6808.62 465.589  12
  11  10   1 118.924 69.7281   7
  11 -10  -1 102.402 98.9607   9
 -11  10  -1 235.766 101.302  12
  11 -10  -2 9631.59 587.388   9
  11 -10  -3 947.696 207.094   9
 -11  10  -3 894.637 177.890   5
 -11  10  -4 6817.87 479.963   5
 -11  10  -5 1632.26 240.427   5
 -11  10  -6 2347.79 294.198   5
  11 -10  -6 2331.23 309.915   8
 -11  10  -7 747.979 172.439   5
  11 -10  -7 993.795 217.820   8
 -11  10  -8 2456.02 296.366   5
  11 -10  -8 2117.08 308.179   8
 -11  10  -9 627.092 159.207   5
  11 -10  -9 500.635 162.526   8
 -11  10 -10 491.838 143.948   5
  11 -10 -10 746.787 187.586   8
  11 -11   9 94.7702 65.9995   4
 -11  11   9 145.322 94.2775  12
  11 -11   8 361.544 132.551   4
 -11  11   8 564.900 156.165  12
  11 -11   7 539.920 138.924   4
 -11  11   7 794.739 201.455  12
  11 -11   6 325.623 116.984   4
 -11  11   6 263.749 128.151  12
  11 -11   5 1773.15 243.659   4
 -11  11   5 2561.00 330.513  12
 -11  11   4 560.460 160.896  12
  11 -11   3 1583.20 260.217   9
 -11  11   3 1771.85 263.601  12
  11 -11   2 503.377 158.443   9
 -11  11   2 432.936 147.567  12
  11 -11   1 352.028 130.289   9
 -11  11   1 636.809 160.561  12
  11 -11   0 66.6935 99.2360   9
 -11  11   0 458.643 139.136  12
  11 -11  -1 677.005 174.962   9
  11 -11  -2 447.399 145.279   9
 -11  11  -2 530.817 140.606   5
 -11  11  -3 1070.59 190.283   5
 -11  11  -4 483.719 143.118   5
 -11  11  -5 2313.03 280.354   5
 -11  11  -6 98.4771 80.9667   5
  11 -11  -6-73.2755 111.932   8
 -11  11  -7 805.558 172.791   5
  11 -11  -7 656.825 184.489   8
 -11  11  -8 839.753 188.010   5
  11 -11  -8 484.566 160.336   8
  11 -11  -9 226.782 131.839   8
  11 -12   8 1716.00 254.371   4
 -11  12   8 2627.45 329.801  12
  11 -12   7 124.473 87.7694   4
 -11  12   7 170.312 94.4166  12
  11 -12   6 745.681 164.544   4
 -11  12   6 1346.07 229.161  12
 -11  12   5 704.801 185.642  12
  11 -12   4 915.320 208.295   9
 -11  12   4 1374.34 241.744  12
  11 -12   3 272.699 140.465   9
 -11  12   3 370.132 154.818  12
  11 -12   2 1173.63 207.071   9
 -11  12   2 1608.54 257.850  12
  11 -12   1 3497.54 366.644   9
  11 -12   0 1889.25 271.623   9
  11 -12  -1 3539.24 366.226   9
  11 -12  -2 1545.40 248.980   9
  11 -12  -5 492.411 156.043   8
  11 -12  -6 780.178 186.361   8
  11 -12  -7 81.4162 77.9290   8
  11 -12  -8 1837.29 287.172   8
  11 -13   5 2279.95 312.796   9
  11 -13   4 450.457 162.282   9
  11 -13   3 2715.27 330.094   9
  11 -13   2-6.12519 93.7908   9
  11 -13   1 1274.76 231.424   9
  11 -13   0-157.131 116.966   9
  11 -13  -1 1513.05 250.587   9
  11 -13  -5 2577.43 329.786   8
  11 -13  -6 520.541 158.249   8
  11 -14   4 715.376 190.604   9
  11 -14   3 428.591 151.261   9
  11 -14   2 463.385 159.861   9
  11 -14   1-59.3727 86.9820   9
  11 -14   0 25.4548 70.4230   9
  11 -14  -4 306.539 122.970   8
  12   0   0 4345.71 289.271   9
  12   0   0 4596.08 338.361   7
  12   0  -1 3124.72 246.363   9
  12   0   1 2866.56 239.243   9
  12   0  -1 3121.61 285.616   7
  12   0  -2 7084.59 370.381   9
  12   0  -2 7013.35 436.696   7
  12   0  -3 4826.10 375.040   7
  12   0  -4 23359.7 826.029   7
 -12   0  -5 3332.80 312.309   5
  12   0  -5 2791.51 262.049   8
  12   0  -6 18799.6 629.499   6
  12   0  -6 17226.6 666.097   8
  12   0  -7 5744.95 377.922   6
 -12   0  -7 6367.50 442.890   5
  12   0  -7 5604.20 393.423   8
  12   0  -8 224.965 68.3432   6
 -12   0  -8 246.115 118.340   5
  12   0  -8 122.412 87.0989   8
  12   0  -9 2021.32 251.042   6
 -12   0  -9 2117.60 279.787   5
  12   0  -9 1947.35 251.718   8
  12   0 -10 297.777 124.397   6
 -12   0 -10 315.705 126.546   5
  12   0 -10 155.285 88.9473   8
  12   0 -11 405.585 126.295   6
 -12   0 -11 728.618 172.001   5
  12   0 -11 413.997 130.569   8
  12   0 -12 366.787 133.115   6
  12   0  12 342.813 137.227   4
 -12   0 -12 528.472 159.270   5
  12   0 -12 315.392 118.526   8
  12   0 -13 1153.00 217.518   6
  12   0  13 1441.85 251.924   4
 -12   0 -13 1274.73 224.135   5
  12   0 -13 648.900 163.208   8
  12   1 -13 373.711 135.468   6
 -12  -1 -13 560.603 155.272   5
  12  -1  13 780.573 182.638   4
  12   1 -12 639.683 171.842   6
  12  -1  12 682.476 185.542   4
 -12  -1 -12 522.735 144.068   5
  12   1 -11 182.071 108.651   6
  12  -1  11 60.4315 77.1831   4
 -12  -1 -11 58.2857 75.7861   5
  12   1 -11 94.8159 69.5837   8
  12   1 -10 1032.95 194.211   6
  12  -1  10 1030.05 213.458   4
 -12  -1 -10 756.588 164.600   5
  12   1 -10 766.153 154.258   8
  12   1  -9 366.753 111.201   6
  12  -1   9 745.257 171.767   4
 -12  -1  -9 616.859 160.176   5
  12   1  -9 505.351 142.437   8
  12   1  -8 2341.92 257.337   6
  12  -1   8 1960.08 245.958   4
 -12  -1  -8 2169.82 271.143   5
  12   1  -8 2133.47 248.166   8
  12   1  -7 1686.04 206.413   6
  12  -1   7 1739.15 222.615   4
 -12  -1  -7 2052.41 253.335   5
  12   1  -7 1640.74 208.123   8
  12   1  -6 11100.2 490.361   6
 -12  -1  -6 11315.2 563.355   5
  12   1  -6 9237.50 466.545   8
 -12  -1  -5 1116.05 189.896   5
  12   1  -5 967.925 149.004   8
  12   1  -4 7425.53 388.382   8
  12   1  -4 10246.5 532.475   7
  12   1  -3 4130.75 334.795   7
  12   1  -2 7397.11 434.369   7
  12   1  -1 2216.68 196.588   9
  12   1  -1 2305.15 252.678   7
  12  -1   1 2636.23 260.173   7
  12   1   0 5682.16 312.372   9
  12  -1   0 6478.94 367.085   9
  12  -1   0 7069.65 411.898   7
  12   1   0 7429.74 435.851   7
  12  -1  -1 2735.91 243.824   9
  12   1   1 2417.89 209.089   9
  12  -1  -1 2747.24 257.472   7
  12  -1  -2 7751.00 406.713   9
  12  -1  -2 6489.13 424.418   7
  12  -1  -3 3881.19 338.512   7
 -12   1  -5 1219.36 198.738   5
  12  -1  -5 908.914 160.497   8
  12  -1  -6 10539.5 472.719   6
 -12   1  -6 11477.7 598.330   5
  12  -1  -6 10478.9 533.781   8
  12  -1  -7 1874.70 215.091   6
 -12   1  -7 1948.39 254.713   5
  12  -1  -7 1659.96 225.745   8
  12  -1  -8 1986.07 237.851   6
 -12   1  -8 2367.99 289.110   5
  12  -1  -8 2317.73 268.419   8
  12  -1  -9 538.867 141.688   6
 -12   1  -9 706.387 176.146   5
  12  -1  -9 884.104 179.425   8
  12  -1 -10 875.999 179.562   6
 -12   1 -10 796.160 186.178   5
  12  -1 -10 699.825 162.221   8
  12  -1 -11-10.7477 78.3727   6
 -12   1 -11 163.870 105.273   5
  12  -1 -11 73.8633 70.2350   8
  12  -1 -12 766.156 175.588   6
 -12   1 -12 875.594 199.644   5
  12  -1 -12 636.527 168.170   8
  12  -1 -13 643.815 178.874   6
 -12   1 -13 795.094 185.521   5
  12  -1 -13 517.533 149.035   8
  12   2 -13 699.976 189.843   6
  12  -2  13 905.945 195.938   4
  12   2 -12 1036.01 210.962   6
  12  -2  12 870.247 194.690   4
 -12  -2 -12 802.827 173.582   5
  12   2 -11 761.094 171.509   6
  12  -2  11 934.520 205.130   4
 -12  -2 -11 858.058 182.277   5
  12   2 -10 300.406 125.944   6
  12  -2  10 63.5587 75.5060   4
 -12  -2 -10 266.428 112.160   5
  12   2  -9 1528.70 226.908   6
 -12  -2  -9 1832.97 248.370   5
  12  -2   9 1710.01 239.912   4
  12  -2   8 168.080 83.8269   4
 -12  -2  -8 89.7775 91.4818   5
  12  -2   7 3679.37 311.483   4
 -12  -2  -7 3433.69 314.380   5
 -12  -2  -6 3664.77 320.299   5
 -12  -2  -5 4184.03 332.748   5
 -12  -2  -4 7933.15 442.353   5
  12   2  -4 8205.51 480.424   7
  12   2  -3 68.8342 91.4507   7
  12   2  -2 3854.21 319.878   7
  12   2  -1 399.525 117.213   7
  12  -2   1 596.791 129.477   7
  12  -2   0-80.8272 83.1657   7
  12   2   0 33.3873 86.8842   7
  12  -2   0 85.7862 66.3851   9
  12  -2  -1 539.337 118.186   9
  12  -2  -1 570.293 132.806   7
  12  -2  -2 3560.69 288.283   9
  12  -2  -2 3568.34 294.994   7
  12  -2  -3 220.599 99.2124   9
  12  -2  -3 145.412 86.0989   7
 -12   2  -5 5129.14 403.836   5
 -12   2  -6 4630.59 388.688   5
  12  -2  -6 4116.08 346.313   8
  12  -2  -7 2923.46 270.365   6
 -12   2  -7 3556.87 355.038   5
  12  -2  -7 3482.55 329.846   8
  12  -2  -8 315.672 109.528   6
 -12   2  -8 173.374 104.792   5
  12  -2  -8 69.5468 82.9852   8
  12  -2  -9 1353.42 209.216   6
 -12   2  -9 1941.29 274.917   5
  12  -2  -9 1953.87 272.882   8
  12  -2 -10 153.059 82.8998   6
 -12   2 -10 147.281 92.7852   5
  12  -2 -10 143.116 107.551   8
  12  -2 -11 897.728 187.496   6
 -12   2 -11 733.628 185.376   5
  12  -2 -11 769.037 187.145   8
 -12   2 -12 1254.23 243.716   5
  12  -2 -12 627.513 160.528   8
 -12   2 -13 909.246 196.505   5
  12  -2 -13 804.196 181.581   8
  12   3 -13 341.888 116.809   6
  12  -3  13 268.131 114.729   4
  12   3 -12 2851.59 345.998   6
 -12  -3 -12 2743.58 305.481   5
  12  -3  12 2698.41 323.485   4
 -12   3  12 2721.99 328.695  12
  12   3 -11 225.075 102.396   6
  12  -3  11 451.214 139.215   4
 -12  -3 -11 374.459 107.286   5
  12  -3  10 2346.38 294.769   4
 -12  -3 -10 1680.63 234.214   5
  12  -3   9 1307.03 212.620   4
 -12  -3  -9 1679.91 233.536   5
  12  -3   8 1218.12 193.800   4
 -12  -3  -8 1524.36 222.664   5
  12  -3   7 7069.46 424.396   4
 -12  -3  -7 7131.79 441.157   5
 -12  -3  -6 4912.92 356.894   5
 -12  -3  -5 11509.0 527.747   5
 -12  -3  -4 5189.51 350.866   5
  12   3  -4 5288.46 384.976   7
  12   3  -3 5684.57 391.972   7
  12   3  -2 11583.4 554.464   7
  12  -3   2 11521.1 508.082   7
  12  -3   1 8694.65 438.811   7
  12   3  -1 9391.48 490.743   7
  12   3   0 1023.15 175.380   7
  12  -3   0 1098.52 171.224   9
  12  -3   0 1150.78 164.780   7
  12  -3  -1 9557.25 484.344   9
  12  -3  -1 8906.17 452.193   7
  12  -3  -2 11718.2 540.017   9
  12  -3  -2 11376.7 515.851   7
  12  -3  -3 5298.31 371.560   9
  12  -3  -3 5114.96 358.266   7
 -12   3  -5 12566.5 631.520   5
 -12   3  -6 5319.01 428.094   5
  12  -3  -6 4625.01 384.958   8
 -12   3  -7 8404.84 540.817   5
  12  -3  -7 7673.60 500.801   8
 -12   3  -8 1237.14 219.105   5
  12  -3  -8 1084.63 201.378   8
 -12   3  -9 1581.49 248.250   5
  12  -3  -9 1328.28 225.870   8
 -12   3 -10 1996.49 297.380   5
  12  -3 -10 1845.99 272.469   8
 -12   3 -11 492.976 167.573   5
  12  -3 -11 289.583 135.707   8
 -12   3 -12 3622.83 392.396   5
  12  -3 -12 2406.11 314.206   8
 -12   3 -13 405.942 151.251   5
  12  -3 -13 384.053 140.234   8
 -12   4  12 26.6583 65.5827  12
  12  -4  12-101.166 96.0042   4
  12   4 -12 99.0601 92.6148   6
 -12   4  11 410.944 142.181  12
  12  -4  11 233.904 103.589   4
 -12  -4 -11 353.670 117.739   5
 -12   4  10 208.021 93.4727  12
  12  -4  10 126.153 84.3883   4
 -12  -4 -10 9.16674 61.6383   5
  12  -4   9 210.218 102.250   4
 -12  -4  -9 343.844 104.102   5
  12  -4   8 418.842 118.885   4
 -12  -4  -8 569.506 126.534   5
  12  -4   7 1842.57 222.520   4
 -12  -4  -7 1875.90 217.813   5
 -12  -4  -6 201.647 76.3476   5
 -12  -4  -5 2937.71 260.397   5
 -12  -4  -4 1896.13 205.576   5
  12   4  -4 2123.84 250.829   7
 -12  -4  -3 3991.36 291.588   5
  12   4  -3 5028.14 373.361   7
  12  -4   3 4234.56 308.623   7
  12   4  -2 4163.12 338.696   7
  12  -4   2 3983.50 294.182   7
  12   4  -1 1562.34 209.519   7
  12  -4   1 1407.38 176.891   7
  12  -4   0 6446.10 420.854   9
  12  -4   0 6085.16 363.059   7
  12   4   0 6526.95 420.768   7
  12  -4  -1 1663.94 217.152   9
  12  -4  -1 1503.73 187.368   7
  12  -4  -2 4712.16 359.540   9
  12  -4  -2 4315.81 319.055   7
  12  -4  -3 4716.71 362.340   9
 -12   4  -3 4543.04 308.646  12
 -12   4  -5 3363.36 347.404   5
 -12   4  -6 382.679 160.925   5
  12  -4  -6 376.930 141.294   8
 -12   4  -7 1930.08 263.062   5
  12  -4  -7 1867.84 257.815   8
 -12   4  -8 304.693 118.423   5
  12  -4  -8 425.074 147.499   8
 -12   4  -9 508.607 155.402   5
  12  -4  -9 150.511 74.6738   8
 -12   4 -10-29.8649 93.1947   5
  12  -4 -10 47.8632 72.8255   8
 -12   4 -11 581.351 170.906   5
  12  -4 -11 577.104 166.391   8
 -12   4 -12 133.899 108.260   5
  12  -4 -12 60.3561 78.0193   8
  12  -5  12 1612.04 250.699   4
 -12   5  12 1613.23 255.101  12
 -12   5  11-65.2284 106.559  12
  12  -5  11-153.559 100.101   4
  12  -5  10 2271.76 279.667   4
 -12   5  10 2645.02 340.050  12
 -12   5   9 306.340 142.797  12
  12  -5   9 70.3579 79.2169   4
 -12   5   8 359.865 134.790  12
  12  -5   8 499.668 124.688   4
  12  -5   7 1928.07 229.781   4
 -12  -5  -5 1648.35 184.709   5
 -12  -5  -4 3112.80 247.522   5
  12   5  -4 3960.54 338.477   7
  12  -5   4 3368.64 268.790   7
 -12  -5  -3 2838.63 235.725   5
  12   5  -3 3518.29 314.379   7
  12  -5   3 3382.28 265.663   7
  12   5  -2 7992.74 463.116   7
  12  -5   2 6797.46 372.407   7
  12  -5   1 7253.73 387.347   7
  12   5  -1 7902.52 458.943   7
  12   5   0 292.315 105.521   7
  12  -5   0 83.8577 90.9393   9
  12  -5   0 263.422 80.7730   7
  12  -5  -1 7900.48 478.090   9
  12  -5  -1 7363.52 398.899   7
 -12   5  -1 8041.19 456.296  12
  12  -5  -2 7489.58 468.910   9
 -12   5  -2 7517.83 425.773  12
  12  -5  -3 3834.90 342.613   9
 -12   5  -3 3447.67 272.439  12
 -12   5  -5 2736.61 312.654   5
 -12   5  -6 517.804 152.752   5
  12  -5  -6 682.091 164.652   8
 -12   5  -7 2238.82 299.249   5
  12  -5  -7 1915.74 271.294   8
 -12   5  -8 392.690 138.529   5
  12  -5  -8 604.622 177.502   8
 -12   5  -9 96.6871 99.8074   5
  12  -5  -9 104.185 98.0482   8
 -12   5 -10 2234.01 302.977   5
  12  -5 -10 1984.68 289.961   8
 -12   5 -11 23.0526 100.390   5
  12  -5 -11 147.336 115.810   8
 -12   5 -12 1949.14 292.510   5
  12  -5 -12 1329.23 252.839   8
  12  -6  12 515.533 142.281   4
 -12   6  12 404.254 132.337  12
  12  -6  11 243.157 105.701   4
 -12   6  11 335.271 123.992  12
  12  -6  10 752.627 161.380   4
 -12   6  10 788.690 188.423  12
 -12   6   9 374.645 147.346  12
  12  -6   9 603.621 147.760   4
  12  -6   8 2954.60 299.545   4
 -12   6   8 3456.77 379.316  12
  12  -6   7 351.561 114.040   4
 -12   6   7 222.197 106.805  12
 -12   6   6 10490.7 639.070  12
 -12   6   5 2985.85 346.595  12
  12   6  -4 6067.58 420.632   7
 -12   6   4 6357.22 478.738  12
 -12   6   3 1337.37 219.989  12
  12   6  -3 1175.22 184.923   7
  12  -6   2 4036.09 277.333   7
  12   6  -2 4698.71 364.332   7
 -12   6   2 4430.51 382.554  12
  12   6  -1 879.690 163.005   7
 -12   6   1 1024.92 174.280  12
  12  -6   1 1076.37 200.045   9
  12  -6   1 959.519 141.651   7
  12  -6   0 4218.99 367.309   9
  12  -6   0 3446.53 261.560   7
  12   6   0 4381.99 354.062   7
 -12   6   0 4063.84 345.680  12
  12  -6  -1 1137.63 198.320   9
 -12   6  -1 1206.59 181.752  12
  12  -6  -2 4866.49 392.479   9
 -12   6  -2 4955.32 350.624  12
  12  -6  -3 1214.70 206.339   9
 -12   6  -3 1263.32 178.767  12
 -12   6  -5 2754.51 316.978   5
 -12   6  -6 10592.8 618.741   5
  12  -6  -6 9822.90 607.338   8
 -12   6  -7 264.242 133.625   5
  12  -6  -7 454.093 149.093   8
 -12   6  -8 2976.16 345.041   5
  12  -6  -8 3274.07 368.511   8
 -12   6  -9 605.719 184.311   5
  12  -6  -9 655.785 180.280   8
 -12   6 -10 548.389 153.756   5
  12  -6 -10 584.358 173.173   8
 -12   6 -11 439.684 161.022   5
  12  -6 -11 341.358 131.090   8
 -12   6 -12 678.728 180.044   5
  12  -6 -12 466.459 149.915   8
  12  -7  11 140.713 92.5109   4
 -12   7  11-361.000 134.763  12
  12  -7  10 95.4551 73.4731   4
 -12   7  10 357.748 134.643  12
  12  -7   9 332.837 112.419   4
 -12   7   9 342.538 150.092  12
  12  -7   8 1041.93 185.166   4
 -12   7   8 975.480 211.670  12
 -12   7   7 148.612 103.209  12
  12  -7   7 182.289 81.2244   4
 -12   7   6 721.998 184.255  12
 -12   7   5 831.693 206.048  12
 -12   7   4-41.2305 100.071  12
  12   7  -4 0.91362 58.7188   7
 -12   7   3 1382.53 227.430  12
  12   7  -3 1232.75 192.761   7
 -12   7   2 603.375 159.807  12
  12   7  -2 472.339 133.094   7
  12  -7   1 2147.19 276.896   9
  12   7  -1 1853.90 236.103   7
 -12   7   1 2063.57 260.642  12
  12   7   0 814.461 161.713   7
  12  -7   0 891.729 198.897   9
 -12   7   0 1066.64 184.441  12
  12  -7  -1 1898.30 265.860   9
 -12   7  -1 2140.53 247.081  12
  12  -7  -2 383.162 136.328   9
 -12   7  -2 357.650 111.881  12
  12  -7  -3 1480.10 241.177   9
 -12   7  -4 197.497 103.911   5
 -12   7  -5 947.800 196.001   5
 -12   7  -6 1223.90 225.373   5
  12  -7  -6 878.741 203.144   8
 -12   7  -7 311.369 132.375   5
  12  -7  -7 273.690 120.687   8
 -12   7  -8 917.275 201.388   5
  12  -7  -8 1293.31 245.854   8
 -12   7  -9 353.548 132.835   5
  12  -7  -9 460.847 161.481   8
 -12   7 -10 339.642 148.477   5
  12  -7 -10 62.1101 114.529   8
 -12   7 -11 221.766 113.707   5
  12  -7 -11 295.061 134.058   8
 -12   8  11 427.444 138.806  12
  12  -8  10 116.200 85.3036   4
 -12   8  10 126.530 74.7113  12
  12  -8   9 598.348 146.638   4
 -12   8   9 729.721 189.531  12
  12  -8   8 1582.60 226.107   4
 -12   8   8 2228.92 314.715  12
 -12   8   7 519.451 161.534  12
 -12   8   6 3956.86 404.184  12
 -12   8   5-85.0829 110.796  12
 -12   8   4 5111.48 441.489  12
  12   8  -3 740.977 149.001   7
 -12   8   3 852.923 193.004  12
  12   8  -2 3549.12 319.290   7
 -12   8   2 4114.90 376.333  12
  12  -8   1 1547.14 247.081   9
  12   8  -1 1648.94 219.799   7
 -12   8   1 1972.65 262.651  12
  12  -8   0 2265.15 292.596   9
  12   8   0 2225.80 256.879   7
 -12   8   0 2641.19 294.253  12
  12  -8  -1 1824.39 264.489   9
 -12   8  -1 2135.92 255.759  12
  12   8   1 1963.64 248.467   7
  12  -8  -2 3934.52 376.175   9
 -12   8  -2 4022.39 326.501  12
  12  -8  -3 847.153 182.584   9
 -12   8  -4 5451.05 438.718   5
 -12   8  -5 77.5824 82.3423   5
 -12   8  -6 4166.40 396.082   5
  12  -8  -6 3398.55 376.043   8
 -12   8  -7 277.872 110.673   5
  12  -8  -7 256.713 131.030   8
 -12   8  -8 1723.95 261.349   5
  12  -8  -8 1860.54 289.884   8
 -12   8  -9 830.033 186.086   5
  12  -8  -9 639.061 180.755   8
 -12   8 -10 231.784 117.316   5
  12  -8 -10 168.495 102.279   8
 -12   8 -11 411.075 150.812   5
 -12   9  10 711.024 177.362  12
  12  -9   9 293.022 108.301   4
 -12   9   9 365.835 131.365  12
  12  -9   8 941.669 179.803   4
 -12   9   8 1667.64 269.525  12
 -12   9   7 3898.99 402.455  12
 -12   9   6 650.646 186.384  12
 -12   9   5 6387.05 508.694  12
 -12   9   4 395.378 152.338  12
  12   9  -3 4540.42 356.240   7
 -12   9   3 5810.71 469.250  12
  12  -9   2 667.123 168.151   9
  12   9  -2 383.437 116.924   7
 -12   9   2 506.016 137.762  12
  12  -9   1 4859.91 427.188   9
  12   9  -1 4459.07 354.473   7
 -12   9   1 4948.11 411.005  12
  12   9   0 336.560 103.384   7
  12  -9   0 71.2609 102.411   9
 -12   9   0 258.894 115.360  12
  12  -9  -1 5796.14 468.466   9
 -12   9  -1 5414.50 403.768  12
  12   9   1 4447.59 366.890   7
  12  -9  -2 392.627 146.487   9
 -12   9  -2 569.641 127.766  12
  12  -9  -3 5969.35 473.039   9
 -12   9  -3 5203.10 423.339   5
 -12   9  -4 365.298 129.724   5
 -12   9  -5 6023.50 467.967   5
 -12   9  -6 701.196 176.037   5
  12  -9  -6 511.379 169.247   8
 -12   9  -7 2974.32 340.343   5
  12  -9  -7 3263.54 374.791   8
 -12   9  -8 1438.88 244.432   5
  12  -9  -8 1358.87 254.509   8
 -12   9  -9 267.627 123.144   5
  12  -9  -9 127.646 116.841   8
 -12   9 -10 688.017 170.380   5
  12  -9 -10 811.677 204.786   8
 -12  10   9 294.651 125.516  12
 -12  10   8 809.756 192.617  12
 -12  10   7 265.488 137.655  12
 -12  10   6 182.871 112.199  12
 -12  10   5 548.258 164.390  12
 -12  10   4 418.499 148.394  12
  12 -10   3 48.2876 94.2740   9
 -12  10   3 153.709 111.025  12
  12 -10   2 225.463 134.924   9
 -12  10   2 121.595 99.5728  12
  12 -10   1-236.203 146.902   9
 -12  10   1-104.816 110.668  12
  12 -10   0 2158.06 290.701   9
  12  10   0 1668.87 221.224   7
 -12  10   0 1916.27 255.024  12
  12  10   1 37.7858 66.9468   7
  12 -10  -1 164.843 109.942   9
 -12  10  -1 101.678 90.9451  12
  12  10   2 54.0359 78.5733   7
  12 -10  -2 16.9599 94.1806   9
  12 -10  -3-32.9736 87.4445   9
 -12  10  -3 148.078 106.982   5
 -12  10  -4 391.550 125.416   5
 -12  10  -5 161.459 95.4129   5
 -12  10  -6-48.1299 69.5695   5
  12 -10  -6 46.6674 82.8518   8
 -12  10  -7 429.987 143.841   5
  12 -10  -7 157.177 102.946   8
 -12  10  -8 568.292 161.318   5
  12 -10  -8 298.682 133.896   8
 -12  10  -9-10.1820 55.8018   5
  12 -10  -9-41.5712 77.3909   8
 -12  11   8 346.370 124.924  12
 -12  11   7 2052.62 292.481  12
 -12  11   6 589.912 164.447  12
 -12  11   5 3095.15 355.095  12
  12 -11   4 108.567 115.570   9
 -12  11   4 273.194 126.144  12
  12 -11   3 1983.08 299.490   9
 -12  11   3 1794.19 270.705  12
  12 -11   2 958.139 205.224   9
 -12  11   2 1210.56 221.106  12
  12 -11   1 1521.39 250.725   9
 -12  11   1 1972.52 276.372  12
  12 -11   0 4885.19 440.929   9
 -12  11   0 5189.72 426.194  12
  12 -11  -1 1882.79 281.575   9
  12 -11  -2 843.068 192.928   9
 -12  11  -2 977.886 189.563   5
 -12  11  -3 1814.08 252.348   5
 -12  11  -4 251.235 109.655   5
 -12  11  -5 2265.85 282.234   5
 -12  11  -6 443.230 134.666   5
  12 -11  -6 857.813 182.303   8
 -12  11  -7 1153.30 205.269   5
  12 -11  -7 1298.56 250.989   8
  12 -11  -8 265.028 128.766   8
 -12  12   6 1518.67 260.152  12
  12 -12   5 697.759 186.763   9
 -12  12   5 328.263 162.211  12
  12 -12   4 1173.18 245.675   9
 -12  12   4 1380.84 250.361  12
  12 -12   3 952.318 208.988   9
 -12  12   3 1402.19 245.130  12
  12 -12   2 2964.54 355.905   9
 -12  12   2 3098.05 355.167  12
  12 -12   1 195.205 101.492   9
  12 -12   0 5201.80 458.567   9
  12 -12  -1 199.097 96.5945   9
  12 -12  -2 3222.72 358.138   9
  12 -12  -5 272.767 127.163   8
  12 -12  -6 900.170 207.428   8
  12 -13   5 193.462 129.610   9
  12 -13   4 782.768 193.651   9
  12 -13   3 427.138 151.925   9
  12 -13   2 618.902 163.933   9
  12 -13   1-214.636 115.073   9
  12 -13   0 2573.28 323.274   9
  12 -13  -1 73.3685 83.6225   9
  12 -13  -5 175.765 102.499   8
  12 -14   1 253.618 105.007   9
  12 -14   0 1731.80 268.717   9
  13   0   0-40.4068 89.4588   7
  13   0   0-91.9033 79.6717   9
  13   0   1 13578.6 537.154   9
  13   0   1 14188.5 648.817   7
  13   0  -2-47.3176 57.2394   9
  13   0  -2 5.39061 84.2352   7
  13   0  -3 261.657 111.847   7
  13   0  -4 100.993 65.4800   8
  13   0  -4 18.1233 85.9989   7
 -13   0  -5 105.876 83.8684   5
  13   0  -5-24.5969 46.9772   8
 -13   0  -6 1195.54 203.622   5
  13   0  -6 912.091 162.001   8
 -13   0  -7 1041.91 192.063   5
  13   0  -7 819.589 168.051   8
 -13   0  -8 730.748 171.928   5
  13   0  -8 578.678 136.408   8
  13   0  -9 4315.18 366.123   6
 -13   0  -9 4784.31 420.271   5
  13   0  -9 4127.37 363.866   8
  13   0 -10 429.906 121.774   6
 -13   0 -10 345.976 131.238   5
  13   0 -10 475.456 141.228   8
  13   0 -11 2008.09 277.951   6
 -13   0 -11 1845.29 264.770   5
  13   0 -11 1693.96 242.564   8
  13   0 -12 498.292 143.137   6
 -13   0 -12 804.341 186.923   5
  13   1 -12 233.320 99.1053   6
 -13  -1 -12 380.703 143.681   5
  13   1 -11 210.210 97.1866   6
 -13  -1 -11 555.311 147.823   5
  13   1 -10 344.575 119.924   6
 -13  -1 -10 359.743 126.081   5
  13   1  -9 2909.70 304.668   6
 -13  -1  -9 3126.11 336.352   5
 -13  -1  -8 1153.47 197.426   5
 -13  -1  -7 1383.18 216.878   5
  13   1  -7 1002.22 164.609   8
 -13  -1  -6 177.338 107.998   5
  13   1  -6 324.465 106.495   8
 -13  -1  -5 3489.86 322.195   5
  13   1  -5 2855.61 261.352   8
 -13  -1  -4 1191.81 193.881   5
  13   1  -4 879.161 141.273   8
  13   1  -4 1438.58 216.789   7
  13   1  -3 5482.95 399.736   7
  13   1  -2 5232.05 385.132   7
  13   1  -1 2202.07 204.245   9
  13  -1   1 2877.21 260.278   9
  13   1  -1 2766.07 301.056   7
  13  -1   1 3068.91 283.875   7
  13  -1   0 1565.35 211.456   7
  13   1   0 1347.02 216.246   7
  13   1   0 1374.97 164.087   9
  13  -1   0 1806.23 205.993   9
  13  -1  -1 3036.89 271.716   9
  13   1   1 2560.55 223.271   9
  13  -1  -1 2976.27 304.511   7
  13   1   1 2970.47 312.193   7
  13  -1  -2 5236.56 349.960   9
  13   1   2 3915.99 281.926   9
  13  -1  -2 4413.64 372.250   7
  13  -1  -3 4493.09 393.616   7
 -13   1  -5 3178.41 326.049   5
  13  -1  -5 2874.78 282.818   8
 -13   1  -6 506.406 151.427   5
  13  -1  -6 206.705 97.9297   8
 -13   1  -7 1280.41 230.828   5
  13  -1  -7 1367.20 215.860   8
 -13   1  -8 1713.59 262.327   5
  13  -1  -8 1333.63 208.047   8
 -13   1  -9 3585.06 373.893   5
  13  -1  -9 2755.63 312.357   8
  13  -1 -10 80.4796 69.3311   6
 -13   1 -10 180.675 115.439   5
  13  -1 -10 228.166 119.904   8
  13  -1 -11 212.251 97.5910   6
 -13   1 -11 416.705 156.087   5
  13  -1 -11 422.413 135.657   8
  13  -1 -12 188.322 95.8022   6
 -13   1 -12 138.283 98.2338   5
  13  -1 -12 90.9493 80.1279   8
  13   2 -12 149.542 92.3201   6
 -13  -2 -12 22.5374 59.1276   5
  13   2 -11 844.786 187.619   6
 -13  -2 -11 766.023 169.425   5
  13   2 -10 1406.49 226.168   6
 -13  -2 -10 1535.45 234.560   5
  13   2  -9 2031.57 257.244   6
 -13  -2  -9 2973.59 319.131   5
 -13  -2  -8 652.211 141.997   5
 -13  -2  -7 426.507 127.225   5
 -13  -2  -6 625.321 148.079   5
 -13  -2  -5 5118.69 376.475   5
 -13  -2  -4 7213.09 443.079   5
  13   2  -4 7248.84 474.891   7
  13   2  -3 1867.13 244.490   7
  13   2  -2 7832.99 473.068   7
  13  -2   2 7346.74 440.213   7
  13  -2   1 6832.13 418.015   9
  13   2  -1 6478.23 429.227   7
  13  -2   1 6374.18 405.730   7
  13   2   0 1459.82 221.209   7
  13  -2   0 1466.90 198.094   9
  13  -2   0 1446.07 194.563   7
  13  -2  -1 6761.02 409.880   9
  13  -2  -1 7002.04 432.931   7
  13   2   1 6371.06 428.134   7
  13  -2  -2 7086.77 423.892   9
  13  -2  -2 7044.98 436.124   7
  13  -2  -3 1827.04 231.570   7
 -13   2  -5 6280.41 460.132   5
  13  -2  -5 5386.67 399.034   8
 -13   2  -6 681.352 180.010   5
  13  -2  -6 720.170 165.890   8
 -13   2  -7 326.585 131.322   5
  13  -2  -7 256.793 109.352   8
 -13   2  -8 769.619 184.288   5
  13  -2  -8 682.255 164.245   8
 -13   2  -9 2296.37 306.747   5
  13  -2  -9 1995.67 274.908   8
 -13   2 -10 1544.66 255.997   5
  13  -2 -10 1288.74 223.574   8
 -13   2 -11 1016.19 219.299   5
  13  -2 -11 404.889 140.043   8
 -13   2 -12-12.8222 76.8333   5
  13  -2 -12 39.7002 58.7210   8
 -13   3  12 456.185 140.677  12
  13   3 -12 508.622 151.314   6
 -13  -3 -12 401.394 126.718   5
  13   3 -11 276.374 118.935   6
 -13  -3 -11 237.694 82.2775   5
  13   3 -10 1573.99 243.007   6
 -13  -3 -10 1514.77 222.196   5
  13   3  -9 988.809 183.549   6
 -13  -3  -9 837.275 164.682   5
 -13  -3  -8 1156.96 193.511   5
 -13  -3  -7 5243.59 389.855   5
 -13  -3  -6 2415.36 266.615   5
 -13  -3  -5 1281.80 190.352   5
 -13  -3  -4 4340.81 337.668   5
  13   3  -4 4812.73 387.541   7
  13  -3   3 1556.84 206.609   7
  13   3  -3 1890.66 248.132   7
  13   3  -2 6411.71 433.641   7
  13  -3   2 6253.33 396.887   7
  13  -3   1 1393.84 192.134   7
  13   3  -1 1788.28 231.809   7
  13  -3   1 1664.40 222.038   9
  13  -3   0 10379.3 522.408   9
  13  -3   0 9596.30 490.822   7
  13   3   0 11117.0 559.236   7
  13  -3  -1 1681.39 219.911   9
  13  -3  -1 2014.20 231.412   7
  13  -3  -2 6691.58 423.060   9
  13  -3  -2 6233.41 403.571   7
  13  -3  -3 1638.96 219.699   9
 -13   3  -5 1750.57 261.374   5
 -13   3  -6 2760.85 325.969   5
  13  -3  -6 2192.87 274.993   8
 -13   3  -7 5831.56 466.467   5
  13  -3  -7 5501.19 439.647   8
 -13   3  -8 1368.19 240.543   5
  13  -3  -8 1629.37 248.085   8
 -13   3  -9 1379.81 245.353   5
  13  -3  -9 671.127 169.725   8
 -13   3 -10 2097.05 302.493   5
  13  -3 -10 1465.18 243.975   8
 -13   3 -11 536.432 158.989   5
  13  -3 -11 204.747 94.5473   8
 -13   3 -12 663.450 180.560   5
  13  -3 -12 640.765 173.339   8
 -13   4  12 174.045 91.2842  12
  13   4 -12 185.193 77.2169   6
 -13   4  11 681.310 187.499  12
  13   4 -11 754.705 178.829   6
 -13   4  10 1087.35 220.648  12
 -13  -4  -9 286.900 103.339   5
 -13  -4  -8 1195.32 184.536   5
 -13  -4  -7 429.853 115.000   5
 -13  -4  -6 1993.02 227.947   5
 -13  -4  -5 1024.84 167.464   5
 -13  -4  -4 5101.60 351.375   5
  13   4  -4 6116.39 434.697   7
  13  -4   4 5451.83 372.585   7
 -13  -4  -3 3238.25 278.930   5
  13   4  -3 4208.13 363.360   7
  13  -4   3 3900.93 312.914   7
  13   4  -2 3084.59 304.261   7
  13  -4   2 2889.21 268.056   7
  13   4  -1 882.117 175.219   7
  13  -4   1 810.734 166.525   9
  13  -4   1 603.552 123.594   7
  13   4   0 119.253 87.0157   7
  13  -4   0 170.821 96.6657   9
  13  -4   0 199.095 84.4321   7
  13  -4  -1 1083.40 183.505   9
  13  -4  -1 842.700 155.285   7
  13  -4  -2 3141.36 307.891   9
  13  -4  -2 3206.75 290.438   7
 -13   4  -2 3327.18 289.560  12
  13  -4  -3 4493.72 366.213   9
 -13   4  -5 1561.31 238.911   5
 -13   4  -6 2482.61 318.904   5
  13  -4  -6 2444.07 297.388   8
 -13   4  -7 152.917 113.995   5
  13  -4  -7 542.791 170.593   8
 -13   4  -8 873.130 192.401   5
  13  -4  -8 1025.18 208.331   8
 -13   4  -9 373.300 143.922   5
  13  -4  -9 355.574 133.727   8
 -13   4 -10 1738.24 280.364   5
  13  -4 -10 1533.90 254.793   8
 -13   4 -11 550.623 170.390   5
  13  -4 -11 582.399 168.306   8
 -13   4 -12 520.022 167.416   5
 -13   5  11 45.9505 91.7103  12
 -13   5  10 1931.11 297.539  12
 -13   5   9 2257.46 320.133  12
 -13   5   8 639.625 177.609  12
  13  -5   5 1198.25 172.528   7
  13   5  -4 3631.49 341.020   7
  13  -5   4 3302.34 278.614   7
  13   5  -3 7546.94 478.216   7
  13  -5   3 6655.23 389.058   7
  13   5  -2 3857.54 343.509   7
  13  -5   2 3013.29 263.162   7
  13  -5   1 2846.23 310.523   9
  13  -5   1 2869.82 261.812   7
  13   5  -1 3186.71 312.682   7
  13  -5   0 3372.28 328.596   9
  13  -5   0 3367.44 280.348   7
  13   5   0 3331.08 325.947   7
 -13   5   0 4010.71 351.277  12
  13  -5  -1 2986.18 315.693   9
  13  -5  -1 2799.55 263.155   7
  13   5   1 2662.34 294.728   7
 -13   5  -1 3283.99 306.428  12
  13  -5  -2 3839.86 347.421   9
 -13   5  -2 3829.20 315.644  12
  13  -5  -3 7953.03 502.938   9
 -13   5  -5 1551.35 246.034   5
 -13   5  -6 1813.94 269.675   5
  13  -5  -6 1767.06 259.768   8
 -13   5  -7 2816.97 335.685   5
  13  -5  -7 3081.97 340.529   8
 -13   5  -8 864.139 196.720   5
  13  -5  -8 724.955 176.207   8
 -13   5  -9 1759.75 276.458   5
  13  -5  -9 1927.74 286.779   8
 -13   5 -10 2076.00 301.350   5
  13  -5 -10 1982.67 295.736   8
 -13   5 -11 263.181 127.397   5
  13  -5 -11-1.80278 77.0381   8
 -13   6  11 677.540 173.657  12
 -13   6  10 711.073 184.678  12
 -13   6   9 2102.53 307.129  12
 -13   6   8 1464.08 254.591  12
 -13   6   7 2462.34 323.761  12
 -13   6   6 2568.10 338.281  12
 -13   6   5 3326.24 365.608  12
 -13   6   4 2353.35 311.123  12
  13   6  -4 2068.27 256.119   7
  13   6  -3 6841.90 458.659   7
 -13   6   3 6892.61 503.038  12
 -13   6   2 485.783 155.560  12
  13  -6   2 496.921 108.728   7
  13   6  -2 635.605 149.732   7
  13  -6   1 8697.93 549.365   9
  13  -6   1 7472.86 399.404   7
  13   6  -1 9055.06 520.340   7
 -13   6   1 8501.03 526.305  12
 -13   6   0 209.654 86.9384  12
  13   6   0 51.7476 82.6147   7
  13  -6   0-47.3341 124.324   9
  13  -6   0 101.196 64.7677   7
  13  -6  -1 9443.90 558.643   9
  13   6   1 8530.91 516.953   7
 -13   6  -1 9233.57 517.144  12
  13  -6  -2 601.434 161.197   9
 -13   6  -2 696.517 140.603  12
  13  -6  -3 7400.72 499.533   9
 -13   6  -4 2081.48 276.370   5
 -13   6  -5 2862.85 333.565   5
 -13   6  -6 2554.04 320.454   5
  13  -6  -6 2582.06 321.104   8
 -13   6  -7 2382.88 319.890   5
  13  -6  -7 2146.77 302.525   8
 -13   6  -8 1140.77 225.150   5
  13  -6  -8 1126.38 226.323   8
 -13   6  -9 2741.42 341.484   5
  13  -6  -9 2213.54 315.269   8
 -13   6 -10 696.478 170.939   5
  13  -6 -10 925.734 209.479   8
 -13   6 -11 810.682 208.194   5
  13  -6 -11 302.177 131.783   8
 -13   7  10 1258.89 242.663  12
 -13   7   9 419.048 163.495  12
 -13   7   8 516.939 164.341  12
 -13   7   7 878.199 199.248  12
 -13   7   6 1236.67 239.490  12
 -13   7   5 2259.95 312.702  12
  13   7  -4 2237.90 274.149   7
 -13   7   4 2574.77 331.146  12
  13   7  -3 4410.51 373.080   7
 -13   7   3 5069.84 437.475  12
 -13   7   2 590.001 162.734  12
  13  -7   2 673.601 172.359   9
  13   7  -2 320.715 112.886   7
  13  -7   1 2451.35 306.453   9
  13   7  -1 2219.66 265.231   7
 -13   7   1 2263.57 280.297  12
  13   7   0 242.318 109.793   7
  13  -7   0 95.7092 104.999   9
 -13   7   0 134.103 99.2113  12
  13  -7  -1 2064.59 279.019   9
 -13   7  -1 2454.60 271.160  12
  13   7   1 2231.00 273.925   7
  13  -7  -2 544.640 137.974   9
 -13   7  -2 467.065 115.291  12
  13  -7  -3 5329.38 441.662   9
 -13   7  -4 2255.69 295.186   5
 -13   7  -5 2023.97 285.265   5
 -13   7  -6 1394.87 240.283   5
  13  -7  -6 1346.85 243.093   8
 -13   7  -7 1054.56 218.831   5
  13  -7  -7 892.263 214.178   8
 -13   7  -8 466.497 145.127   5
  13  -7  -8 623.733 179.471   8
 -13   7  -9 424.288 154.644   5
  13  -7  -9 369.854 153.840   8
 -13   7 -10 969.998 219.841   5
  13  -7 -10 1258.95 244.304   8
 -13   8  10 1110.08 215.748  12
 -13   8   9 2139.26 305.974  12
 -13   8   8 1817.91 283.222  12
 -13   8   7 512.649 154.984  12
 -13   8   6 857.656 205.966  12
 -13   8   5 516.535 155.834  12
 -13   8   4 177.673 120.964  12
  13   8  -3 1114.86 183.896   7
 -13   8   3 1490.15 242.559  12
  13  -8   2-37.4461 126.672   9
  13   8  -2 81.3055 72.6522   7
 -13   8   2 314.239 122.903  12
  13  -8   1 9044.22 589.066   9
  13   8  -1 7879.61 492.792   7
 -13   8   1 8549.07 543.828  12
  13   8   0 165.344 108.396   7
  13  -8   0 256.382 139.556   9
 -13   8   0 497.557 148.532  12
  13  -8  -1 8832.29 569.091   9
 -13   8  -1 9073.52 526.099  12
  13   8   1 8385.22 524.082   7
  13  -8  -2 204.362 99.4338   9
 -13   8  -2 262.436 93.8570  12
  13  -8  -3 1716.09 262.576   9
 -13   8  -4 388.685 131.134   5
 -13   8  -5 597.434 165.629   5
 -13   8  -6 691.601 179.178   5
  13  -8  -6 760.216 199.670   8
 -13   8  -7 601.827 161.427   5
  13  -8  -7 484.276 159.227   8
 -13   8  -8 1221.65 229.005   5
  13  -8  -8 1555.03 258.830   8
 -13   8  -9 1617.02 264.963   5
  13  -8  -9 1558.17 267.863   8
 -13   8 -10 1109.56 219.914   5
  13  -8 -10 1265.71 247.737   8
 -13   9   9 698.345 178.230  12
 -13   9   8 2424.65 326.967  12
 -13   9   7 365.296 118.353  12
 -13   9   6 537.987 168.723  12
 -13   9   5 784.167 195.590  12
 -13   9   4 1803.34 280.996  12
  13  -9   3 1030.56 213.822   9
  13   9  -3 804.503 161.881   7
 -13   9   3 1291.27 236.125  12
  13  -9   2 3243.26 378.225   9
  13   9  -2 2651.15 286.089   7
 -13   9   2 3636.39 368.925  12
  13  -9   1-139.132 140.366   9
 -13   9   1-29.3965 73.8764  12
  13   9  -1-13.1259 60.0124   7
  13  -9   0 1232.06 228.769   9
 -13   9   0 1533.39 232.081  12
  13   9   0 1195.11 194.415   7
  13   9   1-45.4608 62.4587   7
 -13   9  -1 99.0493 63.7131  12
  13  -9  -2 3216.75 358.761   9
 -13   9  -2 3525.09 317.826  12
  13   9   2 2929.13 316.988   7
  13  -9  -3 669.663 175.081   9
 -13   9  -3 1341.05 232.183   5
 -13   9  -4 1475.97 240.619   5
 -13   9  -5 1140.30 213.144   5
 -13   9  -6 541.828 162.595   5
  13  -9  -6 264.444 117.863   8
 -13   9  -7 530.559 147.902   5
  13  -9  -7 275.431 129.230   8
 -13   9  -8 1861.05 273.237   5
  13  -9  -8 1776.85 288.287   8
 -13   9  -9 648.784 170.358   5
  13  -9  -9 851.716 202.216   8
 -13  10   8 82.7639 100.011  12
 -13  10   7 547.695 167.568  12
 -13  10   6 362.232 144.680  12
 -13  10   5 2170.57 302.615  12
 -13  10   4 1357.56 249.160  12
  13 -10   3 869.623 208.908   9
 -13  10   3 949.209 201.085  12
  13 -10   2 1084.61 227.654   9
 -13  10   2 1502.63 248.453  12
  13 -10   1 368.221 149.054   9
 -13  10   1 276.395 115.961  12
  13 -10   0 492.647 169.142   9
 -13  10   0 316.880 106.913  12
  13  10   0 187.202 88.2163   7
  13  10   1 332.871 105.443   7
  13 -10  -1 262.052 121.049   9
 -13  10  -1 461.835 136.611  12
  13  10   2 925.808 179.754   7
  13 -10  -2 1058.72 211.328   9
  13  10   3 913.804 186.048   7
 -13  10  -3 816.486 181.882   5
 -13  10  -4 1243.50 223.215   5
 -13  10  -5 1908.67 273.928   5
 -13  10  -6 2.40734 71.6091   5
  13 -10  -6 93.5022 94.8770   8
 -13  10  -7 455.467 136.649   5
  13 -10  -7 340.890 147.736   8
 -13  10  -8 189.254 84.1968   5
  13 -10  -8 116.699 92.5112   8
 -13  11   7 783.946 201.477  12
 -13  11   6 848.882 204.592  12
  13 -11   5 130.057 101.559   9
 -13  11   5 135.709 113.754  12
  13 -11   4 229.827 112.347   9
 -13  11   4 489.608 156.048  12
  13 -11   3 465.580 179.457   9
 -13  11   3 640.699 176.268  12
  13 -11   2 1730.35 273.531   9
 -13  11   2 1665.09 260.688  12
  13 -11   1-105.677 97.5349   9
 -13  11   1 11.6273 90.5733  12
  13 -11   0 4065.91 411.217   9
 -13  11   0 4208.75 390.750  12
  13 -11  -1-93.4619 122.128   9
  13 -11  -2 1863.01 291.386   9
 -13  11  -2 1323.25 223.885   5
 -13  11  -3 427.517 126.595   5
 -13  11  -4 305.638 115.136   5
 -13  11  -5 6.21929 73.1276   5
  13 -11  -5 291.933 136.966   8
 -13  11  -6 264.336 101.300   5
  13 -11  -6 330.684 138.103   8
  13 -11  -7 883.758 213.105   8
  13 -12   5 485.340 173.895   9
 -13  12   5 1074.06 225.364  12
  13 -12   4 460.866 170.392   9
 -13  12   4 591.743 162.503  12
  13 -12   3 1833.22 292.522   9
 -13  12   3 2022.56 290.310  12
  13 -12   2-58.5957 77.5472   9
 -13  12   2 50.9391 77.7167  12
  13 -12   1 25.0363 80.9346   9
  13 -12   0-18.3486 81.4292   9
  13 -12  -1 76.9197 92.9849   9
  13 -12  -5 412.878 134.328   8
  13 -13   2 11.1428 71.2043   9
  13 -13   1-90.5673 75.1754   9
  13 -13   0 106.101 62.6300   9
  13 -13  -1-67.3078 83.0664   9
  14   0   0 8033.52 423.598   9
  14   0   0 8717.34 551.788   7
  14   0   1 51.3214 90.3414   7
  14   0  -1 125.388 68.8906   9
  14   0   1 118.692 64.1121   9
  14   0  -1 54.1179 86.7885   7
  14   0   2 2242.35 231.880   9
  14   0  -2 2897.71 299.826   7
  14   0   2 2674.04 294.031   7
  14   0  -3 894.648 177.186   7
 -14   0  -4 524.788 147.395   5
  14   0  -4 204.357 85.2953   8
 -14   0  -5 122.002 96.2324   5
  14   0  -5 169.652 73.8168   8
 -14   0  -6 83.6421 92.2051   5
  14   0  -6 31.5922 57.0265   8
 -14   0  -7 472.751 145.649   5
  14   0  -7 434.182 116.463   8
 -14   0  -8 902.232 190.161   5
  14   0  -8 629.299 146.643   8
 -14   0  -9 948.444 200.486   5
 -14   0 -10-33.5921 69.6398   5
 -14   0 -11-210.109 106.826   5
 -14  -1 -11 1223.85 216.865   5
 -14  -1 -10 580.610 159.681   5
 -14  -1  -9 1248.02 217.640   5
 -14  -1  -8 1346.26 232.353   5
 -14  -1  -7 2881.60 315.753   5
 -14  -1  -6 3552.76 346.778   5
 -14  -1  -5 2550.75 290.899   5
 -14  -1  -4 7397.75 480.069   5
  14   1  -4 7019.23 486.054   7
  14   1  -3 1468.67 229.929   7
  14  -1   2 3492.92 305.565   9
  14   1  -2 4331.19 375.467   7
  14  -1   2 3658.39 335.830   7
  14  -1   1-10.2757 76.8480   7
  14  -1   1 35.7481 74.5664   9
  14   1  -1-40.4398 86.7511   7
  14  -1   0 2467.87 253.223   9
  14  -1   0 2196.72 255.043   7
  14   1   0 1695.04 265.263   7
  14   1   1 16.8039 72.6734   7
  14  -1  -1-11.2903 68.1140   9
  14  -1  -1 222.432 104.819   7
  14  -1  -2 3763.18 308.171   9
  14  -1  -2 3781.50 346.593   7
  14  -1  -3 1417.34 216.092   7
 -14   1  -5 2658.82 321.573   5
  14  -1  -5 2036.26 245.719   8
 -14   1  -6 3695.99 369.089   5
  14  -1  -6 2783.55 299.778   8
 -14   1  -7 3219.66 350.672   5
  14  -1  -7 2160.71 270.042   8
 -14   1  -8 1355.43 231.918   5
  14  -1  -8 1364.56 217.948   8
 -14   1  -9 1539.72 254.855   5
  14  -1  -9 1181.72 202.600   8
 -14   1 -10 721.394 184.395   5
  14  -1 -10 349.988 132.267   8
 -14   1 -11 937.120 199.541   5
  14  -1 -11 853.458 180.340   8
 -14  -2 -11 368.538 123.877   5
 -14  -2 -10 1171.64 211.616   5
 -14  -2  -9 893.534 179.590   5
 -14  -2  -8 1498.86 233.411   5
 -14  -2  -7 1381.04 215.664   5
 -14  -2  -6 1513.41 222.699   5
 -14  -2  -5 2839.51 301.581   5
 -14  -2  -4 794.271 167.155   5
  14   2  -4 942.248 192.838   7
  14   2  -3 3041.81 313.655   7
  14  -2   3 2839.83 291.383   7
  14  -2   2 337.417 116.990   7
  14  -2   2 370.823 111.994   9
  14   2  -2 667.628 159.125   7
  14  -2   1 7118.94 437.963   9
  14   2  -1 7279.24 470.719   7
  14  -2   1 6895.93 439.901   7
  14  -2   0 4181.28 336.932   9
  14  -2   0 4564.26 363.685   7
  14   2   0 4714.94 385.380   7
  14  -2  -1 7313.12 447.150   9
  14  -2  -1 7899.94 475.942   7
  14   2   1 7921.55 498.215   7
  14  -2  -2 439.925 119.085   9
  14  -2  -2 519.566 139.920   7
  14  -2  -3 3107.61 311.793   7
 -14   2  -5 3179.62 346.821   5
  14  -2  -5 2822.82 304.279   8
 -14   2  -6 2214.40 295.457   5
  14  -2  -6 1600.72 245.308   8
 -14   2  -7 1953.14 281.823   5
  14  -2  -7 1720.73 243.759   8
 -14   2  -8 1407.68 246.543   5
  14  -2  -8 1302.71 221.675   8
 -14   2  -9 889.406 205.748   5
  14  -2  -9 845.351 178.032   8
 -14   2 -10 1413.03 246.286   5
  14  -2 -10 1199.93 216.548   8
 -14   2 -11 451.617 148.846   5
  14  -2 -11 272.362 106.027   8
 -14   3  11 289.807 113.859  12
 -14  -3 -10 34.7446 68.7597   5
 -14  -3  -9 31.6356 59.2455   5
 -14  -3  -8 1095.87 185.884   5
 -14  -3  -7 976.790 183.798   5
 -14  -3  -6 372.096 114.837   5
 -14  -3  -5 423.022 124.463   5
  14  -3   4 580.432 142.736   7
 -14  -3  -4 414.820 115.549   5
  14   3  -4 377.561 131.317   7
  14  -3   3 230.512 94.0206   7
 -14  -3  -3 159.377 86.5290   5
  14   3  -3 171.087 106.021   7
  14  -3   2 240.839 77.8594   7
  14   3  -2 453.894 143.726   7
  14  -3   1 516.079 135.233   9
  14  -3   1 347.496 109.551   7
  14   3  -1 402.599 131.636   7
  14   3   0 179.526 110.076   7
  14  -3   0 8.96866 79.2964   9
  14  -3   0 55.3087 68.8446   7
  14   3   1 301.234 123.053   7
  14  -3  -1 312.181 119.435   9
  14  -3  -1 608.653 140.344   7
  14  -3  -2 441.075 133.650   9
  14  -3  -2 198.834 90.3275   7
 -14   3  -5 704.659 179.069   5
  14  -3  -5 499.127 142.690   8
 -14   3  -6 548.658 168.293   5
  14  -3  -6 397.835 124.667   8
 -14   3  -7 972.409 213.759   5
  14  -3  -7 1035.85 198.626   8
 -14   3  -8 1228.58 236.518   5
  14  -3  -8 1021.24 202.432   8
 -14   3  -9 488.894 139.486   5
  14  -3  -9 168.422 107.292   8
 -14   3 -10 35.0272 91.6116   5
  14  -3 -10 150.601 84.2972   8
 -14   3 -11 141.593 112.723   5
  14  -3 -11 52.8090 62.0180   8
 -14   4  11 364.792 145.749  12
 -14   4  10 1793.38 287.988  12
 -14  -4  -7 2598.23 271.821   5
 -14  -4  -6 400.893 106.950   5
  14  -4   5 1549.19 209.403   7
 -14  -4  -5 1393.52 194.003   5
 -14  -4  -4 1332.83 188.888   5
  14  -4   4 1803.68 228.447   7
  14   4  -4 1907.99 263.866   7
 -14  -4  -3 3400.23 291.925   5
  14   4  -3 4052.93 368.764   7
  14  -4   3 3675.60 315.462   7
  14  -4   2 170.003 105.213   9
  14   4  -2 464.328 143.188   7
  14  -4   2 192.139 75.2141   7
  14  -4   1 5376.40 415.138   9
  14  -4   1 4772.17 359.811   7
  14   4  -1 5001.12 400.407   7
  14   4   0 78.6578 88.6279   7
  14  -4   0-15.9791 84.5329   9
  14  -4   0 49.5046 67.8291   7
  14  -4  -1 5012.06 394.277   9
  14  -4  -1 4554.06 353.764   7
  14   4   1 5385.98 427.804   7
 -14   4  -2 545.635 126.528  12
  14  -4  -2 625.828 153.184   9
  14  -4  -3 4353.74 372.133   9
 -14   4  -5 1653.25 257.205   5
 -14   4  -6 755.551 182.768   5
  14  -4  -6 619.207 151.121   8
 -14   4  -7 3041.02 355.874   5
  14  -4  -7 2829.59 334.715   8
 -14   4  -8 1457.82 250.604   5
  14  -4  -8 1149.65 221.488   8
 -14   4  -9 1737.48 283.540   5
  14  -4  -9 1553.44 255.671   8
 -14   4 -10 2322.33 319.678   5
  14  -4 -10 1553.11 256.224   8
 -14   4 -11 468.393 153.950   5
  14  -4 -11 124.657 82.0083   8
 -14   5  10 758.887 187.530  12
 -14   5   9 631.676 175.530  12
 -14   5   8 2196.87 315.840  12
 -14   5   7 593.457 184.062  12
  14   5  -4 2432.73 297.715   7
  14  -5   4 2019.13 224.858   7
  14   5  -3 183.632 109.875   7
  14  -5   3-78.9188 64.6548   7
  14  -5   2 3943.38 377.196   9
  14   5  -2 4004.31 368.686   7
  14  -5   2 3984.89 315.890   7
  14  -5   1 525.964 148.900   9
  14  -5   1 603.206 128.698   7
  14   5  -1 747.906 171.458   7
  14  -5   0 9663.77 562.498   9
  14  -5   0 8477.26 465.815   7
  14   5   0 9632.25 556.868   7
 -14   5   0 9820.48 565.957  12
 -14   5  -1 712.021 150.806  12
  14   5   1 515.735 145.869   7
  14  -5  -1 622.246 157.227   9
  14  -5  -1 520.678 122.782   7
  14  -5  -2 4269.37 377.455   9
 -14   5  -2 4291.91 342.959  12
  14  -5  -3-2.78971 99.0526   9
 -14   5  -4 2243.80 298.623   5
 -14   5  -5 85.8349 100.018   5
 -14   5  -6 3298.82 370.166   5
  14  -5  -6 3083.48 345.621   8
 -14   5  -7 570.047 181.643   5
  14  -5  -7 550.950 151.107   8
 -14   5  -8 1826.87 276.994   5
  14  -5  -8 1902.74 282.298   8
 -14   5  -9 514.209 159.125   5
  14  -5  -9 450.435 150.958   8
 -14   5 -10 923.635 211.971   5
  14  -5 -10 839.046 196.372   8
 -14   6  10-248.492 138.177  12
 -14   6   9 250.309 127.159  12
 -14   6   8-119.191 102.454  12
 -14   6   7 62.5195 93.4488  12
 -14   6   6 235.681 118.507  12
 -14   6   5 960.743 216.686  12
 -14   6   4 1316.35 239.762  12
  14   6  -4 1323.52 227.820   7
 -14   6   3 629.985 163.763  12
  14   6  -3 663.800 159.626   7
 -14   6   2 1887.99 274.629  12
  14  -6   2 2067.75 284.521   9
  14   6  -2 1870.98 252.868   7
 -14   6   1 40.8027 71.8213  12
  14  -6   1 92.1789 94.7402   9
  14  -6   1-39.4089 56.0969   7
  14   6  -1 75.5581 90.2727   7
 -14   6   0-44.4828 64.3525  12
  14   6   0 143.191 96.8860   7
  14  -6   0-137.447 118.287   9
  14   6   1 147.670 115.748   7
  14  -6  -1 300.427 114.816   9
 -14   6  -1 45.5845 76.3621  12
  14  -6  -2 1953.92 264.436   9
 -14   6  -2 2280.43 257.701  12
  14  -6  -3 611.639 169.239   9
 -14   6  -4 1346.43 240.108   5
 -14   6  -5 1308.59 244.070   5
 -14   6  -6 281.516 141.359   5
  14  -6  -6 20.5549 76.4454   8
 -14   6  -7 397.348 153.730   5
  14  -6  -7 138.337 108.909   8
 -14   6  -8 38.3898 87.9125   5
  14  -6  -8-20.0074 90.5838   8
 -14   6  -9-24.8394 89.6962   5
  14  -6  -9 5.87047 74.5804   8
 -14   6 -10 5.48409 70.6680   5
  14  -6 -10 218.943 123.592   8
 -14   7   9 298.260 127.219  12
 -14   7   8 1661.46 283.026  12
 -14   7   7 348.088 145.085  12
 -14   7   6 2367.60 331.582  12
 -14   7   5 836.311 195.343  12
 -14   7   4 4500.22 431.592  12
 -14   7   3 121.773 97.7147  12
  14   7  -3-6.34917 66.1720   7
  14  -7   2 7441.52 539.390   9
  14   7  -2 6547.21 468.559   7
 -14   7   2 7304.72 529.088  12
  14  -7   1 948.960 206.837   9
  14   7  -1 979.398 189.359   7
 -14   7   1 1191.63 215.516  12
  14  -7   0 4597.77 416.942   9
  14   7   0 4743.25 399.838   7
 -14   7   0 5268.77 422.063  12
  14   7   1 1075.12 202.229   7
  14  -7  -1 930.046 203.047   9
 -14   7  -1 1160.95 189.048  12
  14  -7  -2 7690.74 532.257   9
  14   7   2 6834.58 495.911   7
  14  -7  -3-47.4980 109.884   9
 -14   7  -4 3974.87 398.659   5
 -14   7  -5 810.446 190.585   5
 -14   7  -6 1455.54 249.026   5
  14  -7  -6 1850.98 288.899   8
 -14   7  -7 112.737 86.2157   5
  14  -7  -7 385.359 148.673   8
 -14   7  -8 1836.41 281.933   5
  14  -7  -8 1252.69 237.929   8
 -14   7  -9 388.881 151.147   5
  14  -7  -9 590.767 166.024   8
 -14   8   9 245.216 114.657  12
 -14   8   8 589.542 156.991  12
 -14   8   7 547.815 168.678  12
 -14   8   6 669.680 176.177  12
 -14   8   5 2170.57 308.520  12
 -14   8   4 946.406 210.380  12
  14  -8   3 2182.10 309.171   9
  14   8  -3 1793.86 246.898   7
 -14   8   3 2149.26 301.283  12
  14  -8   2 150.814 110.755   9
  14   8  -2 155.727 83.3983   7
 -14   8   2 58.1734 82.6428  12
  14  -8   1 3831.66 391.390   9
  14   8  -1 4027.48 366.251   7
 -14   8   1 4753.42 418.149  12
  14  -8   0 124.169 108.302   9
 -14   8   0 151.671 88.6230  12
  14   8   0 323.361 112.508   7
  14  -8  -1 4707.76 427.837   9
  14   8   1 4146.76 381.482   7
 -14   8  -1 4742.50 386.381  12
  14   8   2 181.153 101.229   7
  14  -8  -2 45.8482 97.9450   9
 -14   8  -4 1018.18 208.050   5
 -14   8  -5 2184.05 302.470   5
 -14   8  -6 762.023 176.053   5
  14  -8  -6 501.582 156.563   8
 -14   8  -7 425.237 145.865   5
  14  -8  -7 643.575 182.928   8
 -14   8  -8 574.795 156.880   5
  14  -8  -8 540.133 156.680   8
 -14   8  -9 533.007 151.841   5
 -14   9   8 160.578 121.490  12
 -14   9   7 309.658 133.918  12
 -14   9   6 823.871 197.434  12
 -14   9   5-5.39653 91.1439  12
  14  -9   4 542.761 180.491   9
 -14   9   4 294.793 115.412  12
  14  -9   3 369.580 156.068   9
  14   9  -3 379.368 119.047   7
 -14   9   3 710.823 183.830  12
  14  -9   2 757.074 193.843   9
  14   9  -2 451.949 133.045   7
 -14   9   2 908.796 190.418  12
  14  -9   1 742.319 179.905   9
  14   9  -1 1221.81 211.287   7
 -14   9   1 800.760 177.243  12
  14  -9   0-15.1961 95.3242   9
 -14   9   0 216.564 101.737  12
  14   9   0 62.7666 74.9307   7
  14   9   1 929.615 180.498   7
  14  -9  -1 1178.75 234.062   9
 -14   9  -1 705.359 156.057  12
  14   9   2 743.450 165.718   7
  14  -9  -2 642.885 181.515   9
  14   9   3 338.957 125.463   7
 -14   9  -3 344.727 135.011   5
 -14   9  -4 588.722 164.221   5
 -14   9  -5 62.1695 82.3593   5
 -14   9  -6 802.471 187.698   5
  14  -9  -6 593.629 175.692   8
 -14   9  -7 84.2710 89.2948   5
  14  -9  -7 310.763 132.996   8
 -14   9  -8 252.712 132.290   5
  14  -9  -8 24.4280 71.4489   8
 -14  10   6 1071.14 214.146  12
 -14  10   5 2241.87 313.311  12
  14 -10   4 482.600 155.592   9
 -14  10   4 533.553 173.124  12
  14 -10   3 4191.82 429.889   9
 -14  10   3 5258.03 463.210  12
  14 -10   2 61.2830 121.767   9
 -14  10   2 197.776 117.496  12
  14 -10   1 4973.00 456.633   9
 -14  10   1 5994.15 469.616  12
  14 -10   0-6.06988 119.084   9
 -14  10   0 10.3310 60.6505  12
  14  10   0 60.6394 69.3179   7
  14 -10  -1 5567.02 477.876   9
  14  10   1 4353.14 379.860   7
 -14  10  -1 5038.26 404.996  12
  14  10   2 207.684 89.6432   7
  14 -10  -2-8.23301 90.1971   9
 -14  10  -2 196.201 87.2228   5
 -14  10  -3 3576.79 369.660   5
  14  10   3 3408.16 351.134   7
 -14  10  -4 419.297 136.715   5
 -14  10  -5 1385.28 230.103   5
  14 -10  -5 1400.76 257.010   8
 -14  10  -6 740.237 169.147   5
  14 -10  -6 417.072 148.270   8
  14 -11   5 3.67354 77.0823   9
 -14  11   5 50.1148 80.0522  12
  14 -11   4 87.5311 79.5978   9
 -14  11   4 353.292 128.175  12
  14 -11   3 59.2118 99.7269   9
 -14  11   3-36.4063 87.1302  12
  14 -11   2 1293.02 242.502   9
 -14  11   2 1138.78 216.710  12
  14 -11   1-4.43854 123.921   9
 -14  11   1 74.7645 104.465  12
  14 -11   0 2668.41 337.450   9
 -14  11   0 3005.62 326.802  12
  14 -11  -1-178.305 149.543   9
 -14  11  -2 1091.92 204.953   5
 -14  11  -3 264.245 123.035   5
 -14  11  -4 217.082 96.2839   5
 -14  11  -5 14.6684 52.5352   5
  14 -11  -5-94.8880 77.9884   8
  14 -12   2 43.4708 89.1144   9
 -14  12   2 230.062 118.018  12
  14 -12   1 1043.86 222.417   9
  14 -12   0 927.444 198.537   9
  14 -12  -1 970.197 212.109   9
  15   0   0-165.164 113.807   7
  15   0  -1 8657.59 538.467   7
  15   0   1 8233.31 517.799   7
  15   0   2 12.4120 83.3928   7
  15   0  -2 80.1293 80.1394   7
  15   0  -3 6855.39 483.648   7
  15   0   3 6595.43 479.981   7
 -15   0  -4 149.357 104.655   5
 -15   0  -5 6091.48 471.467   5
 -15   0  -6 1585.01 251.744   5
 -15   0  -7 1919.55 277.939   5
 -15   0  -8 2305.63 303.541   5
 -15   0  -9 151.710 96.0736   5
 -15   0 -10 358.988 137.861   5
 -15  -1 -10 451.854 132.894   5
 -15  -1  -9 822.353 178.232   5
 -15  -1  -8 768.186 177.783   5
 -15  -1  -7 2560.73 304.535   5
 -15  -1  -6 651.418 164.366   5
 -15  -1  -5 2747.22 309.291   5
 -15  -1  -4 465.257 137.635   5
  15  -1   3 2648.69 283.041   9
  15   1  -3 3195.11 334.912   7
  15  -1   3 3131.40 325.878   7
  15  -1   2 2347.87 257.730   9
  15   1  -2 2689.55 308.353   7
  15  -1   2 2852.25 306.829   7
  15   1  -1 9519.79 561.316   7
  15  -1   1 8385.20 522.240   7
  15  -1   0 1243.91 183.511   9
  15  -1   0 1632.20 236.068   7
  15   1   0 1347.79 208.136   7
  15  -1  -1 7207.65 434.682   9
  15  -1  -1 8947.80 534.905   7
  15   1   1 9028.05 548.686   7
  15  -1  -2 2720.03 305.446   7
  15   1   2 2920.38 321.225   7
  15  -1  -3 3097.92 326.432   7
 -15   1  -4 481.638 157.803   5
  15  -1  -4 371.921 115.064   8
 -15   1  -5 2795.76 327.652   5
  15  -1  -5 1879.95 242.674   8
 -15   1  -6 537.138 166.404   5
  15  -1  -6 484.252 130.387   8
 -15   1  -7 2767.42 335.247   5
  15  -1  -7 1890.74 252.452   8
 -15   1  -8 901.859 201.044   5
  15  -1  -8 579.838 156.006   8
 -15   1  -9 995.151 205.815   5
 -15   1 -10 801.382 187.933   5
 -15  -2 -10 66.4083 70.3566   5
 -15  -2  -9 344.145 122.724   5
 -15  -2  -8 1006.74 192.125   5
 -15  -2  -7 601.920 156.864   5
 -15  -2  -6 2525.47 289.347   5
 -15  -2  -5 1652.00 238.524   5
  15  -2   4 1369.43 213.898   7
 -15  -2  -4 802.453 161.774   5
  15   2  -4 1110.50 213.762   7
  15   2  -3 2259.93 290.024   7
  15  -2   3 2205.81 269.968   7
  15  -2   2 313.980 117.190   7
  15  -2   2 427.151 128.663   9
  15   2  -2 589.385 173.430   7
  15  -2   1 2894.29 286.641   9
  15   2  -1 3221.51 331.335   7
  15  -2   1 2697.92 292.961   7
  15  -2   0 505.408 140.721   9
  15  -2   0 781.903 175.745   7
  15   2   0 729.611 168.262   7
  15  -2  -1 2651.37 277.280   9
  15  -2  -1 2771.80 300.010   7
  15   2   1 2734.23 307.052   7
  15   2   2 466.531 146.004   7
  15  -2  -2 469.213 124.573   9
  15  -2  -2 675.237 151.248   7
 -15   2  -4 1251.23 223.396   5
 -15   2  -5 2111.89 291.353   5
  15  -2  -5 1286.67 210.599   8
 -15   2  -6 2884.25 340.595   5
  15  -2  -6 2607.87 303.611   8
 -15   2  -7 623.685 168.251   5
  15  -2  -7 621.589 159.943   8
 -15   2  -8 1204.91 231.543   5
  15  -2  -8 632.234 148.360   8
 -15   2  -9 164.513 103.020   5
  15  -2  -9 129.676 90.8499   8
 -15   2 -10 290.345 127.442   5
  15  -2 -10 42.3019 54.6172   8
 -15  -3  -9 1674.97 235.589   5
 -15  -3  -8 1499.63 220.416   5
 -15  -3  -7 1145.11 196.281   5
 -15  -3  -6 2716.38 290.046   5
  15  -3   5 1061.20 193.524   7
 -15  -3  -5 832.616 164.203   5
 -15  -3  -4 2376.01 267.724   5
  15   3  -4 2806.02 322.523   7
  15  -3   4 3079.35 313.913   7
  15  -3   3 662.308 147.086   7
 -15  -3  -3 718.755 148.872   5
  15   3  -3 938.107 195.962   7
  15  -3   2 4660.15 385.492   9
  15   3  -2 5027.37 416.263   7
  15  -3   2 4092.47 353.238   7
  15  -3   1 1902.33 244.017   9
  15  -3   1 1961.43 245.594   7
  15   3  -1 1739.16 241.525   7
  15  -3   0 8013.96 491.779   9
  15  -3   0 7509.08 480.473   7
  15   3   0 8685.79 547.926   7
  15   3   1 1978.11 270.242   7
  15  -3  -1 2160.83 257.370   9
  15  -3  -1 1529.22 223.006   7
  15  -3  -2 4751.18 379.190   9
  15  -3  -2 4931.36 395.971   7
  15   3   2 4823.18 417.032   7
 -15   3  -4 3286.60 359.257   5
 -15   3  -5 852.203 197.894   5
  15  -3  -5 821.136 179.484   8
 -15   3  -6 2949.38 353.750   5
  15  -3  -6 2572.42 304.204   8
 -15   3  -7 1022.39 227.990   5
  15  -3  -7 865.513 184.024   8
 -15   3  -8 1897.45 287.327   5
  15  -3  -8 1556.28 243.735   8
 -15   3  -9 2020.87 301.349   5
  15  -3  -9 1031.35 204.010   8
 -15   3 -10 951.638 214.995   5
  15  -3 -10 538.086 147.587   8
 -15   4  10 418.399 142.585  12
 -15   4   9 733.209 193.894  12
  15  -4   6 866.589 167.523   7
  15  -4   5 286.114 110.866   7
  15   4  -4 3317.50 350.452   7
  15  -4   4 3018.93 297.745   7
 -15  -4  -3 316.036 98.3675   5
  15   4  -3 316.185 140.623   7
  15  -4   3 466.356 120.942   7
 -15  -4  -2 2513.79 262.775   5
  15  -4   2 2486.24 297.145   9
  15   4  -2 2796.32 313.903   7
  15  -4   2 2483.03 268.379   7
  15  -4   1 469.267 140.907   9
  15  -4   1 629.547 145.832   7
  15   4  -1 651.965 163.027   7
  15   4   0 726.980 167.256   7
  15  -4   0 1001.70 194.088   9
  15  -4   0 1188.05 199.811   7
  15   4   1 510.938 152.035   7
  15  -4  -1 785.230 167.593   9
  15  -4  -1 644.783 153.313   7
  15  -4  -2 2804.29 311.420   9
  15   4   2 2681.36 317.548   7
 -15   4  -4 3487.47 380.104   5
 -15   4  -5 398.207 154.083   5
  15  -4  -5 410.111 140.848   8
 -15   4  -6 1047.77 223.327   5
  15  -4  -6 1017.44 204.757   8
 -15   4  -7 686.552 199.902   5
  15  -4  -7 360.829 133.047   8
 -15   4  -8 213.429 123.344   5
  15  -4  -8 218.546 122.196   8
 -15   4  -9 622.993 177.345   5
  15  -4  -9 613.064 161.923   8
 -15   4 -10 324.900 133.195   5
  15  -4 -10 334.511 132.253   8
 -15   5   9 1398.78 256.827  12
 -15   5   8 698.725 188.437  12
 -15   5   7 552.641 180.317  12
 -15   5   6 145.328 106.706  12
  15   5  -4 621.692 159.217   7
  15  -5   3 1238.46 222.767   9
  15   5  -3 1307.41 215.816   7
  15  -5   3 1016.42 171.159   7
  15  -5   2 5065.96 434.612   9
  15   5  -2 5069.47 420.241   7
  15  -5   2 4431.13 345.429   7
 -15   5   2 5754.56 473.445  12
  15  -5   1 8.06164 96.9592   9
  15  -5   1 168.496 81.6641   7
  15   5  -1 54.5401 71.8007   7
  15  -5   0 8006.08 528.687   9
  15  -5   0 6560.73 428.148   7
  15   5   0 7888.52 528.150   7
 -15   5   0 8797.42 551.296  12
 -15   5  -1 190.879 112.481  12
  15   5   1 312.529 115.587   7
  15  -5  -1 161.469 94.8466   9
  15  -5  -2 5477.28 437.446   9
  15   5   2 5109.33 437.851   7
 -15   5  -4 674.245 175.695   5
 -15   5  -5 235.201 124.252   5
  15  -5  -5 462.289 141.901   8
 -15   5  -6 234.321 108.702   5
  15  -5  -6 63.9874 79.2417   8
 -15   5  -7 339.555 133.558   5
  15  -5  -7 154.121 102.071   8
 -15   5  -8 684.018 178.914   5
  15  -5  -8 594.776 168.868   8
 -15   5  -9 1377.27 265.879   5
  15  -5  -9 1151.38 216.579   8
 -15   6   9 290.156 131.561  12
 -15   6   8 959.717 218.092  12
 -15   6   7 2354.90 324.278  12
 -15   6   6 568.243 172.922  12
 -15   6   5 2861.76 355.017  12
 -15   6   4 850.315 205.696  12
 -15   6   3 1760.41 279.991  12
  15  -6   3 1573.58 260.544   9
  15   6  -3 1416.26 230.121   7
 -15   6   2 473.525 164.508  12
  15  -6   2 491.353 159.740   9
  15   6  -2 431.319 147.529   7
 -15   6   1 1787.30 259.623  12
  15  -6   1 1313.18 222.017   9
  15   6  -1 1642.48 248.624   7
 -15   6   0 237.468 106.253  12
  15  -6   0 178.494 98.7636   9
  15   6   0 326.642 118.843   7
  15   6   1 1563.69 245.511   7
  15  -6  -1 1421.26 236.075   9
 -15   6  -1 1346.79 210.149  12
  15   6   2 671.615 178.770   7
  15  -6  -2 325.328 133.323   9
 -15   6  -4 828.008 199.260   5
 -15   6  -5 2085.46 302.006   5
 -15   6  -6 369.026 136.187   5
  15  -6  -6 493.501 155.709   8
 -15   6  -7 2899.01 354.870   5
  15  -6  -7 2336.10 313.178   8
 -15   6  -8 645.374 179.766   5
  15  -6  -8 1120.51 229.125   8
 -15   6  -9 522.046 159.262   5
  15  -6  -9 357.237 126.035   8
 -15   7   8 482.861 144.513  12
 -15   7   7 360.706 160.222  12
 -15   7   6 561.107 173.174  12
 -15   7   5 245.050 134.537  12
 -15   7   4 810.681 208.077  12
  15  -7   3 136.978 117.463   9
  15   7  -3 26.7640 84.5864   7
 -15   7   3-22.2107 94.3689  12
  15  -7   2 230.067 127.883   9
  15   7  -2 82.2434 67.3850   7
 -15   7   2-36.1702 99.8270  12
  15  -7   1-54.4445 114.387   9
  15   7  -1 169.942 104.505   7
 -15   7   1 43.0954 71.7203  12
  15  -7   0-52.8665 86.5425   9
 -15   7   0-12.4906 64.6801  12
  15   7   0 53.7189 69.6005   7
  15   7   1 78.2083 83.6510   7
 -15   7  -1-34.1488 75.8873  12
  15   7   2 247.838 111.122   7
  15  -7  -2 115.263 88.1320   9
  15   7   3 254.390 119.506   7
 -15   7  -4 715.974 187.228   5
 -15   7  -5 202.510 117.694   5
 -15   7  -6 507.010 152.367   5
  15  -7  -6 247.515 115.168   8
 -15   7  -7 147.972 101.916   5
  15  -7  -7 326.097 132.739   8
 -15   7  -8 111.483 115.451   5
  15  -7  -8-95.6622 91.2148   8
 -15   8   7 605.055 179.101  12
 -15   8   6 1150.70 233.741  12
 -15   8   5 483.840 167.529  12
  15  -8   4-71.1524 109.879   9
 -15   8   4 77.4995 112.431  12
  15  -8   3 2174.40 316.817   9
  15   8  -3 1929.50 261.442   7
 -15   8   3 2525.33 327.957  12
  15  -8   2-179.979 142.154   9
  15   8  -2-80.7969 85.7692   7
 -15   8   2 134.740 110.884  12
  15  -8   1 2754.51 339.337   9
  15   8  -1 2685.87 308.198   7
 -15   8   1 3342.69 355.771  12
  15  -8   0 1139.92 218.860   9
 -15   8   0 1376.71 227.194  12
  15   8   0 1214.54 214.839   7
  15  -8  -1 2760.79 339.831   9
  15   8   1 2728.39 319.369   7
 -15   8  -1 3130.21 318.642  12
  15   8   2 14.1851 77.7696   7
  15  -8  -2 70.1135 101.099   9
 -15   8  -3 1988.53 288.733   5
  15   8   3 2092.91 291.735   7
 -15   8  -4 137.188 120.057   5
 -15   8  -5 449.898 152.822   5
  15  -8  -5 456.385 146.553   8
 -15   8  -6 803.091 200.224   5
  15  -8  -6 858.602 206.068   8
 -15   8  -7 400.604 146.663   5
  15  -8  -7 361.896 140.833   8
 -15   9   6 2297.46 322.440  12
  15  -9   5 197.247 109.732   9
 -15   9   5 452.006 157.347  12
  15  -9   4 1613.15 285.266   9
 -15   9   4 1989.62 298.453  12
  15  -9   3 636.117 192.400   9
 -15   9   3 545.583 150.723  12
  15  -9   2 1457.29 257.401   9
  15   9  -2 1004.66 188.806   7
 -15   9   2 1544.77 257.351  12
  15  -9   1 189.209 118.520   9
  15   9  -1 148.712 85.4408   7
 -15   9   1 190.061 101.248  12
  15  -9   0 828.503 198.360   9
 -15   9   0 661.650 160.412  12
  15   9   0 529.426 146.448   7
  15  -9  -1 97.6612 93.0434   9
  15   9   1 272.948 107.267   7
  15   9   2 1368.03 225.016   7
  15  -9  -2 1314.74 247.069   9
  15   9   3 682.817 174.432   7
 -15   9  -3 756.630 184.557   5
  15   9   4 1670.31 262.808   7
 -15   9  -4 1636.17 263.277   5
 -15   9  -5 341.116 132.577   5
  15  -9  -5 428.451 152.332   8
 -15   9  -6 1829.93 274.539   5
  15  -9  -6 1582.10 269.859   8
  15 -10   5 74.4855 105.878   9
 -15  10   5 17.0448 81.8606  12
  15 -10   4 85.5236 97.7042   9
 -15  10   4-18.9445 88.4603  12
  15 -10   3 431.231 185.405   9
 -15  10   3 213.363 108.479  12
  15 -10   2 121.884 115.849   9
 -15  10   2 211.007 104.180  12
  15 -10   1 54.3739 84.3724   9
 -15  10   1 229.663 112.931  12
  15 -10   0-55.6460 83.0840   9
 -15  10   0 27.2034 64.9150  12
  15  10   0-67.4934 64.9649   7
  15 -10  -1 66.8008 97.0374   9
  15  10   1 88.4363 48.0094   7
  15  10   2 109.120 79.7386   7
 -15  10  -2 242.801 115.430   5
  15  10   3 132.119 80.8120   7
 -15  10  -3 15.0182 64.6864   5
  15  10   4 6.44324 63.3848   7
 -15  10  -4 144.665 88.9368   5
  15  10   5 82.2866 74.0951   7
 -15  10  -5-44.7185 69.4287   5
  15 -10  -5 91.8831 96.6328   8
  15 -11   2 184.742 123.176   9
 -15  11   2 706.241 171.513  12
  15 -11   1 294.600 132.884   9
 -15  11   1 423.894 138.649  12
  15 -11   0 113.514 84.7813   9
  15 -11  -1 581.659 173.949   9
 -15  11  -1 880.455 182.772   5
 -15  11  -2 330.072 113.538   5
  16   0   0 250.153 104.440   7
  16   0  -1 529.738 144.859   7
  16   0   1 379.759 122.711   7
  16   0   2 144.947 75.6681   7
  16   0  -2 71.4613 76.6572   7
  16   0   3 1233.18 225.703   7
  16   0  -3 829.513 178.292   7
  16   0   4 548.909 161.872   7
 -16   0  -4 1108.34 206.474   5
 -16   0  -5 360.275 121.834   5
 -16   0  -6 706.607 177.784   5
 -16   0  -7-70.1715 80.2426   5
 -16   0  -8 154.457 97.7372   5
 -16   0  -9-16.7710 71.9131   5
 -16  -1  -9 111.533 73.4901   5
 -16  -1  -8 613.900 161.345   5
 -16  -1  -7 1234.24 216.229   5
 -16  -1  -6 1072.40 205.271   5
  16  -1   5 452.931 150.581   7
 -16  -1  -5 24.4758 91.6684   5
 -16  -1  -4 2375.19 297.018   5
  16  -1   4 2206.40 289.142   7
  16   1  -3 2950.24 334.914   7
  16  -1   3 3012.40 333.081   7
  16  -1   2 590.270 163.532   7
  16   1  -2 788.511 177.649   7
  16  -1   1 623.199 139.023   9
  16   1  -1 973.417 200.371   7
  16  -1   1 798.433 180.927   7
  16  -1   0 58.7034 80.5829   7
  16   1   0 97.1051 77.7248   7
  16   1   1 753.981 178.350   7
  16  -1  -1 604.833 163.572   7
  16   1   2 805.968 181.339   7
  16  -1  -2 638.754 160.452   7
  16   1   3 3181.19 347.668   7
 -16   1  -4 2500.12 311.307   5
  16   1   4 2589.80 324.335   7
 -16   1  -5 185.785 114.624   5
 -16   1  -6 558.198 162.283   5
 -16   1  -7 1735.30 270.790   5
 -16   1  -8 498.323 154.593   5
 -16   1  -9 176.952 98.3139   5
 -16  -2  -9 173.575 86.2188   5
 -16  -2  -8 79.1419 63.7482   5
 -16  -2  -7 122.947 76.1650   5
  16  -2   6 474.277 142.002   7
 -16  -2  -6 458.740 127.624   5
 -16  -2  -5 2712.63 306.653   5
  16  -2   5 2761.77 315.784   7
  16  -2   4 1334.93 224.745   7
  16  -2   4 1118.81 201.171   9
 -16  -2  -4 1148.27 206.334   5
 -16  -2  -3 4444.68 390.441   5
  16  -2   3 4021.58 362.088   9
  16   2  -3 4360.77 406.013   7
  16  -2   3 4407.54 392.993   7
  16  -2   2 180.079 96.8691   9
  16   2  -2 221.270 123.620   7
  16  -2   2 84.4718 66.1214   7
  16  -2   1 228.066 101.187   9
  16   2  -1-27.9132 93.1415   7
  16  -2   1 1.40462 70.9396   7
  16  -2   0-3.43638 66.1373   9
  16  -2   0 35.1085 93.6164   7
  16   2   0 180.074 100.644   7
  16   2   1 236.403 116.464   7
  16  -2  -1 61.7079 59.1395   9
  16  -2  -1 124.115 69.1668   7
  16   2   2 269.110 128.710   7
  16  -2  -2 191.495 106.875   7
  16   2   3 4870.89 434.719   7
 -16   2  -4 1253.06 232.384   5
  16  -2  -4 1222.01 201.987   8
 -16   2  -5 2783.35 342.638   5
  16  -2  -5 2296.76 276.571   8
 -16   2  -6 548.338 157.681   5
  16  -2  -6 310.537 108.087   8
 -16   2  -7 145.851 105.270   5
  16  -2  -7-26.0282 69.9957   8
 -16   2  -8 101.456 108.131   5
 -16   2  -9 264.378 134.151   5
  16  -3   7 1000.63 186.982   7
 -16  -3  -7 1010.52 184.664   5
  16  -3   6 671.899 154.057   7
 -16  -3  -6 735.079 165.869   5
 -16  -3  -5 3066.15 315.483   5
  16  -3   5 2914.38 314.354   7
  16  -3   4 589.452 152.303   7
 -16  -3  -4 921.841 182.295   5
 -16  -3  -3 3194.68 316.227   5
  16  -3   3 3277.70 335.274   9
  16   3  -3 3631.22 368.790   7
  16  -3   3 3049.41 321.435   7
  16  -3   2 285.520 112.135   9
  16   3  -2 348.374 133.561   7
  16  -3   2 435.970 125.628   7
  16  -3   1 1507.73 230.049   9
  16  -3   1 1248.30 208.952   7
  16   3  -1 1249.00 222.253   7
  16  -3   0 37.4608 75.7221   9
  16  -3   0 389.406 137.083   7
  16   3   0 250.432 126.519   7
  16   3   1 1330.52 235.769   7
  16  -3  -1 1047.89 193.934   9
  16  -3  -1 1195.45 202.861   7
  16   3   2 539.339 157.164   7
  16   3   3 3343.14 366.655   7
 -16   3  -4 1016.18 222.074   5
 -16   3  -5 3548.16 390.950   5
  16  -3  -5 2535.29 301.704   8
 -16   3  -6 925.375 208.331   5
  16  -3  -6 827.853 181.206   8
 -16   3  -7 1470.55 252.206   5
  16  -3  -7 894.858 188.345   8
 -16   3  -8 157.125 104.829   5
  16  -3  -8 256.446 104.666   8
 -16   3  -9 162.858 82.9354   5
  16  -3  -9 195.696 100.437   8
 -16   4   8 1033.44 222.580  12
  16  -4   5 3491.09 327.613   7
  16  -4   4 1339.71 231.212   9
  16  -4   4 1550.72 217.795   7
  16  -4   3 2130.87 280.950   9
  16   4  -3 2097.55 285.421   7
  16  -4   3 1910.61 241.398   7
  16  -4   2 2734.09 313.917   9
  16   4  -2 2573.72 316.805   7
  16  -4   2 2710.72 290.034   7
  16  -4   1 231.068 104.002   9
  16  -4   1 302.774 115.579   7
  16   4  -1 460.460 152.173   7
  16  -4   0 1054.57 201.386   9
  16  -4   0 1389.13 219.340   7
  16   4   0 1303.56 223.785   7
  16   4   1 408.997 130.316   7
 -16   4  -1 388.990 119.713  12
  16  -4  -1 164.879 85.4658   9
  16  -4  -1 437.672 131.374   7
  16  -4  -2 2552.48 297.960   9
  16   4   2 2814.80 335.895   7
  16   4   3 2191.89 303.508   7
 -16   4  -4 1528.56 260.696   5
 -16   4  -5 4090.10 420.270   5
  16  -4  -5 3091.08 339.659   8
 -16   4  -6 299.529 137.982   5
  16  -4  -6 457.070 140.426   8
 -16   4  -7 680.319 181.839   5
  16  -4  -7 329.304 115.482   8
 -16   4  -8 1237.66 243.096   5
  16  -4  -8 600.307 160.249   8
 -16   5   8 254.086 124.773  12
 -16   5   7 477.950 157.327  12
 -16   5   6-56.3306 108.007  12
 -16   5   5 2009.89 304.540  12
 -16   5   4 1835.15 296.937  12
  16  -5   4 1573.77 259.525   9
 -16   5   3 1424.98 255.213  12
  16  -5   3 1091.67 219.908   9
  16   5  -3 1235.93 227.676   7
 -16   5   2 1026.67 217.956  12
  16  -5   2 879.742 189.064   9
  16  -5   2 676.465 149.717   7
  16   5  -2 1090.89 217.180   7
 -16   5   1 22.0459 71.8360  12
  16  -5   1-4.98253 73.6197   9
  16  -5   1 35.4167 42.9550   7
  16   5  -1 66.1091 77.8616   7
 -16   5   0 100.214 67.1964  12
  16  -5   0 2.25925 81.3629   9
  16  -5   0 85.5136 58.5468   7
  16   5   0-32.7397 77.9266   7
 -16   5  -1 39.0438 55.1390  12
  16   5   1-65.0381 93.8313   7
  16  -5  -1 69.9011 81.4716   9
  16   5   2 645.717 172.395   7
  16  -5  -2 734.792 166.945   9
  16   5   3 1744.27 276.512   7
 -16   5  -4 1746.84 287.217   5
 -16   5  -5 2378.33 323.696   5
  16  -5  -5 1929.39 277.789   8
 -16   5  -6 266.767 152.202   5
  16  -5  -6 194.756 104.537   8
 -16   5  -7 176.218 93.4056   5
  16  -5  -7 273.288 102.503   8
 -16   5  -8-52.4659 76.5344   5
  16  -5  -8 91.4580 74.5947   8
 -16   6   7 355.928 150.965  12
 -16   6   6 2186.65 325.851  12
 -16   6   5 2561.77 346.204  12
  16  -6   4 4505.52 435.046   9
 -16   6   4 5968.08 516.923  12
 -16   6   3 1197.23 241.068  12
  16  -6   3 875.386 199.005   9
  16   6  -3 984.375 201.247   7
  16  -6   2 5782.13 475.656   9
  16   6  -2 6048.33 473.528   7
 -16   6   2 6097.52 500.810  12
 -16   6   1 265.437 119.518  12
  16  -6   1 10.0864 118.304   9
  16   6  -1 229.740 121.821   7
  16  -6   0 4436.41 411.288   9
  16   6   0 4251.65 400.340   7
 -16   6   0 4988.77 421.131  12
  16   6   1 139.116 104.726   7
  16  -6  -1-42.1059 124.903   9
  16  -6  -2 5732.29 466.019   9
  16   6   2 5628.24 469.168   7
  16   6   3 981.086 207.511   7
 -16   6  -4 5307.57 476.605   5
 -16   6  -5 1844.82 278.987   5
  16  -6  -5 1740.19 283.019   8
 -16   6  -6 2372.73 319.249   5
  16  -6  -6 1767.52 272.785   8
 -16   6  -7 277.277 129.916   5
  16  -6  -7 209.274 104.493   8
 -16   7   6 438.272 152.785  12
  16  -7   5 451.973 153.625   9
 -16   7   5 714.896 197.739  12
  16  -7   4 1782.12 288.236   9
 -16   7   4 1893.85 299.124  12
  16  -7   3 1114.68 215.848   9
  16   7  -3 880.825 186.881   7
 -16   7   3 1553.81 270.042  12
  16  -7   2 769.278 183.851   9
  16   7  -2 812.072 178.419   7
 -16   7   2 838.098 198.271  12
  16  -7   1 1117.81 225.777   9
  16   7  -1 1047.27 212.487   7
 -16   7   1 1056.13 205.769  12
  16  -7   0 69.6603 93.4719   9
  16   7   0 182.028 96.0982   7
 -16   7   0 139.728 88.0340  12
  16  -7  -1 1115.40 212.605   9
  16   7   1 1022.20 208.056   7
  16   7   2 842.441 188.797   7
  16  -7  -2 964.247 200.234   9
  16   7   3 1250.27 236.776   7
 -16   7  -3 892.878 216.915   5
  16   7   4 1486.58 253.867   7
 -16   7  -4 1662.32 273.479   5
 -16   7  -5 592.826 172.372   5
  16  -7  -5 550.992 158.625   8
 -16   7  -6 339.388 142.405   5
  16  -7  -6 426.267 147.073   8
  16  -8   5 39.2829 106.589   9
 -16   8   5 98.8827 76.4219  12
  16  -8   4 2084.02 313.957   9
 -16   8   4 2522.31 335.169  12
  16  -8   3 295.091 142.181   9
 -16   8   3 22.1401 74.2568  12
  16  -8   2 2098.18 304.876   9
 -16   8   2 2180.99 297.660  12
  16   8  -2 1675.52 255.065   7
  16  -8   1-48.9480 108.799   9
  16   8  -1-53.7924 92.9839   7
 -16   8   1 110.250 90.9767  12
  16  -8   0 1985.91 287.273   9
  16   8   0 2063.39 294.227   7
 -16   8   0 2367.52 291.054  12
  16  -8  -1-37.2874 119.151   9
  16   8   1 64.2704 79.8000   7
  16   8   2 1981.23 276.133   7
  16   8   3 243.502 122.708   7
 -16   8  -3 352.119 176.649   5
 -16   8  -4 1917.38 303.739   5
  16   8   4 2297.42 311.218   7
 -16   8  -5 246.045 129.743   5
  16  -8  -5 115.398 98.2338   8
  16  -9   4 389.703 158.754   9
 -16   9   4 289.668 116.158  12
  16  -9   3 2075.21 307.998   9
 -16   9   3 3243.40 367.583  12
  16  -9   2 235.987 125.189   9
  16   9  -2 64.6559 66.9847   7
 -16   9   2 144.133 91.1912  12
  16  -9   1 1763.85 285.340   9
 -16   9   1 2334.66 296.461  12
  16   9  -1 1645.12 245.823   7
  16  -9   0-29.5013 104.111   9
 -16   9   0-43.7722 60.5965  12
  16   9   0 129.298 91.3167   7
  16  -9  -1 1403.28 251.779   9
  16   9   1 1724.51 252.205   7
 -16   9  -2 212.277 132.855   5
  16   9   2 12.8847 70.5341   7
 -16   9  -3 2499.62 324.059   5
  16   9   3 2537.14 313.912   7
  16   9   4 370.662 129.213   7
 -16   9  -4 517.895 158.444   5
  16 -10   1 417.392 150.429   9
 -16  10   1 362.912 125.440  12
  16 -10   0 0.89270 76.5722   9
  16 -10  -1 127.768 94.9018   9
  17   0   0 144.561 103.040   7
  17   0  -1 191.310 108.070   7
  17   0   1 66.3279 97.4101   7
  17   0  -2 302.770 108.906   7
  17   0   2 237.698 109.506   7
  17   0   3 85.1864 104.321   7
 -17   0  -3 258.630 119.888   5
  17   0   4 803.018 194.010   7
 -17   0  -4 575.787 151.789   5
  17   0   5-150.382 104.976   7
 -17   0  -5 151.031 89.4423   5
  17   0   6 205.026 110.976   7
 -17   0  -6 245.103 115.292   5
 -17   0  -7 54.4148 60.3382   5
 -17   0  -8 402.950 123.184   5
 -17  -1  -8 2509.35 304.661   5
  17  -1   7 585.822 157.018   7
 -17  -1  -7 706.327 166.732   5
 -17  -1  -6 2712.87 319.464   5
  17  -1   6 2510.65 308.940   7
 -17  -1  -5 1463.55 231.131   5
  17  -1   5 1979.32 278.963   7
  17  -1   4 65.0943 59.2517   7
 -17  -1  -4 120.726 85.9579   5
 -17  -1  -3 2251.70 285.675   5
  17   1  -3 2914.28 341.505   7
  17  -1   3 2837.04 324.557   7
  17   1  -2 1388.86 238.434   7
  17  -1   2 1394.44 235.892   7
  17   1  -1 5033.90 441.250   7
  17  -1   1 4684.62 423.911   7
  17  -1   0 199.195 125.111   7
  17   1   0-48.0824 86.8016   7
  17  -1  -1 4229.68 404.248   7
  17   1   1 5300.61 457.720   7
  17   1   2 976.616 203.356   7
  17  -1  -2 1712.01 276.462   7
  17   1   3 2464.21 310.318   7
  17   1   4 170.760 97.2861   7
 -17   1  -4 117.330 96.1254   5
  17   1   5 1671.44 267.547   7
 -17   1  -5 1494.03 247.994   5
 -17   1  -6 3028.84 348.709   5
 -17   1  -7 896.743 194.727   5
 -17   1  -8 3022.21 352.174   5
  17  -2   8 711.247 161.177   7
  17  -2   7 438.237 136.967   7
 -17  -2  -7 455.446 128.711   5
  17  -2   6 386.167 126.262   7
 -17  -2  -6 263.440 105.394   5
  17  -2   5 120.689 81.1467   7
 -17  -2  -5 241.336 111.127   5
  17  -2   4 31.7968 69.6373   7
 -17  -2  -4 294.834 115.172   5
 -17  -2  -3 439.438 132.293   5
  17   2  -3 490.379 163.501   7
  17  -2   3 96.8583 66.8431   7
  17   2  -2 2820.08 335.057   7
  17  -2   2 2373.21 292.343   7
  17   2  -1 186.960 89.7745   7
  17  -2   1 23.5593 64.8731   7
  17  -2   0 6556.71 487.318   7
  17   2   0 6870.06 517.561   7
  17  -2  -1 20.1986 96.5484   7
  17   2   1-114.656 92.5002   7
  17   2   2 2339.73 311.717   7
  17   2   3 581.280 169.862   7
  17   2   4 277.184 98.3732   7
 -17   2  -4 549.804 170.255   5
  17   2   5 103.768 79.5960   7
 -17   2  -5 176.721 110.408   5
 -17   2  -6 181.672 111.215   5
 -17   2  -7 967.774 210.419   5
  17  -3   6 403.324 105.273   7
  17  -3   5 46.9403 66.1875   7
  17  -3   5 200.531 108.596   9
  17  -3   4-59.9693 83.1276   9
  17  -3   4 17.6395 65.9570   7
  17  -3   3 2.92486 59.1529   9
 -17  -3  -3 38.0802 77.2365   5
  17   3  -3 160.690 102.941   7
  17  -3   3 55.0965 58.1347   7
  17  -3   2 349.648 125.216   9
 -17  -3  -2 444.122 128.578   5
  17   3  -2 448.045 136.822   7
  17  -3   2 208.031 94.6773   7
  17  -3   1 101.725 86.6115   9
  17  -3   1 384.249 128.865   7
  17   3  -1 449.180 148.573   7
  17  -3   0 31.7943 69.0581   9
  17  -3   0-24.0981 66.2187   7
  17   3   0 20.6350 76.6721   7
  17  -3  -1 107.166 81.7821   9
  17  -3  -1 311.597 128.820   7
  17   3   1 268.802 110.971   7
  17   3   2 204.208 104.592   7
  17   3   3 149.344 86.1383   7
  17   3   4 6.02788 86.9653   7
 -17   3  -4-82.7323 107.651   5
  17  -3  -4 111.446 80.3393   8
 -17   3  -5 69.5835 79.6778   5
  17  -3  -5 136.412 68.2081   8
 -17   3  -6 928.734 204.969   5
  17  -3  -6 435.769 133.451   8
 -17   3  -7-79.6424 78.4957   5
 -17   4   7 1124.99 233.328  12
  17  -4   5 333.043 142.854   9
  17  -4   4 71.8742 80.7700   9
  17  -4   4 138.495 76.6195   7
  17  -4   3 109.843 95.1438   9
  17   4  -3-187.485 126.798   7
  17  -4   3-44.5503 50.4044   7
  17  -4   2 2960.37 327.586   9
  17   4  -2 3086.46 348.668   7
  17  -4   2 3132.76 319.389   7
 -17   4   1 35.7505 97.1031  12
  17  -4   1-68.6656 86.8601   9
  17  -4   1 73.6118 61.0034   7
  17  -4   0 7135.60 494.132   9
  17  -4   0 7191.69 486.088   7
  17   4   0 8345.70 573.499   7
 -17   4   0 9126.36 580.082  12
  17  -4  -1 108.731 71.2510   9
  17   4   1 173.700 103.954   7
  17   4   2 3508.18 376.132   7
  17   4   3 97.7104 101.840   7
  17   4   4 68.0765 79.6043   7
  17  -4  -4 11.7926 67.2459   8
 -17   4  -5 420.579 135.619   5
  17  -4  -5 645.655 166.881   8
 -17   4  -6 101.822 77.3033   5
  17  -4  -6 195.183 99.7791   8
 -17   4  -7 1180.61 233.986   5
  17  -4  -7 622.450 162.505   8
 -17   5   6 141.920 94.9889  12
 -17   5   5 310.563 145.898  12
  17  -5   5 637.405 177.671   9
 -17   5   4-107.404 98.8463  12
  17  -5   4 34.6935 74.3708   9
 -17   5   3 317.656 145.845  12
  17  -5   3 126.051 86.4367   9
  17   5  -3 515.566 151.195   7
 -17   5   2 7.54998 68.2318  12
  17  -5   2 140.409 90.0577   9
  17   5  -2 24.6417 69.2041   7
  17  -5   1 1777.15 257.175   9
  17  -5   1 1261.27 194.137   7
  17   5  -1 2140.54 291.859   7
 -17   5   1 2256.51 299.221  12
 -17   5   0 166.893 93.5325  12
  17  -5   0-26.1193 69.8860   9
  17   5   0 265.189 118.141   7
  17  -5  -1 1595.31 247.295   9
  17   5   1 1821.27 276.501   7
  17   5   2 35.3141 72.7017   7
  17   5   3 293.252 127.192   7
 -17   5  -3 652.021 187.059   5
  17   5   4 39.1095 79.9685   7
 -17   5  -4 75.8540 95.1931   5
  17  -5  -4 90.9610 97.0833   8
  17   5   5 540.827 153.788   7
 -17   5  -5 361.320 145.247   5
  17  -5  -5 363.072 127.013   8
 -17   5  -6-91.2379 99.5945   5
  17  -5  -6 188.541 110.025   8
 -17   6   5-202.031 133.297  12
  17  -6   5 259.093 135.112   9
 -17   6   4 985.995 216.006  12
  17  -6   4 632.759 176.643   9
 -17   6   3 566.651 171.206  12
  17  -6   3 338.512 146.876   9
  17   6  -3 230.895 113.480   7
 -17   6   2 73.3075 74.0424  12
  17  -6   2 320.609 133.654   9
  17   6  -2 228.917 115.754   7
  17   6  -1 86.9774 73.8266   7
 -17   6   1 166.105 77.6167  12
  17  -6   0 1345.26 235.373   9
  17   6   0 2299.39 304.215   7
 -17   6   0 1841.79 259.370  12
  17  -6  -1-77.8667 105.242   9
  17   6   1 62.8983 87.4014   7
  17   6   2 14.7976 67.6113   7
  17   6   3 367.565 137.682   7
 -17   6  -3 645.546 181.233   5
  17   6   4 642.397 171.092   7
 -17   6  -4 826.986 189.732   5
  17   6   5-103.184 98.9775   7
 -17   6  -5-58.8481 95.8960   5
  17  -6  -5-108.575 82.3507   8
  17  -7   4 1.76773 89.7011   9
 -17   7   4-90.7785 113.582  12
  17  -7   3 492.257 155.501   9
 -17   7   3 1037.89 216.124  12
  17  -7   2 544.172 167.281   9
  17   7  -2 347.146 125.368   7
 -17   7   2 562.729 160.640  12
  17  -7   1 2238.03 304.822   9
  17   7  -1 2429.34 308.366   7
 -17   7   1 2285.91 296.227  12
  17  -7   0 266.590 113.271   9
  17   7   0 790.410 183.150   7
  17  -7  -1 2310.97 300.301   9
  17   7   1 2322.44 299.029   7
  17   7   2 416.548 137.107   7
  17   7   3 863.486 191.582   7
 -17   7  -3 951.872 208.343   5
  17   7   4 37.3611 58.9054   7
 -17   7  -4 70.1903 72.0524   5
  17  -8   3 155.866 111.698   9
  17  -8   2 492.244 163.385   9
  17   8  -2 423.917 143.764   7
 -17   8   2 663.618 177.080  12
  17  -8   1-144.050 123.255   9
  17   8  -1 16.1253 61.9135   7
 -17   8   1-2.39132 53.9727  12
  17  -8   0 730.490 178.704   9
  17   8   0 275.176 117.620   7
  17  -8  -1-106.249 93.3608   9
  17   8   1 205.079 99.0721   7
 -17   8  -2 735.866 202.821   5
  17   8   2 371.354 118.332   7
  17   8   3-6.77794 71.4048   7
 -17   8  -3-144.681 85.1741   5
  18   0   0 2346.30 314.202   7
  18   0  -1 92.9887 74.1388   7
  18   0   1 69.8384 98.7933   7
  18   0  -2 2524.37 323.576   7
  18   0   2 2511.13 314.812   7
 -18   0  -3 373.008 140.532   5
  18   0   3 491.445 147.971   7
 -18   0  -4 2252.12 298.869   5
  18   0   4 2196.80 297.012   7
  18   0   5 260.718 127.660   7
 -18   0  -5 223.720 107.889   5
  18   0   6 1522.38 249.300   7
 -18   0  -6 1783.07 264.114   5
  18  -1   6 889.404 187.274   7
 -18  -1  -6 817.988 176.586   5
  18  -1   5 322.843 108.248   7
 -18  -1  -5 151.993 94.5446   5
  18  -1   4 551.563 145.691   7
 -18  -1  -4 641.526 162.112   5
 -18  -1  -3 1480.18 237.858   5
  18  -1   3 1607.73 251.112   7
 -18  -1  -2 1126.73 210.153   5
  18   1  -2 1488.32 248.668   7
  18  -1   2 1347.03 224.814   7
  18   1  -1 1090.59 214.480   7
  18  -1   1 1100.60 207.927   7
  18  -1   0 2474.58 310.699   7
  18   1   0 2414.20 312.937   7
  18  -1  -1 1201.42 212.228   7
  18   1   1 1073.12 210.074   7
  18   1   2 1031.58 208.472   7
  18   1   3 1407.49 244.332   7
 -18   1  -3 1965.99 286.028   5
  18   1   4 559.830 159.690   7
 -18   1  -4 581.426 143.569   5
  18   1   5 264.325 123.300   7
 -18   1  -5 339.755 134.945   5
  18   1   6 1007.65 212.225   7
 -18   1  -6 900.927 197.512   5
  18  -2   6 512.013 139.588   7
  18  -2   5 1254.21 213.086   7
 -18  -2  -5 1174.48 202.937   5
 -18  -2  -4 676.292 164.035   5
  18  -2   4 426.209 136.617   7
 -18  -2  -3 222.033 107.162   5
  18  -2   3 85.5682 72.7513   7
 -18  -2  -2 950.075 185.102   5
  18   2  -2 743.902 178.026   7
  18  -2   2 760.583 187.953   7
  18   2  -1 61.5351 88.5695   7
  18  -2   1 78.4254 90.5010   7
  18  -2   0 1024.24 202.942   7
  18   2   0 684.041 164.785   7
  18  -2  -1-2.38987 72.7616   7
  18   2   1-12.6213 72.4306   7
  18   2   2 702.302 171.633   7
  18   2   3 103.123 83.7009   7
 -18   2  -3 143.666 121.398   5
  18   2   4 900.219 193.288   7
 -18   2  -4 440.443 143.378   5
  18   2   5 1328.68 238.943   7
 -18   2  -5 923.004 202.196   5
  18   2   6 717.086 179.422   7
 -18   2  -6 906.812 206.937   5
  18  -3   5 1094.01 194.198   7
  18  -3   4 208.329 87.7186   7
  18  -3   3 1001.27 188.496   7
  18   3  -2 88.8708 67.9780   7
  18  -3   2 71.3313 80.7365   7
  18  -3   1 1287.46 220.057   7
  18   3  -1 1783.09 267.812   7
  18  -3   0 232.256 110.302   7
  18   3   0 416.534 146.003   7
  18   3   1 1820.09 276.143   7
  18   3   2 31.9923 68.5994   7
  18   3   3 1295.54 241.653   7
 -18   3  -3 1705.63 271.572   5
  18   3   4 97.8301 113.258   7
 -18   3  -4 288.023 132.476   5
  18   3   5 1672.98 271.832   7
 -18   3  -5 1793.66 279.335   5
 -18   4   5 1094.22 240.151  12
 -18   4   4-73.3948 121.049  12
  18  -4   4-21.0581 59.2641   9
 -18   4   3 1126.39 237.293  12
  18  -4   3 679.111 171.075   9
 -18   4   2 347.713 124.356  12
  18  -4   2 58.2538 68.4029   9
  18   4  -2 358.106 123.974   7
  18  -4   2 353.177 117.546   7
  18  -4   1 38.2572 71.5416   9
  18  -4   1 142.150 78.3051   7
  18   4  -1 82.9563 83.6172   7
  18  -4   0 218.218 109.448   9
  18   4   0 531.985 145.470   7
  18   4   1 249.665 139.002   7
  18   4   2 268.782 130.633   7
  18   4   3 1036.62 210.863   7
 -18   4  -3 1274.64 246.322   5
  18   4   4 178.067 101.787   7
 -18   4  -4 396.063 148.244   5
  18  -4  -4 201.053 90.5884   8
  18   4   5 1229.97 230.468   7
 -18   4  -5 893.672 211.004   5
 -18   5   4 444.442 164.160  12
  18  -5   4-43.4524 87.3369   9
 -18   5   3 1084.82 222.662  12
  18  -5   3 726.211 179.746   9
  18  -5   2 28.0938 65.9446   9
  18   5  -2 9.73215 71.8748   7
 -18   5   1 1504.09 243.410  12
  18  -5   1 904.364 192.790   9
  18   5  -1 1444.28 236.847   7
  18  -5   0-88.3039 80.0179   9
  18   5   0 9.30230 64.7591   7
  18   5   1 1468.27 250.084   7
  18   5   2 113.736 89.1034   7
  18   5   3 908.983 198.378   7
 -18   5  -3 882.413 195.011   5
  18   5   4-1.32111 56.8909   7
 -18   5  -4 96.2138 67.5105   5
  18  -5  -4-28.8091 67.6085   8
  18  -6   2 309.198 121.673   9
  18   6  -2 647.140 160.860   7
 -18   6   2 502.146 145.395  12
  18  -6   1 173.316 105.806   9
  18   6  -1 178.875 99.0530   7
 -18   6   1 47.1179 72.3827  12
  18  -6   0 667.827 166.929   9
  18   6   0 637.647 171.042   7
  18   6   1 3.41244 64.6701   7
  18   6   2 369.090 141.094   7
  19   0   0-48.1538 88.9954   7
  19   0  -1 31.4686 67.9390   7
  19   0   1-44.1363 70.0784   7
 -19   0  -2 121.820 95.6299   5
  19   0   2 55.6718 87.6474   7
 -19   0  -3 175.127 101.866   5
  19   0   3 158.744 98.7619   7
 -19  -1  -3 115.482 74.0403   5
  19  -1   3 276.272 108.839   7
 -19  -1  -2 496.222 153.315   5
  19  -1   2 675.451 169.042   7
  19   1  -1 192.344 94.2791   7
  19  -1   1 255.197 109.330   7
  19  -1   0 63.1286 74.4894   7
  19   1   0 135.508 98.9091   7
  19  -1  -1 181.080 95.3960   7
  19   1   1 360.202 133.147   7
 -19   1  -2 533.645 157.006   5
  19   1   2 620.106 166.567   7
 -19   1  -3 275.507 140.140   5
  19   1   3 166.744 90.3063   7
  19  -2   3 125.373 84.7183   7
  19   2  -2 309.327 132.910   7
  19  -2   2 590.661 157.470   7
  19   2  -1 146.443 96.8125   7
  19  -2   1-51.1676 83.6350   7
  19  -2   0 10.4952 74.6957   7
  19   2   0 143.093 89.5942   7
  19   2   1-36.8272 74.0377   7
 -19   2  -2 441.083 147.392   5
  19   2   2 536.498 166.666   7
  19   2   3 58.8848 79.4976   7
  19   3  -2 946.466 206.142   7
  19  -3   2 816.624 172.900   7
  19  -3   1 11.1157 65.3976   7
  19   3  -1 118.870 98.6044   7
  19   3   0 441.545 151.390   7
  19   3   1 38.6895 90.6344   7
 -19   3  -2 939.608 206.575   5
  19   3   2 620.542 183.220   7
;
_shelx_res_checksum              24864
_shelx_res_file
;
TITL Asp-Cl_100K in P2(1)2(1)2
CELL  0.71073   9.7082   8.9123   8.4820   90.000   90.000   90.000
ZERR     4.00   0.0002   0.0003   0.0002    0.000    0.000    0.000
LATT  -1
SYMM  - X, - Y,   Z
SYMM  1/2 + X, 1/2 - Y, - Z
SYMM  1/2 - X, 1/2 + Y, - Z
SFAC  C    H    CL   N    O
UNIT  16   32   4    4    16
MERG   2
EQIV $1 -x+1/2, y+1/2, -z+1
HTAB N2 Cl1_$1
HTAB N2 O4
EQIV $2 -x, -y+1, z
HTAB C2 Cl1_$2
HTAB N2 Cl1
EQIV $3 -x+1/2, y+1/2, -z+2
HTAB C3 Cl1_$3
EQIV $4 x-1/2, -y+3/2, -z+1
HTAB N2 O4_$4
EQIV $5 x, y+1, z
HTAB O1 Cl1_$5
EQIV $6 -x+1, -y+1, z
HTAB O3 Cl1_$6
HTAB N2 Cl1_$1
HTAB N2 O4
HTAB C2 Cl1_$2
HTAB N2 Cl1
HTAB C3 Cl1_$3
HTAB N2 O4_$4
HTAB O1 Cl1_$5
HTAB O3 Cl1_$6
HTAB N2 Cl1_$1
HTAB N2 O4
HTAB C2 Cl1_$2
HTAB N2 Cl1
HTAB C3 Cl1_$3
HTAB N2 O4_$4
HTAB O1 Cl1_$5
HTAB O3 Cl1_$6
HTAB N2 Cl1_$1
HTAB N2 O4
HTAB C2 Cl1_$2
HTAB N2 Cl1
HTAB C3 Cl1_$3
HTAB N2 O4_$4
HTAB O1 Cl1_$5
HTAB O3 Cl1_$6
HTAB N2 Cl1_$1
HTAB N2 O4
HTAB C2 Cl1_$2
HTAB N2 Cl1
HTAB C3 Cl1_$3
HTAB N2 O4_$4
HTAB O1 Cl1_$5
HTAB O3 Cl1_$6
HTAB N2 Cl1_$1
EQIV $7 -x+1/2, y-1/2, -z+1
HTAB N2 O2_$7
HTAB N2 O4
HTAB C2 Cl1_$2
HTAB N2 Cl1
HTAB C3 Cl1_$3
HTAB N2 O4_$4
HTAB O1 Cl1_$5
HTAB O3 Cl1_$6
HTAB N2 Cl1_$1
HTAB N2 O4
HTAB N2 Cl1
HTAB N2 O4_$4
HTAB O1 Cl1_$5
HTAB O3 Cl1_$6
HTAB N2 Cl1_$1
HTAB N2 O4
HTAB N2 Cl1
HTAB N2 O4_$4
HTAB O1 Cl1_$5
HTAB O3 Cl1_$6
HTAB N2 Cl1_$1
HTAB N2 O4
HTAB C2 Cl1_$2
HTAB N2 Cl1
HTAB C3 Cl1_$3
HTAB N2 O4_$4
HTAB O1 Cl1_$5
HTAB O3 Cl1_$6
HTAB N2 Cl1_$1
HTAB N2 O4
HTAB C2 Cl1_$2
HTAB N2 Cl1
HTAB C3 Cl1_$3
HTAB N2 O4_$4
HTAB O1 Cl1_$5
HTAB O3 Cl1_$6
HTAB N2 Cl1_$1
HTAB N2 O4
HTAB C2 Cl1_$2
HTAB N2 Cl1
HTAB C3 Cl1_$3
HTAB N2 O4_$4
HTAB O1 Cl1_$5
HTAB O3 Cl1_$6
HTAB O1 Cl1_$6
HTAB C2 Cl1
EQIV $8 x+1/2, -y+1/2, -z+1
HTAB N1 O4_$8
EQIV $9 x-1/2, -y+1/2, -z+1
HTAB N1 Cl1_$9
HTAB N1 O2_$7
HTAB N1 O4
EQIV $10 -x+1, -y, z
HTAB N1 Cl1_$10
EQIV $11 x-1/2, -y+1/2, -z
HTAB C3 Cl1_$11
EQIV $12 x-1, y, z
HTAB O3 Cl1_$12
HTAB O1 Cl1_$6
HTAB C2 Cl1
HTAB N1 O4_$8
HTAB N1 Cl1_$9
HTAB N1 O2_$7
HTAB N1 O4
HTAB N1 Cl1_$10
HTAB C3 Cl1_$11
HTAB O3 Cl1_$12
HTAB O1 Cl1_$6
HTAB C2 Cl1
HTAB N1 O4_$8
HTAB N1 Cl1_$9
HTAB N1 O2_$7
HTAB N1 O4
HTAB N1 Cl1_$10
HTAB C3 Cl1_$11
HTAB O3 Cl1_$12
HTAB O1 Cl1_$6
HTAB C2 Cl1
HTAB N1 O4_$8
HTAB N1 Cl1_$9
HTAB N1 O2_$7
HTAB N1 O4
HTAB N1 Cl1_$10
HTAB C3 Cl1_$11
HTAB O3 Cl1_$12
HTAB O1 Cl1_$6
HTAB C2 Cl1
HTAB N1 O4_$8
HTAB N1 Cl1_$9
HTAB N1 O2_$7
HTAB N1 O4
HTAB N1 Cl1_$10
HTAB C3 Cl1_$11
HTAB O3 Cl1_$12
HTAB O1 Cl1_$6
HTAB C2 Cl1
HTAB N1 O4_$8
HTAB N1 Cl1_$9
HTAB N1 O2_$7
HTAB N1 O4
HTAB N1 Cl1_$10
HTAB C3 Cl1_$11
HTAB O3 Cl1_$12
HTAB O1 Cl1_$6
HTAB C2 Cl1
HTAB N1 O4_$8
HTAB N1 Cl1_$9
HTAB N1 O2_$7
HTAB N1 O4
HTAB N1 Cl1_$10
HTAB C3 Cl1_$11
HTAB O3 Cl1_$12
HTAB O1 Cl1_$6
HTAB C2 Cl1
HTAB N1 O4_$8
HTAB N1 Cl1_$9
HTAB N1 O2_$7
HTAB N1 O4
HTAB N1 Cl1_$10
HTAB C3 Cl1_$11
HTAB O3 Cl1_$12
HTAB O1 Cl1_$6
HTAB C2 Cl1
HTAB N1 O4_$8
HTAB N1 Cl1_$9
HTAB N1 O2_$7
HTAB N1 O4
HTAB N1 Cl1_$10
HTAB C3 Cl1_$11
HTAB O3 Cl1_$12
HTAB O1 Cl1_$6
HTAB C2 Cl1
HTAB N1 O4_$8
HTAB N1 Cl1_$9
HTAB N1 O2_$7
HTAB N1 O4
HTAB N1 Cl1_$10
HTAB C3 Cl1_$11
HTAB O3 Cl1_$12
FMAP   2
PLAN   10
SIZE     0.119   0.144   0.200
ACTA
HTAB    2.00000
BOND   $H
CONF
LIST   4
WPDB  -2
L.S.   4
TEMP  -173.00
WGHT    0.044800    0.017000
FVAR       6.91000
MOLE    1
CL1   3    0.661792    0.172916    0.263157    11.00000    0.01398    0.01229 =
         0.01702    0.00187    0.00008    0.00002
MOLE    2
O1    5    0.303408    0.499997    0.173269    11.00000    0.04291    0.01179 =
         0.01533    0.00177   -0.00192   -0.00235
O2    5    0.348917    0.458504    0.429564    11.00000    0.02100    0.01429 =
         0.01547   -0.00281   -0.00189   -0.00131
O3    5   -0.046097    0.180923    0.144121    11.00000    0.01284    0.03819 =
         0.02770   -0.01580   -0.00169   -0.00203
O4    5    0.042205    0.291820    0.359859    11.00000    0.01430    0.02650 =
         0.01323   -0.00362    0.00123    0.00039
N1    4    0.321511    0.163964    0.408185    11.00000    0.01610    0.01194 =
         0.01396    0.00102   -0.00251    0.00018
C1    1    0.323225    0.414144    0.298251    11.00000    0.01324    0.01213 =
         0.01424   -0.00006    0.00118   -0.00075
C2    1    0.316300    0.248647    0.257128    11.00000    0.01214    0.01156 =
         0.01210   -0.00034    0.00063   -0.00001
C3    1    0.193772    0.203734    0.156019    11.00000    0.01363    0.01408 =
         0.01126   -0.00217   -0.00015    0.00032
C4    1    0.056052    0.230727    0.232594    11.00000    0.01221    0.01416 =
         0.01416   -0.00093   -0.00066   -0.00053
H1    2    0.321772    0.587425    0.199584    11.00000    0.07020
H2    2    0.399320    0.227099    0.199247    11.00000    0.02046
H3    2    0.398743    0.184385    0.460038    11.00000    0.02031
H4    2    0.248460    0.184647    0.464681    11.00000    0.01639
H5    2    0.327964    0.069899    0.385954    11.00000    0.04157
H6    2    0.197766    0.255101    0.060776    11.00000    0.01977
H7    2    0.201274    0.102738    0.126590    11.00000    0.01903
H8    2   -0.119249    0.192333    0.194963    11.00000    0.04622
HKLF 4
REM  Asp-Cl_100K in P2(1)2(1)2
REM R1 =  0.0368 for    5353 Fo > 4sig(Fo)  and  0.0464 for all    6012 data
REM    123 parameters refined using      0 restraints
END
WGHT      0.0451      0.0131
REM Instructions for potential hydrogen bonds
HTAB O1 Cl1_$6
HTAB C2 Cl1
HTAB N1 O4_$8
HTAB N1 Cl1_$9
HTAB N1 O2_$7
HTAB N1 O4
HTAB N1 Cl1_$10
HTAB C3 Cl1_$11
HTAB O3 Cl1_$12
REM Highest difference peak  0.463,  deepest hole -0.566,  1-sigma level  0.071
Q1    1   0.5788  0.1787  0.2389  11.00000  0.05    0.45
Q2    1   0.6120  0.0981  0.2538  11.00000  0.05    0.45
Q3    1   0.7151  0.1004  0.2673  11.00000  0.05    0.43
Q4    1   0.6122  0.2446  0.2318  11.00000  0.05    0.43
Q5    1   0.1119  0.1998  0.1845  11.00000  0.05    0.41
Q6    1   0.7311  0.1815  0.2238  11.00000  0.05    0.40
Q7    1   0.3287  0.3261  0.2784  11.00000  0.05    0.40
Q8    1   0.3420  0.4456  0.3467  11.00000  0.05    0.36
Q9    1   0.0026  0.1667  0.2029  11.00000  0.05    0.35
Q10   1   0.6652  0.0796  0.2907  11.00000  0.05    0.34
;
_shelxl_version_number           2.014
#END Tags that were not found in dictionaries
loop_
_space_group_symop_operation_xyz
'x, y, z'
'-x, -y, z'
'x+1/2, -y+1/2, -z'
'-x+1/2, y+1/2, -z'
loop_
_atom_site_type_symbol
_atom_site_label
_atom_site_fract_x
_atom_site_fract_y
_atom_site_fract_z
_atom_site_U_iso_or_equiv
_atom_site_adp_type
_atom_site_calc_flag
_atom_site_occupancy
Cl Cl1 0.66179(2) 0.17292(3) 0.26316(3) 0.01443(5) Uani d 1
O O1 0.30341(12) 0.50000(11) 0.17327(10) 0.02335(19) Uani d 1
O O2 0.34892(10) 0.45850(9) 0.42956(9) 0.01692(14) Uani d 1
O O3 -0.04610(10) 0.18092(13) 0.14412(12) 0.0262(2) Uani d 1
O O4 0.04221(9) 0.29182(10) 0.35986(10) 0.01801(15) Uani d 1
N N1 0.32151(10) 0.16396(11) 0.40818(11) 0.01400(13) Uani d 1
C C1 0.32323(10) 0.41414(12) 0.29825(12) 0.01320(15) Uani d 1
C C2 0.31630(9) 0.24865(11) 0.25713(12) 0.01193(13) Uani d 1
C C3 0.19377(10) 0.20373(12) 0.15602(12) 0.01299(15) Uani d 1
C C4 0.05605(10) 0.23073(11) 0.23259(13) 0.01351(15) Uani d 1
H H1 0.322(3) 0.587(4) 0.200(4) 0.070(9) Uiso d 1
H H2 0.3993(18) 0.227(2) 0.199(2) 0.020(4) Uiso d 1
H H3 0.3987(18) 0.184(2) 0.460(2) 0.020(4) Uiso d 1
H H4 0.2485(17) 0.185(2) 0.465(2) 0.016(4) Uiso d 1
H H5 0.328(3) 0.070(3) 0.386(3) 0.042(6) Uiso d 1
H H6 0.1978(19) 0.255(2) 0.061(2) 0.020(4) Uiso d 1
H H7 0.201(2) 0.103(2) 0.127(2) 0.019(4) Uiso d 1
H H8 -0.119(3) 0.192(3) 0.195(3) 0.046(6) Uiso d 1
loop_
_atom_site_aniso_label
_atom_site_aniso_U_11
_atom_site_aniso_U_22
_atom_site_aniso_U_33
_atom_site_aniso_U_12
_atom_site_aniso_U_13
_atom_site_aniso_U_23
Cl1 0.01398(8) 0.01229(9) 0.01702(9) 0.00002(7) 0.00008(7) 0.00187(7)
O1 0.0429(6) 0.0118(3) 0.0153(3) -0.0024(3) -0.0019(3) 0.0018(3)
O2 0.0210(4) 0.0143(3) 0.0155(3) -0.0013(3) -0.0019(3) -0.0028(2)
O3 0.0128(3) 0.0382(5) 0.0277(5) -0.0020(3) -0.0017(3) -0.0158(4)
O4 0.0143(3) 0.0265(4) 0.0132(3) 0.0004(3) 0.0012(2) -0.0036(3)
N1 0.0161(3) 0.0119(3) 0.0140(3) 0.0002(3) -0.0025(3) 0.0010(3)
C1 0.0132(3) 0.0121(3) 0.0142(3) -0.0008(3) 0.0012(3) -0.0001(3)
C2 0.0121(3) 0.0116(3) 0.0121(3) 0.0000(2) 0.0006(3) -0.0003(3)
C3 0.0136(3) 0.0141(4) 0.0113(3) 0.0003(3) -0.0002(3) -0.0022(3)
C4 0.0122(3) 0.0142(4) 0.0142(4) -0.0005(3) -0.0007(3) -0.0009(3)
loop_
_atom_type_symbol
_atom_type_description
_atom_type_scat_dispersion_real
_atom_type_scat_dispersion_imag
_atom_type_scat_source
C C 0.0033 0.0016 'International Tables Vol C Tables 4.2.6.8 and 6.1.1.4'
H H 0.0000 0.0000 'International Tables Vol C Tables 4.2.6.8 and 6.1.1.4'
Cl Cl 0.1484 0.1585 'International Tables Vol C Tables 4.2.6.8 and 6.1.1.4'
N N 0.0061 0.0033 'International Tables Vol C Tables 4.2.6.8 and 6.1.1.4'
O O 0.0106 0.0060 'International Tables Vol C Tables 4.2.6.8 and 6.1.1.4'
loop_
_exptl_crystal_face_index_h
_exptl_crystal_face_index_k
_exptl_crystal_face_index_l
_exptl_crystal_face_perp_dist
3 -2 13 0.0787
12 0 2 0.0770
2 6 12 0.0787
-1 12 -3 0.0364
-11 4 2 0.0543
-6 -3 11 0.0661
1 13 0 0.0353
-10 0 -8 0.0572
9 7 -3 0.0777
-3 -12 -3 0.0731
5 -10 -6 0.0946
-11 -4 2 0.0708
-2 11 5 0.0547
5 11 2 0.0543
1 12 4 0.0498
3 -11 5 0.0852
-6 -9 6 0.0788
10 -3 -6 0.0932
3 3 -13 0.1105
10 2 -6 0.0875
2 -5 -12 0.1090
8 -6 7 0.0946
9 6 5 0.0765
loop_
_geom_angle_atom_site_label_1
_geom_angle_atom_site_label_2
_geom_angle_atom_site_label_3
_geom_angle
_geom_angle_publ_flag
C1 O1 H1 107(2) ?
C4 O3 H8 107.7(18) ?
C2 N1 H3 110.6(12) ?
C2 N1 H4 109.7(12) ?
H3 N1 H4 111.7(15) ?
C2 N1 H5 107.9(16) ?
H3 N1 H5 104(2) ?
H4 N1 H5 113(2) ?
O2 C1 O1 125.47(10) yes
O2 C1 C2 122.64(9) yes
O1 C1 C2 111.84(8) yes
N1 C2 C1 107.08(8) yes
N1 C2 C3 112.26(8) yes
C1 C2 C3 114.86(8) ?
N1 C2 H2 108.0(12) ?
C1 C2 H2 105.9(11) ?
C3 C2 H2 108.3(11) ?
C4 C3 C2 114.17(8) ?
C4 C3 H6 109.5(12) ?
C2 C3 H6 109.2(12) ?
C4 C3 H7 109.7(12) ?
C2 C3 H7 110.0(12) ?
H6 C3 H7 103.8(16) ?
O4 C4 O3 124.87(10) yes
O4 C4 C3 123.53(9) yes
O3 C4 C3 111.59(9) yes
loop_
_geom_bond_atom_site_label_1
_geom_bond_atom_site_label_2
_geom_bond_distance
_geom_bond_publ_flag
O1 C1 1.3215(14) yes
O1 H1 0.83(3) ?
O2 C1 1.2079(13) yes
O3 C4 1.3204(13) yes
O3 H8 0.84(3) ?
O4 C4 1.2165(13) yes
N1 C2 1.4879(14) yes
N1 H3 0.888(18) ?
N1 H4 0.876(17) ?
N1 H5 0.86(2) ?
C1 C2 1.5171(14) yes
C2 C3 1.5201(14) yes
C2 H2 0.963(18) ?
C3 C4 1.5058(14) yes
C3 H6 0.929(18) ?
C3 H7 0.937(18) ?
loop_
_geom_hbond_atom_site_label_D
_geom_hbond_atom_site_label_H
_geom_hbond_atom_site_label_A
_geom_hbond_site_symmetry_A
_geom_hbond_distance_DH
_geom_hbond_distance_HA
_geom_hbond_distance_DA
_geom_hbond_angle_DHA
N1 H4 O2 4_546 0.876(17) 2.400(18) 2.8257(13) 110.3(14)
N1 H3 O4 3_556 0.888(18) 2.078(18) 2.9354(12) 162.0(16)
N1 H4 O4 . 0.877(17) 2.390(17) 2.9696(13) 123.9(14)
O3 H8 Cl1 1_455 0.84(3) 2.21(3) 3.0111(10) 160(2)
O1 H1 Cl1 2_665 0.83(3) 2.21(3) 3.0320(10) 172(3)
N1 H5 Cl1 2_655 0.86(2) 2.40(2) 3.2487(10) 167(2)
N1 H4 Cl1 3_456 0.876(17) 2.766(18) 3.5056(10) 143.1(14)
C2 H2 Cl1 . 0.963(18) 2.650(18) 3.4217(10) 137.5(15)
loop_
_geom_torsion_atom_site_label_1
_geom_torsion_atom_site_label_2
_geom_torsion_atom_site_label_3
_geom_torsion_atom_site_label_4
_geom_torsion
_geom_torsion_publ_flag
O2 C1 C2 N1 9.71(13) ?
O1 C1 C2 N1 -172.76(9) ?
O2 C1 C2 C3 135.10(10) ?
O1 C1 C2 C3 -47.36(13) ?
N1 C2 C3 C4 60.53(11) ?
C1 C2 C3 C4 -62.11(12) yes
C2 C3 C4 O4 4.49(15) ?
C2 C3 C4 O3 -175.92(10) ?
