#------------------------------------------------------------------------------
#$Date: 2016-02-20 00:18:51 +0200 (Sat, 20 Feb 2016) $
#$Revision: 176760 $
#$URL: svn://www.crystallography.net/cod/cif/2/01/97/2019720.cif $
#------------------------------------------------------------------------------
#
# This file is available in the Crystallography Open Database (COD),
# http://www.crystallography.net/. The original data for this entry
# were provided by IUCr Journals, http://journals.iucr.org/.
#
# The file may be used within the scientific community so long as
# proper attribution is given to the journal article from which the
# data were obtained.
#
data_2019720
loop_
_publ_author_name
'Geiger, David K.'
'Geiger, H. Cristina'
'Deck, Jared M.'
_publ_section_title
;
 Structure determination of three furan-substituted benzimidazoles and
 calculation of \p--\p and C---H&#x00B7;&#x00B7;&#x00B7;\p interaction
 energies
;
_journal_coeditor_code           LG3149
_journal_issue                   12
_journal_name_full               'Acta Crystallographica Section C'
_journal_page_first
;
;
_journal_paper_doi               10.1107/S205322961402405X
_journal_volume                  70
_journal_year                    2014
_chemical_formula_iupac          'C18 H17 N2 O2 +, Br -'
_chemical_formula_moiety         'C18 H17 N2 O2 +, Br -'
_chemical_formula_sum            'C18 H17 Br N2 O2'
_chemical_formula_weight         373.24
_chemical_name_systematic
;
2-(Furan-2-yl)-1-[(furan-2-yl)methyl]-1<i>H</i>-benzimidazol-3-ium bromide
;
_space_group_crystal_system      triclinic
_space_group_IT_number           2
_space_group_name_Hall           '-P 1'
_space_group_name_H-M_alt        'P -1'
_symmetry_space_group_name_Hall  '-P 1'
_symmetry_space_group_name_H-M   'P -1'
_atom_sites_solution_hydrogens   mixed
_atom_sites_solution_primary     direct
_atom_sites_solution_secondary   difmap
_cell_angle_alpha                93.132(3)
_cell_angle_beta                 101.859(3)
_cell_angle_gamma                101.684(3)
_cell_formula_units_Z            2
_cell_length_a                   9.1903(10)
_cell_length_b                   9.6190(10)
_cell_length_c                   9.7443(11)
_cell_measurement_reflns_used    5609
_cell_measurement_temperature    200.(2)
_cell_measurement_theta_max      25.1045
_cell_measurement_theta_min      2.3173
_cell_volume                     821.38(16)
_computing_cell_refinement
;
APEX2 (Bruker, 2013)
;
_computing_data_collection
;
APEX2 (Bruker, 2013)
;
_computing_data_reduction
;
SAINT (Bruker, 2013)
;
_computing_molecular_graphics
;
PLATON (Spek, 2009) and Mercury (Macrae <i>et al.</i>, 2006)
;
_computing_publication_material
;
publCIF (Westrip, 2010)
;
_computing_structure_refinement
;
SHELXL2013 (Sheldrick, 2008)
;
_computing_structure_solution
;
SHELXS97 (Sheldrick, 2008)
;
_diffrn_ambient_temperature      200.(2)
_diffrn_detector_area_resol_mean 8.3330
_diffrn_measured_fraction_theta_full 0.971
_diffrn_measured_fraction_theta_max 0.971
_diffrn_measurement_device_type  'Bruker SMART X2S benchtop'
_diffrn_measurement_method       '\w scans'
_diffrn_radiation_monochromator  'doubly curved silicon crystal'
_diffrn_radiation_type           'Mo Ka'
_diffrn_radiation_wavelength     0.71073
_diffrn_reflns_av_R_equivalents  0.0425
_diffrn_reflns_limit_h_max       10
_diffrn_reflns_limit_h_min       -11
_diffrn_reflns_limit_k_max       11
_diffrn_reflns_limit_k_min       -11
_diffrn_reflns_limit_l_max       11
_diffrn_reflns_limit_l_min       -11
_diffrn_reflns_number            9745
_diffrn_reflns_theta_full        25.34
_diffrn_reflns_theta_max         25.34
_diffrn_reflns_theta_min         2.79
_exptl_absorpt_coefficient_mu    2.513
_exptl_absorpt_correction_T_max  0.52
_exptl_absorpt_correction_T_min  0.35
_exptl_absorpt_correction_type   multi-scan
_exptl_absorpt_process_details
;
(SADABS; Bruker, 2013)
;
_exptl_crystal_colour            'clear colourless'
_exptl_crystal_density_diffrn    1.509
_exptl_crystal_density_method    'not measured'
_exptl_crystal_description       block
_exptl_crystal_F_000             380
_exptl_crystal_size_max          0.500
_exptl_crystal_size_mid          0.400
_exptl_crystal_size_min          0.300
_refine_diff_density_max         0.421
_refine_diff_density_min         -0.362
_refine_ls_extinction_method     none
_refine_ls_goodness_of_fit_ref   0.959
_refine_ls_hydrogen_treatment    mixed
_refine_ls_matrix_type           full
_refine_ls_number_parameters     230
_refine_ls_number_reflns         2915
_refine_ls_number_restraints     60
_refine_ls_restrained_S_all      0.952
_refine_ls_R_factor_all          0.0383
_refine_ls_R_factor_gt           0.0276
_refine_ls_shift/su_max          0.000
_refine_ls_shift/su_mean         0.000
_refine_ls_structure_factor_coef Fsqd
_refine_ls_weighting_details
'w=1/[\s^2^(Fo^2^)+(0.0310P)^2^] where P=(Fo^2^+2Fc^2^)/3'
_refine_ls_weighting_scheme      calc
_refine_ls_wR_factor_gt          0.0595
_refine_ls_wR_factor_ref         0.0631
_reflns_number_gt                2374
_reflns_number_total             2915
_reflns_threshold_expression     I>2\s(I)
_cod_data_source_file            lg3149sup1.cif
_cod_data_source_block           III
_cod_database_code               2019720
_cod_database_fobs_code          2019720
#BEGIN Tags that were not found in dictionaries:
_shelx_hkl_file
;
  -2   0   0 3643.54   93.89
  -2   0   0 3695.73  138.09
  -2   0   0 3632.24   85.89
   2   0   0 3297.87   85.69
   2   0   0 3666.53   93.99
  -3   0   0 1296.57   52.39
  -3   0   0 1232.88   34.60
  -3   0   0 1217.28   31.90
   3   0   0 1247.28   34.70
   3   0   0 1189.48   31.90
  -4   0   0   91.79    5.70
  -4   0   0   83.59    5.50
  -4   0   0  100.99   10.10
   4   0   0   83.99    8.20
  -5   0   0   60.39    5.60
  -5   0   0   57.09    5.40
  -5   0   0   57.59    9.40
  -6   0   0   47.00   10.30
  -6   0   0   38.80    5.30
  -6   0   0   43.30    5.20
  -7   0   0  129.59   16.00
  -7   0   0  131.29    8.90
  -7   0   0  131.79    9.00
  -8   0   0  114.09   16.00
  -8   0   0  109.59    9.10
  -8   0   0  112.99    9.00
  -9   0   0  174.48   11.60
  -9   0   0  154.58   10.80
  -9   0   0  166.98   20.10
 -10   0   0   94.29    9.50
 -10   0   0   92.39    9.90
 -10   0   0   82.99   17.00
  10  -1   0    1.40   10.20
 -10   1   0    1.50   10.20
 -10   1   0    7.20    5.20
 -10   1   0    5.50    5.60
   9  -1   0    3.10    9.20
  -9   1   0    6.30    9.20
  -9   1   0    3.40    4.40
  -9   1   0   -0.40    4.70
  -8   1   0  129.39   17.20
  -8   1   0  133.89    9.60
  -8   1   0  129.89    9.10
  -7   1   0   53.49    6.10
  -7   1   0   52.59    6.50
  -7   1   0   56.79   12.10
  -6   1   0  678.73   21.90
  -6   1   0  655.63   35.90
  -6   1   0  651.23   20.90
   5  -1   0  548.85   25.60
  -5   1   0  528.45   29.50
  -5   1   0  530.85   17.10
  -5   1   0  546.35   17.70
   4  -1   0  941.81   27.60
   4  -1   0  962.50   39.10
  -4   1   0  947.41   43.20
  -4   1   0  936.81   25.70
  -4   1   0  916.61   27.10
   3  -1   0  902.01   25.40
   3  -1   0  927.01   24.00
  -3   1   0  915.71   39.80
  -3   1   0  866.71   23.50
  -3   1   0  866.51   25.10
   1  -1   0   45.30    2.10
  -1   1   0   50.49    2.10
  -1   1   0   36.60    1.80
   0   1   0   -2.20    0.70
   0   1   0   -2.70    0.30
   0   1   0   -2.80    0.30
   0   1   0   -3.00    0.20
  -1  -1   0  620.84   18.20
  -1  -1   0  646.64   16.40
  -1  -1   0  649.64   25.80
   1   1   0  608.74   18.20
   1   1   0  665.13   25.90
   1   1   0  632.54   16.30
  -2  -1   0  910.41   24.40
  -2  -1   0  940.31   26.90
  -2  -1   0  948.31   39.00
   2   1   0  961.50   27.00
   2   1   0  931.11   24.40
   2   1   0  948.11   39.10
  -3  -1   0  185.58   12.30
  -3  -1   0  179.08    7.40
  -3  -1   0  183.38    8.10
   3   1   0  196.58   12.60
   3   1   0  188.28   11.80
   3   1   0  185.38    8.20
   3   1   0  188.48    7.60
  -4  -1   0   43.90    7.60
  -4  -1   0   38.90    4.50
  -4  -1   0    9.40   11.20
  -4  -1   0   40.90    4.60
  -5  -1   0  710.03   36.20
  -5  -1   0  740.83   22.40
  -5  -1   0  709.73   23.60
  -6  -1   0  489.35   17.70
  -6  -1   0  506.55   29.50
  -6  -1   0  485.15   18.50
  -7  -1   0  123.69    9.00
  -7  -1   0  116.19   14.60
  -7  -1   0  100.29    8.40
  -8  -1   0  327.87   15.60
  -8  -1   0  344.77   15.60
  -8  -1   0  327.77   25.70
  -9  -1   0    1.70    4.60
  -9  -1   0   -1.80    4.80
  -9  -1   0    1.90    8.40
   9   1   0    3.80   10.50
 -10  -1   0    8.80    6.10
 -10  -1   0   11.40   11.60
 -10  -1   0   18.20    6.60
  10   1   0    5.30   12.70
 -10   2   0  101.89   18.80
 -10   2   0  101.59    9.30
 -10   2   0   99.39    9.90
  -9   2   0  251.07   12.70
  -9   2   0  229.18   13.00
  -9   2   0  229.68   23.80
  -8   2   0  212.98   21.50
  -8   2   0  225.88   11.40
  -8   2   0  215.28   11.80
  -7   2   0   46.20    5.90
  -7   2   0   52.49    5.80
  -7   2   0   59.69   12.30
   6  -2   0  257.47   15.00
  -6   2   0  250.77   10.40
  -6   2   0  242.88   10.70
  -6   2   0  221.68   18.70
   5  -2   0    1.20    4.50
   5  -2   0   11.10    3.70
   5  -2   0   10.70    3.30
  -5   2   0   13.90    3.20
  -5   2   0   17.10    6.60
  -5   2   0   15.80    2.80
   4  -2   0   38.00    4.50
  -4   2   0   37.10    6.90
  -4   2   0   38.90    3.30
  -4   2   0   39.30    3.80
   3  -2   0   93.69    4.70
   3  -2   0   97.49    5.10
  -3   2   0   99.79    4.30
  -3   2   0   97.49    4.80
   2  -2   0  289.77    9.60
   2  -2   0  307.27    9.40
  -2   2   0  292.57    9.20
  -2   2   0  312.57    9.10
  -1   2   0 2650.14  101.79
  -1   2   0 2746.93   73.09
  -1   2   0 2748.53   65.79
  -1   2   0 2821.12   66.79
   0  -2   0 1848.12   44.30
   0  -2   0 1480.85   73.09
   0  -2   0 1824.62   48.20
   0   2   0 1847.42   69.09
   0   2   0 1947.51   72.29
   0   2   0 1906.91   44.20
   0   2   0 1862.71   48.30
  -1  -2   0 4975.10  131.19
  -1  -2   0 4884.01  119.09
  -1  -2   0 4848.61  189.48
   1   2   0 4991.40  118.99
   1   2   0 5149.79  131.39
   1   2   0 5084.89  189.18
   1   2   0 5176.88  188.38
  -2  -2   0 3423.76  126.29
  -2  -2   0 3201.18   79.49
  -2  -2   0 3196.38   87.49
   2   2   0 3171.78  125.59
   2   2   0 3294.27   87.79
   2   2   0 3246.28   79.29
   2   2   0 3408.96  126.19
  -3  -2   0  185.58   12.10
  -3  -2   0  176.88    7.70
  -3  -2   0  183.48    8.60
   3   2   0  176.78   12.10
  -4  -2   0  110.59   10.70
  -4  -2   0  107.39    6.70
  -4  -2   0  118.89    7.50
   4   2   0  112.19   11.10
  -5  -2   0    1.00    2.90
  -5  -2   0   -0.10    3.10
  -5  -2   0    2.00    4.90
   5   2   0   -0.70    5.90
  -6  -2   0    3.10    3.90
  -6  -2   0    2.50    6.00
  -6  -2   0    1.90    3.70
   6   2   0   -2.00    6.50
  -7  -2   0  109.69    9.00
  -7  -2   0  105.99    8.40
  -7  -2   0  109.19   14.30
  -8  -2   0   15.70    5.80
  -8  -2   0   15.00    5.40
  -8  -2   0   17.80    9.80
   8   2   0   -2.20    9.10
  -9  -2   0   89.99   17.00
  -9  -2   0   99.79    9.90
  -9  -2   0  109.59   10.40
  10   2   0    2.80   13.40
 -10   3   0   77.69    8.60
 -10   3   0   76.09   17.90
 -10   3   0   73.09    9.10
  -9   3   0    4.20    9.50
  -9   3   0    2.00    4.70
  -9   3   0    9.60    4.30
   8  -3   0    2.50    6.70
  -8   3   0    0.20    7.30
  -8   3   0    1.20    3.50
  -8   3   0    3.20    4.30
   7  -3   0    0.60    5.60
  -7   3   0    3.70    3.20
  -7   3   0    3.80    6.70
  -7   3   0    6.00    3.50
   6  -3   0  682.93   29.60
  -6   3   0  688.03   38.00
  -6   3   0  683.13   21.30
  -6   3   0  679.63   21.20
   5  -3   0  181.58    9.90
  -5   3   0  185.18   15.70
  -5   3   0  189.58    8.40
  -5   3   0  190.28    7.70
   4  -3   0 1479.65   41.80
   4  -3   0 1476.95   56.69
  -4   3   0 1485.85   40.80
  -4   3   0 1525.15   38.80
  -4   3   0 1527.75   65.29
   3  -3   0 1638.24   41.50
   3  -3   0 1599.34   44.70
  -3   3   0 1601.34   40.90
  -3   3   0 1637.44   43.60
   2  -3   0  672.73   22.00
  -2   3   0  680.43   20.00
  -2   3   0  691.33   18.60
   1  -3   0 2110.69   52.29
  -1   3   0 2121.59   51.59
  -1   3   0 2086.79   54.99
  -1   3   0 1952.90   58.89
  -1   3   0 2117.09   78.39
   0  -3   0    1.00    4.60
   0  -3   0    3.50    1.70
   0  -3   0    2.00    1.70
   0   3   0   10.70    2.60
   0   3   0    1.10    3.60
   0   3   0    8.40    2.00
   0   3   0   10.10    4.00
   0   3   0   10.10    1.90
  -1  -3   0  139.99    6.60
  -1  -3   0  128.29    5.60
  -1  -3   0  130.99    9.00
   1   3   0  147.89    9.40
   1   3   0  124.69    7.90
   1   3   0  140.99    5.70
   1   3   0  158.18    7.00
  -2  -3   0  187.48    7.80
  -2  -3   0  175.18   11.10
  -2  -3   0  201.78    8.90
   2   3   0  204.38   10.90
   2   3   0  199.78    7.60
  -3  -3   0   11.60    3.50
  -3  -3   0   10.10    3.00
  -3  -3   0   11.60    4.50
   3   3   0    0.60    5.20
   3   3   0   13.80    4.40
  -4  -3   0   16.10    4.20
  -4  -3   0   13.60    3.80
  -4  -3   0   23.20    6.40
   4   3   0   29.90    6.80
   4   3   0    0.50    5.80
  -5  -3   0  320.57   21.30
  -5  -3   0  311.77   13.50
  -5  -3   0  302.17   14.10
  -6  -3   0  320.77   15.30
  -6  -3   0  346.07   24.10
  -6  -3   0  333.47   15.00
  -7  -3   0  254.07   13.60
  -7  -3   0  239.58   21.30
  -7  -3   0  228.78   13.30
  -8  -3   0  195.58   20.90
  -8  -3   0  196.28   12.80
  -8  -3   0  197.28   13.00
  -9  -3   0   52.29    8.90
  -9  -3   0   58.09    8.80
 -10   4   0   93.69   17.70
 -10   4   0   93.09   10.10
  -9   4   0  385.46   15.50
  -9   4   0  368.26   30.80
  -9   4   0  359.06   16.20
  -8   4   0   32.40   11.80
  -8   4   0   24.60    5.40
  -8   4   0   31.40    4.90
  -7   4   0  477.15   17.10
  -7   4   0  444.66   31.20
  -7   4   0  489.05   16.40
   6  -4   0  121.19    7.50
  -6   4   0  130.99   15.30
  -6   4   0  135.29    7.80
  -6   4   0  146.89    7.00
   5  -4   0    4.00    2.90
  -5   4   0    8.20    2.30
  -5   4   0    5.20    2.70
  -5   4   0    5.90    5.50
   4  -4   0  580.34   19.40
  -4   4   0  593.24   17.40
  -4   4   0  557.14   17.30
   3  -4   0   63.69    6.60
   3  -4   0   62.49    5.00
  -3   4   0   63.49    4.30
  -3   4   0   59.19    4.10
   2  -4   0    3.20    8.00
  -2   4   0   11.10    1.90
  -2   4   0   10.10    2.00
  -2   4   0   10.20    9.00
  -2   4   0   11.60    3.00
  -2   4   0   13.20    3.30
  -2   4   0   10.00    2.40
  -2   4   0    1.40    2.70
   1  -4   0   38.80    4.50
  -1   4   0   40.40    6.40
  -1   4   0   50.69   11.70
  -1   4   0   49.30    4.20
  -1   4   0   42.00    3.40
  -1   4   0   43.60    4.50
   0  -4   0  244.68    9.40
   0  -4   0  237.68    9.30
   0   4   0  258.57    8.90
   0   4   0  276.37   16.10
   0   4   0  259.17    9.70
   0   4   0  246.68   13.40
  -1  -4   0  695.23   33.10
  -1  -4   0  671.53   21.40
  -1  -4   0  651.13   19.30
   1   4   0  700.33   19.00
   1   4   0  679.23   29.20
  -2  -4   0 1290.77   54.19
  -2  -4   0 1262.27   34.90
  -2  -4   0 1327.57   38.70
   2   4   0 1377.16   52.79
  -3  -4   0  283.97   12.70
  -3  -4   0  271.67   11.40
  -3  -4   0  281.27   16.50
   3   4   0  296.57   16.00
  -4  -4   0  308.87   19.30
  -4  -4   0  303.27   13.90
  -4  -4   0  280.67   12.40
   4   4   0  316.87   18.70
  -5  -4   0   16.10    5.00
  -5  -4   0   11.30    6.90
  -5  -4   0   10.40    4.50
   5   4   0    2.30    8.20
  -6  -4   0    2.50    4.60
  -6  -4   0   -0.80    4.30
  -6  -4   0    1.30    7.00
   6   4   0    4.70    9.60
  -7  -4   0    7.30    5.60
  -7  -4   0    0.40    8.10
  -7  -4   0    7.00    4.80
   7   4   0   -0.60    9.60
  -8  -4   0    3.00    5.50
  -8  -4   0    4.60    5.60
   8   4   0    2.00   12.00
  -9  -4   0   10.80    6.50
  -9  -4   0   12.60    7.20
   9   4   0   11.90   17.00
 -10   5   0   80.59    9.10
 -10   5   0   65.99   17.80
  -9   5   0   67.19   16.20
  -9   5   0   70.39    8.10
  -8   5   0   75.89   15.40
  -8   5   0   76.79    7.70
  -8   5   0   80.09    6.70
  -7   5   0    1.10    2.80
  -7   5   0    2.40    3.60
  -7   5   0    3.30    7.10
  -6   5   0   45.60    5.40
  -6   5   0   47.50    4.50
  -6   5   0   47.40   10.80
   5  -5   0   56.69    6.90
  -5   5   0   66.39    4.60
  -5   5   0   61.79    5.70
  -5   5   0   72.09   11.40
   4  -5   0 1322.97   41.80
  -4   5   0 1315.87   35.40
  -4   5   0 1335.87   37.10
  -3   5   0  467.75   15.00
  -3   5   0  466.45   14.60
  -3   5   0  478.75   16.10
  -2   5   0  420.66   14.00
  -2   5   0  434.76   17.50
  -2   5   0  353.26   33.30
  -2   5   0  421.96   13.60
  -2   5   0  428.86   18.40
  -2   5   0  448.16   15.00
   1  -5   0 1208.68   34.80
  -1   5   0 1316.57   50.49
  -1   5   0 1364.96   63.09
  -1   5   0 1034.40   41.60
  -1   5   0 1298.37   35.80
  -1   5   0 1317.97   33.80
   0  -5   0  353.46   13.00
   0  -5   0  356.86   13.30
   0   5   0  383.66   21.60
   0   5   0  403.16   12.70
  -1  -5   0   15.60    3.70
  -1  -5   0    7.60    6.80
  -1  -5   0   14.30    3.20
   1   5   0   16.80    4.40
   1   5   0    1.20    5.50
  -2  -5   0  194.68   14.30
  -2  -5   0  193.58    9.10
  -2  -5   0  201.08   10.30
   2   5   0  212.08   11.60
  -3  -5   0   35.90    5.20
  -3  -5   0   39.20    5.80
  -3  -5   0   38.20    7.50
   3   5   0   42.50    6.80
  -4  -5   0    3.70    3.80
  -4  -5   0   -2.00    3.60
  -4  -5   0   -1.20    4.80
   4   5   0    1.50    5.10
   4   5   0    2.10    7.40
  -5  -5   0   28.50    6.30
  -5  -5   0   38.90    6.50
  -5  -5   0   44.70    9.70
  -6  -5   0  248.28   14.00
  -6  -5   0  238.08   14.10
  -7  -5   0   93.69   10.00
  -7  -5   0   93.39   10.80
  -8  -5   0  155.98   12.70
  -8  -5   0  140.99   12.70
 -10   6   0   57.19   17.30
 -10   6   0   57.29    8.60
  -9   6   0  111.29    9.40
  -9   6   0   94.99   18.20
  -8   6   0  207.68   22.70
  -8   6   0  203.48   11.20
  -7   6   0  142.09    8.90
  -7   6   0  154.38    7.70
  -7   6   0  129.79   17.70
  -6   6   0  164.58    9.20
  -6   6   0  167.88    7.50
  -6   6   0  148.89   17.50
   5  -6   0  306.57   16.70
  -5   6   0  288.07   22.30
  -5   6   0  304.77   11.10
  -5   6   0  296.27   12.10
   4  -6   0    3.00   11.00
  -4   6   0   22.70    4.00
  -4   6   0   29.60    3.90
  -4   6   0   30.30    3.90
  -3   6   0  241.08   10.40
  -3   6   0  275.57   12.50
  -3   6   0  256.77    9.70
  -3   6   0  248.58   11.80
   2  -6   0    4.90    9.40
  -2   6   0    7.10    3.30
  -2   6   0    4.80    4.40
  -2   6   0    6.20    3.00
  -2   6   0    3.60    2.40
  -2   6   0    0.00    3.90
   1  -6   0   24.60    4.80
   1  -6   0    4.60    8.70
  -1   6   0   23.10    7.20
  -1   6   0   29.00    5.70
  -1   6   0   27.30    9.90
   0  -6   0  150.08    8.10
   0  -6   0  151.08    8.50
   0   6   0  177.68   14.50
  -1  -6   0   26.60    4.50
  -1  -6   0    9.50    7.60
  -1  -6   0   28.80    4.90
   1   6   0   30.60    6.00
  -2  -6   0  309.67   14.00
  -2  -6   0  299.37   12.50
  -2  -6   0  289.57   21.70
   2   6   0  333.17   15.90
  -3  -6   0  382.66   22.10
  -3  -6   0  355.46   14.80
  -3  -6   0  358.16   16.30
  -4  -6   0  207.08   12.60
  -4  -6   0  214.28   12.00
  -5  -6   0  145.69   11.00
  -5  -6   0  152.88   11.50
  -6  -6   0    5.70    5.60
  -6  -6   0    1.90    5.40
   6   6   0    3.70   10.60
  -7  -6   0   46.60    8.90
  -7  -6   0   43.80    8.40
   7   6   0    8.60   14.20
  -9   7   0   59.19    7.90
  -9   7   0   58.49   15.90
  -8   7   0   48.20   13.80
  -8   7   0   50.39    6.90
  -7   7   0   96.99    8.20
  -7   7   0   81.19   15.50
  -6   7   0    0.90    3.70
  -6   7   0    1.20    2.70
  -6   7   0    0.90    7.30
  -5   7   0   15.00    4.20
  -5   7   0   21.90    3.70
  -5   7   0   23.40    9.00
  -4   7   0   53.99    5.20
  -4   7   0   45.90    5.70
  -4   7   0   47.70    5.30
  -3   7   0  304.67   12.60
  -3   7   0  328.37   15.80
  -3   7   0  320.37   15.20
  -2   7   0  191.08   14.20
  -2   7   0  205.98   10.30
  -2   7   0  205.78   12.60
   1  -7   0  403.16   16.90
  -1   7   0  458.35   30.00
  -1   7   0  365.76   22.80
   0  -7   0   59.19    7.00
   0  -7   0   64.89    6.40
   0   7   0   65.39   10.60
  -1  -7   0  274.17   12.80
  -1  -7   0  253.07   12.20
   1   7   0  271.27   16.50
  -2  -7   0   10.10    4.30
  -2  -7   0   10.50    4.70
  -2  -7   0    5.20    7.10
   2   7   0    3.60    7.90
  -3  -7   0   -0.90    3.90
  -3  -7   0    2.60    4.80
   3   7   0   -0.50    8.20
  -4  -7   0    3.60    5.30
  -4  -7   0    4.80    4.80
   4   7   0   -0.90    8.50
  -5  -7   0    1.00    5.50
  -5  -7   0   -1.40    5.00
   5   7   0   -0.70    9.60
  -6  -7   0   24.00    7.40
  -6  -7   0   28.00    7.80
   6   7   0    4.90   12.80
  -9   8   0   34.40    6.90
  -9   8   0   36.10   14.20
  -8   8   0   33.60   13.70
  -8   8   0   37.10    6.50
  -7   8   0  163.18   20.80
  -7   8   0  175.48   10.60
  -6   8   0   30.20   11.30
  -6   8   0   28.70    5.60
  -5   8   0  226.78   11.10
  -5   8   0  206.78   20.30
  -5   8   0  226.18   10.40
  -4   8   0   81.99    7.90
  -4   8   0   74.89    6.90
   3  -8   0    7.70   13.10
  -3   8   0   57.39    6.50
  -3   8   0   61.89    8.60
   2  -8   0   11.00   12.80
  -2   8   0  101.09   12.30
   1  -8   0   -3.30   10.10
   1  -8   0   -0.30    4.60
  -1   8   0    2.60    6.20
  -1   8   0   -3.70    6.10
   0  -8   0   10.30    4.40
   0  -8   0    8.40    4.80
   0  -8   0    5.20   10.80
   0   8   0    0.40    7.10
  -1  -8   0    2.30    4.20
  -1  -8   0    1.20    4.40
   1   8   0   -0.30    7.10
  -2  -8   0  134.09    9.80
  -2  -8   0  133.89   10.30
  -3  -8   0   47.30    7.10
  -3  -8   0   42.90    8.00
  -4  -8   0  147.09   11.20
  -4  -8   0  137.09   11.90
  -5  -8   0  101.79   11.30
  -5  -8   0  109.79   11.50
  -8   9   0    8.30    5.30
  -8   9   0   10.00   11.90
  -7   9   0  165.38   21.70
  -7   9   0  172.18   11.00
  -6   9   0    4.90    9.10
  -6   9   0    8.70    4.90
  -5   9   0   20.90   10.20
  -5   9   0   21.20    5.30
  -4   9   0    3.60    7.30
  -4   9   0    1.40    4.40
  -3   9   0  101.49    8.90
  -3   9   0  117.39   11.90
  -2   9   0   33.90    6.30
  -2   9   0   33.00    9.60
   1  -9   0   81.59   10.20
  -1   9   0  100.29   15.60
   0  -9   0   71.89    9.10
  -1  -9   0  113.69    9.90
  -1  -9   0  119.39    9.70
  -2  -9   0   23.10    6.70
  -2  -9   0   17.00    5.90
   2   9   0    2.20    9.80
  -3  -9   0   57.99    8.50
  -3  -9   0   57.39    9.00
  -4  -9   0   -1.70    6.10
  -4  -9   0    3.90    5.80
   4   9   0    1.60   10.40
  -7  10   0   82.69   18.30
  -7  10   0   84.19    9.70
  -6  10   0   12.80    5.50
  -6  10   0    8.50   10.70
  -5  10   0   48.00   13.70
  -5  10   0   52.19    7.20
  -4  10   0  119.19    9.80
  -4  10   0  110.49   16.80
  -3  10   0    0.00    4.90
  -3  10   0    0.20    8.20
  -2  10   0   98.69   10.00
  -2  10   0   95.69   14.80
   1 -10   0   33.00    8.10
  -1  10   0   -0.30    8.60
  -1  10   0   18.20   10.50
   0 -10   0    5.30    6.10
   0  10   0    0.90    9.50
   0  10   0   11.70   11.40
  -1 -10   0    7.50    5.70
   1  10   0    0.50    9.40
  -2 -10   0   74.39    9.60
  -2 -10   0   77.09   10.30
  -3 -10   0   -0.90    6.10
   3  10   0   -6.90   10.50
  -5  11   0   40.80   14.20
  -1  11   0   11.30   11.30
   0  11   0    3.20   11.10
   0  11   0   18.40   12.60
   1  11   0   -0.20   11.40
   1  11  -1   -1.50   10.90
   0  11  -1    3.00   11.00
   0  11  -1   24.50   12.40
   3  10  -1    1.90   12.00
  -3 -10   1    5.70    6.90
  -2 -10   1  108.09   10.40
   1  10  -1   -0.70    8.70
  -1 -10   1   17.70    6.10
   0  10  -1    3.10    9.30
  -1  10  -1    1.90    9.10
  -1  10  -1   15.90   10.40
  -4  10  -1    4.60    9.50
  -5  10  -1   37.10   12.80
  -6  10  -1   11.40   12.00
   4   9  -1    1.90   10.80
  -4  -9   1    5.40    5.80
  -4  -9   1    5.10    6.30
   3   9  -1   -3.80    8.80
  -3  -9   1    5.80    5.70
  -3  -9   1    8.30    5.40
   2   9  -1   -2.60    7.50
  -2  -9   1    3.40    5.40
  -2  -9   1    0.10    4.80
   1   9  -1    0.40    7.40
  -1  -9   1   23.50    5.90
  -1  -9   1   20.30    5.80
   0  -9   1   35.40    6.00
   0  -9   1   31.60    6.60
  -1   9  -1    1.40    6.90
  -1   9  -1   26.30   10.10
  -2   9  -1  102.89    7.90
  -2   9  -1   89.89   13.30
  -2   9  -1   99.49   13.40
  -3   9  -1  146.19    8.80
  -3   9  -1  141.09   16.60
  -3   9  -1  155.18   12.30
  -4   9  -1  198.38   20.50
  -4   9  -1  201.08   10.20
  -5   9  -1   87.29   16.50
  -5   9  -1   99.79    7.70
  -6   9  -1   82.49   16.60
  -6   9  -1   88.59    8.10
  -7   9  -1    6.40   11.20
  -7   9  -1    1.10    4.50
  -8   9  -1   16.20   12.70
  -8   9  -1   20.20    6.00
   6   8  -1    1.80   12.50
  -6  -8   1    2.80    6.30
  -6  -8   1    4.70    6.60
  -5  -8   1   48.20    9.00
  -5  -8   1   46.40    8.20
   4   8  -1   -0.70    8.80
  -4  -8   1    6.10    6.20
  -4  -8   1    6.80    5.50
  -3  -8   1  190.38   12.40
  -3  -8   1  175.98   10.80
  -2  -8   1  148.99   10.50
  -2  -8   1  154.08    9.70
  -1  -8   1   95.99    8.10
  -1  -8   1   94.59    8.20
   0   8  -1  317.17   18.50
   0  -8   1  335.07   13.90
   0  -8   1  331.47   14.50
  -1   8  -1   33.70    8.10
  -1   8  -1   23.60    8.50
  -1   8  -1   11.00    7.80
  -2   8  -1   88.59    6.80
  -2   8  -1   83.79   11.30
  -2   8  -1   77.79   11.90
  -3   8  -1   26.20    5.80
  -3   8  -1   19.90    8.60
  -3   8  -1   22.70    4.30
  -4   8  -1    1.50    3.00
  -4   8  -1    4.60    3.50
  -4   8  -1    4.30    7.80
  -5   8  -1   59.19   13.50
  -5   8  -1   58.69    6.20
  -6   8  -1    3.50    3.90
  -6   8  -1    2.60    8.90
  -7   8  -1   85.39   17.20
  -7   8  -1   89.79    8.10
  -8   8  -1   48.50   15.40
  -8   8  -1   56.19    7.20
   7   7  -1    3.50   12.90
  -7  -7   1   37.50    8.70
  -7  -7   1   41.60    8.80
  -6  -7   1  180.98   13.60
  -6  -7   1  185.98   13.40
   5   7  -1    6.30   10.50
  -5  -7   1    1.20    5.60
  -5  -7   1    1.50    5.00
  -4  -7   1  215.48   12.10
  -4  -7   1  233.78   13.70
   3   7  -1   -1.40    7.40
  -3  -7   1   27.30    5.20
  -3  -7   1   23.20    5.80
   2   7  -1   -0.20    6.80
  -2  -7   1    7.00    4.20
  -2  -7   1    7.80    3.90
  -1  -7   1   40.90    5.40
  -1  -7   1   31.90    5.20
   0   7  -1   -1.90    4.90
   0   7  -1    4.70    5.90
   0   7  -1    4.50    4.30
   0  -7   1    3.60    3.70
   0  -7   1    6.50    3.50
  -1   7  -1  122.09   11.60
  -1   7  -1  138.29   19.70
   1  -7   1  118.79    8.80
  -2   7  -1   24.70    4.00
  -2   7  -1   17.50    7.10
  -2   7  -1   23.00    3.90
  -2   7  -1   24.40    5.40
  -2   7  -1   20.10    6.30
  -3   7  -1  377.76   12.90
  -3   7  -1  351.26   24.00
  -3   7  -1  367.26   14.80
  -3   7  -1  332.57   12.60
  -3   7  -1  386.96   18.80
  -4   7  -1  215.98    9.50
  -4   7  -1  210.88    8.50
  -4   7  -1  193.88   18.50
  -5   7  -1  593.54   19.00
  -5   7  -1  564.24   35.90
  -5   7  -1  610.84   17.20
  -6   7  -1  323.07   13.10
  -6   7  -1  313.67   26.30
  -7   7  -1   20.50   11.00
  -7   7  -1   22.80    5.00
  -8   7  -1   65.49    7.40
  -8   7  -1   64.09   16.40
  -9   7  -1    0.00   10.90
  -9   7  -1    2.00    4.90
   7   6  -1    2.10   12.10
  -7  -6   1    3.90    5.80
  -7  -6   1   -4.10    5.60
   6   6  -1    0.00    9.80
  -6  -6   1   16.10    6.20
  -6  -6   1   14.20    6.40
   5   6  -1   -1.00    7.90
  -5  -6   1   -0.10    4.60
  -5  -6   1    1.80    4.80
  -4  -6   1  105.69    9.20
  -4  -6   1  109.39    8.20
  -3  -6   1   84.19    7.80
  -3  -6   1   83.19    6.90
  -2  -6   1  305.07   13.50
  -2  -6   1  290.77   11.70
  -1  -6   1  747.43   24.00
  -1  -6   1  720.03   21.70
   0   6  -1  339.27   11.10
   0   6  -1  300.47   16.50
   0   6  -1  336.57   20.20
   0  -6   1  311.47   12.20
   0  -6   1  303.67   12.00
  -1   6  -1  357.36   20.20
  -1   6  -1  390.46   19.10
  -1   6  -1  372.86   13.60
  -1   6  -1  388.56   12.50
  -1   6  -1  366.26   30.20
   1  -6   1  346.57   12.60
   1  -6   1  349.77   14.00
  -2   6  -1  271.57   10.70
  -2   6  -1  254.97   14.20
  -2   6  -1  249.38   17.60
  -2   6  -1  264.77   10.00
  -2   6  -1  247.18    9.60
  -2   6  -1  263.37   13.90
  -3   6  -1   47.00    9.50
  -3   6  -1   39.60    3.80
  -3   6  -1   40.30    5.90
  -3   6  -1   44.60    4.20
  -3   6  -1   40.50    4.50
  -4   6  -1    1.20    1.70
  -4   6  -1    1.20    1.80
  -4   6  -1   -1.60    5.50
  -4   6  -1    4.20    2.70
  -5   6  -1   21.00    2.50
  -5   6  -1   18.00    8.70
  -5   6  -1   23.20    2.80
  -5   6  -1   22.30    4.00
  -6   6  -1   24.00    3.30
  -6   6  -1   25.80    4.50
  -6   6  -1   27.50   10.50
  -7   6  -1    6.00    4.10
  -7   6  -1    8.70    9.30
  -8   6  -1   92.89    8.20
  -8   6  -1   87.29   17.10
  -9   6  -1   32.60   13.80
  -9   6  -1   41.90    7.20
   8   5  -1    1.00   13.40
  -8  -5   1   38.30    8.30
  -8  -5   1   33.10    7.60
  -7  -5   1   79.29    9.70
  -7  -5   1   86.79    9.60
  -6  -5   1  273.57   13.90
  -6  -5   1  288.47   15.30
  -5  -5   1  421.66   16.90
  -5  -5   1  446.36   18.90
  -5  -5   1  436.26   23.80
  -4  -5   1  167.48    9.60
  -4  -5   1  162.48   10.30
  -4  -5   1  158.88   10.90
  -3  -5   1  566.14   18.30
  -3  -5   1  570.34   20.80
  -2  -5   1   65.19    6.00
  -2  -5   1   72.79    5.40
   1   5  -1  152.18    6.50
  -1  -5   1  142.59    6.60
  -1  -5   1  137.09    7.50
   0   5  -1  169.38   10.30
   0   5  -1  171.38    8.30
   0   5  -1  178.28   14.40
   0   5  -1  174.48    6.80
   0  -5   1  167.48   11.00
   0  -5   1  157.08    7.30
   0  -5   1  159.98    7.50
  -1   5  -1   27.50    3.70
  -1   5  -1   24.00    5.30
  -1   5  -1   25.00    3.20
  -1   5  -1   16.50    9.00
  -1   5  -1   24.90    4.90
   1  -5   1   23.10    3.00
   1  -5   1   26.00    4.70
  -2   5  -1   38.80    3.70
  -2   5  -1   40.00    7.50
  -2   5  -1   43.30    4.90
  -2   5  -1   15.40   10.80
  -2   5  -1   44.10    5.50
  -2   5  -1   38.40    3.40
  -2   5  -1   44.00    5.30
   2  -5   1   38.00    4.50
  -3   5  -1   87.79    5.20
  -3   5  -1   78.39   10.30
  -3   5  -1   86.59    7.70
  -3   5  -1   88.19    8.10
  -3   5  -1   84.79    4.40
  -3   5  -1   86.39    4.00
   3  -5   1   80.59    5.40
  -4   5  -1  803.52   22.70
  -4   5  -1  787.32   41.20
  -4   5  -1  812.52   22.10
  -5   5  -1  340.97   12.30
  -5   5  -1  336.07   10.50
  -5   5  -1  327.87   24.10
   5  -5   1  330.97   13.30
  -6   5  -1  569.34   35.70
  -6   5  -1  595.64   17.60
  -6   5  -1  572.44   18.90
  -7   5  -1  785.52   23.00
  -7   5  -1  742.43   23.90
  -7   5  -1  736.03   44.50
  -8   5  -1   -0.60    8.90
  -8   5  -1    0.90    4.20
  -9   5  -1   27.40   12.60
  -9   5  -1   29.70    6.40
 -10   5  -1   -1.80   10.50
 -10   5  -1    0.80    5.20
  -9  -4   1   91.89   10.70
  -9  -4   1   86.99   10.40
   8   4  -1   -0.30   11.30
  -8  -4   1    5.00    5.50
  -8  -4   1    7.80    5.90
  -7  -4   1   94.79   14.30
  -7  -4   1   86.79    9.00
  -7  -4   1   82.19    9.10
   6   4  -1    1.50    9.30
  -6  -4   1    2.90    4.30
  -6  -4   1    3.40    6.60
  -6  -4   1    1.70    4.30
  -5  -4   1  162.88    9.60
  -5  -4   1  148.99    9.80
  -5  -4   1  176.68   14.20
   4   4  -1    1.90    6.00
  -4  -4   1   11.60    9.00
  -4  -4   1   24.20    5.00
  -4  -4   1   19.70    4.20
  -4  -4   1   16.00    5.10
   3   4  -1    2.10    6.00
  -3  -4   1   21.50    3.60
  -3  -4   1   22.20    4.00
  -3  -4   1    6.90    5.60
  -3  -4   1   20.00    4.30
   2   4  -1  314.47   10.30
  -2  -4   1  290.97   10.30
  -2  -4   1  295.87   12.10
   1   4  -1  566.34   18.50
   1   4  -1  580.24   15.50
  -1  -4   1  524.85   15.60
  -1  -4   1  558.64   18.00
  -1  -4   1  544.95   25.40
   0   4  -1  818.32   34.40
   0   4  -1  864.01   24.70
   0   4  -1  866.11   21.70
   0   4  -1  833.82   34.90
   0  -4   1  815.22   22.20
   0  -4   1  809.42   34.60
   0  -4   1  821.22   24.00
  -1   4  -1  684.63   19.30
  -1   4  -1  660.13   30.00
  -1   4  -1  649.83   18.10
  -1   4  -1  669.73   27.90
  -1   4  -1  662.63   17.90
   1  -4   1  648.74   18.80
   1  -4   1  650.73   27.40
  -2   4  -1  866.91   39.60
  -2   4  -1  852.91   35.30
  -2   4  -1  855.01   22.70
  -2   4  -1  880.81   23.70
  -2   4  -1  913.31   25.00
  -2   4  -1  866.71   25.00
   2  -4   1  852.11   34.30
  -3   4  -1  161.48    5.30
  -3   4  -1  160.78   13.50
  -3   4  -1  162.68    6.50
   3  -4   1  153.68    7.90
   3  -4   1  163.18    7.30
  -4   4  -1   74.09    3.50
  -4   4  -1   71.39   10.70
  -4   4  -1   70.49    4.70
   4  -4   1   64.99    5.30
  -5   4  -1   18.30    2.50
  -5   4  -1   19.90    8.00
  -5   4  -1    2.40    4.30
  -5   4  -1   20.40    3.50
   5  -4   1   13.70    3.00
   5  -4   1   18.80    5.10
  -6   4  -1   23.40    9.30
  -6   4  -1   23.80    4.30
  -6   4  -1   23.60    3.40
   6  -4   1   19.70    4.00
   6  -4   1   18.20    7.30
  -7   4  -1   54.29    5.30
  -7   4  -1   52.79    6.20
  -7   4  -1   56.29   13.30
  -8   4  -1   51.99   13.50
  -8   4  -1   52.79    6.00
  -8   4  -1   47.90    6.70
  -9   4  -1  109.39   19.00
  -9   4  -1  118.39    9.80
 -10   4  -1   61.19    8.60
 -10   4  -1   63.19   16.70
   9   3  -1   -5.10    9.90
  -9  -3   1    1.30    5.40
  -9  -3   1    7.90    6.10
   8   3  -1    0.40    9.70
  -8  -3   1    6.60    8.00
  -8  -3   1    8.40    5.20
  -8  -3   1    1.10    4.90
  -7  -3   1   67.49   12.30
  -7  -3   1   63.19    7.90
  -7  -3   1   59.79    7.60
  -6  -3   1  510.25   28.90
  -6  -3   1  530.35   18.90
  -6  -3   1  500.95   20.20
  -5  -3   1  979.20   29.00
  -5  -3   1  971.60   31.70
  -5  -3   1  990.80   44.80
  -4  -3   1  991.60   28.60
  -4  -3   1 1031.70   44.00
  -4  -3   1 1018.70   31.80
  -3  -3   1  957.80   29.80
  -3  -3   1  997.50   40.40
  -3  -3   1  965.20   26.70
   2   3  -1  685.63   21.50
   2   3  -1  685.23   18.60
  -2  -3   1  680.73   29.90
  -2  -3   1  653.43   21.20
  -2  -3   1  661.43   18.50
   1   3  -1  446.86   14.70
   1   3  -1  458.75   12.40
   1   3  -1  464.25   21.00
  -1  -3   1  441.66   14.50
  -1  -3   1  445.66   12.50
  -1  -3   1  443.36   20.50
   0   3  -1   58.19    5.20
   0   3  -1   64.89    3.00
   0   3  -1   61.39    3.80
   0   3  -1   61.39    5.00
   0  -3   1   59.39    5.00
   0  -3   1   60.19    3.50
   0  -3   1   61.99    3.20
  -1   3  -1  133.69    4.60
  -1   3  -1  120.29    7.40
  -1   3  -1  135.39    9.10
  -1   3  -1  128.39    4.70
  -1   3  -1  138.89    5.50
   1  -3   1  126.39    7.10
   1  -3   1  127.59    4.50
  -2   3  -1    2.80    7.60
  -2   3  -1   17.00    4.90
  -2   3  -1   18.90    3.80
  -2   3  -1   16.70    1.40
  -2   3  -1   16.20    2.00
   2  -3   1   16.10    2.30
   2  -3   1   17.20    2.80
  -3   3  -1  121.49    4.20
  -3   3  -1  116.19   11.40
  -3   3  -1  118.39    5.40
   3  -3   1  132.39    8.30
   3  -3   1  122.69    4.90
   3  -3   1  121.69    5.90
  -4   3  -1  639.64   18.70
  -4   3  -1  644.14   34.20
  -4   3  -1  662.63   18.60
   4  -3   1  661.13   19.20
  -5   3  -1  181.48    7.50
  -5   3  -1  181.68   16.70
  -5   3  -1  184.38    8.40
  -6   3  -1  948.21   28.40
  -6   3  -1 1009.80   29.10
  -6   3  -1  999.10   50.99
  -7   3  -1  425.56   30.20
  -7   3  -1  413.66   16.00
  -7   3  -1  424.26   15.30
  -8   3  -1  381.06   14.80
  -8   3  -1  354.46   15.50
  -8   3  -1  350.36   28.90
  -9   3  -1   91.69    9.00
  -9   3  -1   70.39   16.20
  -9   3  -1  106.29    8.50
 -10   3  -1    1.30    5.30
 -10   3  -1   10.10   11.60
 -10  -2   1   54.49    8.90
 -10  -2   1   59.69    9.00
 -10  -2   1   55.89   14.80
  -9  -2   1  111.49   10.30
  -9  -2   1  111.29   17.00
  -9  -2   1  117.29   10.20
  -8  -2   1  178.28   18.60
  -8  -2   1  176.48   11.70
  -8  -2   1  178.18   11.40
  -7  -2   1  240.38   12.10
  -7  -2   1  231.58   19.40
  -7  -2   1  235.88   12.80
  -6  -2   1   94.59    8.00
  -6  -2   1  104.09   12.20
  -6  -2   1  109.09    7.90
  -5  -2   1   65.49    9.00
  -5  -2   1   59.89    6.30
  -5  -2   1   56.69    5.60
  -4  -2   1 1377.96   37.30
  -4  -2   1 1460.75   59.09
  -4  -2   1 1371.86   41.10
   3   2  -1   84.59    5.10
  -3  -2   1   91.29    7.50
  -3  -2   1   82.49    5.00
  -3  -2   1   89.59    5.90
   2   2  -1   37.40    5.20
   2   2  -1   36.70    3.10
   2   2  -1   38.10    3.60
  -2  -2   1   33.70    4.70
  -2  -2   1   33.50    3.00
  -2  -2   1   35.10    3.40
  -2  -2   1   35.30    3.80
   1   2  -1  385.76   17.20
   1   2  -1  382.86   10.30
   1   2  -1  379.96   12.00
  -1  -2   1  383.56   10.20
  -1  -2   1  369.96   12.00
  -1  -2   1  371.06   16.90
   0   2  -1 1980.90   75.89
   0   2  -1 1925.51   51.99
   0   2  -1 1932.41   75.29
   0   2  -1 2033.60   46.90
   0  -2   1 1918.51   52.09
   0  -2   1 2094.89   75.69
   0  -2   1 1924.11   75.09
   0  -2   1 2007.10   47.10
  -1   2  -1  933.91   39.90
  -1   2  -1  961.60   38.00
  -1   2  -1  954.20   23.40
   1  -2   1  967.70   23.60
   1  -2   1  979.40   39.80
   1  -2   1  950.10   37.50
  -2   2  -1 1510.85   39.10
  -2   2  -1 1482.15   36.80
  -2   2  -1 1479.55   62.09
   2  -2   1 1463.75   39.10
   2  -2   1 1529.35   62.09
   2  -2   1 1513.75   37.00
   2  -2   1 1512.75   59.69
  -3   2  -1  481.55   26.10
  -3   2  -1  494.05   14.40
  -3   2  -1  493.75   14.40
   3  -2   1  532.55   14.80
   3  -2   1  488.45   14.40
  -4   2  -1  884.71   24.70
  -4   2  -1  890.31   43.20
  -4   2  -1  923.91   25.60
   4  -2   1  886.81   25.70
  -5   2  -1   95.09   12.50
  -5   2  -1   98.79    6.30
  -6   2  -1   36.60   10.20
  -6   2  -1   39.20    4.90
  -6   2  -1   37.00    5.20
  -7   2  -1   -2.90    3.40
  -7   2  -1    2.00    3.00
  -7   2  -1   -1.60    7.10
   7  -2   1    0.80    7.20
  -8   2  -1    8.30    4.60
  -8   2  -1    6.60    3.90
  -8   2  -1    2.30    8.60
   8  -2   1   -0.80    7.70
  -9   2  -1   11.30   10.20
  -9   2  -1   15.90    5.60
  -9   2  -1   15.90    5.00
   9  -2   1    0.80    8.80
 -10   2  -1   22.40    5.90
 -10   2  -1   14.00   11.70
 -10   2  -1   23.50    6.90
  10   1  -1   -5.20   10.30
 -10  -1   1   15.70   10.60
 -10  -1   1   15.50    6.30
 -10  -1   1   15.00    6.40
  -9  -1   1  115.59   10.10
  -9  -1   1  114.69   17.20
  -9  -1   1  102.89    9.60
  -8  -1   1   37.80   11.20
  -8  -1   1   41.40    6.70
  -8  -1   1   38.00    6.50
   7   1  -1    3.30    8.00
  -7  -1   1   20.90    4.80
  -7  -1   1   25.00    9.00
  -7  -1   1   19.10    4.90
  -6  -1   1  198.38   10.00
  -6  -1   1  190.78   10.40
  -6  -1   1  194.68   16.30
  -5  -1   1  872.41   25.70
  -5  -1   1  889.31   41.50
  -5  -1   1  898.51   28.00
  -4  -1   1 1851.81   47.90
  -4  -1   1 1904.91   76.69
  -4  -1   1 1869.01   52.49
   3   1  -1 1017.10   29.80
   3   1  -1  982.40   26.70
   3   1  -1 1061.59   42.30
  -3  -1   1 1001.70   26.80
  -3  -1   1 1023.20   41.70
  -3  -1   1  993.00   29.30
  -3  -1   1 1033.20   42.50
   2   1  -1 1525.75   37.20
   2   1  -1 1428.46   41.10
  -2  -1   1 1509.05   41.10
  -2  -1   1 1520.55   58.59
  -2  -1   1 1531.75   37.20
   1   1  -1  102.09    8.10
   1   1  -1  111.09    6.50
   1   1  -1  127.39    4.70
   1   1  -1  118.19    3.70
  -1  -1   1  122.39    7.20
  -1  -1   1  114.49    4.50
  -1  -1   1  114.29    6.40
  -1  -1   1  117.79    3.80
   0   1  -1   25.80    3.30
   0   1  -1   21.20    1.70
   0   1  -1   32.00    3.40
   0  -1   1   27.90    3.30
   0  -1   1   27.50    1.80
   0  -1   1   28.90    3.30
  -1   1  -1   35.60    2.00
  -1   1  -1   43.80    4.90
   1  -1   1   40.40    1.60
   1  -1   1   38.90    5.30
   1  -1   1   42.00    2.10
   1  -1   1   42.80    4.90
  -2   1  -1   81.59    3.50
  -2   1  -1   74.79    7.50
  -2   1  -1   78.49    3.80
   2  -1   1   77.19    3.50
   2  -1   1   85.49    7.80
   2  -1   1   82.29    3.90
  -3   1  -1    0.90    4.00
  -3   1  -1    4.60    1.80
  -3   1  -1    2.70    3.70
  -3   1  -1    5.20    2.00
   3  -1   1    2.40    3.70
   3  -1   1   -0.40    3.40
   3  -1   1    4.10    1.90
   3  -1   1    8.90    2.00
  -5   1  -1  304.97   11.70
  -5   1  -1  316.77   21.80
  -5   1  -1  288.87   11.70
  -6   1  -1  442.56   15.80
  -6   1  -1  434.46   15.90
  -6   1  -1  414.06   27.70
  -7   1  -1  170.08   18.20
  -7   1  -1  166.38    9.40
  -7   1  -1  145.99    9.50
  -8   1  -1  754.82   25.70
  -8   1  -1  767.22   26.20
  -8   1  -1  758.42   44.90
  -9   1  -1   74.89    8.50
  -9   1  -1   79.99    8.30
  -9   1  -1   76.59   16.60
 -10   1  -1   95.09   18.60
 -10   1  -1   91.59    9.90
 -10   1  -1   94.89    9.40
  10   0  -1   -0.90   11.00
 -10   0   1   37.40    7.30
 -10   0   1   31.60    7.20
 -10   0   1   31.30   13.30
  -9   0   1  155.48   11.10
  -9   0   1  141.29   10.20
  -9   0   1  143.39   18.40
  -8   0   1  312.27   14.30
  -8   0   1  315.67   24.80
  -8   0   1  339.17   15.20
  -7   0   1  483.95   29.80
  -7   0   1  499.95   18.70
  -7   0   1  467.85   17.70
  -6   0   1  314.47   13.00
  -6   0   1  307.37   21.00
  -6   0   1  300.57   12.20
  -5   0   1  544.65   28.30
  -5   0   1  520.85   18.00
  -5   0   1  534.55   17.00
   4   0  -1  379.36   18.60
  -4   0   1  381.16   20.30
  -4   0   1  356.36   12.90
  -4   0   1  360.46   12.10
   3   0  -1 1827.02   45.70
   3   0  -1 1858.41   71.19
   3   0  -1 1841.92   50.19
  -3   0   1 1831.62   70.79
  -3   0   1 1802.52   49.80
  -3   0   1 1832.92   45.50
   2   0  -1  836.22   33.90
   2   0  -1  866.11   21.90
   2   0  -1  875.71   24.20
  -2   0   1  872.41   21.80
  -2   0   1  839.22   33.70
  -2   0   1  841.92   23.90
   1   0  -1  749.73   34.80
   1   0  -1  744.83   21.10
   1   0  -1  756.02   30.00
   1   0  -1  771.22   19.10
  -1   0   1  836.72   34.50
  -1   0   1  750.82   29.90
  -1   0   1  715.73   21.00
  -1   0   1  778.32   19.00
  -1   0  -1   54.69    5.20
  -1   0  -1   53.69    2.70
  -1   0  -1   53.59    2.60
   1   0   1   63.99    5.30
   1   0   1   57.19    2.60
   1   0   1   55.89    2.70
  -2   0  -1 2908.61   76.59
  -2   0  -1 2782.82   70.19
  -2   0  -1 2889.81  113.89
   2   0   1 3003.00  113.99
   2   0   1 3032.20   76.59
   2   0   1 2778.62   70.09
  -3   0  -1 3162.38   80.99
  -3   0  -1 3308.77   88.29
  -3   0  -1 3316.67  131.79
   3   0   1 3261.07   80.99
   3   0   1 3409.56   88.39
   3   0   1 3465.35  131.89
  -4   0  -1  129.59   12.50
  -4   0  -1  127.29    7.00
  -4   0  -1  131.39    6.90
   4   0   1  137.59    7.00
  -5   0  -1 1004.60   28.90
  -5   0  -1 1021.50   30.60
  -5   0  -1  969.10   48.10
  -6   0  -1  308.27   13.20
  -6   0  -1  313.97   13.30
  -6   0  -1  309.47   23.00
  -7   0  -1   10.40    4.20
  -7   0  -1    5.80    4.20
  -7   0  -1    9.20    8.00
   7   0   1    1.90    8.20
  -8   0  -1    5.60    8.50
  -8   0  -1   -0.30    4.50
  -8   0  -1    0.50    4.20
   8   0   1   -2.30    7.70
  -9   0  -1    6.50    4.80
  -9   0  -1    4.30    9.40
  -9   0  -1    2.80    5.00
   9   0   1   -1.20    9.10
 -10   0  -1   11.70   11.40
 -10   0  -1    5.60    6.00
 -10   0  -1    7.40    5.50
  10   0   1   -4.10    9.80
 -10   1   1  153.48   11.40
 -10   1   1  164.18   11.80
 -10   1   1  140.69   20.30
  -9   1   1   85.49    8.70
  -9   1   1   80.59    8.40
  -9   1   1   89.89   15.60
  -8   1   1   35.90   11.00
  -8   1   1   36.70    6.20
  -8   1   1   37.30    5.90
  -7   1   1  124.79    8.10
  -7   1   1  113.99   13.80
  -7   1   1  128.09    8.40
   6  -1  -1    2.00    6.00
  -6   1   1   21.90    4.20
  -6   1   1   23.10    4.00
  -6   1   1   16.70    6.90
   5  -1  -1   -1.10    3.70
   5  -1  -1   10.90    3.90
  -5   1   1    9.40    3.00
  -5   1   1    8.70    5.10
  -5   1   1   11.50    2.90
   4  -1  -1 1219.08   48.10
  -4   1   1 1215.28   34.20
  -4   1   1 1173.38   31.60
   3  -1  -1 1300.47   34.10
   3  -1  -1 1316.97   51.49
   3  -1  -1 1358.16   37.20
  -3   1   1 1295.87   33.80
  -3   1   1 1353.76   51.39
  -3   1   1 1363.66   36.80
   2  -1  -1 1492.05   40.40
   2  -1  -1 1466.35   56.29
  -2   1   1 1461.65   55.99
  -2   1   1 1553.64   40.20
  -2   1   1 1415.26   36.70
   1  -1  -1   69.29    5.90
   1  -1  -1   78.49    9.50
   1  -1  -1   85.19    4.40
  -1   1   1   92.29    4.50
  -1   1   1   87.49    5.50
  -1   1   1   85.59    4.20
  -1   1   1  105.69   10.20
   0  -1  -1  471.95   12.70
   0  -1  -1  473.55   21.40
   0   1   1  390.46   15.90
   0   1   1  504.55   21.40
   0   1   1  478.25   12.70
  -1  -1  -1    3.00    2.50
  -1  -1  -1    1.00    3.40
  -1  -1  -1    3.00    1.30
  -1  -1  -1    3.40    1.40
   1   1   1   10.70    1.60
   1   1   1   12.80    1.80
   1   1   1    0.70    3.30
   1   1   1   11.40    3.00
  -2  -1  -1    7.90    2.00
  -2  -1  -1   10.30    3.80
  -2  -1  -1    8.10    2.20
  -2  -1  -1    0.80    4.50
   2   1   1   14.40    2.30
   2   1   1   12.80    2.30
   2   1   1   13.70    3.90
   2   1   1    1.20    4.60
  -3  -1  -1   49.30    7.90
  -3  -1  -1   55.19    4.50
  -3  -1  -1   57.99    4.70
   3   1   1   66.19    8.40
  -4  -1  -1    7.80    5.30
  -4  -1  -1   11.70    3.30
  -4  -1  -1    6.50    3.00
   4   1   1    0.90    6.30
  -5  -1  -1   99.99   12.30
  -5  -1  -1   88.19    6.90
  -5  -1  -1   93.89    7.00
  -6  -1  -1  209.18   18.60
  -6  -1  -1  194.38   10.60
  -6  -1  -1  197.08   10.60
  -7  -1  -1  128.69    9.50
  -7  -1  -1  128.39    9.40
  -7  -1  -1  128.59   16.30
  -8  -1  -1  216.88   12.60
  -8  -1  -1  196.18   12.20
  -8  -1  -1  208.48   21.60
  -9  -1  -1  150.28   20.20
  -9  -1  -1  161.48   11.70
  -9  -1  -1  145.49   11.00
 -10  -1  -1  156.98   12.70
 -10  -1  -1  138.19   11.80
 -10   2   1   18.70    5.90
 -10   2   1   26.80   12.50
 -10   2   1   21.70    6.40
  -9   2   1  222.78   12.40
  -9   2   1  208.48   12.30
  -9   2   1  234.98   23.20
   8  -2  -1    3.70    7.20
  -8   2   1   23.20    5.30
  -8   2   1   36.40   11.20
  -8   2   1   29.90    5.30
  -7   2   1  595.64   20.40
  -7   2   1  604.34   35.60
  -7   2   1  631.44   21.00
   6  -2  -1  802.82   34.50
  -6   2   1  798.92   40.80
  -6   2   1  784.82   24.70
  -6   2   1  774.92   23.70
   3  -2  -1  655.63   26.20
   3  -2  -1  666.53   19.10
   3  -2  -1  646.44   20.40
  -3   2   1  683.23   19.90
  -3   2   1  666.63   18.60
  -3   2   1  670.73   25.90
   2  -2  -1  296.17   10.90
   2  -2  -1  303.17    9.90
  -2   2   1  287.67    9.50
  -2   2   1  301.37   12.00
  -2   2   1  226.28   23.20
  -2   2   1  303.27   10.30
   1  -2  -1  266.17   11.80
   1  -2  -1  272.67    9.70
   1  -2  -1  261.87   20.40
  -1   2   1  287.37    9.50
  -1   2   1  270.67   11.00
  -1   2   1  288.17   19.20
   0  -2  -1    2.00    1.40
   0  -2  -1    0.80    1.40
   0  -2  -1   -1.00    3.10
   0  -2  -1    0.70    3.40
   0   2   1    2.00    1.40
   0   2   1   -1.10    3.20
   0   2   1   -1.30    2.80
   0   2   1    4.70    1.80
  -1  -2  -1  626.84   28.50
  -1  -2  -1  620.34   17.50
  -1  -2  -1  620.54   19.00
   1   2   1  645.54   17.30
   1   2   1  659.13   28.20
   1   2   1  622.74   18.80
  -2  -2  -1 1679.83   45.50
  -2  -2  -1 1793.52   50.09
  -2  -2  -1 1806.82   73.69
   2   2   1 1819.12   45.30
   2   2   1 1916.41   72.79
   2   2   1 1818.22   49.99
  -3  -2  -1  843.22   25.00
  -3  -2  -1  889.61   40.80
  -3  -2  -1  841.52   27.10
   3   2   1  953.50   40.40
  -4  -2  -1 1622.24   70.69
  -4  -2  -1 1601.64   43.70
  -4  -2  -1 1644.94   47.30
  -5  -2  -1  236.98   19.00
  -5  -2  -1  249.78   12.00
  -5  -2  -1  241.58   11.70
  -6  -2  -1  548.55   20.80
  -6  -2  -1  536.25   20.10
  -6  -2  -1  554.64   33.70
  -7  -2  -1   33.40   11.00
  -7  -2  -1   44.00    7.10
  -7  -2  -1   40.20    6.50
  -8  -2  -1  119.59   10.00
  -8  -2  -1  116.09   18.10
  -8  -2  -1  121.69   10.60
  -9  -2  -1    2.70    5.70
  -9  -2  -1   -1.00    9.80
  -9  -2  -1    3.00    5.10
   9   2   1   -1.20   11.00
 -10   3   1   74.99    8.40
 -10   3   1   61.49   16.00
 -10   3   1   76.49    9.00
  -9   3   1   79.29    8.40
  -9   3   1   78.09   15.60
  -9   3   1   96.49    8.20
  -8   3   1  607.84   37.60
  -8   3   1  598.14   21.30
  -8   3   1  608.64   21.20
   7  -3  -1   -0.20    4.80
   7  -3  -1    1.30    3.50
  -7   3   1    4.40    3.30
  -7   3   1    4.70    3.60
  -7   3   1    4.00    7.10
   6  -3  -1   78.59    7.00
  -6   3   1   83.19    6.00
  -6   3   1   80.89   11.30
  -6   3   1   87.29    6.50
   4  -3  -1  336.87   13.10
  -4   3   1  353.96   12.30
  -4   3   1  343.67   12.00
   3  -3  -1  338.27   11.90
   3  -3  -1  323.77   12.80
  -3   3   1  326.27   11.20
  -3   3   1  327.27   11.70
   2  -3  -1 1361.16   40.60
  -2   3   1 1290.47   38.30
  -2   3   1 1226.68   67.09
  -2   3   1 1418.46   36.50
  -2   3   1 1360.06   34.90
   1  -3  -1 1993.40   50.09
   1  -3  -1 1591.44   86.29
  -1   3   1 1899.71   52.39
  -1   3   1 1929.91   57.29
  -1   3   1 2203.18   85.49
  -1   3   1 2097.29   49.60
   0  -3  -1  509.85   16.60
   0  -3  -1  568.74   29.00
   0  -3  -1  530.35   16.10
   0   3   1  538.95   16.60
   0   3   1  542.85   26.60
   0   3   1  556.54   15.90
  -1  -3  -1  524.15   16.40
  -1  -3  -1  510.75   26.60
  -1  -3  -1  571.74   18.00
   1   3   1  589.44   17.90
   1   3   1  567.74   16.30
   1   3   1  578.44   26.30
  -2  -3  -1  569.04   28.60
  -2  -3  -1  573.94   17.90
  -2  -3  -1  622.34   19.90
   2   3   1  611.54   27.70
  -3  -3  -1   32.70    7.10
  -3  -3  -1   25.40    4.00
  -3  -3  -1   29.70    4.70
   3   3   1   43.00    7.30
   3   3   1    7.60    7.90
  -4  -3  -1  296.07   20.70
  -4  -3  -1  302.77   13.50
  -4  -3  -1  293.77   12.30
  -5  -3  -1    1.80    6.20
  -5  -3  -1    1.00    3.80
  -5  -3  -1    3.60    3.90
   5   3   1   -1.70    7.00
  -6  -3  -1   11.30    5.10
  -6  -3  -1   15.10    8.70
  -6  -3  -1   13.00    5.00
   6   3   1    0.40    8.70
  -7  -3  -1   34.30    6.90
  -7  -3  -1   25.80    6.20
  -7  -3  -1   35.50   12.00
   7   3   1    3.50   10.70
  -8  -3  -1  106.99   10.50
  -8  -3  -1  103.39   10.50
  -8  -3  -1  116.79   18.40
  -9  -3  -1   63.69    9.60
  -9  -3  -1   59.59    9.00
  -9  -3  -1   60.19   16.50
 -10   4   1    3.40   10.40
 -10   4   1    4.60    5.30
 -10   4   1    7.00    4.80
  -9   4   1    9.60    5.10
  -9   4   1   11.20    4.60
  -9   4   1    6.80    9.20
  -8   4   1  153.08    9.80
  -8   4   1  134.59   17.20
  -8   4   1  150.48    8.80
  -7   4   1   47.10    5.90
  -7   4   1   44.80    5.50
  -7   4   1   47.80   11.50
  -6   4   1  440.16   16.10
  -6   4   1  492.65   16.30
   5  -4  -1  434.66   17.20
  -5   4   1  444.56   15.30
  -5   4   1  458.25   15.40
  -4   4   1  430.56   14.80
  -4   4   1  437.36   14.50
   3  -4  -1  167.18   10.60
  -3   4   1  168.08    7.80
  -3   4   1  174.78    8.40
   2  -4  -1  113.69   10.10
  -2   4   1  136.09   19.10
  -2   4   1  132.29    8.40
  -2   4   1  129.79    7.60
   1  -4  -1  182.68   21.80
   1  -4  -1  251.37   10.60
  -1   4   1  248.18    9.20
  -1   4   1  255.67   19.50
  -1   4   1  249.28   14.60
  -1   4   1  248.48    9.70
   0  -4  -1  303.17   11.60
   0  -4  -1  322.37   23.50
   0  -4  -1  309.47   11.70
   0   4   1  324.77   19.60
   0   4   1  323.07   11.60
   0   4   1  343.67   11.60
  -1  -4  -1  122.59   11.90
  -1  -4  -1  119.99    6.70
  -1  -4  -1  127.89    7.30
   1   4   1  135.09   10.70
  -2  -4  -1   92.19    6.60
  -2  -4  -1   88.39   10.20
  -2  -4  -1   90.09    6.20
   2   4   1  112.69    9.60
  -3  -4  -1  219.68   11.40
  -3  -4  -1  223.58   10.50
  -3  -4  -1  222.98   16.50
   3   4   1  256.87   15.70
  -4  -4  -1  663.23   22.50
  -4  -4  -1  650.53   23.90
  -4  -4  -1  687.53   35.80
  -5  -4  -1  188.88   11.70
  -5  -4  -1  189.88   11.40
  -5  -4  -1  208.98   19.10
  -6  -4  -1  116.89    9.90
  -6  -4  -1  116.59   16.60
  -6  -4  -1  114.59    9.90
  -7  -4  -1  207.08   13.30
  -7  -4  -1  191.38   12.90
  -7  -4  -1  194.68   21.70
  -8  -4  -1   33.00    7.90
  -8  -4  -1   37.60    7.70
   8   4   1   -0.80   12.70
 -10   5   1   73.99    8.90
 -10   5   1   74.19   17.90
  -9   5   1  140.99   19.90
  -9   5   1  161.08    9.60
  -9   5   1  149.99   10.50
  -8   5   1   67.09    6.50
  -8   5   1   61.59    7.30
  -8   5   1   65.89   14.70
  -7   5   1  376.06   27.70
  -7   5   1  349.57   14.60
  -7   5   1  393.96   14.30
   6  -5  -1   11.90   15.90
  -6   5   1   55.09    6.00
  -6   5   1   66.29    5.50
   5  -5  -1    0.00   10.90
  -5   5   1    5.70    3.30
  -5   5   1    3.50    2.60
   4  -5  -1   62.39    8.70
  -4   5   1   62.19    5.50
  -4   5   1   75.59    5.80
   3  -5  -1  177.88   13.40
  -3   5   1  193.98   10.00
  -3   5   1  187.68    9.00
   2  -5  -1  123.79    8.90
  -2   5   1  133.79   10.00
  -2   5   1  128.19    6.60
  -2   5   1  137.29    8.00
   1  -5  -1 1311.27   37.70
  -1   5   1 1441.76   63.99
  -1   5   1 1215.68   45.80
  -1   5   1 1391.66   54.09
   0  -5  -1  857.51   49.99
   0  -5  -1  873.41   26.50
   0  -5  -1  895.41   27.70
   0   5   1  989.70   43.60
  -1  -5  -1  225.88   10.30
  -1  -5  -1  248.18   19.50
  -1  -5  -1  248.58   11.20
   1   5   1  260.77   16.30
  -2  -5  -1  603.44   21.70
  -2  -5  -1  602.14   32.00
  -2  -5  -1  576.34   19.70
   2   5   1  643.24   29.60
  -3  -5  -1  297.97   14.10
  -3  -5  -1  277.27   12.80
  -3  -5  -1  281.27   19.90
   3   5   1  320.97   18.40
  -4  -5  -1    7.10    4.40
  -4  -5  -1   10.10    6.90
  -4  -5  -1   15.20    5.20
   4   5   1   -0.20    7.60
  -5  -5  -1  340.87   16.20
  -5  -5  -1  293.17   15.30
  -5  -5  -1  329.27   24.40
  -6  -5  -1   27.40   11.20
  -6  -5  -1   17.00    6.40
  -6  -5  -1   22.40    6.50
   6   5   1    1.60   11.30
  -7  -5  -1   -2.60    5.20
  -7  -5  -1    0.80    5.90
   7   5   1    0.10   11.90
  -8  -5  -1   22.70    8.30
  -8  -5  -1   28.70    7.80
   8   5   1    2.00   15.10
 -10   6   1   18.50    6.30
 -10   6   1   18.60   12.70
  -9   6   1    9.80   10.60
  -9   6   1    5.60    4.90
  -8   6   1    5.50    9.20
  -8   6   1    3.90    3.60
  -8   6   1    6.60    4.70
  -7   6   1   91.09   15.00
  -7   6   1   86.69    7.70
  -7   6   1   94.39    6.90
   6  -6  -1   -4.90   12.00
  -6   6   1   24.10    4.20
  -6   6   1   26.70    5.00
  -5   6   1  390.46   14.80
  -5   6   1  399.86   14.80
  -4   6   1  240.08   11.10
  -4   6   1  250.17   11.60
  -3   6   1  654.53   26.10
  -3   6   1  630.64   20.90
  -3   6   1  632.04   23.70
   2  -6  -1   60.69    7.40
  -2   6   1   70.49    9.10
  -2   6   1   76.39    6.90
   1  -6  -1  201.48   24.90
   0  -6  -1   21.10    4.80
   0  -6  -1   25.60   11.80
   0   6   1    1.00    6.50
   0   6   1   37.30    8.70
  -1  -6  -1  186.48   10.20
  -1  -6  -1  198.28   10.50
  -1  -6  -1  171.48   20.00
   1   6   1  201.38   15.30
  -2  -6  -1    9.00    4.50
  -2  -6  -1    8.40    7.20
  -2  -6  -1    5.30    3.90
   2   6   1   -0.80    6.70
   2   6   1    8.00    5.40
  -3  -6  -1   89.89   12.50
  -3  -6  -1   82.49    8.30
  -3  -6  -1   86.19    8.00
  -4  -6  -1    8.90    7.40
  -4  -6  -1    8.20    5.10
  -4  -6  -1    7.60    5.10
   4   6   1   -3.80    8.30
  -5  -6  -1  224.68   14.20
  -5  -6  -1  212.18   13.70
  -6  -6  -1   39.10    8.10
  -6  -6  -1   30.00    7.80
   6   6   1    0.30   10.60
  -7  -6  -1   42.60    8.70
  -7  -6  -1   30.30    8.50
   7   6   1    6.30   15.30
  -9   7   1   70.69   16.80
  -9   7   1   66.79    8.40
  -8   7   1   25.40    5.80
  -8   7   1   25.80   11.80
  -7   7   1  253.97   11.20
  -7   7   1  241.28   12.30
  -7   7   1  243.78   23.40
   6  -7  -1    3.50   14.50
  -6   7   1   57.89    6.10
  -6   7   1   53.59    6.60
   5  -7  -1   10.00   14.10
  -5   7   1   60.89    6.30
  -5   7   1   64.49    6.40
   4  -7  -1    3.40   12.60
  -4   7   1    3.50    3.70
  -4   7   1    3.50    3.90
   3  -7  -1    1.80   11.40
  -3   7   1    2.10    2.90
  -3   7   1    1.80    3.60
  -3   7   1    0.80    4.20
  -3   7   1   -0.80    3.50
   2  -7  -1    9.70   12.80
   2  -7  -1   38.00    7.10
  -2   7   1   47.90    9.00
  -2   7   1   38.30    6.80
   1  -7  -1   59.59    7.30
   1  -7  -1   18.90   12.50
  -1   7   1   60.69   11.40
  -1   7   1    7.10    7.50
   0  -7  -1  117.09   19.80
  -1  -7  -1  303.17   13.90
  -1  -7  -1  284.97   13.50
  -1  -7  -1  240.98   26.60
  -2  -7  -1  121.59    9.10
  -2  -7  -1  125.09   18.50
  -2  -7  -1  131.29    9.80
  -3  -7  -1   85.79    9.10
  -3  -7  -1   77.39    8.30
  -4  -7  -1  116.29   10.30
  -4  -7  -1  137.49   11.50
  -5  -7  -1   18.40    7.10
  -5  -7  -1   21.40    7.00
   5   7   1    3.70   11.00
  -6  -7  -1   16.10    7.40
  -6  -7  -1   13.50    7.00
   6   7   1    7.30   15.00
  -9   8   1   24.40    6.80
  -9   8   1   18.90   12.70
  -8   8   1   15.50    5.40
  -8   8   1    9.20   11.00
  -7   8   1   36.20    6.40
  -7   8   1   42.60   13.10
  -6   8   1    2.70    3.90
  -6   8   1    3.30    4.50
  -5   8   1  108.19    8.30
  -5   8   1  105.99    8.80
  -4   8   1  148.09    9.60
  -4   8   1  156.18   11.20
   1  -8  -1   39.30   17.40
   1  -8  -1  150.98   11.10
  -1   8   1  140.49   15.90
   0  -8  -1   71.49    8.30
   0   8   1   52.09   13.10
  -1  -8  -1  206.28   12.00
  -1  -8  -1  188.28   11.60
  -2  -8  -1    5.80    4.80
  -2  -8  -1    4.20    5.10
   2   8   1    2.80    9.80
  -3  -8  -1   32.00    6.90
  -3  -8  -1   34.50    7.50
   3   8   1    0.60    9.50
  -4  -8  -1   18.00    7.20
  -4  -8  -1   26.40    7.10
   4   8   1   -0.10   10.50
  -5  -8  -1   34.40    8.60
  -5  -8  -1   37.60    8.70
   5   8   1    2.10   13.40
  -8   9   1   25.30    6.70
  -8   9   1   23.10   12.20
  -7   9   1   66.49   16.00
  -7   9   1   69.49    8.70
  -6   9   1   36.60    6.60
   5  -9  -1   19.30   18.00
  -5   9   1  110.59    9.10
   4  -9  -1    6.60   15.80
  -4   9   1   54.19    7.50
  -4   9   1   57.99    9.00
   3  -9  -1    2.10   14.20
  -3   9   1    7.10    5.20
  -3   9   1    4.00    6.50
   2  -9  -1   10.50   14.10
  -2   9   1    4.60    7.50
  -2   9   1   33.70    9.90
   1  -9  -1   -1.50   12.10
   1  -9  -1    5.20    5.60
  -1   9   1    1.00    7.90
  -1   9   1   -1.80    6.90
   0  -9  -1   19.60    6.50
   0   9   1    1.70    8.30
   0   9   1   22.80   11.40
  -1  -9  -1   27.20    6.80
   1   9   1    4.80    9.60
  -2  -9  -1   35.30    7.50
  -2  -9  -1   44.00    8.00
   2   9   1    2.60   10.50
  -3  -9  -1   52.09    9.30
  -3  -9  -1   49.20    8.60
   3   9   1    4.70   12.00
  -4  -9  -1   23.30    7.80
  -4  -9  -1   20.00    7.70
   4   9   1    2.80   12.40
  -7  10   1    5.80   10.70
  -7  10   1    5.40    5.70
  -6  10   1    8.30   10.40
  -6  10   1   10.90    5.80
  -5  10   1    3.50    5.40
   4 -10  -1    4.70   18.60
  -4  10   1   50.99    7.90
   3 -10  -1    1.70   16.70
  -3  10   1   47.20   10.70
  -3  10   1   44.80    7.80
  -2  10   1   77.99   14.30
   1 -10  -1  188.48   14.60
  -1  10   1  189.48   21.10
   0 -10  -1    4.90    6.30
   0  10   1   -1.00    9.70
   0  10   1   16.80   11.50
  -1 -10  -1   88.29   10.60
   1  10   1   89.39   19.50
  -2 -10  -1    4.80    6.10
   2  10   1    0.20   11.10
  -5  11   1   50.79   14.60
  -5  11   1   55.29    8.60
  -4  11   1   13.20    6.70
  -3  11   1   69.19    9.80
  -2  11   1   -2.90    8.60
  -2  11   1    1.00    6.40
  -1  11   1    1.70   10.50
   0  11   1    4.20   11.60
   1  11  -2   -0.60    9.90
   0  11  -2   -2.10    9.10
   3  10  -2   -1.30   10.80
  -3 -10   2    0.90    6.00
   2  10  -2   -1.70    9.10
  -2 -10   2   43.40    7.80
   1  10  -2    0.80    8.90
  -1 -10   2   31.30    6.70
  -1  10  -2   12.00   10.80
  -4  10  -2   18.00   11.20
  -5  10  -2    5.60   10.90
  -6  10  -2   10.70   12.20
   5   9  -2   -1.60   10.50
   4   9  -2    4.00   11.20
  -4  -9   2   42.80    8.80
   3   9  -2   -0.50    9.40
  -3  -9   2   63.59    8.90
   2   9  -2    4.70    9.40
  -2  -9   2   63.29    7.70
   1   9  -2   -0.10    7.10
  -1  -9   2    7.40    4.70
   0   9  -2    6.10    7.90
   0  -9   2   36.80    5.70
  -1   9  -2    2.10    6.80
  -2   9  -2   14.70    8.90
  -2   9  -2    1.00    6.00
  -2   9  -2    9.40    7.10
  -3   9  -2    8.80    9.30
  -4   9  -2    7.60    9.60
  -5   9  -2   79.19   16.80
  -6   9  -2  102.29   18.20
  -7   9  -2   24.70   14.10
   6   8  -2    7.20   14.80
  -6  -8   2   87.59   10.90
   5   8  -2   -1.30    9.70
  -5  -8   2   10.30    6.60
  -5  -8   2   10.60    5.70
   4   8  -2    3.30    9.30
  -4  -8   2   12.50    6.00
  -4  -8   2   16.90    5.60
   3   8  -2    1.80    8.70
  -3  -8   2   -0.70    3.90
  -3  -8   2    2.30    4.80
   2   8  -2    2.30    7.60
  -2  -8   2   17.50    4.60
  -2  -8   2   21.00    5.50
   1   8  -2    3.30    6.80
  -1  -8   2   12.60    4.60
  -1  -8   2    7.10    4.10
   0  -8   2  363.16   14.50
   0  -8   2  367.46   14.90
  -1   8  -2  217.68    9.40
  -1   8  -2  210.68   16.40
   1  -8   2  207.48    9.70
  -2   8  -2  362.56   19.30
  -2   8  -2  345.27   24.10
  -2   8  -2  372.66   12.40
  -3   8  -2   61.89   12.70
  -3   8  -2   64.89    5.40
  -3   8  -2   64.79    6.80
  -4   8  -2  124.49   17.00
  -4   8  -2  136.99    7.50
  -5   8  -2    1.10    8.90
  -5   8  -2    3.60    3.50
  -6   8  -2   -1.50    3.70
  -6   8  -2    0.40    8.90
  -7   8  -2   -0.90    9.70
  -7   8  -2    2.10    4.20
  -8   8  -2   17.50   12.70
  -8   8  -2   18.30    5.70
   7   7  -2   -2.90   11.80
  -7  -7   2    1.10    6.10
  -7  -7   2    2.20    6.10
  -6  -7   2   59.99    9.10
  -6  -7   2   57.39    8.50
   5   7  -2    0.10    8.50
  -5  -7   2   30.40    7.10
  -5  -7   2   27.70    6.30
  -4  -7   2   60.89    7.20
  -4  -7   2   76.39    9.10
  -3  -7   2  267.27   13.80
  -3  -7   2  266.37   11.80
  -2  -7   2   51.79    6.80
  -2  -7   2   44.70    5.60
   1   7  -2  311.37   10.80
  -1  -7   2  279.27   12.60
  -1  -7   2  289.57   11.50
   0   7  -2   43.00    4.50
   0   7  -2   39.40    6.50
   0   7  -2   44.10    9.50
   0  -7   2   37.00    7.40
   0  -7   2   32.40    4.80
   0  -7   2   39.40    4.90
  -1   7  -2    1.30    5.20
  -1   7  -2    4.40   10.00
  -1   7  -2    1.70    2.60
  -1   7  -2    1.90    2.60
   1  -7   2    3.50    2.80
   1  -7   2    1.50    4.00
  -2   7  -2  102.59   10.10
  -2   7  -2   91.39   12.10
  -2   7  -2  112.59    6.20
  -2   7  -2  113.89    6.80
  -2   7  -2  101.79    5.60
   2  -7   2  103.09    9.00
  -3   7  -2   55.39    3.70
  -3   7  -2   46.00    8.00
  -3   7  -2   56.79    4.70
  -3   7  -2   48.10   11.00
  -3   7  -2   52.39    4.70
   3  -7   2   47.20    6.40
  -4   7  -2   78.89    5.60
  -4   7  -2   71.89   13.50
   4  -7   2   76.89    6.60
  -5   7  -2   13.50    3.70
  -5   7  -2   16.20    9.60
  -6   7  -2  176.28    9.40
  -6   7  -2  159.78   19.30
  -7   7  -2  266.07   12.30
  -7   7  -2  246.08   25.60
  -8   7  -2  126.79    9.60
  -8   7  -2  111.79   19.80
  -9   7  -2   88.69   19.60
  -9   7  -2   88.39    9.00
  -8  -6   2   69.99    9.90
  -8  -6   2   60.19    9.80
   7   6  -2    7.80   13.40
  -7  -6   2   37.70    7.80
  -7  -6   2   37.60    8.10
  -6  -6   2  108.59   10.50
  -6  -6   2  101.19    9.60
  -5  -6   2  153.68   11.30
  -5  -6   2  151.08    9.90
   4   6  -2    5.30    8.00
  -4  -6   2   32.20    5.30
  -4  -6   2   28.70    6.00
  -3  -6   2   70.79    7.40
  -3  -6   2   71.59    5.90
  -2  -6   2    9.40    3.10
  -2  -6   2   12.20    4.30
   1   6  -2   35.80    4.00
  -1  -6   2   33.20    4.70
  -1  -6   2   29.70    3.90
  -1  -6   2   33.00    6.70
   0   6  -2  127.19    5.50
   0   6  -2  119.29    9.10
   0   6  -2  121.59   15.40
   0  -6   2  129.19   10.40
   0  -6   2  122.29    6.80
   0  -6   2  116.69    6.50
  -1   6  -2  476.85   14.30
  -1   6  -2  518.65   14.60
  -1   6  -2  552.94   16.60
  -1   6  -2  454.45   25.80
   1  -6   2  499.75   23.80
   1  -6   2  501.95   15.70
  -2   6  -2  692.83   19.40
  -2   6  -2  613.54   34.10
  -2   6  -2  665.03   23.30
  -2   6  -2  687.43   19.60
  -2   6  -2  698.43   31.00
  -2   6  -2  630.14   18.00
   2  -6   2  656.33   29.00
  -3   6  -2 1006.70   42.70
  -3   6  -2  928.91   24.90
  -3   6  -2  874.51   46.30
  -3   6  -2  936.41   27.70
   3  -6   2  915.01   38.20
  -4   6  -2   31.90    3.90
  -4   6  -2   30.70    9.80
   4  -6   2   35.00    4.90
  -5   6  -2  158.58   18.10
  -5   6  -2  173.08    8.20
   5  -6   2  164.68    9.30
  -6   6  -2   20.90    4.40
  -6   6  -2   28.40   10.70
  -7   6  -2   29.40    5.40
  -7   6  -2   29.30   12.50
  -8   6  -2   38.10   14.40
  -8   6  -2   40.30    6.30
  -9   6  -2   38.40    6.90
  -9   6  -2   33.90   14.90
   8   5  -2    1.90   13.50
  -8  -5   2   42.10    7.90
  -8  -5   2   38.90    8.30
   7   5  -2    2.00   10.90
  -7  -5   2   37.10    7.30
  -7  -5   2   33.60    7.10
   6   5  -2   -3.60    7.00
  -6  -5   2   -2.30    4.40
  -6  -5   2    3.20    4.90
  -5  -5   2   76.89    7.40
  -5  -5   2   72.29    8.10
  -4  -5   2  112.69    7.50
  -4  -5   2  120.69    9.00
  -3  -5   2  332.77   19.70
  -3  -5   2  315.87   11.70
  -3  -5   2  319.97   14.10
   2   5  -2  406.96   12.50
  -2  -5   2  377.66   20.80
  -2  -5   2  375.66   14.80
  -2  -5   2  361.56   12.10
   1   5  -2  440.86   12.30
  -1  -5   2  406.46   12.60
  -1  -5   2  419.96   15.10
  -1  -5   2  421.26   21.60
   0   5  -2  649.93   28.50
   0   5  -2  680.03   20.30
   0   5  -2  648.84   16.90
   0  -5   2  630.74   19.70
   0  -5   2  626.14   29.00
   0  -5   2  637.14   18.00
  -1   5  -2    5.50    7.20
  -1   5  -2   15.50    2.10
  -1   5  -2   18.50    2.60
  -1   5  -2   16.50    5.40
  -1   5  -2   18.70    2.50
  -1   5  -2   15.90    4.30
   1  -5   2   16.30    2.40
   1  -5   2   16.50    4.10
  -2   5  -2  265.87   10.30
  -2   5  -2  256.67    9.90
  -2   5  -2  266.97    8.00
  -2   5  -2  253.67   18.00
  -2   5  -2  262.87   15.20
  -2   5  -2  260.47    8.20
   2  -5   2  252.37   13.50
  -3   5  -2  109.09    5.20
  -3   5  -2  105.89   13.00
  -3   5  -2   91.89   11.10
   3  -5   2  115.19    6.20
   3  -5   2  106.09    7.60
  -4   5  -2    0.50    3.60
  -4   5  -2    2.40    2.30
  -4   5  -2    0.50    6.00
   4  -5   2   -0.20    2.70
  -5   5  -2   33.70    4.30
  -5   5  -2   36.50   10.70
   5  -5   2   32.00    5.80
  -6   5  -2  333.27   10.40
  -6   5  -2  336.87   13.20
  -6   5  -2  322.37   26.60
   6  -5   2  335.07   18.70
  -7   5  -2  164.18   20.50
  -7   5  -2  181.48    9.90
  -8   5  -2  258.77   26.20
  -8   5  -2  262.57   13.00
  -9   5  -2  257.17   27.00
  -9   5  -2  280.37   14.60
  -9  -4   2   93.99   10.60
  -9  -4   2   82.89   10.30
   8   4  -2    1.00   11.60
  -8  -4   2   45.10    7.90
  -8  -4   2   36.60    7.50
  -7  -4   2  222.28   12.50
  -7  -4   2  215.58   13.30
  -6  -4   2   62.89    7.10
  -6  -4   2   50.39    7.30
  -6  -4   2   59.29   10.00
  -5  -4   2  162.48   21.60
  -5  -4   2  188.08   13.20
  -5  -4   2  191.88   11.20
  -5  -4   2  185.08    9.80
  -4  -4   2   94.49   12.00
  -4  -4   2   97.49    7.90
  -4  -4   2  104.89    8.10
  -4  -4   2   96.49    6.80
   3   4  -2  350.26   12.00
  -3  -4   2  359.16   19.80
  -3  -4   2  331.07   14.10
  -3  -4   2  354.96   12.00
   2   4  -2    3.10    2.00
  -2  -4   2    4.80    2.10
  -2  -4   2    1.80    3.00
  -2  -4   2    2.70    3.50
   1   4  -2   21.20    2.60
   1   4  -2   20.40    3.30
  -1  -4   2   19.80    4.50
  -1  -4   2   19.80    2.50
  -1  -4   2   21.50    3.40
   0   4  -2   40.80    3.50
   0   4  -2   43.60    5.20
   0   4  -2   41.90    2.30
   0   4  -2   52.79    6.30
   0  -4   2   36.10    5.40
   0  -4   2   40.00    3.00
   0  -4   2   39.80    3.60
  -1   4  -2  634.54   29.90
  -1   4  -2  621.84   16.60
  -1   4  -2  640.34   28.10
  -1   4  -2  611.04   15.80
  -1   4  -2  638.24   17.70
   1  -4   2  610.14   27.10
   1  -4   2  625.94   17.50
  -2   4  -2  735.83   37.00
  -2   4  -2  732.43   19.70
  -2   4  -2  810.12   34.70
   2  -4   2  789.12   20.50
   2  -4   2  759.22   32.10
  -3   4  -2  917.21   45.30
  -3   4  -2  911.41   24.40
   3  -4   2  964.00   25.10
   3  -4   2  923.81   38.50
  -4   4  -2  945.21   26.00
  -4   4  -2  941.01   48.00
   4  -4   2  972.90   41.10
  -5   4  -2  417.56   14.30
  -5   4  -2  426.96   28.50
  -5   4  -2  418.16   12.60
   5  -4   2  416.96   13.10
   5  -4   2  418.86   24.30
  -6   4  -2   29.80   10.20
  -6   4  -2   29.00    4.70
  -6   4  -2   30.60    3.90
   6  -4   2   21.60    8.80
  -7   4  -2  100.39    6.40
  -7   4  -2   91.29   15.90
  -7   4  -2  112.29    8.10
   7  -4   2   57.49   14.40
  -8   4  -2   19.50    5.30
  -8   4  -2   21.30   10.80
  -9   4  -2   -0.40   10.30
  -9   4  -2    1.00    4.60
 -10   4  -2   -2.20   10.00
 -10   4  -2    2.80    5.60
  -9  -3   2  219.98   14.20
  -9  -3   2  200.18   13.00
  -8  -3   2   44.30    7.50
  -8  -3   2   39.80    6.90
  -8  -3   2   41.50   10.60
  -7  -3   2  300.67   15.50
  -7  -3   2  319.87   22.10
  -7  -3   2  321.97   14.50
  -6  -3   2   35.60    5.60
  -6  -3   2   40.30    8.50
  -6  -3   2   35.40    6.20
   5   3  -2    3.20    7.20
  -5  -3   2   28.10   13.70
  -5  -3   2   31.60    4.80
  -5  -3   2   25.80    6.40
  -5  -3   2   26.30    5.10
  -4  -3   2   71.19    6.50
  -4  -3   2   61.69    5.40
  -4  -3   2   66.89    8.20
  -4  -3   2   68.59    7.00
  -4  -3   2   53.09   12.90
   3   3  -2 1090.79   29.10
  -3  -3   2 1113.19   44.10
  -3  -3   2 1155.58   48.00
  -3  -3   2 1072.89   46.70
  -3  -3   2 1103.29   33.20
  -3  -3   2 1083.79   29.20
   2   3  -2  524.05   17.10
   2   3  -2  502.15   14.20
  -2  -3   2  492.95   23.80
  -2  -3   2  522.55   14.30
  -2  -3   2  505.25   16.90
   1   3  -2 1089.79   46.50
   1   3  -2 1140.69   44.60
   1   3  -2 1095.59   27.70
   1   3  -2 1172.98   32.10
  -1  -3   2 1122.39   27.70
  -1  -3   2 1175.88   43.90
  -1  -3   2 1107.49   32.10
  -1  -3   2 1146.09   46.30
   0   3  -2 2601.64   67.79
   0   3  -2 2567.44   99.29
   0   3  -2 2605.34   99.79
   0  -3   2 2537.75   98.69
   0  -3   2 2480.75   67.99
   0  -3   2 2630.14   99.59
  -1   3  -2  480.35   12.30
  -1   3  -2  482.35   22.70
  -1   3  -2  495.95   24.10
  -1   3  -2  479.95   13.50
   1  -3   2  474.45   13.40
   1  -3   2  505.75   12.70
   1  -3   2  502.75   23.80
   1  -3   2  477.85   21.80
  -2   3  -2  349.37   20.70
  -2   3  -2  353.46   10.10
  -2   3  -2  301.37   19.50
   2  -3   2  360.16   10.20
   2  -3   2  349.37   17.20
   2  -3   2  376.66   20.50
  -3   3  -2  151.98   14.10
  -3   3  -2  145.49    6.30
   3  -3   2  157.18    6.70
   3  -3   2  156.58   11.90
  -4   3  -2   84.29    5.30
  -4   3  -2   83.79    4.10
  -4   3  -2   75.89   11.00
   4  -3   2   72.59   11.30
   4  -3   2   85.19    4.10
  -5   3  -2  116.79    7.00
  -5   3  -2  109.89   14.50
  -5   3  -2  122.39    5.90
  -6   3  -2   59.09    5.20
  -6   3  -2   53.79    5.90
  -6   3  -2   57.99   12.50
  -7   3  -2   31.50    4.60
  -7   3  -2   28.00   10.60
  -7   3  -2   31.70    5.50
   7  -3   2    7.60    7.90
  -8   3  -2  323.17   28.80
  -8   3  -2  365.46   14.40
  -8   3  -2  354.46   15.50
  -9   3  -2  145.29   20.20
  -9   3  -2  159.58   11.00
 -10   3  -2  161.68   11.80
 -10   3  -2  139.09   22.20
  10   2  -2   -2.30   12.60
 -10  -2   2    2.30    5.80
 -10  -2   2    0.30    5.60
   9   2  -2    8.50   11.70
  -9  -2   2   32.00    7.10
  -9  -2   2   17.40   10.00
  -9  -2   2   30.30    6.60
  -8  -2   2   63.69    8.20
  -8  -2   2   56.79   12.10
  -8  -2   2   59.49    7.60
  -7  -2   2  186.88   10.60
  -7  -2   2  195.58   11.60
  -7  -2   2  188.18   16.90
  -6  -2   2  199.58   10.10
  -6  -2   2  196.48   11.10
  -6  -2   2  193.78   15.40
  -5  -2   2   19.90    4.40
  -5  -2   2   14.10   11.90
  -5  -2   2   24.20    4.10
  -5  -2   2   22.10    6.10
  -4  -2   2  825.12   23.00
  -4  -2   2  608.54   45.10
  -4  -2   2  869.11   35.60
  -4  -2   2  824.82   25.70
  -4  -2   2  848.12   36.10
   3   2  -2   52.09    4.10
  -3  -2   2   62.19   11.10
  -3  -2   2   54.29    3.90
  -3  -2   2   49.90    6.10
  -3  -2   2   50.79    4.40
   2   2  -2   13.10    5.60
   2   2  -2   26.60    3.10
   2   2  -2   25.30    4.80
   2   2  -2   27.60    2.50
  -2  -2   2   21.50    4.30
  -2  -2   2   23.60    4.60
  -2  -2   2   22.60    2.60
  -2  -2   2   22.80    3.20
   1   2  -2 7078.89  262.87
   1   2  -2 7230.08  265.47
   1   2  -2 7043.60  182.38
   1   2  -2 6967.00  164.78
  -1  -2   2 7212.78  264.57
  -1  -2   2 6906.81  182.28
  -1  -2   2 7030.60  262.47
  -1  -2   2 6694.33  164.88
   0   2  -2 9779.32  361.66
   0   2  -2 9625.34  250.37
   0   2  -2 9999.00  366.16
   0  -2   2 9700.33  365.56
   0  -2   2 9707.03  361.26
   0  -2   2 9427.16  250.27
  -1   2  -2 3880.01  148.49
  -1   2  -2 3639.94   91.29
  -1   2  -2 3845.42  100.29
  -1   2  -2 3846.62  149.88
   1  -2   2 3922.01  146.89
   1  -2   2 3822.92   99.79
   1  -2   2 4055.29  149.88
   1  -2   2 3883.51   91.29
  -2   2  -2  568.64   28.60
  -2   2  -2  520.85   15.30
   2  -2   2  569.54   15.30
   2  -2   2  556.04   28.10
   2  -2   2  601.64   28.50
   2  -2   2  567.44   15.40
   2  -2   2  561.84   16.50
  -3   2  -2 1497.05   65.89
  -3   2  -2 1464.25   38.20
  -3   2  -2 1492.25   40.10
   3  -2   2 1593.24   38.40
   3  -2   2 1444.06   40.00
  -4   2  -2  440.86   13.90
  -4   2  -2  433.56   14.30
  -4   2  -2  427.36   26.50
   4  -2   2  430.66   13.70
  -5   2  -2 1154.18   32.90
  -5   2  -2 1178.08   34.10
  -5   2  -2 1238.28   58.39
  -6   2  -2  375.16   14.80
  -6   2  -2  402.56   28.40
  -6   2  -2  398.66   14.40
  -7   2  -2   96.69   15.70
  -7   2  -2  115.89    7.70
  -7   2  -2  107.19    8.40
  -8   2  -2   88.89    8.50
  -8   2  -2   82.39   16.20
  -8   2  -2   90.49    7.70
  -9   2  -2   15.60    5.60
  -9   2  -2   15.40   11.30
  -9   2  -2   13.50    5.30
   9  -2   2    6.60   10.80
 -10   2  -2   13.30    6.10
 -10   2  -2   17.70   12.80
 -10  -1   2   52.19    8.40
 -10  -1   2   51.19   14.30
 -10  -1   2   53.19    8.40
  -9  -1   2  196.28   12.80
  -9  -1   2  206.18   12.40
  -9  -1   2  202.18   20.40
  -8  -1   2   70.89    8.00
  -8  -1   2   74.99    7.90
  -8  -1   2   71.09   13.10
  -7  -1   2  439.36   16.80
  -7  -1   2  459.05   18.40
  -7  -1   2  450.85   27.50
  -6  -1   2  117.99   12.40
  -6  -1   2  111.09    8.00
  -6  -1   2  108.69    7.50
  -5  -1   2   90.29    9.70
  -5  -1   2   78.89    6.30
  -5  -1   2   85.09    8.50
  -5  -1   2   80.89    5.80
  -4  -1   2   44.80   14.80
  -4  -1   2   68.39    4.80
  -4  -1   2   66.59    6.90
  -4  -1   2   63.39    5.30
   3   1  -2  714.93   30.90
   3   1  -2  719.13   19.40
   3   1  -2  690.03   21.90
  -3  -1   2  709.63   30.40
  -3  -1   2  660.43   40.00
  -3  -1   2  709.63   21.60
  -3  -1   2  725.23   19.20
   2   1  -2 1704.83   89.29
   2   1  -2 2149.08   57.89
   2   1  -2 2210.38   83.09
   2   1  -2 2123.59   51.89
  -2  -1   2 2150.68   82.69
  -2  -1   2 2204.98   51.79
  -2  -1   2 2373.16   88.09
  -2  -1   2 2192.08   57.69
   1   1  -2 2159.58   57.09
   1   1  -2 2234.68   84.89
   1   1  -2 2014.60   82.39
   1   1  -2 2136.69   51.19
  -1  -1   2 2002.30   82.09
  -1  -1   2 2182.98   50.99
  -1  -1   2 2201.68   83.99
  -1  -1   2 2159.58   56.99
   0   1  -2 1005.10   28.20
   0   1  -2 1015.60   25.00
   0   1  -2 1006.40   42.50
   0   1  -2 1015.50   42.50
   0  -1   2 1045.80   24.80
   0  -1   2 1007.50   28.00
   0  -1   2 1066.59   42.30
   0  -1   2 1008.80   41.80
  -1   1  -2 3110.99  117.19
  -1   1  -2 3020.60   71.19
  -1   1  -2 2723.03   79.89
   1  -1   2 2965.90  117.39
   1  -1   2 3031.80   79.09
   1  -1   2 2927.31   70.99
   1  -1   2 3063.79  116.29
  -2   1  -2 1913.61   51.79
  -2   1  -2 1953.70   80.79
  -2   1  -2 1883.71   48.30
   2  -1   2 1939.01   48.20
   2  -1   2 2013.30   51.79
   2  -1   2 2046.90   80.39
  -3   1  -2   85.79    5.10
  -3   1  -2   90.09   10.60
  -3   1  -2   81.09    4.60
   3  -1   2   88.09    5.40
   3  -1   2   88.39    4.70
  -4   1  -2  493.05   16.10
  -4   1  -2  517.95   16.50
  -4   1  -2  483.95   28.80
   4  -1   2  512.25   16.40
  -5   1  -2   31.90    4.50
  -5   1  -2   31.10    9.40
  -5   1  -2   28.80    4.50
  -6   1  -2   14.40    8.40
  -6   1  -2   18.60    4.10
  -6   1  -2   14.00    4.00
   6  -1   2   -0.50    7.40
  -7   1  -2   18.00    5.00
  -7   1  -2   24.20    4.90
  -7   1  -2   25.20   10.40
   7  -1   2    1.90    8.30
  -8   1  -2  203.28   22.60
  -8   1  -2  217.48   12.30
  -8   1  -2  218.18   11.80
  -9   1  -2   33.70   13.20
  -9   1  -2   35.00    7.10
  -9   1  -2   36.00    6.50
   9  -1   2    6.90   12.00
 -10   1  -2  143.69   11.10
 -10   1  -2  132.79   11.60
 -10   1  -2  149.49   22.80
 -10   0   2   55.19   14.90
 -10   0   2   53.09    8.30
 -10   0   2   53.19    8.40
   9   0  -2    0.80    8.60
  -9   0   2    2.10    4.70
  -9   0   2   -1.40    7.80
  -9   0   2   -4.50    4.50
  -8   0   2   41.10    6.50
  -8   0   2   49.00   11.60
  -8   0   2   53.79    7.20
  -7   0   2   57.59    6.50
  -7   0   2   66.69   11.20
  -7   0   2   55.59    6.90
  -6   0   2  527.55   19.00
  -6   0   2  536.75   17.80
  -6   0   2  525.05   29.10
  -5   0   2  409.66   13.80
  -5   0   2  402.26   15.00
  -5   0   2  406.76   20.30
   4   0  -2  334.77   17.10
  -4   0   2  350.86   11.30
  -4   0   2  256.97   29.80
  -4   0   2  329.27   16.40
  -4   0   2  329.47   12.30
   3   0  -2  627.44   17.50
   3   0  -2  609.54   26.80
   3   0  -2  629.84   19.60
  -3   0   2  615.24   19.10
  -3   0   2  609.84   26.40
  -3   0   2  564.14   38.30
  -3   0   2  644.34   17.30
   2   0  -2 1858.61   45.30
   2   0  -2 1856.91   50.19
   2   0  -2 1835.62   71.29
   2   0  -2 1658.43   80.99
  -2   0   2 2115.49   80.29
  -2   0   2 1849.21   70.99
  -2   0   2 1867.21   45.10
  -2   0   2 1651.53   49.60
   1   0  -2  663.43   29.10
   1   0  -2  659.23   20.10
   1   0  -2  701.93   32.00
  -1   0   2  657.03   28.60
  -1   0   2  717.33   31.40
  -1   0   2  701.33   18.60
  -1   0   2  662.53   20.00
   0   0  -2 1796.32   50.39
   0   0  -2 1833.22   73.09
   0   0  -2 1847.12   44.50
   0   0   2 1928.01   44.40
   0   0   2 1788.72   49.90
   0   0   2 1908.91   72.99
   0   0   2 1613.94   73.19
  -1   0  -2   54.59    6.90
  -1   0  -2   65.39    3.50
   1   0   2   52.89    5.80
   1   0   2   52.89    3.10
   1   0   2   51.99    6.10
   1   0   2   58.49    3.20
  -2   0  -2  130.89   11.40
  -2   0  -2  128.29    5.80
  -2   0  -2  124.69    5.80
   2   0   2  133.39    5.60
   2   0   2  140.49   10.50
   2   0   2  128.19    5.60
  -3   0  -2    0.40    4.60
  -3   0  -2    3.90    2.20
  -3   0  -2    4.70    5.00
  -3   0  -2    4.50    2.20
   3   0   2    6.20    2.40
   3   0   2    0.00    4.80
  -4   0  -2  424.26   15.30
  -4   0  -2  435.96   14.90
  -4   0  -2  451.45   27.00
  -5   0  -2  548.55   19.20
  -5   0  -2  564.44   33.00
  -5   0  -2  547.85   18.70
  -6   0  -2  643.64   22.80
  -6   0  -2  678.03   22.50
  -6   0  -2  670.23   39.10
  -7   0  -2  117.49    8.70
  -7   0  -2  118.09    8.90
  -7   0  -2  114.39   16.80
  -8   0  -2  190.88   12.10
  -8   0  -2  195.38   22.10
  -8   0  -2  202.78   11.90
  -9   0  -2   21.80    6.10
  -9   0  -2   25.00    6.70
  -9   0  -2   35.70   13.70
   9   0   2    1.50   11.30
 -10   1   2  102.59   10.20
 -10   1   2  115.09   10.60
 -10   1   2  103.49   17.60
  -9   1   2   61.89   14.00
  -9   1   2   58.19    7.20
  -9   1   2   55.79    7.40
  -8   1   2  184.48   18.70
  -8   1   2  176.38   10.50
  -8   1   2  168.68   10.40
  -7   1   2  499.85   17.60
  -7   1   2  478.95   29.50
  -7   1   2  477.75   18.30
   6  -1  -2    2.00    9.40
  -6   1   2   54.29    5.70
   5  -1  -2 1014.10   43.20
  -5   1   2 1025.10   42.40
  -5   1   2 1035.00   30.90
  -5   1   2 1042.70   28.60
   4  -1  -2   59.99    6.40
  -4   1   2   75.99    5.20
  -4   1   2   73.99    6.10
  -4   1   2   75.09    4.70
   3  -1  -2   75.39    5.20
   3  -1  -2   26.10   11.40
   3  -1  -2   66.19    5.90
   3  -1  -2   76.29    4.80
  -3   1   2   68.89   15.30
  -3   1   2   74.39    4.50
  -3   1   2   65.99    5.40
  -3   1   2   71.59    4.70
   2  -1  -2  100.79    7.50
   2  -1  -2  104.29   14.40
  -2   1   2  132.69   14.70
  -2   1   2  108.99    5.70
  -2   1   2  115.99    5.20
  -2   1   2   95.99    6.80
   1  -1  -2 3412.86  130.99
   1  -1  -2 2561.94  125.59
  -1   1   2 3546.05   79.49
  -1   1   2 3368.96  125.89
  -1   1   2 3179.18   87.29
  -1   1   2 3481.65  129.89
   0  -1  -2  422.86   22.30
   0  -1  -2  420.46   12.90
   0  -1  -2  405.06   17.10
   0   1   2  482.15   22.50
   0   1   2  467.35   13.00
   0   1   2  427.16   16.70
  -1  -1  -2 1229.78   36.40
  -1  -1  -2 1353.66   56.29
   1   1   2 1373.16   55.69
   1   1   2 1335.57   36.40
   1   1   2 1336.77   33.50
  -2  -1  -2 1530.25   42.60
  -2  -1  -2 1428.16   39.10
  -2  -1  -2 1578.54   65.49
   2   1   2 1572.24   42.30
   2   1   2 1562.64   63.79
   2   1   2 1488.85   38.70
  -3  -1  -2  724.33   21.60
  -3  -1  -2  734.83   37.00
  -3  -1  -2  745.03   23.20
  -4  -1  -2  482.95   17.30
  -4  -1  -2  483.85   28.90
  -4  -1  -2  470.35   16.60
  -5  -1  -2  105.09    7.60
  -5  -1  -2   95.89   13.80
  -5  -1  -2   97.49    7.30
  -6  -1  -2   77.39    7.30
  -6  -1  -2   77.49    7.30
  -6  -1  -2   68.09   13.90
  -7  -1  -2   28.00    6.30
  -7  -1  -2   26.30    5.80
  -7  -1  -2   25.90   10.80
   7   1   2   -0.60    8.10
  -8  -1  -2   17.60   11.60
  -8  -1  -2    9.60    5.30
  -8  -1  -2    5.60    5.10
   8   1   2    2.50    9.60
  -9  -1  -2   18.10   12.20
  -9  -1  -2   15.10    5.80
  -9  -1  -2   15.00    6.50
   9   1   2    0.00   11.80
 -11   2   2   43.20    8.40
 -10   2   2  110.49    9.60
 -10   2   2  101.19    9.80
 -10   2   2  105.29   18.20
   9  -2  -2    2.30    7.30
  -9   2   2    5.00    4.70
  -9   2   2   -1.90    8.40
  -9   2   2   -1.30    3.70
  -8   2   2  123.59    9.00
  -8   2   2  117.69    8.50
  -8   2   2  120.49   16.00
  -7   2   2  251.17   11.60
  -7   2   2  249.68   11.80
   6  -2  -2  300.77   16.60
  -6   2   2  308.77   12.40
  -6   2   2  293.27   12.00
   5  -2  -2  192.08   11.40
  -5   2   2  187.88    8.80
  -5   2   2  181.18    8.60
  -5   2   2  189.48   10.50
   4  -2  -2 2348.97   65.49
   4  -2  -2 2326.37   90.29
  -4   2   2 2301.27   59.09
  -4   2   2 2375.36   89.39
  -4   2   2 2392.06   64.49
   3  -2  -2  226.78   12.60
   3  -2  -2  241.98    9.70
  -3   2   2  237.48    9.10
  -3   2   2  239.48    9.90
  -3   2   2  238.38   11.40
  -3   2   2  243.78   25.40
   2  -2  -2  568.64   39.30
   2  -2  -2  644.24   21.60
  -2   2   2  632.64   18.70
  -2   2   2  720.53   38.50
  -2   2   2  620.14   20.60
  -2   2   2  641.74   27.70
  -2   2   2  676.33   20.20
   1  -2  -2 1715.83   44.70
   1  -2  -2 1652.93   51.29
   1  -2  -2 1795.12   76.39
  -1   2   2 1617.04   49.80
  -1   2   2 1741.63   44.20
  -1   2   2 1847.62   74.49
   0  -2  -2 1199.98   52.69
   0  -2  -2 1184.58   31.60
   0   2   2 1168.28   33.30
   0   2   2 1229.88   52.09
   0   2   2 1132.79   39.10
   0   2   2 1252.67   31.40
  -1  -2  -2  626.04   19.80
  -1  -2  -2  622.34   31.10
  -1  -2  -2  608.64   18.50
   1   2   2  664.43   18.30
   1   2   2  660.93   30.80
   1   2   2  660.73   19.60
  -2  -2  -2    6.10    2.40
  -2  -2  -2    5.50    4.80
  -2  -2  -2    7.10    2.70
   2   2   2    6.50    4.40
   2   2   2   -1.00    5.10
  -3  -2  -2   52.49    5.20
  -3  -2  -2   59.09    5.60
  -3  -2  -2   51.59    9.20
  -4  -2  -2  148.49    8.50
  -4  -2  -2  150.88    9.10
  -4  -2  -2  165.48   15.90
  -5  -2  -2  105.19    8.40
  -5  -2  -2  114.09   14.80
  -5  -2  -2  104.79    8.20
  -6  -2  -2  194.68   20.20
  -6  -2  -2  199.78   11.80
  -6  -2  -2  205.68   12.00
  -7  -2  -2  238.38   13.70
  -7  -2  -2  247.18   23.90
  -7  -2  -2  250.67   13.70
  -8  -2  -2  105.19   19.00
  -8  -2  -2  100.79   10.30
  -8  -2  -2  120.59   10.70
  -9  -2  -2   46.20    8.80
  -9  -2  -2   40.00    7.80
  -9  -2  -2   43.40   15.60
   9   2   2    6.30   14.40
 -10   3   2   46.00   14.40
 -10   3   2   53.79    7.60
 -10   3   2   48.10    7.80
  -9   3   2  115.39    9.50
  -9   3   2  114.69    8.70
  -9   3   2  115.29   17.50
  -8   3   2  291.37   24.40
  -8   3   2  308.07   13.60
  -8   3   2  298.27   13.70
   6  -3  -2  451.75   21.20
  -6   3   2  450.85   16.30
  -6   3   2  444.16   15.90
   5  -3  -2 1105.29   45.30
  -5   3   2 1140.49   31.40
  -5   3   2 1125.49   44.00
  -5   3   2 1126.89   33.50
   4  -3  -2   50.59    6.20
  -4   3   2   52.59    4.20
  -4   3   2   54.39    5.00
  -4   3   2   48.80    5.00
   3  -3  -2 1017.00   32.00
  -3   3   2  977.70   39.20
  -3   3   2 1025.10   30.40
  -3   3   2  961.40   27.60
   2  -3  -2  497.45   20.10
   2  -3  -2  483.05   17.40
   2  -3  -2  372.06   33.60
  -2   3   2  544.55   17.00
  -2   3   2  495.15   17.90
  -2   3   2  410.76   23.60
  -2   3   2  559.64   33.10
   1  -3  -2  638.54   19.90
   1  -3  -2  643.74   37.40
   1  -3  -2  577.34   25.10
  -1   3   2  632.54   19.10
  -1   3   2  642.94   24.20
  -1   3   2  674.93   34.50
   0  -3  -2  507.85   29.00
   0  -3  -2  524.65   16.70
   0   3   2  554.94   16.50
   0   3   2  562.34   28.20
   0   3   2  527.45   16.80
   0   3   2  478.75   23.50
  -1  -3  -2   16.00    3.30
  -1  -3  -2   12.30    3.10
  -1  -3  -2   16.90    5.90
   1   3   2    3.10    5.80
   1   3   2   16.60    5.40
  -2  -3  -2 1550.34   41.60
  -2  -3  -2 1522.25   45.10
  -2  -3  -2 1572.44   67.89
   2   3   2 1589.14   66.09
  -3  -3  -2  191.98   10.30
  -3  -3  -2  192.88   16.20
  -3  -3  -2  186.98    9.70
  -4  -3  -2  596.64   21.30
  -4  -3  -2  642.74   36.10
  -4  -3  -2  628.54   22.70
  -5  -3  -2  252.87   13.20
  -5  -3  -2  285.77   23.30
  -5  -3  -2  281.07   13.80
  -6  -3  -2   37.40   12.10
  -6  -3  -2   33.50    6.50
  -6  -3  -2   33.40    6.60
   6   3   2   -0.50    9.80
  -7  -3  -2   69.79    8.90
  -7  -3  -2   61.99   15.70
  -7  -3  -2   77.59    9.30
  -8  -3  -2   -1.30    5.20
  -8  -3  -2    6.20    5.90
  -8  -3  -2   -0.80   10.00
   8   3   2    3.10   12.60
 -10   4   2   46.10   14.70
 -10   4   2   60.49    7.90
 -10   4   2   42.40    7.60
  -9   4   2   69.49    8.10
  -9   4   2   71.79    7.60
  -9   4   2   72.99   15.70
  -8   4   2   14.60    8.70
  -8   4   2   21.70    4.80
  -8   4   2   23.90    5.40
   7  -4  -2    2.00   10.50
   7  -4  -2    1.10    4.60
  -7   4   2   14.00    4.40
  -7   4   2   16.20    4.10
   6  -4  -2    1.90   10.70
   6  -4  -2    1.50    3.20
  -6   4   2   22.20    4.70
  -6   4   2   22.00    4.10
  -5   4   2  255.27   11.10
  -5   4   2  258.57   11.20
  -4   4   2  116.09    7.20
  -4   4   2  116.19    7.50
  -3   4   2  939.51   28.10
  -3   4   2  984.10   31.00
  -3   4   2 1002.30   40.00
   2  -4  -2  178.58   24.00
   2  -4  -2  232.88   14.90
   2  -4  -2  226.48   11.50
  -2   4   2  242.38   12.40
   1  -4  -2  695.33   22.20
   1  -4  -2  669.13   42.60
  -1   4   2  749.82   38.20
  -1   4   2  649.43   27.50
   0  -4  -2   90.89    6.60
   0  -4  -2  102.19   13.50
   0   4   2  117.59   12.40
   0   4   2   88.69   11.60
  -1  -4  -2  597.84   20.10
  -1  -4  -2  663.33   21.80
  -1  -4  -2  638.94   34.50
   1   4   2  690.93   33.20
  -2  -4  -2   67.39    6.20
  -2  -4  -2   69.49    6.60
  -2  -4  -2   74.09   10.80
   2   4   2   73.49   10.00
  -3  -4  -2    7.50    3.90
  -3  -4  -2   12.00    4.40
  -3  -4  -2    7.80    6.20
   3   4   2   -1.00    7.20
  -4  -4  -2    4.20    4.20
  -4  -4  -2   10.20    7.80
  -4  -4  -2    0.80    3.60
   4   4   2    1.00    7.80
  -5  -4  -2   42.70    6.80
  -5  -4  -2   51.69   12.90
  -5  -4  -2   49.50    7.60
  -6  -4  -2    8.20    5.40
  -6  -4  -2   17.80    6.30
  -6  -4  -2    9.80   10.00
   6   4   2    3.50   12.10
  -7  -4  -2  138.89   11.80
  -7  -4  -2  154.88   12.60
  -7  -4  -2  147.89   21.20
  -8  -4  -2   53.19    8.90
  -8  -4  -2   57.99    9.70
   8   4   2    4.20   14.80
 -10   5   2   23.70    5.90
 -10   5   2   23.00    6.60
 -10   5   2   22.90   12.80
  -9   5   2   64.09    7.50
  -9   5   2   50.99   14.40
  -9   5   2   61.59    7.90
  -8   5   2  140.29    9.80
  -8   5   2  154.78    9.50
  -7   5   2  462.15   17.70
  -7   5   2  481.15   17.60
  -6   5   2  288.97   12.90
  -6   5   2  308.27   12.90
  -5   5   2  435.16   16.00
  -5   5   2  438.16   16.50
  -4   5   2  656.83   21.40
  -4   5   2  674.43   23.20
  -3   5   2  231.88   12.20
  -3   5   2  185.68   13.80
  -3   5   2  214.98   10.50
   2  -5  -2  233.38   28.30
   1  -5  -2    1.60    5.60
   1  -5  -2   10.30    9.70
   1  -5  -2    9.20    4.00
  -1   5   2   -1.90    4.10
  -1   5   2   14.90    6.20
   0  -5  -2   21.90    4.50
   0  -5  -2   20.70    9.70
   0   5   2   -0.10    5.80
   0   5   2   18.40    8.00
  -1  -5  -2  422.46   27.90
  -1  -5  -2  416.06   15.70
  -1  -5  -2  406.26   16.30
  -2  -5  -2  156.38   16.20
  -2  -5  -2  156.38    9.90
  -2  -5  -2  150.88    9.20
  -3  -5  -2  196.68   18.30
  -3  -5  -2  189.38   11.60
  -3  -5  -2  185.48   10.80
  -4  -5  -2  272.17   14.40
  -4  -5  -2  281.77   23.10
  -4  -5  -2  270.67   14.00
  -5  -5  -2  292.37   15.80
  -5  -5  -2  305.07   16.30
  -5  -5  -2  316.87   26.30
  -6  -5  -2   75.09    9.80
  -6  -5  -2   75.19   16.40
  -6  -5  -2   90.99   10.10
  -7  -5  -2   40.00    8.70
  -7  -5  -2   45.00    8.70
   7   5   2    3.80   14.10
 -10   6   2   50.09   16.30
 -10   6   2   48.60    8.10
  -9   6   2   60.79    7.50
  -9   6   2   58.49    7.90
  -9   6   2   49.20   14.60
  -8   6   2  117.69    9.40
  -8   6   2  128.59    8.90
   7  -6  -2    0.60   12.90
  -7   6   2   18.40    4.50
  -7   6   2   15.60    5.00
  -6   6   2  167.88   10.00
  -6   6   2  182.78   10.00
   5  -6  -2   -2.60   10.70
  -5   6   2    8.70    4.10
  -5   6   2   12.50    4.20
   4  -6  -2   -0.80   11.00
  -4   6   2    7.60    4.00
  -4   6   2    6.40    4.10
   3  -6  -2   13.50   13.10
  -3   6   2   18.30    5.50
  -3   6   2   46.00    6.30
  -3   6   2   45.70    7.20
   2  -6  -2  127.99   23.10
   1  -6  -2  108.89   21.60
   1  -6  -2  143.49    9.80
  -1   6   2  153.08   14.70
   0  -6  -2  121.29   19.50
   0  -6  -2  123.29    9.10
   0   6   2  100.39   15.50
  -1  -6  -2  410.16   30.00
  -1  -6  -2  373.06   16.00
  -1  -6  -2  359.66   15.50
  -2  -6  -2   57.99    7.00
  -2  -6  -2   47.80   12.10
  -2  -6  -2   53.09    7.10
  -3  -6  -2  128.79   10.30
  -3  -6  -2  127.19   16.50
  -3  -6  -2  116.09    9.70
  -4  -6  -2    5.50    8.70
  -4  -6  -2    1.10    5.20
  -4  -6  -2    0.70    4.90
   4   6   2    1.10   10.00
  -5  -6  -2    1.70    5.70
  -5  -6  -2    3.40    5.50
   5   6   2   -5.00    9.90
  -6  -6  -2    0.20    5.90
  -6  -6  -2   -1.80    6.60
   6   6   2    3.50   13.40
  -7  -6  -2   10.50    7.00
  -7  -6  -2    5.80    7.50
   7   6   2    7.00   16.80
  -9   7   2   10.50   11.20
  -9   7   2   10.80    5.70
  -8   7   2   10.40    4.50
  -8   7   2   11.70    5.70
  -7   7   2  451.95   18.40
  -7   7   2  488.65   18.40
   6  -7  -2    7.70   15.70
  -6   7   2   39.20    6.40
  -6   7   2   33.60    5.60
  -5   7   2  378.16   15.80
  -5   7   2  385.46   16.90
  -4   7   2  237.38   12.40
  -4   7   2  269.37   14.40
   3  -7  -2    9.50   13.50
  -3   7   2   47.10    6.90
  -3   7   2   59.19    8.80
  -3   7   2   52.89    6.40
   2  -7  -2   63.59   20.20
   1  -7  -2    9.90   12.30
   1  -7  -2   35.50    6.70
  -1   7   2   25.20    9.20
   0  -7  -2    2.00    4.60
   0  -7  -2    1.70   11.30
   0   7   2   -1.90    7.00
   0   7   2    0.70    6.80
  -1  -7  -2   56.29    7.60
  -1  -7  -2   66.49   17.20
  -2  -7  -2   11.30    5.40
  -2  -7  -2   15.80    5.40
  -2  -7  -2   17.90   11.00
   2   7   2   -1.60    8.00
  -3  -7  -2  134.69   18.90
  -3  -7  -2  133.29   10.70
  -3  -7  -2  139.09   11.40
  -4  -7  -2   56.19    8.80
  -4  -7  -2   55.99    9.10
  -5  -7  -2   65.19   10.00
  -5  -7  -2   64.59   10.10
  -6  -7  -2   82.59   11.70
  -6  -7  -2   92.29   11.80
  -9   8   2   55.39   16.60
  -9   8   2   55.99    8.20
  -8   8   2  102.99    9.70
   7  -8  -2    5.80   18.50
  -7   8   2   11.70    5.70
  -6   8   2  204.58   11.90
  -6   8   2  185.98   11.70
   5  -8  -2   10.50   16.90
  -5   8   2   48.20    7.50
  -5   8   2   50.09    7.20
   4  -8  -2   -2.50   12.70
  -4   8   2    3.90    4.60
  -4   8   2    3.20    5.10
  -3   8   2   63.59   10.20
  -3   8   2   49.50    7.80
   2  -8  -2  129.29   12.00
   2  -8  -2   32.90   18.10
  -2   8   2  150.78   15.20
   1  -8  -2   41.30   18.40
   1  -8  -2   76.09    9.10
  -1   8   2   12.90   10.00
  -1   8   2   75.49   13.90
   0  -8  -2   19.20   15.60
   0  -8  -2   27.80    6.60
   0   8   2    6.20    9.60
   0   8   2   31.50   11.70
  -1  -8  -2  323.37   16.00
  -1  -8  -2  276.97   32.50
   1   8   2  269.87   26.30
  -2  -8  -2   14.70    5.90
  -2  -8  -2   15.50    6.10
   2   8   2    6.70   11.20
  -3  -8  -2  197.48   14.20
  -3  -8  -2  176.78   12.90
  -4  -8  -2   32.90    8.00
  -4  -8  -2   13.80    7.50
   4   8   2    1.10   12.30
  -5  -8  -2   12.40    7.40
  -5  -8  -2    6.20    7.00
   5   8   2   -2.10   12.70
  -8   9   2    5.60    6.00
  -8   9   2    5.70   11.20
   7  -9  -2    1.60   18.30
  -7   9   2    3.90    5.30
   6  -9  -2   -0.40   15.40
  -6   9   2   70.09    8.30
  -5   9   2  193.18   13.30
  -5   9   2  185.08   12.50
   4  -9  -2    0.70   13.70
  -4   9   2    9.50    5.50
  -4   9   2    4.40    6.40
  -3   9   2  287.97   19.20
  -3   9   2  257.47   14.90
   2  -9  -2    7.30    6.80
   2  -9  -2    0.80   13.40
  -2   9   2    3.80    7.70
  -2   9   2    1.00    7.00
   1  -9  -2   30.90    7.60
   1  -9  -2   18.60   16.40
  -1   9   2    6.30    9.20
  -1   9   2   33.40   11.20
   0  -9  -2    8.10    5.70
   0   9   2    0.70    9.40
   0   9   2   16.70   11.50
  -1  -9  -2    0.40    5.20
   1   9   2   -0.70   10.10
   1   9   2   -1.90    9.30
  -2  -9  -2    5.30    6.20
   2   9   2   -3.50   10.00
  -3  -9  -2    2.70    6.50
  -3  -9  -2    9.40    6.80
   3   9   2    4.40   12.50
   4   9   2    3.40   14.10
  -7  10   2   30.70    7.60
   6 -10  -2   11.90   22.10
  -6  10   2   36.70    7.80
   5 -10  -2    0.70   18.20
  -5  10   2   25.80    7.10
   4 -10  -2    7.00   18.60
  -4  10   2   57.79    8.90
  -4  10   2   70.79   11.60
   3 -10  -2    4.10   16.80
  -3  10   2    2.10    6.10
  -3  10   2   -3.00    7.20
   2 -10  -2   -0.70    7.10
  -2  10   2    4.60    9.00
   1 -10  -2   27.90    8.60
  -1  10   2    5.20   10.10
  -1  10   2   20.30   11.40
   0 -10  -2   72.39   10.70
   0  10   2   64.69   16.40
  -1 -10  -2   35.60    8.80
   1  10   2    2.60   12.30
   1  10   2   32.90   15.00
  -2 -10  -2   57.99   10.00
   2  10   2   43.00   17.70
  -4  11   2   27.70    8.20
  -3  11   2   27.80   10.60
  -3  11   2   39.50    8.90
  -2  11   2    7.90   10.30
   1 -11  -2    8.10    7.90
  -1  11   2    8.70   10.80
   0  11  -3   -1.10    8.90
   3  10  -3    1.00   10.60
  -3 -10   3    0.80    6.20
   2  10  -3    0.50    9.40
  -2 -10   3   18.70    6.40
   1  10  -3    1.70    9.00
  -1 -10   3   18.20    5.60
   0  10  -3    1.80    8.80
  -1  10  -3   -1.90    7.10
  -4  10  -3   92.59   17.50
  -5  10  -3   33.00   14.20
  -6  10  -3   87.29   19.50
   5   9  -3    6.40   12.80
   4   9  -3    6.60   11.30
  -4  -9   3   76.99   10.30
   3   9  -3    3.30   10.00
  -3  -9   3   26.50    7.10
   2   9  -3    7.90   10.20
  -2  -9   3   60.79    8.00
  -1  -9   3   93.19    8.50
   0  -9   3   41.90    5.80
  -2   9  -3   73.29   12.80
   2  -9   3   69.39   10.00
  -3   9  -3    3.10    8.60
  -4   9  -3   27.10   11.80
  -5   9  -3    6.30   10.30
  -6   9  -3   20.20   12.40
  -7   9  -3    1.00   11.40
   6   8  -3    7.20   13.80
  -6  -8   3   68.09   10.20
   5   8  -3    9.50   12.60
  -5  -8   3   78.19   10.30
   4   8  -3   -0.40    8.10
  -4  -8   3   28.60    6.90
  -3  -8   3   95.49    9.60
  -2  -8   3   80.39    8.20
  -1  -8   3   22.90    5.00
  -1  -8   3   17.90    7.00
   0  -8   3   28.80    4.70
   0  -8   3   33.10    7.90
  -1   8  -3   17.80    7.30
   1  -8   3   21.00    6.50
   1  -8   3   18.80    3.90
  -2   8  -3  133.79   11.60
  -2   8  -3  142.39   15.50
   2  -8   3  146.49   12.00
  -3   8  -3  194.58   19.80
  -3   8  -3  217.18    8.20
   3  -8   3  217.88   14.00
  -4   8  -3  249.48    9.70
  -4   8  -3  212.28   22.60
  -5   8  -3  126.19   19.20
  -5   8  -3  139.99    8.10
  -6   8  -3   90.69   17.70
  -6   8  -3  107.59    8.00
  -7   8  -3  158.38   22.50
  -7   8  -3  166.38   10.20
  -8   8  -3   -0.80   11.20
   7   7  -3    0.40   12.60
  -7  -7   3   29.20    8.00
  -7  -7   3   33.30    7.50
   6   7  -3   -0.30    9.70
  -6  -7   3    7.70    6.60
  -6  -7   3    6.40    5.80
   5   7  -3    0.50    8.50
  -5  -7   3    1.20    5.30
  -5  -7   3    0.90    4.80
   4   7  -3   -2.40    7.70
  -4  -7   3    6.80    4.20
  -4  -7   3    3.50    5.30
  -3  -7   3  132.09    7.80
  -3  -7   3  133.09    9.90
  -2  -7   3   76.79   10.50
  -2  -7   3   77.29    5.80
  -2  -7   3   80.89    7.70
  -1  -7   3  240.18   16.60
  -1  -7   3  226.98    9.30
  -1  -7   3  228.68   11.10
   0   7  -3  277.27   15.60
   0   7  -3  263.57    8.70
   0   7  -3  206.78   22.30
   0   7  -3  291.17    8.60
   0  -7   3  278.47   11.20
   0  -7   3  266.87   17.20
  -1   7  -3   67.69    3.70
  -1   7  -3   73.59    5.50
  -1   7  -3   72.59    4.10
  -1   7  -3   69.99    9.90
  -1   7  -3   25.00   13.10
   1  -7   3   67.09    4.80
   1  -7   3   71.29    8.80
  -2   7  -3   99.59    5.00
  -2   7  -3   86.29   12.30
  -2   7  -3   97.09    4.60
  -2   7  -3   81.59    8.50
   2  -7   3  104.29    9.70
  -3   7  -3  187.38    7.30
  -3   7  -3  173.68   18.20
   3  -7   3  182.78   12.30
  -4   7  -3   29.40    4.10
  -4   7  -3   34.70   11.40
   4  -7   3   32.70    5.80
  -5   7  -3  108.59   17.00
  -5   7  -3  131.59    7.60
  -6   7  -3   11.00    4.30
  -6   7  -3    9.30   10.30
  -7   7  -3   69.19    7.50
  -7   7  -3   55.89   15.90
  -8   7  -3   11.50   12.00
  -8   7  -3   11.40    5.40
   8   6  -3    4.70   13.70
  -8  -6   3   -0.70    6.40
  -8  -6   3   -0.90    6.00
  -7  -6   3   68.79    9.60
  -7  -6   3   72.29    8.70
   6   6  -3    6.00   11.50
  -6  -6   3   23.70    6.30
  -6  -6   3   35.60    7.40
  -5  -6   3  320.27   16.10
  -5  -6   3  292.07   13.40
  -4  -6   3   71.79    7.90
  -4  -6   3   60.09    6.30
  -3  -6   3  341.67   15.40
  -3  -6   3  358.46   21.80
  -3  -6   3  346.87   12.40
   2   6  -3  137.79    6.60
  -2  -6   3  134.29    9.00
  -2  -6   3  141.39   12.50
  -2  -6   3  132.69    6.40
   1   6  -3  203.68    7.10
  -1  -6   3  201.08    7.50
  -1  -6   3  200.88    9.80
  -1  -6   3  209.98   14.60
   0   6  -3  144.09   10.70
   0  -6   3  140.69   11.40
   0  -6   3  134.89    7.10
  -1   6  -3   75.69    4.80
  -1   6  -3   72.39    3.10
  -1   6  -3   80.09    9.80
   1  -6   3   69.59    8.20
   1  -6   3   69.19    4.40
  -2   6  -3   62.99   10.60
  -2   6  -3   62.99    4.70
  -2   6  -3   62.49    3.60
  -2   6  -3   54.59    5.90
  -2   6  -3   65.59    3.50
   2  -6   3   66.09    7.70
  -3   6  -3  151.78    6.50
  -3   6  -3  149.88   16.70
  -3   6  -3  156.48    9.00
  -3   6  -3  149.19   16.60
   3  -6   3  156.28   11.00
  -4   6  -3  278.97   23.90
  -4   6  -3  303.47   10.80
   4  -6   3  310.57   16.60
  -5   6  -3  329.67   27.40
  -5   6  -3  366.16   12.90
   5  -6   3  345.37   18.50
  -6   6  -3  169.68    9.30
  -6   6  -3  164.08   19.80
  -7   6  -3   32.10   12.50
  -7   6  -3   36.00    5.90
  -8   6  -3  232.98   26.70
  -8   6  -3  247.38   12.70
  -9   6  -3    0.30   10.30
  -9   6  -3    3.10    5.40
  -8  -5   3   78.29    9.50
  -8  -5   3   85.09   10.30
  -7  -5   3  140.79   10.40
  -7  -5   3  125.79   11.20
  -6  -5   3   75.99    8.20
  -6  -5   3   72.69    8.10
  -5  -5   3   53.89    6.50
  -5  -5   3   60.59    7.60
  -4  -5   3   39.20    6.20
  -4  -5   3   37.40    4.80
  -4  -5   3   40.00    8.50
   3   5  -3    6.10    2.90
  -3  -5   3    5.00    2.70
  -3  -5   3    9.80    4.20
  -3  -5   3    8.40    5.20
   2   5  -3   88.89    4.80
  -2  -5   3   92.69    9.70
  -2  -5   3   91.99    6.90
  -2  -5   3   82.69    4.60
   1   5  -3  354.16   16.80
   1   5  -3  361.56    9.90
  -1  -5   3  355.66   10.20
  -1  -5   3  361.56   13.50
  -1  -5   3  349.07   19.50
   0   5  -3  507.25   15.70
   0   5  -3  473.05   23.60
   0  -5   3  468.85   15.60
   0  -5   3  486.35   24.00
  -1   5  -3  448.56   25.00
  -1   5  -3  485.25   14.30
   1  -5   3  467.85   14.00
   1  -5   3  470.15   23.00
  -2   5  -3  254.97    8.00
  -2   5  -3  246.98   18.50
  -2   5  -3  290.47   18.50
  -2   5  -3  259.27    9.70
   2  -5   3  256.97   15.00
  -3   5  -3  232.08    8.20
  -3   5  -3  222.58   19.00
  -3   5  -3  165.68   17.60
   3  -5   3  232.78   13.90
   3  -5   3  245.18    8.80
  -4   5  -3   94.29   14.20
  -4   5  -3   96.19    6.00
   4  -5   3   96.19    9.40
  -5   5  -3  375.16   28.50
  -5   5  -3  384.26   13.60
   5  -5   3  358.46   20.90
  -6   5  -3   10.50    9.40
  -6   5  -3   18.20    4.50
   6  -5   3   10.60    6.30
  -7   5  -3   19.00    5.00
  -7   5  -3   17.60   11.40
  -8   5  -3   19.10    5.30
  -8   5  -3   19.40   12.00
  -9   5  -3   45.80    7.30
  -9   5  -3   47.40   16.20
   9   4  -3    5.60   14.70
  -9  -4   3    1.80    5.80
  -9  -4   3   -1.50    5.80
   8   4  -3    1.00   11.30
  -8  -4   3    9.20    6.00
  -8  -4   3    4.40    5.50
  -7  -4   3   51.69    7.10
  -7  -4   3   55.19    8.20
  -6  -4   3   77.49    9.90
  -6  -4   3   72.19    7.40
  -6  -4   3   72.89    8.20
  -5  -4   3   94.39    7.20
  -5  -4   3  105.39    8.70
  -5  -4   3   96.89   11.50
  -5  -4   3  104.39    9.30
  -5  -4   3  110.79   13.40
  -4  -4   3  811.02   23.90
  -4  -4   3  849.12   27.90
  -4  -4   3  850.91   34.40
  -4  -4   3  808.42   35.70
  -4  -4   3  820.32   38.80
   3   4  -3  232.88    8.70
  -3  -4   3  229.58   15.30
  -3  -4   3  237.98    8.80
  -3  -4   3  227.28   11.00
   2   4  -3  279.27    8.70
  -2  -4   3  294.97   11.90
  -2  -4   3  266.37   16.50
  -2  -4   3  291.37    8.80
   1   4  -3 1178.48   47.80
   1   4  -3 1146.09   28.00
   1   4  -3 1177.98   33.40
  -1  -4   3 1137.19   48.90
  -1  -4   3 1148.19   28.10
  -1  -4   3 1116.29   33.50
  -1  -4   3 1214.18   46.80
   0   4  -3  178.88   12.10
   0   4  -3  175.78    7.20
   0  -4   3  171.38    7.30
   0  -4   3  172.78   11.70
   0  -4   3  183.88   11.70
  -1   4  -3  512.45   15.20
  -1   4  -3  524.15   26.40
  -1   4  -3  543.85   27.50
   1  -4   3  500.45   15.10
   1  -4   3  552.54   26.90
   1  -4   3  512.85   24.80
  -2   4  -3   97.49   12.00
  -2   4  -3   92.19   11.20
  -2   4  -3  100.09    4.50
   2  -4   3   93.69    8.80
   2  -4   3  100.49    4.50
  -3   4  -3    4.20    4.70
  -3   4  -3    9.10    2.50
  -3   4  -3   10.30    6.80
   3  -4   3   11.50    4.60
   3  -4   3    8.10    2.60
  -4   4  -3  366.36   12.60
  -4   4  -3  353.56   25.50
   4  -4   3  371.96   21.80
  -5   4  -3  226.18   10.10
  -5   4  -3  233.28   21.60
   5  -4   3  226.48   19.00
  -6   4  -3  268.97   24.30
  -6   4  -3  250.57    9.20
  -6   4  -3  269.47   11.70
   6  -4   3  230.68   23.20
  -7   4  -3  161.88   19.80
  -7   4  -3  170.48    9.90
   7  -4   3  126.09   20.70
  -8   4  -3  111.59   18.90
  -8   4  -3  110.99    9.10
  -9   4  -3   53.29    7.90
  -9   4  -3   54.49   15.80
  -9  -3   3  149.69   11.80
  -9  -3   3  142.19   12.20
   8   3  -3   -0.10    9.30
  -8  -3   3   21.40    5.90
  -8  -3   3   12.60    5.90
  -8  -3   3   16.00    8.60
  -7  -3   3  454.45   20.00
  -7  -3   3  492.75   27.70
  -7  -3   3  469.85   18.00
  -6  -3   3  347.07   21.80
  -6  -3   3  358.36   16.10
  -6  -3   3  359.36   21.10
  -6  -3   3  337.37   13.90
  -5  -3   3  277.47   18.20
  -5  -3   3  311.97   26.40
  -5  -3   3  285.47   11.60
  -5  -3   3  289.77   13.50
  -5  -3   3  286.77   16.80
  -4  -3   3  212.98   16.80
  -4  -3   3  212.38    8.90
  -4  -3   3  199.98   14.20
  -4  -3   3  211.18   10.60
   3   3  -3  251.07    8.90
  -3  -3   3  247.18   10.80
  -3  -3   3  244.58    9.00
  -3  -3   3  251.47   15.40
  -3  -3   3  257.97   14.80
   2   3  -3   13.10    5.90
   2   3  -3   15.40    2.00
  -2  -3   3   17.80    2.30
  -2  -3   3   16.50    4.50
  -2  -3   3   16.00    3.70
  -2  -3   3   19.00    3.40
   1   3  -3   97.29    5.30
   1   3  -3   90.09    3.20
   1   3  -3   89.19    8.20
  -1  -3   3   92.49    8.30
  -1  -3   3   92.89    3.10
  -1  -3   3   95.69    7.50
  -1  -3   3   95.79    5.30
   0   3  -3  694.83   31.80
   0   3  -3  671.13   20.10
   0   3  -3  678.83   31.70
   0  -3   3  683.03   31.00
   0  -3   3  714.93   31.20
   0  -3   3  687.23   20.00
  -1   3  -3  920.31   25.90
  -1   3  -3  959.10   42.60
  -1   3  -3  907.41   42.40
  -1   3  -3  910.11   22.80
   1  -3   3  993.20   42.30
   1  -3   3  938.91   22.80
   1  -3   3  923.91   25.30
   1  -3   3  901.31   40.10
  -2   3  -3  440.96   25.40
  -2   3  -3  334.67   24.90
  -2   3  -3  434.56   12.40
   2  -3   3  462.35   22.90
   2  -3   3  452.35   12.30
  -3   3  -3  470.85   14.60
  -3   3  -3  452.85   28.40
   3  -3   3  495.75   14.60
   3  -3   3  497.65   27.20
  -4   3  -3  123.09   14.80
  -4   3  -3  131.49    7.10
   4  -3   3  123.39    8.50
   4  -3   3  133.29   15.90
  -5   3  -3  199.58    9.30
  -5   3  -3  188.18    7.60
  -5   3  -3  201.58   19.60
   5  -3   3  129.29   19.20
  -6   3  -3   86.99    7.10
  -6   3  -3   80.29    5.70
  -6   3  -3   83.39   15.00
   6  -3   3   34.80   12.40
  -7   3  -3  153.28   19.10
  -7   3  -3  148.19    9.60
  -7   3  -3  160.78    8.90
  -8   3  -3   68.89   16.80
  -8   3  -3   51.49    7.30
   8  -3   3   16.30   12.10
  -9   3  -3    2.80    4.90
  -9   3  -3    1.50   10.50
 -10  -2   3   85.89   10.10
 -10  -2   3   97.59   11.30
  -9  -2   3   58.49   13.50
  -9  -2   3   56.99    8.00
  -9  -2   3   61.59    8.90
   8   2  -3    0.60    8.40
  -8  -2   3   14.10    5.70
  -8  -2   3   12.50    8.40
  -8  -2   3    7.80    5.00
   7   2  -3   -2.50    6.90
  -7  -2   3   12.30    7.40
  -7  -2   3    8.50    4.40
  -7  -2   3    9.90    4.90
  -6  -2   3   16.50    4.30
  -6  -2   3   11.70    6.10
  -6  -2   3   13.80    4.50
  -6  -2   3   10.40    5.40
  -5  -2   3  166.88   13.00
  -5  -2   3  171.58    8.50
  -5  -2   3  207.18   25.00
  -5  -2   3  169.68    9.60
  -4  -2   3  246.28   11.00
  -4  -2   3  272.47   22.20
  -4  -2   3  249.88    9.50
  -4  -2   3  247.18   15.30
   3   2  -3  883.11   24.10
  -3  -2   3  909.01   39.50
  -3  -2   3  892.51   27.50
  -3  -2   3  946.81   42.60
  -3  -2   3  908.31   24.00
   2   2  -3  540.35   28.30
   2   2  -3  508.35   16.80
   2   2  -3  504.85   14.10
  -2  -2   3  510.25   24.30
  -2  -2   3  504.15   24.70
  -2  -2   3  514.85   13.80
  -2  -2   3  515.75   16.70
   1   2  -3 2104.09   85.29
   1   2  -3 2136.09   58.29
   1   2  -3 2232.98   86.99
  -1  -2   3 2189.28   52.09
  -1  -2   3 2188.58   51.29
  -1  -2   3 2102.09   57.99
  -1  -2   3 2111.79   85.29
  -1  -2   3 2162.58   84.89
   0   2  -3    5.50    1.90
   0   2  -3    4.70    3.80
   0   2  -3    5.80    3.50
   0  -2   3   12.70    2.00
   0  -2   3   18.10    4.40
   0  -2   3   11.80    3.80
   0  -2   3   14.60    1.40
  -1   2  -3 2757.12  117.79
  -1   2  -3 2972.10   70.19
  -1   2  -3 2963.30  117.49
  -1   2  -3 2904.21   78.49
   1  -2   3 2928.91   77.19
   1  -2   3 3048.50  116.29
   1  -2   3 3002.80  115.39
   1  -2   3 2852.71   69.99
  -2   2  -3  439.26   12.90
  -2   2  -3  431.16   25.30
   2  -2   3  431.56   12.40
   2  -2   3  431.56   12.70
   2  -2   3  426.06   14.10
   2  -2   3  430.26   25.50
  -3   2  -3    2.70    5.40
  -3   2  -3    2.80    2.20
  -3   2  -3   -0.20    4.00
   3  -2   3    3.80    2.50
   3  -2   3    2.30    3.40
   3  -2   3    4.20    5.90
   3  -2   3    3.80    1.70
  -4   2  -3  188.18    8.70
  -4   2  -3  195.48   18.10
  -4   2  -3  190.18    7.80
   4  -2   3  200.08    7.80
  -5   2  -3  349.17   12.80
  -5   2  -3  337.67   13.40
  -5   2  -3  352.46   26.40
  -6   2  -3  381.16   15.30
  -6   2  -3  394.66   14.80
  -6   2  -3  397.16   29.70
  -7   2  -3  154.38    9.90
  -7   2  -3  169.78    9.60
  -7   2  -3  156.08   19.20
  -8   2  -3  169.68   10.50
  -8   2  -3  162.28   20.70
  -8   2  -3  175.28   11.50
  -9   2  -3  150.38   21.40
  -9   2  -3  141.09   11.00
 -10  -1   3   53.99    8.50
 -10  -1   3   43.00   13.20
 -10  -1   3   55.79    8.90
  -9  -1   3   44.00   12.20
  -9  -1   3   52.79    8.00
  -9  -1   3   48.30    7.40
  -8  -1   3   55.59    7.60
  -8  -1   3   58.69   12.10
  -8  -1   3   52.09    7.10
  -7  -1   3  477.95   19.10
  -7  -1   3  478.25   28.20
  -7  -1   3  470.65   17.40
  -6  -1   3  278.97   13.10
  -6  -1   3  289.67   12.00
  -6  -1   3  285.47   17.60
  -5  -1   3 1107.19   30.90
  -5  -1   3 1145.19   34.70
  -5  -1   3 1139.09   48.40
  -4  -1   3  400.96   30.20
  -4  -1   3  361.16   19.20
  -4  -1   3  373.96   12.20
  -4  -1   3  359.96   13.90
   3   1  -3  471.75   14.30
  -3  -1   3  464.85   22.70
  -3  -1   3  459.35   16.00
  -3  -1   3  514.55   28.80
  -3  -1   3  482.45   14.00
   2   1  -3  134.89   10.10
   2   1  -3  121.19    6.60
   2   1  -3  129.29    5.50
   2   1  -3  141.99   13.80
  -2  -1   3  138.79   11.80
  -2  -1   3  132.09    6.50
  -2  -1   3  130.29    9.40
  -2  -1   3  136.29    5.30
   1   1  -3  386.46   21.40
   1   1  -3  379.16   13.20
   1   1  -3  382.76   20.10
  -1  -1   3  375.96   11.00
  -1  -1   3  375.86   19.40
  -1  -1   3  399.56   11.50
  -1  -1   3  393.66   12.90
  -1  -1   3  393.76   20.50
   0   1  -3  362.16   10.80
   0   1  -3  384.06   22.00
   0   1  -3  361.96   13.00
   0   1  -3  376.46   20.50
   0  -1   3  375.86   19.90
   0  -1   3  372.06   12.60
   0  -1   3  381.56   10.50
   0  -1   3  372.76   20.10
  -1   1  -3  317.67   13.80
  -1   1  -3  338.27   20.00
  -1   1  -3  328.37   10.10
   1  -1   3  352.36   19.00
   1  -1   3  322.77   21.30
   1  -1   3  325.77    9.70
   1  -1   3  337.27   12.40
  -2   1  -3  563.54   16.30
  -2   1  -3  542.75   29.90
   2  -1   3  563.24   15.90
   2  -1   3  564.24   16.40
   2  -1   3  569.54   21.10
  -3   1  -3  525.55   30.30
  -3   1  -3  495.65   16.20
  -3   1  -3  515.35   16.30
   3  -1   3  543.25   16.10
  -4   1  -3  455.65   29.30
  -4   1  -3  444.16   15.40
  -4   1  -3  443.96   15.50
   4  -1   3  459.45   15.20
  -5   1  -3  144.89    8.50
  -5   1  -3  123.79    7.80
  -5   1  -3  133.19   16.00
  -6   1  -3  112.79    8.50
  -6   1  -3  130.59   17.60
  -6   1  -3  123.09    8.20
  -7   1  -3  162.28   19.70
  -7   1  -3  177.88   11.00
  -7   1  -3  175.18   10.60
  -8   1  -3   29.70   12.20
  -8   1  -3   30.80    6.60
  -8   1  -3   36.20    6.30
   8  -1   3    5.20   10.20
  -9   1  -3    3.60   11.20
  -9   1  -3    4.90    5.70
  -9   1  -3    0.70    5.20
   9  -1   3   -0.70   11.90
 -10   0   3  141.89   19.20
 -10   0   3  158.08   12.50
 -10   0   3  139.19   11.40
  -9   0   3   82.79    8.90
  -9   0   3   83.69   14.60
  -9   0   3   84.39    8.20
  -8   0   3  444.46   18.80
  -8   0   3  450.25   17.70
  -8   0   3  466.65   29.70
  -7   0   3   33.20    5.70
  -7   0   3   30.90    5.20
   6   0  -3    0.90    9.90
  -6   0   3    2.80    3.30
  -6   0   3    2.20    3.80
  -6   0   3    7.10    3.40
   5   0  -3    0.00    8.80
  -5   0   3    3.10    3.40
  -5   0   3    1.90    2.80
  -5   0   3    4.20    2.70
   4   0  -3   15.50   10.50
  -4   0   3   52.79    4.70
  -4   0   3   54.19    4.40
  -4   0   3   51.19    6.30
   3   0  -3  696.93   19.80
   3   0  -3  696.53   31.20
   3   0  -3  547.75   41.40
  -3   0   3  718.43   19.40
  -3   0   3  655.33   21.60
  -3   0   3  803.22   40.50
  -3   0   3  708.23   30.40
   2   0  -3  836.22   26.40
   2   0  -3  849.41   37.70
   2   0  -3  867.51   44.60
  -2   0   3  847.02   26.00
  -2   0   3  830.32   36.80
  -2   0   3  948.21   42.70
  -2   0   3  903.21   25.10
  -2   0   3  858.01   23.10
   1   0  -3 1252.27   37.10
   1   0  -3 1314.47   56.69
   1   0  -3 1265.17   54.89
   1   0  -3 1278.77   33.60
  -1   0   3 1313.27   33.00
  -1   0   3 1244.68   36.60
  -1   0   3 1208.98   52.99
  -1   0   3 1348.27   55.79
   0   0  -3 1256.27   39.10
   0   0  -3 1318.27   56.69
   0   0  -3 1316.17   33.50
   0   0   3 1346.77   33.10
   0   0   3 1388.36   56.29
   0   0   3 1291.77   38.20
   0   0   3 1208.98   57.29
  -1   0  -3  707.83   36.00
  -1   0  -3  741.33   20.60
   1   0   3  770.92   21.70
   1   0   3  747.53   26.10
   1   0   3  756.62   20.10
   1   0   3  767.02   35.20
  -2   0  -3  266.77    9.80
  -2   0  -3  285.77   19.30
   2   0   3  268.77    9.20
   2   0   3  224.58   15.00
   2   0   3  268.17    9.50
  -3   0  -3  515.05   17.00
  -3   0  -3  487.45   29.80
  -3   0  -3  518.55   16.60
   3   0   3  529.65   16.70
  -4   0  -3    2.20    6.10
  -4   0  -3    2.70    2.80
  -4   0  -3    1.60    3.10
   4   0   3   -2.80    5.40
  -5   0  -3   23.60    4.60
  -5   0  -3   29.80    5.00
  -5   0  -3   22.40    9.50
   5   0   3    0.30    6.50
  -6   0  -3  285.67   25.30
  -6   0  -3  289.57   13.50
  -6   0  -3  276.67   13.60
  -7   0  -3   82.79   17.10
  -7   0  -3   65.69    7.80
  -7   0  -3   70.79    8.30
  -8   0  -3  307.37   29.00
  -8   0  -3  325.97   16.10
  -8   0  -3  338.57   16.10
  -9   0  -3   65.49    8.90
  -9   0  -3   61.39   17.50
  -9   0  -3   70.79    9.60
  10  -1  -3    3.30    9.30
 -10   1   3    1.70    5.00
 -10   1   3   -2.20    9.20
 -10   1   3   -0.10    5.20
   9  -1  -3    4.20    8.10
  -9   1   3    4.40    4.80
  -9   1   3    2.20    8.20
  -9   1   3   -1.30    4.40
  -8   1   3  362.36   26.10
  -8   1   3  357.06   15.30
  -8   1   3  358.86   16.10
   7  -1  -3   -3.20    9.60
  -7   1   3    1.50    3.50
  -7   1   3    5.10    3.80
  -6   1   3  237.78   10.50
  -6   1   3  223.68   11.00
  -6   1   3  225.58   13.90
  -5   1   3 1255.97   37.80
  -5   1   3 1291.67   34.60
  -5   1   3 1253.37   51.79
   4  -1  -3  185.78   12.30
  -4   1   3  190.28    8.30
  -4   1   3  187.08   11.30
  -4   1   3  197.08    9.30
   3  -1  -3  561.74   43.60
   3  -1  -3  702.73   31.50
   3  -1  -3  700.23   20.60
  -3   1   3  710.43   22.40
  -3   1   3  705.53   20.10
  -3   1   3  690.73   30.30
  -3   1   3  803.42   42.90
   2  -1  -3  439.76   16.60
   2  -1  -3  465.85   30.60
   2  -1  -3  478.15   24.50
  -2   1   3  498.85   28.60
  -2   1   3  439.76   14.40
  -2   1   3  439.66   16.00
  -2   1   3  450.65   22.10
  -2   1   3  483.35   15.70
   1  -1  -3   68.89    5.00
   1  -1  -3   62.99    6.30
   1  -1  -3   65.19    9.40
   1  -1  -3   44.80    8.50
  -1   1   3   66.49    9.00
  -1   1   3   67.89    4.80
  -1   1   3   83.69    6.10
  -1   1   3   75.19    9.20
   0  -1  -3  225.98   16.30
   0  -1  -3  243.88    9.20
   0  -1  -3  236.48   13.30
   0   1   3  256.17    9.00
   0   1   3  232.18   12.10
   0   1   3  250.77   16.60
  -1  -1  -3   22.40    6.30
  -1  -1  -3   26.10    3.40
   1   1   3   24.10    3.10
   1   1   3   36.00    6.80
   1   1   3   22.50    3.20
   1   1   3   23.50    6.10
  -2  -1  -3  390.36   14.10
  -2  -1  -3  418.66   25.10
  -2  -1  -3  387.36   13.50
  -3  -1  -3  131.49   14.40
  -3  -1  -3  116.79    7.30
  -3  -1  -3  104.89    7.00
  -4  -1  -3  788.22   43.50
  -4  -1  -3  799.42   26.10
  -4  -1  -3  782.72   24.70
  -5  -1  -3  225.68   11.50
  -5  -1  -3  214.58   20.60
  -5  -1  -3  206.18   11.00
  -6  -1  -3  226.18   22.90
  -6  -1  -3  217.48   12.40
  -6  -1  -3  238.18   12.80
  -7  -1  -3  220.88   13.10
  -7  -1  -3  202.68   12.60
  -7  -1  -3  201.98   23.30
  -8  -1  -3   63.79   16.50
  -8  -1  -3   74.19    9.20
  -8  -1  -3   71.09    9.00
  -9  -1  -3   39.80   16.20
  -9  -1  -3   45.80    8.00
  -9  -1  -3   52.49    9.10
   9   1   3    6.60   15.10
 -10   2   3  172.68   21.70
 -10   2   3  190.28   12.30
 -10   2   3  181.18   12.30
  -9   2   3  230.88   12.80
  -9   2   3  224.68   12.70
  -9   2   3  218.18   22.20
  -7   2   3  546.25   20.10
  -7   2   3  544.95   18.80
   6  -2  -3    7.70   12.50
  -6   2   3   44.20    5.50
  -6   2   3   39.50    5.30
  -6   2   3   42.10    6.00
   5  -2  -3   -2.60    7.80
   5  -2  -3   17.70    4.70
  -5   2   3   18.40    3.90
  -5   2   3   14.50    3.70
  -5   2   3   15.80    3.70
   4  -2  -3   26.00   14.10
   4  -2  -3   58.39    7.40
  -4   2   3   73.19    5.60
  -4   2   3   63.49    6.20
  -4   2   3   64.29    5.70
   3  -2  -3  124.79   11.30
   3  -2  -3   88.79   19.70
  -3   2   3  124.89    7.50
  -3   2   3  126.29    6.80
  -3   2   3  121.59    8.70
   2  -2  -3  478.75   33.40
   2  -2  -3  482.25   17.50
  -2   2   3  506.75   16.80
  -2   2   3  479.65   24.60
  -2   2   3  516.15   31.00
  -2   2   3  468.95   17.80
   1  -2  -3 1480.15   66.29
   1  -2  -3 1379.76   38.50
   1  -2  -3 1349.77   45.40
  -1   2   3 1552.24   64.79
  -1   2   3 1359.16   43.50
  -1   2   3 1450.35   37.90
   0  -2  -3 1998.70   86.69
   0  -2  -3 1932.71   52.19
   0   2   3 1980.40   62.29
   0   2   3 2178.78   86.39
   0   2   3 2099.89   51.89
  -1  -2  -3  280.57   11.00
  -1  -2  -3  287.47   19.80
   1   2   3  292.77   18.10
  -2  -2  -3  656.83   35.30
  -2  -2  -3  664.23   20.50
  -2  -2  -3  650.33   21.70
  -3  -2  -3  354.06   14.20
  -3  -2  -3  354.06   25.10
  -3  -2  -3  389.26   15.10
  -4  -2  -3    5.60    3.60
  -4  -2  -3    9.00    7.70
  -4  -2  -3   11.10    4.30
   4   2   3    2.50    8.00
  -5  -2  -3   48.70    6.70
  -5  -2  -3   38.30   11.90
  -5  -2  -3   48.50    6.70
   5   2   3    8.90   10.90
  -6  -2  -3    1.70    4.10
  -6  -2  -3   -1.60    8.40
  -6  -2  -3    0.50    4.40
   6   2   3    0.00    9.60
  -7  -2  -3   77.59    9.20
  -7  -2  -3   96.69    9.50
  -7  -2  -3   90.69   17.80
  -8  -2  -3   37.00    7.60
  -8  -2  -3   31.90    7.20
  -8  -2  -3   40.10   15.00
   8   2   3    7.80   14.00
 -10   3   3   31.20   12.80
 -10   3   3   26.60    6.10
 -10   3   3   27.60    6.80
  -9   3   3    0.70    8.30
  -9   3   3   -1.40    4.40
  -9   3   3    0.20    4.10
   8  -3  -3   -0.20    5.20
   8  -3  -3    7.60   14.00
  -8   3   3    7.10    4.40
  -8   3   3    8.40    4.50
   6  -3  -3   38.80    7.30
   6  -3  -3    8.50   12.20
  -6   3   3   43.30    5.80
  -6   3   3   46.30    5.70
  -6   3   3   45.40    5.60
   5  -3  -3  100.29   10.00
  -5   3   3  109.59    7.60
  -5   3   3  106.79    7.20
  -5   3   3  107.19    7.40
   4  -3  -3  751.02   37.70
  -4   3   3  847.42   26.60
  -4   3   3  833.12   33.70
  -4   3   3  794.92   24.20
   3  -3  -3  252.17   30.60
  -3   3   3  324.07   16.70
  -3   3   3  319.27   12.50
  -3   3   3  324.57   13.80
   2  -3  -3  967.50   56.19
   2  -3  -3  992.50   30.00
  -2   3   3  953.10   45.50
  -2   3   3  972.20   32.10
   1  -3  -3   91.99    6.60
   1  -3  -3   90.19   13.80
  -1   3   3   95.19    9.10
   0  -3  -3  113.69    6.90
   0  -3  -3  100.39   12.80
   0   3   3  115.19   11.70
  -1  -3  -3  415.06   26.10
  -1  -3  -3  428.06   15.10
   1   3   3  392.06   23.60
  -2  -3  -3   62.09    5.80
  -2  -3  -3   73.69   11.10
  -2  -3  -3   68.39    6.20
  -3  -3  -3  105.19    8.20
  -3  -3  -3  117.59   14.50
  -3  -3  -3  108.19    8.10
  -4  -3  -3   15.30    4.90
  -4  -3  -3   11.20    4.90
  -4  -3  -3   17.10    9.10
   4   3   3    4.40   10.20
  -5  -3  -3  824.42   29.60
  -5  -3  -3  851.11   48.80
  -5  -3  -3  820.42   28.50
  -6  -3  -3   49.50   14.50
  -6  -3  -3   48.20    7.80
  -6  -3  -3   39.80    7.60
   6   3   3   18.20   14.60
  -7  -3  -3  229.18   26.50
  -7  -3  -3  226.58   14.60
  -7  -3  -3  201.68   14.10
  -8  -3  -3  104.99   20.60
  -8  -3  -3  108.29   11.10
  -8  -3  -3   97.29   11.40
 -10   4   3   78.29   17.60
 -10   4   3   73.89    9.10
 -10   4   3   81.29    8.80
  -9   4   3  135.99   10.30
  -9   4   3  150.68   10.10
  -8   4   3  152.28    9.90
  -8   4   3  149.79    9.90
   7  -4  -3   11.40   14.50
   6  -4  -3  420.16   23.60
  -6   4   3  423.46   16.40
  -6   4   3  443.56   17.20
  -6   4   3  453.15   19.30
   5  -4  -3    3.00    3.90
   5  -4  -3    8.90   12.40
  -5   4   3   11.20    3.80
  -5   4   3    9.20    3.80
  -5   4   3   11.70    3.00
   4  -4  -3    4.80   11.40
  -4   4   3   28.40    4.60
  -4   4   3   28.00    5.00
  -4   4   3   20.90    4.20
   3  -4  -3  146.59   25.50
  -3   4   3  221.78   11.90
  -3   4   3  224.78   14.60
  -3   4   3  222.58   10.80
   2  -4  -3    2.90    4.00
   2  -4  -3    3.50    9.60
   2  -4  -3    1.60    4.50
  -2   4   3    5.20    4.30
  -2   4   3    8.00    4.90
   1  -4  -3 1002.70   30.80
   1  -4  -3 1036.70   56.29
  -1   4   3 1028.90   38.00
   0  -4  -3  293.67   12.80
   0  -4  -3  308.27   23.80
   0   4   3  293.17   19.40
  -1  -4  -3  889.41   26.70
  -1  -4  -3  877.51   45.40
   1   4   3  798.82   39.20
  -2  -4  -3  502.65   18.00
  -2  -4  -3  463.85   18.50
  -2  -4  -3  463.75   29.90
  -3  -4  -3  107.29   15.10
  -3  -4  -3  102.49    8.50
  -3  -4  -3  109.59    8.90
  -4  -4  -3  308.67   15.60
  -4  -4  -3  311.87   15.20
  -4  -4  -3  298.97   25.20
  -5  -4  -3    2.50    8.70
  -5  -4  -3    2.40    5.10
  -5  -4  -3    4.10    5.20
   5   4   3    8.20   12.50
  -6  -4  -3   41.40    7.90
  -6  -4  -3   46.10    8.20
  -6  -4  -3   37.00   13.90
   6   4   3    5.40   13.00
  -7  -4  -3    4.70    6.20
  -7  -4  -3   -1.00   10.70
  -7  -4  -3    2.20    5.90
   7   4   3    2.10   13.60
   8   4   3    2.20   16.60
 -10   5   3   91.79   17.60
 -10   5   3   94.89    9.30
 -10   5   3   99.09   10.00
  -9   5   3   57.49    7.60
  -9   5   3   53.09    7.60
  -8   5   3   77.99    8.20
  -8   5   3   85.39    8.00
  -7   5   3   67.79    7.40
  -7   5   3   64.39    7.20
   6  -5  -3    2.50   12.40
  -6   5   3   25.20    5.10
  -6   5   3   26.50    5.20
  -5   5   3  189.88   10.80
  -5   5   3  192.38    9.60
  -5   5   3  189.58   10.10
  -4   5   3  216.98   12.30
  -4   5   3  221.58   11.30
  -4   5   3  224.18   12.50
   3  -5  -3  340.27   37.00
   2  -5  -3  383.46   16.90
   2  -5  -3  331.07   34.90
  -2   5   3  385.96   19.60
   1  -5  -3  551.44   20.80
   1  -5  -3  576.44   41.40
  -1   5   3  581.34   27.70
   0  -5  -3  237.08   23.10
   0  -5  -3  258.37   12.40
   0   5   3  242.38   19.70
  -1  -5  -3   74.19   13.60
  -1  -5  -3   82.29    7.50
   1   5   3   59.39   13.00
  -2  -5  -3   81.59    7.90
  -2  -5  -3   89.59    8.20
  -2  -5  -3   73.09   13.50
  -3  -5  -3   18.60    9.60
  -3  -5  -3   25.40    6.20
  -3  -5  -3   18.80    5.50
   3   5   3   -0.10    8.80
  -4  -5  -3   69.69   15.00
  -4  -5  -3   71.49    8.70
  -4  -5  -3   64.09    8.70
  -5  -5  -3   29.20    7.30
  -5  -5  -3   36.20   13.00
  -5  -5  -3   36.20    7.50
   5   5   3    3.00   11.60
  -6  -5  -3  100.29   11.20
  -6  -5  -3   95.89   19.20
  -6  -5  -3   92.89   11.00
  -7  -5  -3  140.39   13.10
  -7  -5  -3  126.49   13.10
 -10   6   3   31.80    7.30
 -10   6   3   44.50   15.50
   9  -6  -3    2.30   17.20
  -9   6   3   60.69    7.70
  -9   6   3   56.09    8.00
  -8   6   3  100.09    9.10
  -8   6   3   96.49    8.60
   7  -6  -3    0.30   13.00
  -7   6   3    7.40    4.40
  -7   6   3    4.30    4.60
  -6   6   3  201.68   11.40
  -6   6   3  183.88   11.00
   5  -6  -3   18.00   16.70
  -5   6   3   84.19    7.90
  -5   6   3   80.69    8.20
   4  -6  -3   23.90   15.30
  -4   6   3   74.09    8.20
  -4   6   3   63.89    7.50
  -4   6   3   74.29    8.00
   3  -6  -3    3.20    6.00
   3  -6  -3   19.60   15.00
  -3   6   3   22.30    7.10
  -3   6   3   42.20    7.50
   2  -6  -3   18.60    5.80
   2  -6  -3   21.40   15.30
  -2   6   3    6.60    5.80
  -2   6   3   28.30    7.50
   1  -6  -3   13.60   12.80
   1  -6  -3    8.90    4.90
  -1   6   3    0.80    5.70
  -1   6   3   10.50    7.20
   0  -6  -3   29.00    5.90
   0  -6  -3   31.60   13.00
   0   6   3    4.70    7.90
   0   6   3   30.70   10.20
  -1  -6  -3  443.76   32.90
  -1  -6  -3  430.56   17.70
   1   6   3  357.76   28.30
  -2  -6  -3   53.29    7.30
  -2  -6  -3   56.79   14.00
  -3  -6  -3  302.17   26.70
  -3  -6  -3  328.77   16.20
  -3  -6  -3  323.47   16.80
  -4  -6  -3   59.19    9.00
  -4  -6  -3   45.00    8.10
  -4  -6  -3   42.10   13.70
  -5  -6  -3   30.70    7.80
  -5  -6  -3   32.90    7.90
  -5  -6  -3   42.00   14.70
   5   6   3    0.60   11.70
  -6  -6  -3   27.80    8.40
  -6  -6  -3   33.90    8.60
   6   6   3    1.90   14.40
   9  -7  -3    6.20   20.60
  -9   7   3   51.89    8.10
   8  -7  -3   11.40   19.60
  -8   7   3   89.59    8.90
  -8   7   3   69.89    8.60
   7  -7  -3   -3.50   13.80
  -7   7   3   -1.40    4.50
  -7   7   3    2.30    4.30
   6  -7  -3    2.60   15.60
  -6   7   3    1.10    4.50
  -6   7   3    1.00    4.10
  -5   7   3  180.18   12.30
  -5   7   3  173.98   11.30
  -4   7   3  260.67   15.90
  -4   7   3  290.77   14.60
  -4   7   3  280.77   18.10
   3  -7  -3   26.40   17.90
  -3   7   3   16.10    6.90
  -3   7   3   46.40    8.90
   2  -7  -3  342.67   39.60
   1  -7  -3  202.88   30.50
   1  -7  -3  250.07   14.30
  -1   7   3  248.58   20.20
   0  -7  -3  122.19   23.30
   0  -7  -3  108.49   10.00
   0   7   3  124.89   17.30
  -1  -7  -3   96.99    9.50
  -1  -7  -3  101.29   20.90
   1   7   3   83.49   17.40
  -2  -7  -3   46.50   14.60
  -2  -7  -3   39.20    7.30
   2   7   3    6.50   11.10
  -3  -7  -3    6.00    9.80
  -3  -7  -3   13.20    6.30
  -3  -7  -3    2.20    5.20
   3   7   3    0.80   10.90
  -4  -7  -3    5.30    6.60
  -4  -7  -3    3.50    5.90
   4   7   3   -0.40   11.20
  -5  -7  -3    3.10    6.50
  -5  -7  -3   -0.40    6.40
   5   7   3    4.00   14.50
  -9   8   3   15.80    6.60
   8  -8  -3   -4.20   17.20
  -8   8   3   33.60    7.10
   7  -8  -3    9.50   18.20
  -7   8   3   58.59    7.90
  -7   8   3   53.49    8.20
   6  -8  -3    2.10   15.40
  -6   8   3   18.00    6.00
  -6   8   3   18.70    6.20
  -5   8   3  103.19    9.70
  -5   8   3  106.09   10.70
   4  -8  -3   25.90   20.00
  -4   8   3   93.69   11.10
  -4   8   3   74.19    9.00
   3  -8  -3   37.40   20.20
  -3   8   3   47.50   11.10
   2  -8  -3   19.80   17.30
   2  -8  -3   46.80    9.20
  -2   8   3   56.39   11.50
   1  -8  -3    9.40    6.20
   1  -8  -3    1.90   14.30
  -1   8   3    1.80    7.40
  -1   8   3    4.50    8.60
   0  -8  -3   48.10   19.50
   0  -8  -3   46.40    8.00
   0   8   3   58.39   14.70
  -1  -8  -3   89.79    9.80
  -1  -8  -3   79.09   22.00
   1   8   3   73.69   17.60
  -2  -8  -3    5.60    5.80
   2   8   3    0.90   12.10
   2   8   3   -4.80    8.90
  -3  -8  -3   87.69   10.50
   3   8   3   14.30   15.50
  -4  -8  -3   43.70    9.30
  -4  -8  -3   55.39    9.80
   4   8   3   -0.90   13.00
   8  -9  -3   -4.80   19.80
  -8   9   3   37.60    7.90
   7  -9  -3    5.70   19.40
  -7   9   3   34.50    7.50
   6  -9  -3   -5.00   15.00
  -6   9   3    5.80    5.70
  -6   9   3    0.70    5.80
   5  -9  -3    3.50   17.60
  -5   9   3   33.10    7.80
  -5   9   3   29.70    8.00
   4  -9  -3   10.10   15.70
  -4   9   3   12.30    7.30
  -4   9   3    6.90    6.00
   3  -9  -3   47.00   23.00
  -3   9   3  217.98   17.50
   2  -9  -3    5.60   15.70
   2  -9  -3   23.40    8.20
  -2   9   3    0.40    7.10
  -2   9   3    5.60    8.20
   1  -9  -3   92.49   10.90
   1  -9  -3   48.00   22.10
  -1   9   3   12.70   11.20
  -1   9   3   76.79   15.60
   0  -9  -3   75.99   10.40
   0   9   3   88.99   18.00
  -1  -9  -3   36.70    8.40
   1   9   3   24.70   14.20
   1   9   3    5.60   11.70
  -2  -9  -3   14.30    7.00
   2   9   3    1.50   12.10
   2   9   3    7.90   12.60
  -3  -9  -3   18.00    8.00
   3   9   3   -3.10   11.50
   3   9   3    5.30   13.70
   6 -10  -3   10.30   21.90
  -6  10   3   32.70    8.10
   5 -10  -3    5.90   19.50
  -5  10   3   39.90    9.40
  -5  10   3   40.60    8.50
   4 -10  -3    9.20   19.90
  -4  10   3   38.10    8.70
  -4  10   3   34.90    9.90
   3 -10  -3   21.10   20.10
  -3  10   3   79.19   13.80
  -3  10   3   79.19   10.90
   2 -10  -3   46.70   10.30
  -2  10   3   47.70   12.80
   1 -10  -3   25.10    8.80
  -1  10   3    2.50   10.60
  -1  10   3   21.30   11.70
   0 -10  -3    1.40    6.70
   0  10   3   -2.60   10.10
   0  10   3    0.30   11.00
  -1 -10  -3    5.50    7.00
   1  10   3    5.90   13.20
   1  10   3   -5.20   10.80
   3  10  -4    0.10   10.20
   2  10  -4    0.10   10.00
  -2 -10   4   27.50    6.80
   1 -10   4   52.49   10.40
  -5  10  -4   10.00   12.80
   4   9  -4    5.90   11.60
  -4  -9   4   22.20    7.60
   3   9  -4   -0.60    8.50
  -3  -9   4    3.50    5.70
  -2  -9   4    0.30    4.80
  -1  -9   4   80.89   12.20
  -1  -9   4   69.79    7.90
   0  -9   4   36.70    9.00
   1  -9   4   24.00    7.70
   2  -9   4  111.49   12.10
  -3   9  -4   74.09   15.20
  -4   9  -4    6.00   10.20
  -5   9  -4   57.09   15.80
  -6   9  -4   13.50   12.20
   6   8  -4   -0.60   11.40
  -6  -8   4    8.20    6.90
   5   8  -4    2.90   11.90
  -5  -8   4   33.30    8.10
  -4  -8   4   14.80    6.50
  -3  -8   4   78.69    9.10
  -3  -8   4   92.69   13.10
  -2  -8   4   63.99    7.60
  -2  -8   4   58.69   10.90
  -1  -8   4  139.49   13.90
  -1  -8   4  128.99    8.80
   0  -8   4  205.48   10.10
   0  -8   4  222.48   16.70
  -1   8  -4  107.29   13.20
   1  -8   4  112.79   11.80
   1  -8   4   98.69    6.10
  -2   8  -4   61.39   12.50
   2  -8   4   59.19    9.40
  -3   8  -4    1.40    8.50
   3  -8   4   14.80    6.10
  -4   8  -4   14.60   10.90
  -5   8  -4   73.79   16.70
  -6   8  -4   88.99   19.20
  -7   8  -4   16.00   13.70
   7   7  -4    6.30   12.70
  -7  -7   4   63.19   10.20
   6   7  -4   -0.40   10.10
  -6  -7   4   58.79    9.20
  -5  -7   4   78.09   10.00
  -4  -7   4  147.09   11.10
  -4  -7   4  139.99   15.00
  -3  -7   4   71.89   11.30
  -3  -7   4   76.29    8.50
  -2  -7   4   17.00    4.90
  -2  -7   4   16.70    6.90
  -1  -7   4    5.30    5.60
  -1  -7   4    4.50    3.80
   0   7  -4  107.49   11.10
   0  -7   4  100.09    6.60
   0  -7   4  120.19   11.90
  -1   7  -4   15.30    7.20
   1  -7   4   19.50    3.10
   1  -7   4   19.50    6.30
  -2   7  -4  143.89   16.00
   2  -7   4  160.38   12.90
  -3   7  -4  129.29    6.20
  -3   7  -4  113.99   16.50
   3  -7   4  153.78   12.10
  -4   7  -4   64.59   14.60
  -4   7  -4   75.69    5.90
   4  -7   4   76.49    9.50
  -5   7  -4  181.78   22.00
  -5   7  -4  207.68    9.90
  -6   7  -4   11.90   11.40
  -6   7  -4   16.00    4.80
  -7   7  -4   56.79   17.20
  -7   7  -4   68.39    7.80
  -8   7  -4   19.80    6.10
  -8   7  -4   22.50   14.30
   8   6  -4    7.10   15.30
   7   6  -4    0.10   11.20
  -7  -6   4    7.20    5.60
  -7  -6   4   -3.00    5.60
   6   6  -4   -0.80    9.20
  -6  -6   4   13.10    6.20
  -6  -6   4    9.50    5.30
  -5  -6   4   28.90    5.30
  -5  -6   4   32.80    7.10
  -5  -6   4   32.10    9.10
  -4  -6   4   23.30    7.80
  -4  -6   4   22.30    4.30
  -4  -6   4   22.00    5.80
  -3  -6   4  217.08   12.10
  -3  -6   4  223.08   16.80
  -3  -6   4  201.08    8.40
   2   6  -4   58.79    3.80
  -2  -6   4   62.49    6.90
  -2  -6   4   56.49    3.90
  -2  -6   4   59.59    9.40
   1   6  -4   97.09    9.50
  -1  -6   4   94.89    7.30
  -1  -6   4  101.69   11.00
   0   6  -4  511.45   26.60
   0  -6   4  496.05   16.80
   0  -6   4  500.95   26.30
  -1   6  -4  173.08   15.20
  -1   6  -4  169.28    7.40
   1  -6   4  175.18   13.20
   1  -6   4  163.98    6.90
  -2   6  -4  157.18    5.30
  -2   6  -4  154.88   16.30
   2  -6   4  159.78   12.70
  -3   6  -4   84.39    5.20
  -3   6  -4   80.09   13.50
   3  -6   4   85.49    9.80
  -4   6  -4    4.80    8.40
  -4   6  -4   -2.00    2.80
   4  -6   4    3.20    4.80
  -5   6  -4   26.90   11.90
  -5   6  -4   33.50    4.90
   5  -6   4   31.80    7.50
  -6   6  -4   11.60   10.80
  -6   6  -4   16.60    4.90
  -7   6  -4  142.69   21.70
  -7   6  -4  164.08   10.20
  -8   6  -4  115.29   21.40
  -8   6  -4  120.79    9.70
   8   5  -4   -0.40   12.70
  -8  -5   4   -0.40    5.60
  -8  -5   4    1.60    5.80
  -7  -5   4  166.88   11.20
  -7  -5   4  177.38   13.00
  -6  -5   4  103.19    8.60
  -6  -5   4  108.89   13.50
  -6  -5   4  108.79   10.10
  -5  -5   4  164.78   15.10
  -5  -5   4  160.58   11.10
  -5  -5   4  160.38    9.30
  -4  -5   4  408.66   14.10
  -4  -5   4  404.06   24.20
  -4  -5   4  411.46   17.50
   3   5  -4  141.89    6.70
  -3  -5   4  132.59    6.40
  -3  -5   4  156.08    9.50
  -3  -5   4  147.49   13.20
   2   5  -4  375.46   10.60
   2   5  -4  356.86   20.70
  -2  -5   4  392.46   15.30
  -2  -5   4  372.56   10.60
  -2  -5   4  389.56   22.10
   1   5  -4   80.19    9.20
  -1  -5   4   82.39    9.70
  -1  -5   4   82.29    8.00
  -1  -5   4   75.19    6.10
   0   5  -4  165.18    7.70
   0   5  -4  141.29   12.50
   0  -5   4  160.78   12.60
   0  -5   4  150.38    7.50
   0  -5   4  162.18   12.70
  -1   5  -4   22.00    7.10
  -1   5  -4   27.00    3.70
   1  -5   4   27.00    3.30
   1  -5   4   27.10    6.20
  -2   5  -4  264.67    8.30
  -2   5  -4  251.17   20.60
   2  -5   4  278.87    8.50
   2  -5   4  270.67   16.90
  -3   5  -4  271.17   23.20
  -3   5  -4  286.17   10.00
   3  -5   4  301.47   18.30
   3  -5   4  288.47   10.00
  -4   5  -4  236.98   22.60
  -4   5  -4  259.77   10.20
   4  -5   4  256.27   17.60
  -5   5  -4  432.56   33.10
  -5   5  -4  481.05   16.40
   5  -5   4  483.35   27.40
  -6   5  -4  128.69    8.40
  -6   5  -4   98.49   17.70
   6  -5   4  107.69   14.30
  -7   5  -4  214.38   25.10
  -7   5  -4  226.68   11.90
  -8   5  -4   32.80    6.60
  -8   5  -4   34.80   14.90
  -9   5  -4   39.80   16.40
  -9   5  -4   41.00    7.50
  -9  -4   4   67.09    9.00
  -9  -4   4   76.39   10.40
  -8  -4   4   81.29   10.00
  -8  -4   4   95.39    9.30
  -7  -4   4   42.20    7.60
  -7  -4   4   41.30    6.50
  -6  -4   4   28.30    6.70
  -6  -4   4   29.60    8.30
  -6  -4   4   26.80    6.20
  -6  -4   4   27.00    5.20
  -5  -4   4   73.69   10.40
  -5  -4   4   87.39    8.60
  -5  -4   4   88.09    7.00
  -5  -4   4   77.79    8.00
  -4  -4   4  164.48    8.00
  -4  -4   4  165.68    9.90
  -4  -4   4  162.68   11.90
  -4  -4   4  164.58   13.70
   3   4  -4   13.50    2.80
   3   4  -4    7.50    6.70
  -3  -4   4   13.80    2.80
  -3  -4   4   17.40    5.70
  -3  -4   4   16.50    4.10
  -3  -4   4   15.10    4.30
   2   4  -4    7.70    5.60
   2   4  -4    7.10    1.90
  -2  -4   4    6.80    4.60
  -2  -4   4    6.90    3.70
  -2  -4   4    6.40    1.80
  -2  -4   4    7.20    3.40
   1   4  -4 2451.45   99.39
  -1  -4   4 2598.94   97.89
  -1  -4   4 2427.16   67.19
  -1  -4   4 2377.16   98.19
   0   4  -4 1159.18   51.89
   0   4  -4 1165.68   33.30
   0  -4   4 1121.59   32.90
   0  -4   4 1157.98   50.39
   0  -4   4 1220.68   51.09
  -1   4  -4 2661.33  108.59
  -1   4  -4 2666.23   70.19
   1  -4   4 2521.05   69.29
   1  -4   4 2643.94  104.49
  -2   4  -4  264.87    8.60
  -2   4  -4  251.47   20.10
   2  -4   4  270.57    8.40
   2  -4   4  271.97   17.40
  -3   4  -4  120.89    6.30
  -3   4  -4  122.79   15.30
   3  -4   4  133.69    6.50
   3  -4   4  123.29   12.30
  -4   4  -4  291.27   11.00
  -4   4  -4  257.57   23.50
   4  -4   4  278.67   20.50
  -5   4  -4    6.30    7.90
  -5   4  -4    1.50    3.40
   5  -4   4    3.20    7.00
  -6   4  -4    0.20    3.70
  -6   4  -4    3.80    9.30
   6  -4   4   -0.70    8.30
  -7   4  -4    6.70   10.60
  -7   4  -4   11.50    4.90
   7  -4   4    5.30   11.20
  -8   4  -4   66.69   17.40
  -8   4  -4   76.69    8.30
  -9   4  -4   36.30    7.20
  -9   4  -4   39.60   16.50
   9   3  -4    1.00   11.40
  -9  -3   4    7.80    6.20
  -9  -3   4    4.00    5.80
   8   3  -4   -1.90    9.80
  -8  -3   4    3.10    5.00
  -8  -3   4    7.90    5.60
  -7  -3   4  142.79   10.90
  -7  -3   4  141.49   14.60
  -7  -3   4  145.39    9.40
  -7  -3   4  156.58   14.80
  -6  -3   4  120.89   11.90
  -6  -3   4  124.09   12.90
  -6  -3   4  123.49    9.10
  -6  -3   4  126.59    8.10
  -5  -3   4  372.86   25.70
  -5  -3   4  336.67   21.10
  -5  -3   4  336.67   15.10
  -5  -3   4  363.06   13.20
  -4  -3   4  370.76   22.50
  -4  -3   4  357.26   14.90
  -4  -3   4  367.96   12.40
  -4  -3   4  357.46   21.10
   3   3  -4  478.25   34.90
   3   3  -4  617.24   17.10
  -3  -3   4  610.84   20.40
  -3  -3   4  622.44   17.00
  -3  -3   4  626.64   29.40
  -3  -3   4  616.64   29.80
   2   3  -4  301.67   19.90
   2   3  -4  300.97    9.40
  -2  -3   4  296.07   11.80
  -2  -3   4  303.57   17.30
  -2  -3   4  307.37    9.00
  -2  -3   4  302.37   18.00
   1   3  -4  330.57   20.00
   1   3  -4  335.07   12.50
  -1  -3   4  351.26   18.80
  -1  -3   4  323.47   11.90
  -1  -3   4  345.57    8.70
  -1  -3   4  321.77   19.00
   0   3  -4  211.88   15.70
   0   3  -4  228.28    9.30
   0  -3   4  247.98   15.50
   0  -3   4  224.08    8.60
   0  -3   4  226.58   15.20
  -1   3  -4  225.78    7.30
  -1   3  -4  243.78   17.70
  -1   3  -4  239.78    9.70
   1  -3   4  231.68    7.10
   1  -3   4  234.78    8.30
   1  -3   4  237.88   16.00
  -2   3  -4  423.06   26.70
  -2   3  -4  416.76   12.70
   2  -3   4  446.36   25.10
   2  -3   4  433.06   12.70
   2  -3   4  423.06   13.00
   2  -3   4  428.06   12.50
  -3   3  -4  115.89   14.40
  -3   3  -4  119.79    6.70
   3  -3   4  137.39    6.70
   3  -3   4  136.69   14.70
   3  -3   4  134.49    6.20
   3  -3   4  128.09    5.00
  -4   3  -4  620.04   39.00
  -4   3  -4  638.94   20.20
   4  -3   4  649.64   18.80
   4  -3   4  652.83   39.70
   4  -3   4  675.73   22.20
  -5   3  -4  308.67   12.90
  -5   3  -4  321.67   26.90
   5  -3   4  265.07   27.70
   5  -3   4  319.97   17.00
  -6   3  -4  299.17   12.90
  -6   3  -4  292.07   26.80
   6  -3   4  196.38   26.40
  -7   3  -4  407.76   16.70
  -7   3  -4  381.16   32.20
  -8   3  -4   24.00   13.40
  -8   3  -4   18.70    6.10
   8  -3   4    8.20   12.70
  -9   3  -4  121.49   10.90
  -9   3  -4  129.89   22.60
 -10  -2   4   84.79   10.70
 -10  -2   4   94.29   10.70
  -9  -2   4  102.09   10.60
  -9  -2   4   99.29   15.00
  -9  -2   4  105.59    9.70
  -8  -2   4  116.79   15.20
  -8  -2   4  113.49    9.50
  -8  -2   4  123.99   10.50
  -7  -2   4  278.57   12.90
  -7  -2   4  273.97   19.60
  -7  -2   4  273.77   14.20
  -7  -2   4  259.27   18.80
  -6  -2   4   80.09    7.80
  -6  -2   4   92.19    6.90
  -6  -2   4   86.99   10.30
  -5  -2   4  124.39    7.20
  -5  -2   4  122.09   11.40
  -5  -2   4  133.69    8.70
   4   2  -4   28.80   12.00
  -4  -2   4   69.29   11.70
  -4  -2   4   62.69    5.70
  -4  -2   4   69.99    4.90
  -4  -2   4   67.39    8.70
   3   2  -4    0.20    2.10
   3   2  -4   -1.70    7.60
  -3  -2   4    1.20    2.60
  -3  -2   4    1.30    2.00
  -3  -2   4   -1.30    4.60
  -3  -2   4    2.90    3.70
   2   2  -4  353.56   23.10
  -2  -2   4  359.66   10.50
  -2  -2   4  360.46   13.10
  -2  -2   4  383.16   12.60
  -2  -2   4  354.46   19.80
  -2  -2   4  344.57   20.40
   1   2  -4  100.89    6.20
   1   2  -4   91.29   10.50
  -1  -2   4  105.99   10.30
  -1  -2   4  104.79    4.30
  -1  -2   4  104.99    4.60
  -1  -2   4  103.59    9.70
  -1  -2   4  105.09    5.90
   0   2  -4  792.92   24.70
   0   2  -4  794.72   21.10
   0   2  -4  808.62   38.90
   0  -2   4  830.62   37.50
   0  -2   4  788.42   23.80
   0  -2   4  806.82   37.30
   0  -2   4  776.92   20.20
  -1   2  -4  492.45   18.20
  -1   2  -4  478.85   14.10
  -1   2  -4  477.35   28.10
   1  -2   4  513.95   16.20
   1  -2   4  489.85   13.70
   1  -2   4  522.95   27.80
  -2   2  -4  466.95   14.40
  -2   2  -4  466.85   28.60
   2  -2   4  464.95   13.90
   2  -2   4  477.25   16.40
   2  -2   4  465.15   29.20
   2  -2   4  473.55   14.20
  -3   2  -4 1063.79   29.60
  -3   2  -4 1039.80   53.79
   3  -2   4 1095.19   29.90
   3  -2   4 1123.49   34.70
   3  -2   4 1037.50   56.59
  -4   2  -4  525.05   34.00
  -4   2  -4  529.15   17.60
   4  -2   4  370.56   34.40
   4  -2   4  551.14   16.40
   4  -2   4  536.55   23.50
  -5   2  -4  231.28   11.50
  -5   2  -4  224.28   22.80
  -6   2  -4   15.70    4.30
  -6   2  -4   22.00   11.40
  -6   2  -4   17.40    5.00
   6  -2   4    3.50    8.80
  -7   2  -4   57.19    7.20
  -7   2  -4   51.09    7.60
  -7   2  -4   52.29   15.50
   7  -2   4   19.00   13.20
  -8   2  -4   20.20   12.40
  -8   2  -4   25.30    6.50
   8  -2   4    3.50   12.00
  -9   2  -4   15.40    6.50
  -9   2  -4   15.20   12.30
   9  -2   4    6.70   14.20
  10   1  -4    3.20   11.10
 -10  -1   4   10.30    6.40
 -10  -1   4   14.50   10.50
 -10  -1   4   11.20    6.10
   9   1  -4    3.20   10.90
  -9  -1   4   36.60    7.30
  -9  -1   4   39.90    7.00
  -9  -1   4   30.30   11.20
  -8  -1   4    0.30    7.00
  -8  -1   4    2.80    4.60
  -8  -1   4    1.60    4.70
  -7  -1   4  118.39    9.40
  -7  -1   4  118.09   12.10
  -7  -1   4  120.79    8.30
   6   1  -4    1.80   10.60
  -6  -1   4    2.10    3.70
  -6  -1   4    6.60    4.70
  -6  -1   4    7.40    3.50
  -5  -1   4  856.61   28.50
  -5  -1   4  872.41   39.70
  -5  -1   4  904.21   25.10
  -4  -1   4  399.16   13.00
  -4  -1   4  396.56   21.30
  -4  -1   4  397.76   15.20
   3   1  -4  344.17   28.50
   3   1  -4  362.66   12.20
  -3  -1   4  361.86   23.70
  -3  -1   4  345.57   19.40
  -3  -1   4  364.46   11.50
  -3  -1   4  352.96   13.60
   2   1  -4 1013.20   50.69
  -2  -1   4 1047.70   45.40
  -2  -1   4 1018.60   31.10
  -2  -1   4 1066.09   48.40
  -2  -1   4 1024.40   27.30
  -2  -1   4 1093.09   28.90
   1   1  -4   97.89    6.00
   1   1  -4  111.49   11.90
   1   1  -4  103.49    6.70
  -1  -1   4  101.89    9.90
  -1  -1   4  102.79    6.20
  -1  -1   4  116.79   11.20
  -1  -1   4  112.39    5.40
   0   1  -4  765.22   21.30
   0   1  -4  766.52   25.40
   0   1  -4  774.92   38.40
   0  -1   4  778.12   37.70
   0  -1   4  788.72   37.30
   0  -1   4  788.32   20.60
   0  -1   4  758.92   24.10
  -1   1  -4   66.49    9.90
  -1   1  -4   66.09    4.50
  -1   1  -4   66.39    8.00
   1  -1   4   80.69    6.30
   1  -1   4   75.29   11.50
   1  -1   4   75.99    4.20
  -2   1  -4   23.20    3.50
  -2   1  -4   33.40    9.10
   2  -1   4   23.40    5.20
   2  -1   4   25.90    3.20
   2  -1   4   19.60    8.60
   2  -1   4   27.30    3.40
  -3   1  -4  131.89   15.10
  -3   1  -4  129.89    7.30
   3  -1   4  130.29   12.00
   3  -1   4  134.39    6.50
  -4   1  -4  222.18   10.70
  -4   1  -4  216.08   20.50
   4  -1   4  204.28   17.20
  -5   1  -4  119.99   17.40
  -5   1  -4  121.39    7.80
  -5   1  -4  115.69    8.50
  -6   1  -4  220.58   23.80
  -6   1  -4  205.78   11.20
  -6   1  -4  207.88   11.80
  -7   1  -4  228.98   12.40
  -7   1  -4  232.78   25.90
  -7   1  -4  230.78   13.50
  -8   1  -4   89.39    9.10
  -8   1  -4   94.89    9.80
  -8   1  -4   83.29   19.70
  -9   1  -4   72.29    9.80
  -9   1  -4   64.09   18.60
   9  -1   4   14.60   14.50
 -10   0   4   75.49    9.30
 -10   0   4   78.29    9.70
 -10   0   4   70.09   15.60
   9   0  -4    6.00    8.80
  -9   0   4   20.50    5.70
  -9   0   4   18.20    5.90
  -9   0   4   18.20    9.90
  -8   0   4  589.64   23.00
  -8   0   4  577.34   21.00
  -8   0   4  593.44   30.80
  -7   0   4   96.29   10.50
  -7   0   4   97.99    8.40
  -7   0   4   93.39    7.50
  -6   0   4  304.87   13.90
  -6   0   4  317.17   12.60
  -6   0   4  317.97   18.50
  -5   0   4  788.92   26.40
  -5   0   4  801.02   36.30
  -5   0   4  814.62   23.60
   4   0  -4    1.00    9.10
  -4   0   4   10.60    3.10
  -4   0   4   11.60    4.30
  -4   0   4   10.90    3.30
   3   0  -4  517.65   37.00
  -3   0   4  510.65   15.80
  -3   0   4  528.95   18.60
  -3   0   4  510.15   25.30
  -3   0   4  509.95   18.00
   2   0  -4   13.70    7.50
  -2   0   4   12.60    3.30
  -2   0   4   14.20    3.30
  -2   0   4   11.50    4.40
  -2   0   4   13.30    6.40
  -2   0   4    9.90    2.80
   1   0  -4  466.75   27.50
   1   0  -4  454.65   15.00
   1   0  -4  435.96   17.20
   1   0  -4  421.46   27.30
  -1   0   4  509.95   26.60
  -1   0   4  437.46   16.40
  -1   0   4  426.46   24.40
  -1   0   4  456.55   14.20
   0   0  -4  839.42   42.20
   0   0  -4  871.21   30.00
   0   0  -4  865.31   24.20
   0   0   4  848.42   28.00
   0   0   4  831.52   43.30
   0   0   4  895.11   23.50
  -1   0  -4  921.21   35.50
  -1   0  -4 1069.09   28.20
  -1   0  -4 1070.49   49.70
   1   0   4 1136.39   27.50
   1   0   4 1069.49   34.40
   1   0   4  849.41   51.79
  -2   0  -4  450.35   28.30
  -2   0  -4  426.96   14.80
   2   0   4  447.06   14.60
   2   0   4  428.66   20.90
  -3   0  -4 1206.18   34.00
  -3   0  -4 1227.48   60.19
   3   0   4 1179.58   45.80
  -4   0  -4  477.05   32.70
  -4   0  -4  462.75   17.10
  -4   0  -4  462.45   17.20
  -5   0  -4  412.86   16.90
  -5   0  -4  440.86   32.30
  -5   0  -4  431.16   17.20
  -6   0  -4  140.69   10.20
  -6   0  -4  150.68   10.10
  -6   0  -4  137.29   19.20
  -7   0  -4   13.50    5.90
  -7   0  -4   19.00    5.90
  -7   0  -4   14.50   11.80
   7   0   4    1.80   10.00
  -8   0  -4    1.90   10.10
  -8   0  -4    0.30    5.10
  -8   0  -4   -0.10    5.40
   8   0   4    1.50   11.80
  -9   0  -4   -2.40   11.40
  -9   0  -4   -0.40    5.90
  -9   0  -4    0.60    5.80
   9   0   4    2.40   13.90
 -10   1   4   42.10    7.60
 -10   1   4   41.40    7.70
 -10   1   4   47.50   13.90
  -9   1   4   34.50    6.60
  -9   1   4   34.20    6.80
   8  -1  -4    4.70   13.70
  -8   1   4    2.60    4.30
  -8   1   4    2.70    4.30
  -8   1   4    3.10    4.90
   7  -1  -4    4.20   12.20
  -7   1   4   18.90    5.70
  -7   1   4   20.50    5.00
  -7   1   4   25.90    5.00
   6  -1  -4   17.80   14.50
  -6   1   4   52.99    6.20
  -6   1   4   54.59    7.70
  -6   1   4   58.09    6.00
  -5   1   4  635.54   20.00
  -5   1   4  632.84   22.10
  -5   1   4  631.14   29.40
   4  -1  -4   15.70   11.80
  -4   1   4   30.00    6.00
  -4   1   4   30.30    4.70
  -4   1   4   33.60    4.30
   3  -1  -4 1343.57   57.09
   3  -1  -4 1253.97   69.79
  -3   1   4 1258.07   38.80
  -3   1   4 1306.37   34.90
  -3   1   4 1289.07   54.09
   2  -1  -4 1180.18   35.40
   2  -1  -4 1280.87   62.39
   2  -1  -4 1179.28   56.89
  -2   1   4 1230.48   53.29
  -2   1   4 1279.97   34.40
  -2   1   4 1246.68   37.70
   1  -1  -4   58.29    5.50
   1  -1  -4   55.89   10.10
   1  -1  -4   33.20    9.30
  -1   1   4   69.99   10.50
  -1   1   4   72.69    5.50
  -1   1   4   68.79    6.70
   0  -1  -4  240.38    9.90
   0  -1  -4  251.67   18.70
   0   1   4  199.98   19.80
   0   1   4  232.28   12.80
  -1  -1  -4 1425.26   38.50
  -1  -1  -4 1408.36   65.39
   1   1   4 1465.15   48.30
  -2  -1  -4    3.50    2.90
  -2  -1  -4    3.40    5.40
   2   1   4   -0.20    5.40
   2   1   4    5.50    6.10
  -3  -1  -4  233.48   10.80
  -3  -1  -4  226.08   20.80
   3   1   4  204.18   18.80
  -4  -1  -4   32.00    5.40
  -4  -1  -4   45.00   11.90
  -4  -1  -4   31.80    5.70
   4   1   4    2.80    8.40
  -5  -1  -4   30.30    5.70
  -5  -1  -4   34.70    6.20
  -5  -1  -4   32.80   12.20
   5   1   4   10.40   11.00
  -6  -1  -4   28.40   12.80
  -6  -1  -4   18.10    5.60
  -6  -1  -4   18.00    5.80
   6   1   4    2.30   10.10
  -7  -1  -4  153.68   22.60
  -7  -1  -4  147.69   11.50
  -7  -1  -4  135.69   11.20
  -8  -1  -4   55.79   17.60
  -8  -1  -4   55.89    9.00
  -8  -1  -4   55.79    8.50
 -10   2   4   11.90   10.70
 -10   2   4   10.60    5.90
 -10   2   4    4.30    5.60
   9  -2  -4    6.30   15.90
  -9   2   4   97.29    9.40
  -9   2   4   92.69    8.80
  -8   2   4  159.28   10.60
  -8   2   4  163.58   10.30
  -8   2   4  164.68   13.00
  -7   2   4  414.36   16.50
  -7   2   4  444.56   17.90
  -7   2   4  447.46   22.60
  -6   2   4  462.05   17.00
  -6   2   4  482.15   23.40
  -6   2   4  482.55   18.60
  -5   2   4  466.35   16.40
  -5   2   4  460.75   22.60
  -5   2   4  464.15   17.90
   4  -2  -4  786.42   63.69
   4  -2  -4 1112.19   48.80
  -4   2   4 1086.99   30.50
  -4   2   4 1130.39   33.90
  -4   2   4 1106.59   45.10
   3  -2  -4  169.78   16.50
   3  -2  -4  193.28   25.00
  -3   2   4  178.08    9.10
  -3   2   4  191.78   13.00
  -3   2   4  198.08   10.30
   2  -2  -4  494.25   35.20
   2  -2  -4  532.85   19.60
  -2   2   4  580.04   29.50
  -2   2   4  546.15   20.60
   1  -2  -4    1.70    5.50
   1  -2  -4    2.70    3.10
  -1   2   4    3.30    3.70
  -1   2   4    1.30    5.00
   0  -2  -4   10.50    3.50
   0  -2  -4   14.80    7.00
   0   2   4    3.60    5.50
   0   2   4   14.50    5.10
  -1  -2  -4  912.31   47.20
  -1  -2  -4  930.61   27.40
   1   2   4  931.21   37.30
  -2  -2  -4  468.85   29.90
  -2  -2  -4  485.75   17.00
   2   2   4  419.16   26.30
  -3  -2  -4  459.95   17.80
  -3  -2  -4  500.95   32.60
  -4  -2  -4  374.66   15.90
  -4  -2  -4  359.46   16.20
  -4  -2  -4  367.16   29.20
  -5  -2  -4  211.88   12.80
  -5  -2  -4  217.18   12.80
  -5  -2  -4  227.08   24.10
  -6  -2  -4  211.18   13.70
  -6  -2  -4  218.48   25.20
  -6  -2  -4  230.88   13.70
  -7  -2  -4   10.10    6.20
  -7  -2  -4    6.10   11.50
  -7  -2  -4    2.20    5.70
   7   2   4    3.80   12.70
  -8  -2  -4   11.30   13.00
  -8  -2  -4   13.50    6.40
  -8  -2  -4   11.00    7.00
   8   2   4    1.40   12.40
 -10   3   4   46.30   14.60
 -10   3   4   48.80    8.00
 -10   3   4   50.09    8.00
  -9   3   4   73.49    7.80
  -9   3   4   74.09    8.40
  -8   3   4  108.29    8.90
  -8   3   4  104.79    8.80
   7  -3  -4    5.70   12.70
  -7   3   4    9.40    4.30
  -7   3   4    8.40    4.20
  -7   3   4   10.20    4.50
   6  -3  -4   -0.80   11.40
  -6   3   4   30.90    5.40
  -6   3   4   31.90    5.40
  -6   3   4   34.60    5.70
   5  -3  -4   15.50    6.40
   5  -3  -4    2.30   10.70
  -5   3   4   16.40    4.50
  -5   3   4   20.90    4.50
  -5   3   4   18.20    4.40
   4  -3  -4  199.38   18.50
   4  -3  -4  148.89   26.40
  -4   3   4  243.48   12.20
  -4   3   4  252.37   14.30
  -4   3   4  246.18   11.20
   3  -3  -4  100.99   19.90
  -3   3   4  117.49    8.90
  -3   3   4  123.49    7.90
  -3   3   4  107.19   10.60
   2  -3  -4  764.52   25.70
   2  -3  -4  781.42   48.50
  -2   3   4  737.23   27.60
  -2   3   4  739.83   39.70
   1  -3  -4   57.59   12.80
   1  -3  -4   58.89    6.40
  -1   3   4   29.60    9.40
  -1   3   4   62.29    8.40
   0  -3  -4  836.32   45.70
   0  -3  -4  831.82   26.10
   0   3   4  853.41   34.60
  -1  -3  -4   66.29    6.50
  -1  -3  -4   61.49   11.90
   1   3   4   61.69   11.50
  -2  -3  -4  335.07   14.20
  -2  -3  -4  340.97   25.50
   2   3   4  297.37   24.20
  -3  -3  -4  249.97   12.70
  -3  -3  -4  243.68   22.70
  -4  -3  -4   43.30    7.00
  -4  -3  -4   52.19    7.50
  -4  -3  -4   45.80   13.50
   4   3   4    7.10   11.50
  -5  -3  -4    3.50    5.00
  -5  -3  -4    7.10   10.30
  -5  -3  -4    6.00    5.10
   5   3   4    2.90   13.10
  -6  -3  -4   -0.50   10.10
  -6  -3  -4   -6.50    5.20
  -6  -3  -4   -0.10    5.40
   6   3   4    6.10   12.40
  -7  -3  -4   35.70    7.90
  -7  -3  -4   25.60    7.80
  -7  -3  -4   25.60   14.90
   7   3   4    3.80   15.20
  -8  -3  -4   49.80    9.40
   8   3   4   12.90   18.40
 -10   4   4    3.00    5.20
 -10   4   4   -0.80    5.30
   9  -4  -4    1.20   15.80
  -9   4   4   29.10    6.40
  -9   4   4   32.40    6.30
  -8   4   4  202.68   11.90
  -8   4   4  176.98   11.20
  -7   4   4  108.29    9.10
  -7   4   4  118.19    9.10
  -7   4   4  117.79    8.90
   6  -4  -4  513.95   32.30
  -6   4   4  613.84   22.40
  -6   4   4  616.94   21.00
  -6   4   4  617.24   26.50
  -5   4   4  241.98   11.90
  -5   4   4  225.68   12.40
  -5   4   4  239.58   13.60
  -4   4   4  612.54   23.40
  -4   4   4  613.14   28.70
  -4   4   4  602.24   21.20
   3  -4  -4  538.55   47.40
  -3   4   4  598.44   31.10
  -3   4   4  587.04   23.30
   2  -4  -4  232.58   27.00
   2  -4  -4  231.48   12.80
  -2   4   4  179.58   18.70
  -2   4   4  226.68   14.10
   1  -4  -4  188.58   11.00
   1  -4  -4  174.58   21.20
  -1   4   4  197.98   14.70
   0  -4  -4   64.79    7.10
   0  -4  -4   47.10   12.10
   0   4   4   53.09   10.10
  -1  -4  -4  203.68   20.20
  -1  -4  -4  188.08   10.80
   1   4   4  180.98   18.60
  -2  -4  -4   86.09    7.60
  -2  -4  -4   89.99   15.20
   2   4   4   76.59   15.90
  -3  -4  -4  409.36   17.60
  -3  -4  -4  400.46   30.50
  -4  -4  -4  138.09   11.10
  -4  -4  -4  141.39   19.40
  -4  -4  -4  128.89   10.60
  -5  -4  -4  107.59   19.80
  -5  -4  -4  101.09    9.90
  -5  -4  -4  107.09   10.70
  -6  -4  -4  110.19   21.10
  -6  -4  -4  106.79   11.40
  -6  -4  -4  105.59   11.20
  -7  -4  -4   27.30    8.40
  -7  -4  -4   46.70    9.20
  -7  -4  -4   36.90   16.60
   7   4   4    1.50   15.60
  10  -5  -4    9.60   18.60
 -10   5   4   75.29    9.30
 -10   5   4   69.89    9.10
  -9   5   4  103.59    9.60
  -9   5   4   96.89    9.60
  -8   5   4  328.17   15.50
  -8   5   4  322.17   15.50
   7  -5  -4    3.70   13.50
  -7   5   4   12.50    5.00
  -7   5   4   13.60    4.80
  -6   5   4  469.45   18.30
  -6   5   4  463.55   19.60
  -6   5   4  492.15   21.50
   5  -5  -4    2.20   12.10
   5  -5  -4   -0.20    4.70
  -5   5   4    1.50    4.00
  -5   5   4    0.70    4.10
  -5   5   4    4.60    3.30
   4  -5  -4    2.00    5.40
   4  -5  -4    2.30   11.50
  -4   5   4   13.30    5.00
  -4   5   4   10.00    4.60
  -4   5   4    9.50    4.60
   3  -5  -4    0.80    5.00
   3  -5  -4    2.70   11.10
   3  -5  -4    0.50    5.40
  -3   5   4    3.70    5.40
  -3   5   4    3.70    4.60
   2  -5  -4  209.08   12.70
   2  -5  -4  200.88   27.90
  -2   5   4  221.88   15.20
   1  -5  -4  226.88   25.70
   1  -5  -4  207.58   12.10
  -1   5   4  225.78   17.10
   0  -5  -4  183.88   22.00
   0  -5  -4  177.98   11.20
   0   5   4  176.18   17.50
  -1  -5  -4   64.09   14.70
  -1  -5  -4   66.79    7.70
   1   5   4   17.50   12.10
   1   5   4   55.19   13.50
  -2  -5  -4  265.37   24.80
  -2  -5  -4  235.98   12.90
   2   5   4  215.08   24.10
  -3  -5  -4   73.49    8.70
  -3  -5  -4   70.59   16.00
  -4  -5  -4   93.69   10.30
  -4  -5  -4  103.39   19.10
  -4  -5  -4  112.49   10.80
  -5  -5  -4   36.70   14.70
  -5  -5  -4   35.50    8.20
  -5  -5  -4   34.30    8.10
   5   5   4    9.30   14.00
  -6  -5  -4    4.10    6.70
  -6  -5  -4   -1.90    6.20
  -6  -5  -4   -2.50   11.20
   6   5   4   -2.50   13.70
  10  -6  -4   -0.80   16.30
 -10   6   4    2.70    5.40
 -10   6   4   -1.90    5.50
   9  -6  -4    2.10   17.90
  -9   6   4   13.70    6.10
  -9   6   4    8.90    5.40
   8  -6  -4    0.40   15.30
  -8   6   4   47.40    7.50
  -8   6   4   45.80    7.20
   7  -6  -4    4.10   15.80
  -7   6   4   13.90    5.40
  -7   6   4    9.40    5.10
  -6   6   4  288.87   15.10
  -6   6   4  266.47   14.00
  -5   6   4  119.89    9.70
  -5   6   4  115.99   10.50
  -5   6   4  109.29    9.10
   4  -6  -4   15.30   16.50
  -4   6   4   44.90    8.20
  -4   6   4   48.30    8.20
  -4   6   4   38.90    7.00
   3  -6  -4  440.96   48.40
   3  -6  -4  599.94   25.20
  -3   6   4  559.74   34.90
  -3   6   4  577.34   25.50
   2  -6  -4   21.70   15.80
   2  -6  -4   19.50    6.40
  -2   6   4    6.40    6.70
  -2   6   4   24.80    7.80
   1  -6  -4  155.08   11.60
   1  -6  -4  157.78   24.60
  -1   6   4  169.08   16.50
   0  -6  -4  177.08   12.10
   0  -6  -4  198.68   25.00
   0   6   4  223.78   20.80
  -1  -6  -4   54.09   15.50
  -1  -6  -4   48.70    7.60
   1   6   4   53.39   14.60
  -2  -6  -4   26.30   11.90
  -2  -6  -4   19.40    6.10
   2   6   4    4.40   11.70
   2   6   4   15.10   12.60
  -3  -6  -4  206.58   24.30
  -3  -6  -4  194.58   13.20
   3   6   4  128.09   23.00
  -4  -6  -4   47.50    8.80
  -4  -6  -4   53.49   16.40
  -4  -6  -4   59.99    9.40
  -5  -6  -4   55.19   17.50
  -5  -6  -4   51.89    9.60
  -5  -6  -4   46.80    9.30
   5   6   4   11.30   16.10
  -6  -6  -4   39.60    9.50
  -6  -6  -4   53.89   10.30
   6   6   4    8.40   16.50
   9  -7  -4    7.90   21.60
  -9   7   4   88.79    9.60
  -9   7   4   89.89   10.10
  -8   7   4   95.69    9.90
  -8   7   4   91.79    9.60
  -7   7   4  264.37   14.60
  -7   7   4  289.67   15.50
  -6   7   4  147.19   11.30
  -6   7   4  150.58   11.20
   5  -7  -4   10.20   15.40
  -5   7   4   20.40    6.60
  -5   7   4   18.60    6.20
  -4   7   4  300.07   21.00
  -4   7   4  268.37   16.90
  -4   7   4  264.47   15.30
   3  -7  -4   69.29   24.50
   3  -7  -4  111.29   12.20
  -3   7   4   76.59   15.10
  -3   7   4  114.69   12.40
   2  -7  -4    0.60   14.50
   2  -7  -4    1.60    5.70
  -2   7   4   -2.30    5.60
  -2   7   4    6.20    6.90
   1  -7  -4  103.79   10.60
   1  -7  -4  113.79   26.30
  -1   7   4  109.59   15.20
   0  -7  -4  105.79   10.40
   0  -7  -4  135.99   24.60
   0   7   4  110.89   17.90
  -1  -7  -4  111.99   21.30
  -1  -7  -4  105.19   10.40
   1   7   4  113.09   19.90
  -2  -7  -4   58.39   16.90
  -2  -7  -4   57.29    8.80
   2   7   4    8.00   13.70
   2   7   4   52.99   17.20
  -3  -7  -4   54.19   17.00
  -3  -7  -4   58.29    9.40
   3   7   4    2.90   12.80
   3   7   4   23.00   15.00
  -4  -7  -4   43.00    9.20
   4   7   4   -4.10   12.70
  -5  -7  -4   48.30   10.30
   5   7   4    9.00   17.50
   8  -8  -4   -0.90   18.30
  -8   8   4    4.50    6.10
  -8   8   4   11.80    6.00
   7  -8  -4   -3.40   15.90
  -7   8   4    3.90    5.60
  -7   8   4    3.00    5.50
   6  -8  -4    5.90   16.50
  -6   8   4   10.00    6.30
  -6   8   4    8.60    6.00
   5  -8  -4    4.80   16.70
  -5   8   4   19.50    7.20
  -5   8   4   15.70    6.70
   4  -8  -4   36.70   23.10
  -4   8   4  119.29   11.30
  -4   8   4  116.49   13.10
   3  -8  -4   10.40    7.20
   3  -8  -4   -0.60   14.80
  -3   8   4    1.30    7.00
  -3   8   4    3.60    7.00
   2  -8  -4  105.99   11.80
   2  -8  -4   68.69   24.70
  -2   8   4  124.89   15.20
   1  -8  -4   64.79   23.90
   1  -8  -4   67.59   10.00
  -1   8   4   70.09   14.50
   0  -8  -4   38.80    8.10
   0  -8  -4   38.30   18.90
   0   8   4    4.50    9.50
   0   8   4   33.50   13.20
  -1  -8  -4   66.99   22.10
  -1  -8  -4   64.99    9.80
   1   8   4   53.69   17.10
  -2  -8  -4    8.80    6.60
   2   8   4    3.00   12.60
   2   8   4    1.90   12.00
  -3  -8  -4   -2.00    6.10
   3   8   4    1.90   13.80
   3   8   4   -1.60   13.60
   4   8   4   -2.20   13.90
  -7   9   4   99.79   11.20
  -7   9   4   86.09   10.40
   6  -9  -4   17.10   21.30
  -6   9   4   64.99    9.80
  -6   9   4   72.89   10.70
   5  -9  -4    6.70   20.40
  -5   9   4   85.99   10.90
  -5   9   4   77.69   11.60
   4  -9  -4   14.20   19.30
  -4   9   4   25.10    8.00
  -4   9   4   32.80    9.50
   3  -9  -4    3.90   17.80
  -3   9   4    1.60    8.00
   2  -9  -4    3.90   15.50
   2  -9  -4    7.30    7.50
  -2   9   4    2.20    8.60
  -2   9   4   -7.60    7.50
   1  -9  -4   17.70    7.90
   1  -9  -4   12.80   18.10
  -1   9   4    6.60    9.90
  -1   9   4    5.30    9.80
   0  -9  -4   68.79   25.80
   0  -9  -4   61.39   10.40
   0   9   4   55.99   16.30
  -1  -9  -4   19.40    7.80
   1   9   4    0.80   11.50
   1   9   4    9.20   12.80
  -2  -9  -4   51.89   10.10
   2   9   4    5.60   15.40
   2   9   4   40.50   17.90
   6 -10  -4   -5.20   18.20
  -6  10   4   14.20    8.00
  -6  10   4    4.50    7.00
   5 -10  -4    8.80   20.40
  -5  10   4   -0.60    6.90
  -5  10   4    0.00    7.40
   4 -10  -4    5.30   17.90
  -4  10   4    7.10    7.60
  -4  10   4    2.80    8.30
   3 -10  -4   15.90   19.50
  -3  10   4   21.00   10.10
   2 -10  -4   32.00    9.90
   2 -10  -4   23.00   21.10
  -2  10   4   26.60   11.70
   1 -10  -4   41.50    9.90
  -1  10   4   35.40   13.20
  -1  10   4    1.60   10.70
   0 -10  -4   34.50    9.60
   0  10   4   29.30   14.30
   0  10   4    6.20   12.60
  -1 -10   5   14.50    8.80
   0 -10   5   67.29   12.50
   1 -10   5   33.00    9.60
  -4  -9   5   92.09   10.90
  -3  -9   5   19.70    9.40
  -3  -9   5   19.50    6.70
  -2  -9   5   48.90    7.50
  -2  -9   5   58.09   12.30
  -1  -9   5    7.60    7.30
   0  -9   5    0.10    6.50
   1  -9   5   -0.90    6.10
   2  -9   5   19.90    7.80
  -3   9  -5   56.59   14.80
  -4   9  -5   30.10   14.10
  -5   9  -5   70.29   18.60
  -5  -8   5    8.60    6.40
  -4  -8   5   15.80    8.60
  -4  -8   5    9.40    6.40
  -3  -8   5   12.30    6.10
  -3  -8   5   22.30    8.80
  -2  -8   5    7.20    7.10
  -2  -8   5    4.80    5.00
  -1  -8   5   68.09   11.30
  -1  -8   5   58.99    7.10
   0  -8   5  122.99   13.50
   0  -8   5  109.19    7.40
  -1   8  -5  208.08   18.80
   1  -8   5  202.88   16.60
  -2   8  -5  120.29   16.30
   2  -8   5  127.29   13.20
  -3   8  -5  124.49   18.70
   3  -8   5  153.18   13.80
  -4   8  -5   94.89   17.70
  -5   8  -5   25.40   13.80
  -6   8  -5    3.70   11.90
  -6  -7   5    8.20    6.80
  -5  -7   5   31.10    7.40
  -5  -7   5   29.20    9.80
  -4  -7   5  115.29   10.30
  -4  -7   5  112.79   14.20
  -3  -7   5  129.09   14.30
  -3  -7   5  123.29   10.20
  -2  -7   5  177.48   15.90
  -2  -7   5  161.28   10.50
  -1  -7   5  126.79    8.70
  -1  -7   5  118.59   13.30
   0   7  -5   58.19   11.00
   0  -7   5   57.69    5.80
   0  -7   5   54.99   10.10
  -1   7  -5   27.30    9.30
   1  -7   5   23.10    7.30
   1  -7   5   23.80    3.40
  -2   7  -5    9.00    8.30
   2  -7   5    6.20    5.80
  -3   7  -5    8.70    9.80
   3  -7   5   14.70    6.50
  -4   7  -5    0.40    8.80
   4  -7   5   10.20    6.40
  -5   7  -5  101.69   19.10
  -6   7  -5   16.10   13.00
  -7   7  -5   69.69   19.40
  -7  -6   5   66.69    9.90
  -6  -6   5   87.39   10.10
  -6  -6   5   93.59   13.80
  -5  -6   5   83.59    9.40
  -5  -6   5   76.69   12.30
  -4  -6   5    4.30    6.20
  -4  -6   5    4.30    5.30
  -3  -6   5    0.70    4.60
  -3  -6   5    5.50    6.20
   2   6  -5    1.40    6.10
  -2  -6   5    7.00    4.40
  -2  -6   5    3.80    5.60
   1   6  -5  165.98   14.80
  -1  -6   5  171.38   14.70
  -1  -6   5  163.08    9.50
   0   6  -5   85.49   11.90
   0  -6   5   84.89   10.90
   0  -6   5   85.29    6.40
  -1   6  -5  262.27   20.80
   1  -6   5  260.87   18.00
   1  -6   5  248.18    9.40
  -2   6  -5  246.18   21.60
   2  -6   5  253.87   17.80
  -3   6  -5  347.27   11.00
  -3   6  -5  310.97   27.30
   3  -6   5  347.07   21.50
  -4   6  -5   59.49   15.40
  -4   6  -5   77.89    6.40
   4  -6   5   80.49   11.30
  -5   6  -5  114.69    8.10
  -5   6  -5  112.09   19.10
   5  -6   5  115.79   13.60
  -6   6  -5   53.19    6.90
  -6   6  -5   34.10   14.70
  -7   6  -5    5.60   12.30
  -7   6  -5    8.30    5.20
  -8   6  -5    7.80   13.70
  -8   6  -5    1.60    5.40
  -8  -5   5   81.09   10.60
  -8  -5   5   83.59    9.30
  -7  -5   5   12.70    5.30
  -7  -5   5   12.20    8.10
  -7  -5   5    9.70    6.20
  -6  -5   5    4.70    6.50
  -6  -5   5    4.40    4.30
  -6  -5   5    9.60    5.80
  -5  -5   5   25.80    4.90
  -5  -5   5   30.30    6.80
  -5  -5   5   23.50    8.10
  -4  -5   5   89.29    8.30
  -4  -5   5   86.89   11.70
  -4  -5   5   91.99    6.20
  -3  -5   5  384.76   11.60
  -3  -5   5  397.26   23.70
  -3  -5   5  365.86   16.00
   2   5  -5  330.37   22.20
  -2  -5   5  326.47   14.20
  -2  -5   5  366.16   19.00
  -2  -5   5  356.56   21.90
   1   5  -5  570.94   31.00
  -1  -5   5  616.64   29.50
  -1  -5   5  562.74   19.60
  -1  -5   5  564.84   30.20
   0   5  -5  352.76   23.00
   0   5  -5  371.66   13.80
   0  -5   5  345.17   12.90
   0  -5   5  365.06   21.90
  -1   5  -5  318.17   12.00
  -1   5  -5  306.77   22.60
   1  -5   5  290.67   10.70
   1  -5   5  316.67   20.00
  -2   5  -5  165.78   17.80
  -2   5  -5  162.68    6.00
   2  -5   5  170.78   14.50
  -3   5  -5   13.20    3.10
  -3   5  -5   12.60    9.30
   3  -5   5   13.00    6.50
  -4   5  -5    9.90    9.70
  -4   5  -5    5.40    3.50
   4  -5   5   10.70    6.90
  -5   5  -5   68.29    6.90
  -5   5  -5   54.19   15.40
   5  -5   5   73.79   12.60
  -6   5  -5   46.40   15.50
  -6   5  -5   56.79    7.00
   6  -5   5   54.19   12.70
  -7   5  -5  225.08   12.60
  -7   5  -5  189.18   25.10
  -8   5  -5   13.60    6.20
  -8   5  -5   16.10   13.10
   9   4  -5   -4.70   12.80
  -9  -4   5   36.80    7.60
  -9  -4   5   45.30    9.20
  -8  -4   5   58.19    7.90
  -8  -4   5   67.69    9.80
  -7  -4   5   87.49   12.80
  -7  -4   5   92.09    9.90
  -7  -4   5   85.99    8.10
  -6  -4   5  177.08   11.90
  -6  -4   5  190.28   10.10
  -6  -4   5  181.18   16.40
  -5  -4   5  163.58   14.90
  -5  -4   5  162.88    8.70
  -5  -4   5  157.18   10.60
  -4  -4   5  139.49   13.60
  -4  -4   5  147.99    7.20
  -4  -4   5  133.59    9.20
  -4  -4   5  145.99   12.80
   3   4  -5   14.10    9.70
   3   4  -5   18.20    3.10
  -3  -4   5   16.90    5.60
  -3  -4   5   17.10    2.90
  -3  -4   5   17.30    6.40
  -3  -4   5   20.40    4.50
   2   4  -5   44.60    9.70
  -2  -4   5   53.49    3.20
  -2  -4   5   59.89    8.40
  -2  -4   5   53.69    9.00
  -2  -4   5   48.70    5.60
  -2  -4   5   51.79    3.70
   1   4  -5  237.58   18.50
  -1  -4   5  247.48   10.60
  -1  -4   5  253.57   16.70
  -1  -4   5  250.67   17.30
   0   4  -5  134.59   14.00
   0   4  -5  141.09    8.10
   0  -4   5  134.09    7.00
   0  -4   5  133.59   12.40
  -1   4  -5  685.13   37.50
  -1   4  -5  669.13   17.50
  -1   4  -5  662.23   21.90
   1  -4   5  667.73   20.10
   1  -4   5  699.73   34.50
  -2   4  -5  165.08    6.80
  -2   4  -5  161.08   17.50
   2  -4   5  166.58    6.40
   2  -4   5  170.88   15.00
   2  -4   5  165.58    6.50
  -3   4  -5   42.50   12.10
  -3   4  -5   54.59    4.90
   3  -4   5   51.89   10.30
   3  -4   5   49.40    5.10
  -4   4  -5  464.95   16.10
  -4   4  -5  430.66   33.40
   4  -4   5  472.45   30.10
  -5   4  -5   37.40   13.60
  -5   4  -5   34.30    5.60
   5  -4   5   47.60   12.70
  -6   4  -5   30.60   13.90
  -6   4  -5   28.60    5.90
   6  -4   5   19.70   12.00
  -7   4  -5   51.09   17.00
  -7   4  -5   57.99    8.00
   7  -4   5   49.30   16.90
  -8   4  -5    8.20   12.80
  -8   4  -5    6.50    6.00
  -9  -3   5   71.09   10.20
  -9  -3   5   69.49    8.60
  -8  -3   5  147.39   10.10
  -8  -3   5  140.69   11.60
  -8  -3   5  139.19   15.70
  -7  -3   5    4.80    5.00
  -7  -3   5    0.30    4.10
  -7  -3   5    2.10    6.00
   6   3  -5    4.40   10.50
  -6  -3   5   17.20    5.40
  -6  -3   5   17.10    4.60
  -6  -3   5   22.00    7.20
  -5  -3   5  101.09   11.70
  -5  -3   5   95.39    6.50
  -5  -3   5   89.99    8.10
   4   3  -5   52.99   15.80
  -4  -3   5   81.39   12.20
  -4  -3   5   90.59   10.60
  -4  -3   5   89.49    5.70
  -4  -3   5   87.29    7.30
   3   3  -5  358.56   12.00
   3   3  -5  363.76   28.10
  -3  -3   5  364.16   21.70
  -3  -3   5  368.46   22.10
  -3  -3   5  357.96   11.30
  -3  -3   5  361.96   14.60
   2   3  -5  408.66   26.70
  -2  -3   5  444.16   24.30
  -2  -3   5  443.76   13.20
  -2  -3   5  410.76   15.40
  -2  -3   5  417.66   24.00
  -2  -3   5  433.96   11.90
   1   3  -5 1480.95   65.99
  -1  -3   5 1473.05   35.50
  -1  -3   5 1471.25   62.99
  -1  -3   5 1410.76   41.60
  -1  -3   5 1442.26   35.60
  -1  -3   5 1476.85   63.09
   0   3  -5  548.15   19.10
   0   3  -5  546.05   31.20
   0   3  -5  564.14   15.60
   0  -3   5  550.14   17.80
   0  -3   5  535.55   29.10
   0  -3   5  554.14   14.20
  -1   3  -5  673.43   18.60
  -1   3  -5  678.93   37.60
  -1   3  -5  682.13   23.40
   1  -3   5  679.53   35.00
   1  -3   5  675.93   18.00
   1  -3   5  666.53   20.60
  -2   3  -5  334.57   25.80
  -2   3  -5  366.76   12.10
   2  -3   5  358.56   11.60
   2  -3   5  365.86   11.60
   2  -3   5  374.56   24.40
   2  -3   5  355.96   12.60
  -3   3  -5  168.38   19.30
  -3   3  -5  185.08    8.70
   3  -3   5  169.88   18.10
   3  -3   5  180.08    6.90
   3  -3   5  188.68    8.70
  -4   3  -5    3.50    8.40
  -4   3  -5    2.90    3.40
   4  -3   5    1.80    7.50
   4  -3   5    2.70    2.30
   4  -3   5   -0.20    3.70
  -5   3  -5    3.90    4.00
  -5   3  -5    5.50    8.90
   5  -3   5    3.30    5.20
   5  -3   5    4.50    9.50
  -6   3  -5   60.49    7.60
  -6   3  -5   60.19   16.60
   6  -3   5   57.09   18.40
  -7   3  -5  177.88   23.60
  -7   3  -5  188.58   11.80
   7  -3   5  126.59   26.70
  -8   3  -5  144.79   11.70
  -8   3  -5  135.59   23.40
   8  -3   5   82.69   24.50
  10   2  -5   -4.00   11.10
  -9  -2   5    5.50    5.40
  -9  -2   5    3.30    5.80
  -8  -2   5  179.78   17.60
  -8  -2   5  192.08   11.30
  -8  -2   5  197.28   17.30
  -8  -2   5  197.28   12.90
   7   2  -5   13.20   14.70
  -7  -2   5   62.49    7.20
  -7  -2   5   67.79    8.20
  -7  -2   5   71.99   10.90
  -6  -2   5  123.89   12.50
  -6  -2   5  117.79    9.30
  -6  -2   5  123.89    8.00
  -5  -2   5  370.76   22.40
  -5  -2   5  389.66   16.20
  -5  -2   5  378.36   13.40
   4   2  -5  376.06   35.90
  -4  -2   5  481.05   14.80
  -4  -2   5  502.25   26.10
  -4  -2   5  495.85   18.10
   3   2  -5  289.07   25.60
  -3  -2   5  319.97   19.70
  -3  -2   5  363.46   13.70
  -3  -2   5  319.27   10.60
  -3  -2   5  318.77   13.40
   2   2  -5  289.37   22.10
  -2  -2   5  286.17   18.50
  -2  -2   5  293.07    9.50
  -2  -2   5  301.37   10.70
  -2  -2   5  281.97   11.90
   1   2  -5  105.79   12.80
  -1  -2   5  101.79    5.20
  -1  -2   5  111.59    5.30
  -1  -2   5  108.09   11.30
  -1  -2   5  104.99    6.70
   0   2  -5   12.90    3.80
   0   2  -5   16.50    3.00
   0   2  -5   14.20    6.80
   0  -2   5   16.50    6.00
   0  -2   5   15.30    3.40
   0  -2   5   15.80    2.30
  -1   2  -5   11.00    4.60
  -1   2  -5   12.30    7.10
  -1   2  -5   11.70    2.80
   1  -2   5   13.30    2.40
   1  -2   5   14.20    3.40
   1  -2   5   17.10    6.80
  -2   2  -5   26.30    3.90
  -2   2  -5   27.90    9.70
   2  -2   5   24.20    3.20
   2  -2   5   25.40    3.30
   2  -2   5   21.40    4.50
   2  -2   5   21.60    8.50
  -3   2  -5  345.07   13.10
  -3   2  -5  314.67   26.20
   3  -2   5  350.76   11.80
   3  -2   5  335.27   29.20
   3  -2   5  354.36   15.90
  -4   2  -5   81.79    7.20
  -4   2  -5   74.39   15.90
   4  -2   5   76.59    9.70
   4  -2   5   66.89   17.50
  -5   2  -5  312.97   14.00
  -5   2  -5  314.37   28.40
   5  -2   5  268.77   32.40
   5  -2   5  365.16   21.30
  -6   2  -5   28.90    6.10
  -6   2  -5   20.40   11.80
   6  -2   5   23.10   13.70
   6  -2   5   35.60   11.20
  -7   2  -5  160.68   11.60
  -7   2  -5  158.48   23.20
   7  -2   5   78.79   23.10
  -8   2  -5    2.00   10.80
  -8   2  -5    4.10    5.50
   8  -2   5   -0.60   13.40
 -10  -1   5  115.59   18.20
 -10  -1   5  101.09   10.50
 -10  -1   5  113.19   11.50
  -9  -1   5  201.48   12.30
  -9  -1   5  208.88   20.70
  -9  -1   5  207.48   13.80
   8   1  -5    1.30   12.40
  -8  -1   5   25.40    5.70
  -8  -1   5   21.40    7.60
  -8  -1   5   26.50    6.60
  -7  -1   5  472.75   19.80
  -7  -1   5  474.25   26.70
  -7  -1   5  473.95   17.50
  -6  -1   5   78.99    7.90
  -6  -1   5   87.89   10.50
  -6  -1   5   96.09    6.90
   5   1  -5   36.20   15.90
  -5  -1   5   83.09   10.00
  -5  -1   5   84.29    6.20
  -5  -1   5   84.59    7.30
   4   1  -5    3.20   11.20
  -4  -1   5    8.70    4.90
  -4  -1   5    5.10    2.90
  -4  -1   5    6.10    3.50
   3   1  -5  279.77   25.50
  -3  -1   5  269.97   17.80
  -3  -1   5  309.77   12.80
  -3  -1   5  277.07   12.30
  -3  -1   5  271.87   10.10
   2   1  -5  565.84   34.70
  -2  -1   5  562.04   29.40
  -2  -1   5  555.04   19.70
  -2  -1   5  571.94   17.00
  -2  -1   5  594.24   18.00
   1   1  -5  318.57   23.00
   1   1  -5  310.97   12.10
  -1  -1   5  294.57   19.80
  -1  -1   5  324.87   11.00
  -1  -1   5  310.17   13.00
   0   1  -5 1064.99   52.39
   0   1  -5 1053.29   29.30
   0  -1   5 1091.89   28.30
   0  -1   5 1084.79   51.29
   0  -1   5 1049.70   33.10
  -1   1  -5  517.45   16.60
  -1   1  -5  521.45   23.10
  -1   1  -5  523.05   31.90
   1  -1   5  537.25   33.60
   1  -1   5  543.45   20.10
   1  -1   5  534.65   15.60
  -2   1  -5  214.28   19.80
  -2   1  -5  218.68    9.50
   2  -1   5  207.38   12.50
   2  -1   5  195.98   22.30
  -3   1  -5  443.66   15.70
  -3   1  -5  433.96   31.10
   3  -1   5  447.06   21.20
   3  -1   5  333.77   33.00
  -4   1  -5   -0.50    7.30
  -4   1  -5    0.00    3.60
   4  -1   5    2.00    8.90
   4  -1   5    4.40    6.80
  -5   1  -5   28.20   12.70
  -5   1  -5   26.10    5.50
   5  -1   5   20.60   13.10
   5  -1   5   22.00   10.10
  -6   1  -5    2.50   10.40
  -6   1  -5    9.80    5.10
   6  -1   5    4.00    9.80
   6  -1   5   19.40   12.10
  -7   1  -5   83.89   19.70
  -7   1  -5   93.49    9.50
   7  -1   5   30.30   17.80
  -8   1  -5   75.29    9.50
  -8   1  -5   63.19   19.00
   8  -1   5   25.40   17.50
  10   0  -5    4.90   10.70
 -10   0   5    3.70    9.40
 -10   0   5   -0.80    5.30
 -10   0   5    1.20    5.80
   9   0  -5    3.90   15.90
  -9   0   5    1.90    4.90
  -9   0   5   -0.10    5.10
  -9   0   5   -0.80    5.90
   8   0  -5   -1.70   11.30
  -8   0   5   14.20    6.40
  -8   0   5    6.40    5.10
  -8   0   5   10.20    4.90
  -7   0   5  196.78   10.60
  -7   0   5  212.18   12.40
  -7   0   5  220.18   16.00
   6   0  -5    3.10   13.10
  -6   0   5   38.50    7.60
  -6   0   5   36.30    5.80
  -6   0   5   42.60    5.50
   5   0  -5  142.99   26.30
  -5   0   5  244.78   12.10
  -5   0   5  251.77   16.20
  -5   0   5  259.87   10.70
   4   0  -5  246.78   30.20
  -4   0   5  308.67   11.50
  -4   0   5  297.47   18.30
  -4   0   5  315.17   13.50
   3   0  -5  866.11   51.79
  -3   0   5  874.11   40.20
  -3   0   5  865.31   28.20
  -3   0   5  842.62   24.70
   2   0  -5 1205.98   60.39
  -2   0   5 1184.28   52.89
  -2   0   5 1165.68   36.50
   1   0  -5  401.06   27.50
   1   0  -5  413.16   15.10
  -1   0   5  424.76   14.20
  -1   0   5  417.86   16.90
  -1   0   5  449.66   26.20
   0   0  -5   75.29   12.10
   0   0  -5   82.49    6.00
   0   0   5   79.79   12.70
   0   0   5   84.99    7.70
  -1   0  -5  173.38   17.60
  -1   0  -5  185.48    8.90
   1   0   5  168.38   20.10
   1   0   5  172.88   11.80
  -2   0  -5   49.60   11.40
  -2   0  -5   49.20    5.40
   2   0   5   35.00   12.70
   2   0   5   44.80    8.30
  -3   0  -5  217.98   11.00
  -3   0  -5  216.98   21.50
   3   0   5  244.48   17.80
  -4   0  -5   86.49   16.40
  -4   0  -5   89.29    7.90
   4   0   5   88.59   15.10
   4   0   5   33.60   14.40
  -5   0  -5  342.27   30.80
  -5   0  -5  346.67   16.00
   5   0   5  321.37   27.10
  -6   0  -5  236.28   27.10
  -6   0  -5  237.08   13.90
  -7   0  -5   65.29    8.60
  -7   0  -5   72.19    9.50
  -7   0  -5   58.89   18.00
   7   0   5   12.40   14.20
  -8   0  -5   81.09   21.40
  -8   0  -5   86.99   10.10
  -8   0  -5   84.59   10.40
 -10   1   5   94.89   10.30
 -10   1   5   84.09    9.60
 -10   1   5   86.29   16.60
  -9   1   5   86.79   11.90
  -9   1   5   96.29    9.50
  -9   1   5   88.39    9.40
  -8   1   5  345.27   21.00
  -8   1   5  338.77   15.00
  -8   1   5  331.77   16.50
  -7   1   5  134.69    9.90
  -7   1   5  134.89   12.00
  -7   1   5  122.09    8.70
  -6   1   5  391.86   15.10
  -6   1   5  404.06   17.00
  -6   1   5  380.46   21.70
  -5   1   5  196.38    9.80
  -5   1   5  197.68   14.10
  -5   1   5  201.98   11.20
   4  -1  -5   38.70   16.60
  -4   1   5   47.10    7.80
  -4   1   5   44.30    5.60
  -4   1   5   41.70    5.10
   3  -1  -5   44.90   14.30
  -3   1   5   44.40    7.80
  -3   1   5   44.30    5.30
  -3   1   5   44.40    6.20
   2  -1  -5  683.83   41.00
   2  -1  -5  618.14   22.00
  -2   1   5  626.14   33.00
  -2   1   5  603.84   22.90
   1  -1  -5   82.29    7.20
   1  -1  -5   94.49   14.00
  -1   1   5   78.19    7.90
  -1   1   5   96.19   12.90
   0  -1  -5  151.68    8.50
   0  -1  -5  137.69   15.60
   0   1   5  160.08   11.20
   0   1   5  130.39   17.90
  -1  -1  -5  894.81   47.50
  -1  -1  -5  862.61   26.40
   1   1   5  873.31   33.80
  -2  -1  -5   62.99   12.10
  -2  -1  -5   68.09    6.50
   2   1   5   67.89   11.20
   2   1   5   25.50   11.60
  -3  -1  -5  164.18   18.90
  -3  -1  -5  149.88    9.30
   3   1   5  155.58   17.60
  -4  -1  -5  467.15   35.10
  -4  -1  -5  449.76   18.40
   4   1   5  403.96   29.70
  -5  -1  -5   17.40    5.90
  -5  -1  -5   15.50   11.40
   5   1   5    7.30   11.40
   5   1   5   21.20   12.00
  -6  -1  -5  121.29   10.60
  -6  -1  -5  106.89   20.60
  -6  -1  -5  112.69   10.20
  -7  -1  -5    3.00    5.30
  -7  -1  -5    1.80    6.00
  -7  -1  -5    3.10   11.60
   7   1   5    2.70   12.90
  -8  -1  -5    7.50   13.60
  -8  -1  -5   15.50    6.90
   8   1   5    7.10   15.20
  10  -2  -5    5.60   18.80
 -10   2   5   69.49    9.10
 -10   2   5   63.69    8.70
   9  -2  -5   -2.10   15.70
  -9   2   5   22.50    7.30
  -9   2   5   22.40    6.00
  -9   2   5   20.60    6.50
   8  -2  -5    3.50   14.30
  -8   2   5   -0.20    4.20
  -8   2   5    3.40    4.70
  -8   2   5    1.00    4.30
   7  -2  -5   -3.90   12.10
  -7   2   5    3.10    4.40
  -7   2   5    3.80    4.30
  -7   2   5    7.00    4.50
  -6   2   5  226.38   11.30
  -6   2   5  223.58   14.90
  -6   2   5  222.68   12.30
   5  -2  -5    8.90   13.70
  -5   2   5   27.20    5.30
  -5   2   5   25.00    4.90
  -5   2   5   25.90    6.00
   4  -2  -5  207.58   30.40
  -4   2   5  261.17   13.20
  -4   2   5  254.87   16.50
  -4   2   5  268.77   11.80
   3  -2  -5  104.29   20.00
  -3   2   5  119.59    9.10
  -3   2   5  105.79   11.20
  -3   2   5  100.89    7.80
   2  -2  -5 1460.65   74.39
   2  -2  -5 1444.06   42.50
  -2   2   5 1431.76   45.70
  -2   2   5 1467.95   65.79
   1  -2  -5  342.87   14.60
   1  -2  -5  332.47   26.40
  -1   2   5  340.17   16.80
  -1   2   5  327.77   26.30
   0  -2  -5  818.72   25.90
   0  -2  -5  825.72   46.20
   0   2   5  826.92   32.30
  -1  -2  -5   42.50   11.30
  -1  -2  -5   44.00    5.40
   1   2   5   20.50   10.40
   1   2   5   43.40    9.40
  -2  -2  -5   -0.50    3.40
  -2  -2  -5    1.30    7.30
   2   2   5    1.50    6.50
   2   2   5    7.40    7.70
  -3  -2  -5    3.80    8.50
  -3  -2  -5    3.30    4.10
   3   2   5    4.10    8.90
   3   2   5    4.10    8.80
  -4  -2  -5  330.27   15.90
  -4  -2  -5  329.07   28.90
   4   2   5  277.47   27.00
  -5  -2  -5   57.69    8.40
  -5  -2  -5   49.20   15.80
  -6  -2  -5  262.37   29.60
  -6  -2  -5  251.87   15.40
  -6  -2  -5  249.97   15.00
  -7  -2  -5  126.79   12.40
  -7  -2  -5  126.89   11.70
  -7  -2  -5  144.89   24.80
  10  -3  -5    0.90   15.40
 -10   3   5   43.50    8.00
 -10   3   5   41.40    7.80
   9  -3  -5    7.20   17.70
  -9   3   5   56.09    7.90
  -9   3   5   47.60    7.50
  -8   3   5  248.08   13.80
  -8   3   5  253.77   16.30
  -8   3   5  243.38   13.10
   7  -3  -5   13.20   15.60
  -7   3   5   60.49    7.40
  -7   3   5   57.19    7.50
  -7   3   5   61.29    8.50
  -6   3   5  388.46   15.90
  -6   3   5  389.86   17.40
  -6   3   5  393.56   20.90
   5  -3  -5  129.19   30.80
  -5   3   5  249.38   12.80
  -5   3   5  234.38   15.00
  -5   3   5  234.98   11.80
   4  -3  -5  128.09   26.40
  -4   3   5  179.08   13.50
  -4   3   5  174.08   10.20
  -4   3   5  164.28   10.80
   3  -3  -5   26.90   14.60
  -3   3   5   21.70    5.40
  -3   3   5   23.70    6.90
   2  -3  -5   56.59    7.60
   2  -3  -5   75.39   17.30
  -2   3   5   60.19    8.10
  -2   3   5   55.89   12.00
   1  -3  -5  307.27   26.50
   1  -3  -5  291.87   13.70
  -1   3   5  269.67   16.40
  -1   3   5  202.58   22.80
   0  -3  -5  217.68   21.80
   0  -3  -5  218.28   11.70
   0   3   5  230.28   16.70
  -1  -3  -5  103.99    8.50
  -1  -3  -5  109.99   16.10
   1   3   5  102.09   14.10
  -2  -3  -5  206.98   11.80
  -2  -3  -5  206.58   21.80
   2   3   5  225.28   21.30
  -3  -3  -5  291.87   14.60
  -3  -3  -5  286.27   26.90
   3   3   5  279.77   26.30
  -4  -3  -5   68.09    8.60
  -4  -3  -5   61.99   16.20
   4   3   5   38.50   15.50
   4   3   5   16.10   13.20
  -5  -3  -5  168.78   12.80
  -5  -3  -5  155.68   23.40
  -6  -3  -5   49.30   17.90
  -6  -3  -5   62.89    9.50
  -6  -3  -5   78.79   10.60
   6   3   5    8.10   15.10
  -7  -3  -5    1.00    6.70
  -7  -3  -5   12.90   15.20
  -7  -3  -5    2.00    6.20
   7   3   5    1.20   15.30
 -10   4   5   77.29    9.80
 -10   4   5   72.79    9.40
   9  -4  -5    8.40   17.50
  -9   4   5   57.09    8.20
  -9   4   5   62.29    8.50
   8  -4  -5   -0.50   15.50
  -8   4   5    6.90    5.10
  -8   4   5    8.10    5.10
   7  -4  -5    9.20   14.90
  -7   4   5   40.80    7.50
  -7   4   5   35.90    6.60
  -7   4   5   40.50    6.60
  -6   4   5  124.89   10.40
  -6   4   5  123.29    9.20
  -6   4   5  108.59    9.50
   5  -4  -5   33.40   18.90
  -5   4   5   65.69    7.60
  -5   4   5   60.29    8.40
  -5   4   5   71.49    8.10
   4  -4  -5   41.50   20.20
  -4   4   5   92.59    9.20
  -4   4   5   89.89   10.60
  -4   4   5   98.19    8.70
   3  -4  -5  173.38   13.10
   3  -4  -5  188.18   28.90
  -3   4   5  211.68   13.60
  -3   4   5  205.08   17.80
   2  -4  -5  148.09   11.30
   2  -4  -5  160.08   23.50
  -2   4   5  158.38   12.80
  -2   4   5  146.99   18.90
   1  -4  -5  494.25   37.10
   1  -4  -5  505.85   20.30
  -1   4   5  501.05   25.00
   0  -4  -5  726.43   45.60
   0  -4  -5  721.03   25.40
   0   4   5  726.23   34.20
  -1  -4  -5   66.49    7.70
  -1  -4  -5   75.29   16.10
   1   4   5   66.79   13.40
  -2  -4  -5  233.28   13.20
  -2  -4  -5  248.98   24.90
   2   4   5  215.18   23.00
  -3  -4  -5    9.80   10.10
  -3  -4  -5   12.10    5.50
   3   4   5    2.40   11.10
   3   4   5    4.80   10.50
  -4  -4  -5    0.20    5.30
  -4  -4  -5    8.70   11.00
   4   4   5   -0.70   10.80
   4   4   5    0.50   12.10
  -5  -4  -5   35.00   14.80
  -5  -4  -5   26.90    7.40
   5   4   5   11.80   15.40
  -6  -4  -5   80.09   21.10
  -6  -4  -5   83.39   11.30
  10  -5  -5   -3.20   18.50
 -10   5   5   -2.40    5.00
 -10   5   5   -0.80    5.40
   9  -5  -5    0.20   14.00
  -9   5   5    5.70    5.60
  -9   5   5    7.30    5.60
  -8   5   5  100.09   10.10
  -8   5   5  100.89    9.60
   7  -5  -5    4.20   16.50
  -7   5   5   40.90    7.00
  -7   5   5   39.40    7.00
  -6   5   5  319.07   16.60
  -6   5   5  315.37   15.30
  -6   5   5  318.57   17.70
   5  -5  -5   78.99   27.60
  -5   5   5  158.28   11.60
  -5   5   5  159.78   12.50
  -5   5   5  149.79   10.70
   4  -5  -5   82.29   26.50
  -4   5   5  129.99   11.20
  -4   5   5  134.69   10.70
  -4   5   5  143.09   13.60
   3  -5  -5  474.85   22.50
   3  -5  -5  457.95   46.70
  -3   5   5  476.75   23.00
  -3   5   5  523.35   32.40
   2  -5  -5   37.20   17.10
   2  -5  -5   48.10    8.20
  -2   5   5   24.00   10.30
  -2   5   5   53.09    9.60
   1  -5  -5   31.30   13.30
   1  -5  -5   36.30    7.10
  -1   5   5   40.40    9.60
  -1   5   5   17.20    9.90
   0  -5  -5   30.20    6.40
   0  -5  -5   31.60   13.00
   0   5   5   10.70    9.50
   0   5   5   27.20   10.00
  -1  -5  -5  119.79   19.70
  -1  -5  -5  112.39   10.00
   1   5   5  109.49   18.00
  -2  -5  -5   93.09   17.80
  -2  -5  -5  103.99    9.90
   2   5   5   94.49   18.80
  -3  -5  -5   74.89   17.50
  -3  -5  -5   83.19    9.60
   3   5   5   50.89   17.40
  -4  -5  -5  108.09   20.60
  -4  -5  -5  126.39   11.90
   4   5   5   72.99   20.20
  -5  -5  -5   99.39   11.70
  -5  -5  -5  121.39   23.20
   5   5   5   76.59   22.30
  -6  -5  -5   30.50    9.10
  -6  -5  -5   32.00   17.60
   6   5   5    3.20   17.20
   9  -6  -5   22.70   22.20
  -9   6   5   56.09    8.70
  -9   6   5   68.09    9.30
   8  -6  -5    6.70   17.70
  -8   6   5   31.90    7.20
  -8   6   5   26.60    6.90
   7  -6  -5   -4.80   13.70
  -7   6   5    0.20    5.00
  -7   6   5   -1.40    4.90
   6  -6  -5   -1.80   12.00
  -6   6   5    4.10    5.00
  -6   6   5    1.60    5.10
   5  -6  -5   23.80   18.50
  -5   6   5   38.10    6.90
  -5   6   5   44.50    8.20
  -5   6   5   41.80    7.70
   4  -6  -5   30.30   21.20
  -4   6   5   38.50    8.10
  -4   6   5   48.80   10.20
  -4   6   5   43.40    8.00
   3  -6  -5   96.69   27.70
   3  -6  -5  123.09   12.40
  -3   6   5  110.49   12.20
  -3   6   5  114.59   18.10
   2  -6  -5   59.69    9.30
   2  -6  -5   78.99   23.40
  -2   6   5   70.99   11.70
  -2   6   5   55.59   14.40
   1  -6  -5   22.50    6.30
   1  -6  -5   35.20   16.20
  -1   6   5   25.90    9.70
  -1   6   5    9.50    9.00
   0  -6  -5  530.15   22.70
   0  -6  -5  574.94   43.90
   0   6   5  530.25   32.50
  -1  -6  -5   47.70   16.00
  -1  -6  -5   44.50    7.90
   1   6   5   13.40   11.80
   1   6   5   44.00   14.20
  -2  -6  -5  245.38   27.70
  -2  -6  -5  259.87   15.50
   2   6   5  261.87   27.80
  -3  -6  -5   17.60    6.80
  -3  -6  -5    8.10   12.00
   3   6   5    4.40   13.20
   3   6   5    3.20   13.10
  -4  -6  -5    5.90   12.40
  -4  -6  -5    7.70    6.80
   4   6   5    5.40   14.00
   4   6   5   -4.90   11.00
  -5  -6  -5    2.40   13.10
  -5  -6  -5    0.60    6.90
   5   6   5   12.20   16.10
   5   6   5    3.60   15.60
   9  -7  -5    0.40   21.90
  -9   7   5   -2.60    5.80
  -9   7   5   -0.80    5.50
   8  -7  -5    3.50   19.10
  -8   7   5    7.70    6.10
  -8   7   5    8.30    6.00
   7  -7  -5   19.90   21.00
  -7   7   5   69.89    9.60
  -7   7   5   70.49    9.30
  -6   7   5  106.49   11.20
  -6   7   5  104.69   10.60
   5  -7  -5   25.30   21.70
  -5   7   5   82.99    9.80
  -5   7   5   88.69   11.20
  -4   7   5  420.96   27.90
  -4   7   5  385.86   19.70
  -4   7   5  409.56   22.50
   3  -7  -5   26.00    8.50
   3  -7  -5   16.10   18.50
  -3   7   5   35.80    9.20
  -3   7   5   32.50   12.10
   2  -7  -5  208.78   15.30
   2  -7  -5  193.38   33.90
  -2   7   5  223.38   18.60
   1  -7  -5    0.20    5.70
   1  -7  -5    6.10   14.30
  -1   7   5    8.00    8.40
  -1   7   5    4.40    8.30
   0  -7  -5   23.20    7.20
   0  -7  -5   13.10   13.70
   0   7   5    3.10    9.10
   0   7   5    8.60    9.10
  -1  -7  -5   21.20   14.80
  -1  -7  -5   15.50    6.70
   1   7   5    1.10   10.30
   1   7   5   10.70   11.80
  -2  -7  -5   11.40    6.50
  -2  -7  -5   18.90   14.70
   2   7   5    3.70   11.50
   2   7   5    8.70   12.10
  -3  -7  -5   22.60   14.80
  -3  -7  -5   23.30    7.70
   3   7   5   -0.70   12.10
   3   7   5   19.00   16.10
  -4  -7  -5   32.20    9.10
   4   7   5   27.50   17.90
   4   7   5    1.00   15.10
   8  -8  -5   12.60   22.80
  -8   8   5   15.50    7.00
  -8   8   5    8.80    6.70
   7  -8  -5   -1.60   19.70
  -7   8   5   43.20    8.80
  -7   8   5   34.80    7.90
   6  -8  -5    4.10   17.30
  -6   8   5    3.60    6.30
  -6   8   5    7.90    6.80
   5  -8  -5    0.20   16.90
  -5   8   5   -2.70    6.40
  -5   8   5    1.30    6.00
   4  -8  -5    3.80   15.50
  -4   8   5   -3.60    6.00
  -4   8   5    1.00    6.70
   3  -8  -5    8.70   19.00
   3  -8  -5   21.90    8.60
  -3   8   5   20.70    8.90
  -3   8   5   19.00   12.00
   2  -8  -5   18.00    7.80
   2  -8  -5   10.30   16.70
  -2   8   5    6.10    9.20
  -2   8   5   22.60    9.90
   1  -8  -5   31.10    8.40
   1  -8  -5   21.60   18.90
  -1   8   5    1.70    8.80
  -1   8   5   37.80   12.50
   0  -8  -5   17.40   17.20
   0  -8  -5   19.40    7.70
   0   8   5    3.90    9.70
   0   8   5    8.50   11.40
  -1  -8  -5  110.89   12.10
  -1  -8  -5  123.79   28.00
   1   8   5  118.09   22.30
  -2  -8  -5   67.89   10.70
   2   8   5   36.40   17.10
   2   8   5   10.80   14.90
  -3  -8  -5   57.49   10.70
   3   8   5    1.30   13.70
   3   8   5   43.50   19.10
   7  -9  -5    1.40   18.60
  -7   9   5    2.00    6.80
  -7   9   5    3.10    6.70
   6  -9  -5   13.20   21.30
  -6   9   5   53.69   10.60
  -6   9   5   40.50    9.10
   5  -9  -5   19.50   21.40
  -5   9   5   52.79    9.90
  -5   9   5   49.60   10.80
   4  -9  -5   25.00   22.50
  -4   9   5   79.29   11.50
  -4   9   5   77.69   13.20
   3  -9  -5   24.70   21.90
   3  -9  -5   75.79   13.10
  -3   9   5   71.29   13.50
   2  -9  -5   37.30   22.70
   2  -9  -5   37.60   10.40
  -2   9   5   10.00   11.10
  -2   9   5   43.20   12.90
   1  -9  -5   49.70   10.50
   1  -9  -5   47.90   24.10
  -1   9   5   50.89   14.30
  -1   9   5    8.40   11.30
   0  -9  -5    4.30    6.90
   0  -9  -5    3.40   16.70
   0   9   5    0.90   11.00
   0   9   5    7.00   11.40
  -1  -9  -5    2.10    7.00
   1   9   5   -1.20   12.60
   1   9   5   -3.80   11.20
   4 -10  -5   10.10   21.00
  -4  10   5    5.50    8.60
  -4  10   5    1.60    7.30
   3 -10  -5    5.40   20.90
  -3  10   5   -3.90    8.90
   2 -10  -5   14.10    9.50
   2 -10  -5   17.40   23.40
  -2  10   5   15.30   11.80
   0 -10   6    4.30    8.00
  -3  -9   6   37.60    8.00
  -3  -9   6   39.50   11.50
  -2  -9   6   66.59   13.00
  -1  -9   6   61.99   12.30
   0  -9   6   44.50   10.60
   1  -9   6   91.89   13.70
   2  -9   6   19.00    8.30
  -4   9  -6    3.80   12.50
  -5  -8   6   27.90    7.70
  -5  -8   6   28.20   11.10
  -4  -8   6  103.29   15.10
  -4  -8   6  102.79   10.50
  -3  -8   6   17.70    6.40
  -3  -8   6   20.60    9.30
  -2  -8   6   76.89   12.90
  -2  -8   6   93.59    9.40
  -1  -8   6   45.10   10.70
  -1  -8   6   40.50    6.30
   0  -8   6   13.30    7.90
   1  -8   6    6.70    6.90
  -2   8  -6   23.80   12.10
   2  -8   6   32.20    8.90
  -3   8  -6   75.79   17.00
   3  -8   6   72.59   12.10
  -4   8  -6   64.99   17.50
  -5   8  -6   53.49   18.50
  -6   8  -6   92.49   22.30
  -6  -7   6    9.30    7.10
  -6  -7   6   15.60    9.30
  -5  -7   6    6.30    8.00
  -5  -7   6   11.20    6.40
  -4  -7   6   14.10    6.10
  -4  -7   6   13.60    8.10
  -3  -7   6    1.10    6.60
  -3  -7   6    2.90    5.20
  -2  -7   6  122.49   14.60
  -2  -7   6  103.99    9.30
  -1  -7   6  116.19   14.00
  -1  -7   6  110.59    8.70
   0   7  -6    6.50    7.90
   0  -7   6    5.20    3.90
   0  -7   6   10.30    7.20
  -1   7  -6  190.88   19.40
   1  -7   6  189.28   16.80
  -2   7  -6   51.59   13.60
   2  -7   6   62.39   11.30
  -3   7  -6   44.50   14.40
   3  -7   6   43.20   10.00
  -4   7  -6   27.20   13.30
   4  -7   6   26.50    8.70
  -5   7  -6    2.40   12.30
  -6   7  -6   -6.40   11.10
  -7  -6   6   33.70   11.00
  -7  -6   6   36.40    8.50
  -6  -6   6   73.39   13.20
  -6  -6   6   74.99    9.80
  -5  -6   6  269.77   15.30
  -5  -6   6  254.27   20.90
  -4  -6   6   57.29   11.20
  -4  -6   6   47.90    7.80
  -3  -6   6  191.18   11.90
  -3  -6   6  196.08   17.40
   2   6  -6  310.57   23.20
  -2  -6   6  325.07   22.20
  -2  -6   6  314.87   14.50
   1   6  -6   94.39   13.90
  -1  -6   6  101.19    8.00
  -1  -6   6   97.59   12.50
   0   6  -6  779.32   42.00
   0  -6   6  789.32   39.60
   0  -6   6  768.52   24.70
  -1   6  -6  374.06   27.40
   1  -6   6  392.06   24.30
   1  -6   6  353.96   12.80
  -2   6  -6   30.40   11.20
   2  -6   6   33.20    8.90
  -3   6  -6   66.69   15.90
   3  -6   6   75.29   12.00
  -4   6  -6  182.68   24.00
   4  -6   6  223.08   19.00
  -5   6  -6  102.39   20.50
   5  -6   6  112.29   15.30
  -6   6  -6  117.49   22.50
  -7   6  -6   99.49   23.60
  -8  -5   6  132.39   12.70
  -8  -5   6  139.09   17.60
  -7  -5   6   29.70    9.90
  -7  -5   6   20.80    7.10
  -6  -5   6   75.69   12.50
  -6  -5   6   70.39    9.00
  -5  -5   6   38.50    7.20
  -5  -5   6   35.30    5.00
  -5  -5   6   35.20    9.40
  -4  -5   6   29.10    8.60
  -4  -5   6   34.50    4.20
  -4  -5   6   32.80    6.30
   3   5  -6    9.80   10.50
  -3  -5   6    5.90    4.60
  -3  -5   6    7.80    6.30
   2   5  -6    7.30    8.00
  -2  -5   6    4.20    4.00
  -2  -5   6    1.60    5.80
   1   5  -6   79.99   13.30
  -1  -5   6   74.39    6.70
  -1  -5   6   89.79   11.90
   0   5  -6  279.17   22.40
   0  -5   6  287.47   20.10
   0  -5   6  255.77   11.00
  -1   5  -6   53.69   12.40
   1  -5   6   55.79   10.50
   1  -5   6   50.99    4.80
  -2   5  -6  137.59    6.00
  -2   5  -6  134.19   18.40
   2  -5   6  148.49   15.20
  -3   5  -6  392.26   13.20
  -3   5  -6  354.36   30.70
   3  -5   6  406.06   26.20
  -4   5  -6   72.59   17.50
  -4   5  -6   86.39    7.30
   4  -5   6   78.29   13.60
  -5   5  -6   70.89   18.60
  -5   5  -6   85.69    8.10
   5  -5   6   92.59   15.00
  -6   5  -6   17.80   13.90
  -6   5  -6   16.70    5.70
   6  -5   6   20.20   11.10
  -7   5  -6    7.30   13.60
  -7   5  -6    8.30    5.80
  -8  -4   6   -1.40    6.90
  -8  -4   6    1.50    6.10
  -8  -4   6   -1.10    4.90
  -7  -4   6   39.10    6.50
  -7  -4   6   37.50   10.10
  -7  -4   6   48.50    8.20
  -6  -4   6   33.10    5.60
  -6  -4   6   35.90    9.40
  -6  -4   6   32.50    7.00
  -5  -4   6  150.58    8.40
  -5  -4   6  141.79   14.80
  -5  -4   6  147.69   10.80
   4   4  -6  137.29   23.20
  -4  -4   6  223.38    8.90
  -4  -4   6  220.28   11.80
  -4  -4   6  211.28   17.30
   3   4  -6  260.17   24.80
  -3  -4   6  266.97   19.40
  -3  -4   6  267.17   12.60
  -3  -4   6  261.77    9.00
   2   4  -6  117.69   15.80
  -2  -4   6  125.59    4.70
  -2  -4   6  125.89    8.20
  -2  -4   6  118.69   13.10
   1   4  -6  270.67   21.80
  -1  -4   6  265.87   19.40
  -1  -4   6  265.67   11.50
   0   4  -6   53.19   11.80
   0  -4   6   49.10    9.80
   0  -4   6   55.19    5.20
  -1   4  -6    7.40    7.90
  -1   4  -6    4.50    4.00
  -1   4  -6    7.50    2.50
   1  -4   6    6.30    1.90
   1  -4   6    8.30    3.00
   1  -4   6    6.90    6.30
  -2   4  -6    8.60    2.90
  -2   4  -6    7.50    8.20
   2  -4   6    9.40    6.90
   2  -4   6    9.70    2.90
   2  -4   6    8.60    2.90
  -3   4  -6  213.88    9.50
  -3   4  -6  183.98   22.00
   3  -4   6  205.68   19.20
   3  -4   6  199.78    8.10
  -4   4  -6  169.58   21.90
  -4   4  -6  171.78    9.60
   4  -4   6  180.98   19.80
  -5   4  -6  146.39    9.80
  -5   4  -6  140.99   21.40
   5  -4   6  168.18   20.90
  -6   4  -6   74.79    8.40
  -6   4  -6   64.89   18.60
   6  -4   6   55.99   16.60
  -7   4  -6  179.48   12.30
  -7   4  -6  167.08   25.10
   7  -4   6  150.48   25.20
  -9  -3   6   73.19   14.00
  -9  -3   6   77.09   10.50
  -9  -3   6   69.49    8.60
  -8  -3   6  144.69   12.10
  -8  -3   6  139.89   16.10
  -8  -3   6  130.39   10.20
  -7  -3   6   68.09    8.70
  -7  -3   6   68.29   11.70
  -7  -3   6   59.99    7.30
  -6  -3   6  484.65   28.80
  -6  -3   6  506.75   20.80
  -6  -3   6  482.05   17.10
   5   3  -6   20.30   14.10
  -5  -3   6   37.00    6.30
  -5  -3   6   41.80    5.10
  -5  -3   6   43.70    9.40
   4   3  -6  106.89   20.40
  -4  -3   6  123.89   13.10
  -4  -3   6  126.29    6.70
  -4  -3   6  122.49    8.90
   3   3  -6   58.89   14.60
  -3  -3   6   58.59    6.60
  -3  -3   6   66.59    6.20
  -3  -3   6   55.29    9.70
  -3  -3   6   55.89    4.20
   2   3  -6   42.30   11.40
  -2  -3   6   43.40    3.60
  -2  -3   6   47.20    5.40
  -2  -3   6   46.80    9.20
  -2  -3   6   49.50    4.40
   1   3  -6   21.40    8.90
  -1  -3   6   30.90    8.10
  -1  -3   6   31.10    3.40
  -1  -3   6   31.30    3.10
  -1  -3   6   28.40    4.40
   0   3  -6  325.17   24.60
   0   3  -6  337.17   11.70
   0  -3   6  329.67   13.00
   0  -3   6  336.07   22.50
   0  -3   6  332.67    9.90
  -1   3  -6  258.77   10.00
  -1   3  -6  274.07   23.10
  -1   3  -6  264.77   14.60
   1  -3   6  272.77   11.20
   1  -3   6  270.67    9.20
   1  -3   6  300.47   21.50
  -2   3  -6  280.47   25.20
  -2   3  -6  282.77   11.10
   2  -3   6  292.27   10.60
   2  -3   6  291.97   23.10
   2  -3   6  296.37   12.10
  -3   3  -6  323.77   28.90
  -3   3  -6  330.17   13.20
   3  -3   6  339.07   13.70
   3  -3   6  341.47   27.40
  -4   3  -6  294.67   29.10
  -4   3  -6  315.07   13.70
   4  -3   6  316.67   14.50
   4  -3   6  324.77   29.20
  -5   3  -6  336.17   15.10
  -5   3  -6  296.97   30.60
   5  -3   6  305.57   31.10
  -6   3  -6   98.59   19.60
  -6   3  -6  113.19    9.60
   6  -3   6  109.09   24.20
  -7   3  -6    8.20   12.60
  -7   3  -6   12.00    5.70
   7  -3   6    4.70   15.30
  -8   3  -6    1.60   13.30
  -8   3  -6    3.60    6.10
   8  -3   6    0.00   16.20
  -9  -2   6   94.29   14.40
  -9  -2   6   98.59   10.80
  -9  -2   6   90.59    9.30
   8   2  -6    4.10   15.60
  -8  -2   6   44.80    6.90
  -8  -2   6   38.90    9.70
  -8  -2   6   38.50    7.70
   7   2  -6    2.00   13.00
  -7  -2   6   18.20    5.90
  -7  -2   6   13.40    4.80
  -7  -2   6   13.20    7.00
   6   2  -6    1.80   12.10
  -6  -2   6   18.70    7.20
  -6  -2   6   21.20    5.70
  -6  -2   6   18.20    4.50
   5   2  -6  102.49   24.70
  -5  -2   6  187.38    8.90
  -5  -2   6  185.18   11.00
  -5  -2   6  187.08   15.50
   4   2  -6    1.40   10.80
  -4  -2   6    6.80    5.50
  -4  -2   6    7.80    4.00
  -4  -2   6    9.60    3.10
   3   2  -6  419.46   32.20
  -3  -2   6  427.56   13.50
  -3  -2   6  406.66   16.60
  -3  -2   6  405.76   24.80
  -3  -2   6  444.36   15.60
   2   2  -6  304.27   25.20
  -2  -2   6  334.27   11.80
  -2  -2   6  331.87   13.80
  -2  -2   6  329.67   11.20
  -2  -2   6  305.17   21.10
   1   2  -6  258.07   22.10
  -1  -2   6  282.37   20.00
  -1  -2   6  267.17   12.10
  -1  -2   6  271.37    9.60
   0   2  -6  250.67   21.70
   0   2  -6  255.87   10.50
   0  -2   6  252.97   11.80
   0  -2   6  255.27    8.90
   0  -2   6  273.27   20.60
  -1   2  -6  157.68   18.10
  -1   2  -6  166.88    8.20
   1  -2   6  168.98   17.40
   1  -2   6  161.08    7.10
   1  -2   6  165.18    9.40
  -2   2  -6  156.58   18.40
  -2   2  -6  144.49    8.20
   2  -2   6  164.18   19.10
   2  -2   6  165.48   10.20
  -3   2  -6   27.70   11.40
  -3   2  -6   29.20    5.00
   3  -2   6   34.00    6.50
   3  -2   6   29.80   12.10
  -4   2  -6   33.70    5.90
  -4   2  -6   21.90   11.50
   4  -2   6   25.10   13.70
   4  -2   6   34.60    7.80
  -5   2  -6  116.19    9.90
  -5   2  -6  115.39   20.70
   5  -2   6   95.49   23.20
   5  -2   6  142.19   14.70
  -6   2  -6   74.29    9.40
  -6   2  -6   79.59   20.00
   6  -2   6   62.49   21.20
  -7   2  -6   45.80   17.90
  -7   2  -6   63.59    9.20
   7  -2   6   22.80   17.80
  -8   2  -6   32.00    7.80
  -8   2  -6   45.40   18.70
   8  -2   6   16.90   19.20
 -10  -1   6    7.20    6.00
 -10  -1   6    1.30    6.10
   9   1  -6    8.10   18.00
  -9  -1   6   33.60    9.70
  -9  -1   6   38.60    7.90
  -9  -1   6   37.60    7.20
   8   1  -6    8.50   15.20
  -8  -1   6   39.60    6.60
  -8  -1   6   36.30    9.10
  -8  -1   6   43.60    7.40
  -7  -1   6  388.56   15.50
  -7  -1   6  380.36   23.90
  -7  -1   6  370.46   17.70
  -6  -1   6  363.06   16.40
  -6  -1   6  352.26   22.50
  -6  -1   6  355.16   13.80
   5   1  -6   97.29   24.50
  -5  -1   6  138.49    9.70
  -5  -1   6  140.79    8.00
  -5  -1   6  139.39   13.40
   4   1  -6  737.63   53.59
  -4  -1   6  798.52   23.20
  -4  -1   6  781.62   38.60
  -4  -1   6  809.12   27.20
   3   1  -6    3.60    8.90
  -3  -1   6    8.80    5.50
  -3  -1   6    4.10    3.70
  -3  -1   6    3.10    2.90
   2   1  -6   19.00    9.40
  -2  -1   6   17.10    3.70
  -2  -1   6   19.00    4.50
  -2  -1   6   17.50    6.50
   1   1  -6    1.50    6.90
   1   1  -6    4.30    3.40
  -1  -1   6    2.40    3.60
  -1  -1   6    5.10    5.40
   0   1  -6  101.69    6.90
   0   1  -6   95.19   14.30
   0  -1   6   93.49    7.80
   0  -1   6   98.49   13.60
  -1   1  -6  824.52   25.10
  -1   1  -6  820.22   47.00
   1  -1   6  842.92   29.30
   1  -1   6  876.01   48.30
  -2   1  -6   92.79   15.80
  -2   1  -6   88.99    6.90
   2  -1   6  111.09   18.80
   2  -1   6  101.09   10.00
  -3   1  -6  515.35   37.50
  -3   1  -6  551.54   19.30
   3  -1   6  445.56   39.90
   3  -1   6  558.34   24.80
  -4   1  -6  163.48   22.30
  -4   1  -6  169.88   10.90
   4  -1   6  108.19   24.00
   4  -1   6  179.98   16.30
  -5   1  -6  241.98   13.50
  -5   1  -6  239.28   26.90
   5  -1   6  173.78   31.70
   5  -1   6  267.07   22.30
  -6   1  -6  256.07   14.60
  -6   1  -6  249.18   29.50
   6  -1   6  137.59   28.30
   6  -1   6  259.27   25.00
  -7   1  -6   45.80    8.80
  -7   1  -6   25.80   15.50
   7  -1   6   18.50   16.50
 -10   0   6  108.49   11.50
 -10   0   6  104.79   10.40
  -9   0   6   61.19    8.00
  -9   0   6   55.99    8.80
  -9   0   6   74.09   11.80
   8   0  -6    9.70   16.00
  -8   0   6   40.00    9.00
  -8   0   6   41.60    7.40
  -8   0   6   43.10    6.80
   7   0  -6    5.00   13.50
  -7   0   6    4.70    5.50
  -7   0   6    2.50    4.00
  -7   0   6    6.50    4.80
   6   0  -6    3.10   12.80
  -6   0   6    1.20    4.70
  -6   0   6    7.10    4.50
  -6   0   6    3.90    3.80
   5   0  -6   -1.40   11.90
  -5   0   6    6.40    4.30
  -5   0   6    6.20    3.70
  -5   0   6    5.00    5.00
   4   0  -6  157.48   25.30
  -4   0   6  167.98   14.30
  -4   0   6  170.68    8.80
  -4   0   6  171.38   10.60
   3   0  -6   19.80   11.50
  -3   0   6   23.10    6.80
  -3   0   6   21.90    4.20
  -3   0   6   15.30    4.70
   2   0  -6  401.56   17.30
   2   0  -6  425.66   31.70
  -2   0   6  428.46   17.90
  -2   0   6  440.66   26.40
   1   0  -6  385.06   28.90
   1   0  -6  370.06   15.10
  -1   0   6  380.46   17.10
  -1   0   6  391.86   26.10
   0   0  -6  844.32   25.80
   0   0  -6  792.22   46.20
   0   0   6  868.71   30.00
   0   0   6  813.22   46.50
  -1   0  -6  306.47   25.60
  -1   0  -6  326.17   13.40
   1   0   6  330.97   17.30
   1   0   6  332.37   29.50
  -2   0  -6  358.56   29.10
  -2   0  -6  385.36   15.40
   2   0   6  347.67   33.80
   2   0   6  399.46   20.60
  -3   0  -6  139.69    9.50
  -3   0  -6  152.18   20.40
   3   0   6  157.78   15.50
   3   0   6  100.49   23.50
  -4   0  -6   14.00   11.20
  -4   0  -6   10.70    5.30
   4   0   6   11.10    9.40
   4   0   6    1.90   11.00
  -5   0  -6   18.50   12.80
  -5   0  -6   10.40    5.60
   5   0   6   10.50   10.50
   5   0   6    9.80   12.60
  -6   0  -6   88.59   21.40
  -6   0  -6   75.49    9.60
   6   0   6   82.59   18.80
   6   0   6   27.30   18.00
  -7   0  -6   15.70   13.80
  -7   0  -6   13.20    6.90
   7   0   6   -2.00   13.40
   7   0   6   10.60   13.80
  10  -1  -6   -0.30   19.70
 -10   1   6   -0.10    6.80
 -10   1   6    2.00    5.70
 -10   1   6    4.60    5.90
   9  -1  -6   -2.70   14.50
  -9   1   6    2.90    5.50
  -9   1   6    7.60    5.50
  -9   1   6    8.40    6.50
   8  -1  -6   10.00   16.70
  -8   1   6   62.29    8.30
  -8   1   6   54.19    7.40
  -8   1   6   58.79   10.00
   7  -1  -6   17.10   16.60
  -7   1   6   62.29    8.00
  -7   1   6   58.79    7.10
  -7   1   6   59.59    9.80
  -6   1   6  447.86   25.40
  -6   1   6  461.75   17.30
  -6   1   6  461.75   19.70
   5  -1  -6  382.96   45.40
  -5   1   6  576.14   29.20
  -5   1   6  574.34   19.30
  -5   1   6  561.14   21.70
   4  -1  -6  435.96   41.50
  -4   1   6  415.46   16.00
  -4   1   6  442.26   18.60
  -4   1   6  432.86   25.10
   3  -1  -6  559.64   41.70
  -3   1   6  562.04   30.70
  -3   1   6  561.54   22.10
  -3   1   6  554.04   19.60
   2  -1  -6   10.20    4.80
   2  -1  -6    8.90    9.20
  -2   1   6   11.50    6.30
  -2   1   6    8.50    4.40
   1  -1  -6   72.09   13.50
   1  -1  -6   63.49    7.10
  -1   1   6   84.19   14.00
  -1   1   6   81.79    8.70
   0  -1  -6  254.57   12.30
   0  -1  -6  238.88   22.70
   0   1   6  256.57   25.20
   0   1   6  255.27   15.10
  -1  -1  -6   12.70    4.30
  -1  -1  -6   14.40    8.70
   1   1   6   15.10    6.30
   1   1   6   13.60    9.70
  -2  -1  -6  165.68   10.10
  -2  -1  -6  169.88   20.50
   2   1   6  170.48   16.00
   2   1   6  104.89   23.30
  -3  -1  -6  202.58   11.90
  -3  -1  -6  224.68   24.80
   3   1   6  217.98   20.50
  -4  -1  -6  139.69   20.70
  -4  -1  -6  125.29   10.30
   4   1   6  140.29   19.70
  -5  -1  -6   35.40    7.50
  -5  -1  -6   46.40   16.50
   5   1   6    7.10   13.70
   5   1   6   59.79   16.60
  -6  -1  -6  167.48   13.20
  -6  -1  -6  169.98   26.00
   6   1   6  144.99   25.30
  -7  -1  -6   84.39   22.40
  -7  -1  -6   67.79   10.30
   7   1   6    8.80   16.30
   7   1   6   58.39   19.50
 -10   2   6  115.99   10.80
 -10   2   6  130.89   11.80
  -9   2   6  165.68   12.30
  -9   2   6  166.98   15.20
  -9   2   6  165.98   11.40
   8  -2  -6   10.30   17.90
  -8   2   6   68.29    8.10
  -8   2   6   65.59    8.50
  -8   2   6   69.69   10.30
  -7   2   6  113.89    9.90
  -7   2   6  111.99   11.90
  -7   2   6  105.79    8.80
   6  -2  -6   12.60   15.30
  -6   2   6   28.20    6.10
  -6   2   6   27.40    7.00
  -6   2   6   19.20    5.10
   5  -2  -6    5.90   14.60
  -5   2   6    7.70    4.70
  -5   2   6    7.40    5.10
  -5   2   6    6.90    4.30
   4  -2  -6   36.20   17.50
  -4   2   6   36.20    5.80
  -4   2   6   32.70    6.30
  -4   2   6   41.60    8.50
   3  -2  -6   37.10   15.30
  -3   2   6   40.80    9.10
  -3   2   6   39.20    6.80
   2  -2  -6   66.39   16.30
   2  -2  -6   57.59    7.80
  -2   2   6   57.19    8.20
  -2   2   6   53.89   11.20
   1  -2  -6  229.28   12.60
   1  -2  -6  249.48   24.70
  -1   2   6  245.38   23.60
  -1   2   6  235.28   15.00
   0  -2  -6  590.94   21.30
   0  -2  -6  579.74   38.70
   0   2   6  626.24   27.10
   0   2   6  516.75   40.60
  -1  -2  -6  297.17   27.00
  -1  -2  -6  297.97   14.20
   1   2   6  323.57   20.50
  -2  -2  -6  586.64   22.20
  -2  -2  -6  615.34   41.40
   2   2   6  602.34   32.30
  -3  -2  -6  128.59   20.10
  -3  -2  -6  120.49   10.10
   3   2   6  112.09   18.10
  -4  -2  -6  112.09   19.60
  -4  -2  -6  120.89   10.10
   4   2   6  129.49   21.70
  -5  -2  -6    6.90    5.90
  -5  -2  -6    5.30   11.70
   5   2   6    5.40   13.40
   5   2   6   -3.40   10.80
  -6  -2  -6   24.70    7.80
  -6  -2  -6   14.00   13.90
   6   2   6    3.10   15.00
   6   2   6   34.10   17.20
  -7  -2  -6   18.50   16.10
  -7  -2  -6   27.70    9.00
   7   2   6   27.30   16.90
   7   2   6   10.50   18.60
  10  -3  -6   -6.30   18.70
 -10   3   6   -1.10    5.50
 -10   3   6    2.70    5.50
   9  -3  -6   -1.50   15.40
  -9   3   6   -0.70    4.90
  -9   3   6    4.00    5.20
  -8   3   6   82.49    8.70
  -8   3   6   78.99   10.70
  -8   3   6   71.29    8.80
   7  -3  -6    3.00   14.20
  -7   3   6   36.60    7.60
  -7   3   6   30.00    6.30
  -7   3   6   36.30    7.10
  -6   3   6  447.96   19.90
  -6   3   6  446.66   24.60
  -6   3   6  438.96   17.80
   5  -3  -6  117.49   30.10
  -5   3   6  199.98   11.50
  -5   3   6  194.28   15.00
  -5   3   6  193.08   12.50
   4  -3  -6  415.66   44.10
  -4   3   6  467.05   18.80
  -4   3   6  481.45   21.00
  -4   3   6  463.85   26.80
   3  -3  -6  806.12   58.49
   3  -3  -6  871.71   32.10
  -3   3   6  876.71   32.70
  -3   3   6  964.90   46.00
   2  -3  -6  300.07   16.00
   2  -3  -6  304.27   30.80
  -2   3   6  335.77   26.40
  -2   3   6  329.17   17.90
   1  -3  -6   77.09   15.50
   1  -3  -6   64.89    8.10
  -1   3   6   77.09   10.30
  -1   3   6   92.79   18.00
   0  -3  -6   10.40    9.60
   0  -3  -6   12.60    4.90
   0   3   6   14.70    7.40
   0   3   6   10.00    9.40
  -1  -3  -6    0.70    8.00
  -1  -3  -6    5.90    4.60
   1   3   6    9.90    7.90
   1   3   6    2.60    8.60
  -2  -3  -6   62.09   15.70
  -2  -3  -6   61.19    7.40
   2   3   6   63.59   14.30
   2   3   6   32.10   15.40
  -3  -3  -6   14.00    5.90
  -3  -3  -6   26.50   13.20
   3   3   6    4.40   11.00
   3   3   6    8.90   11.40
  -4  -3  -6   60.89   17.80
  -4  -3  -6   56.69    8.80
   4   3   6   49.70   17.60
   4   3   6   14.10   15.20
  -5  -3  -6   79.19   10.60
  -5  -3  -6   73.09   20.30
   5   3   6   16.70   17.40
   5   3   6   57.19   19.30
  -6  -3  -6   46.30   18.80
  -6  -3  -6   31.80    8.70
   6   3   6   18.30   18.90
   6   3   6   29.10   18.00
  10  -4  -6    6.30   19.10
 -10   4   6   42.80    8.00
 -10   4   6   56.09    9.00
  -9   4   6  124.29   11.10
  -9   4   6  137.99   11.20
  -8   4   6  140.49   10.90
  -8   4   6  159.28   12.40
  -7   4   6  290.17   15.00
  -7   4   6  325.27   16.80
  -7   4   6  314.27   19.00
   6  -4  -6   -5.30   12.30
  -6   4   6   -0.50    4.10
  -6   4   6    0.90    4.80
  -6   4   6    5.70    5.00
   5  -4  -6    7.00   15.10
  -5   4   6   11.00    5.60
  -5   4   6    7.70    5.10
  -5   4   6   17.00    6.30
   4  -4  -6   42.40   21.00
  -4   4   6   50.29    9.90
  -4   4   6   33.70    7.00
  -4   4   6   60.99    9.00
   3  -4  -6  241.18   31.50
   3  -4  -6  214.08   14.90
  -3   4   6  218.08   20.10
  -3   4   6  217.68   14.90
   2  -4  -6   37.20   15.40
   2  -4  -6   33.60    7.30
  -2   4   6   51.39   13.60
  -2   4   6   46.90    8.90
   1  -4  -6   51.59   15.40
   1  -4  -6   44.60    7.60
  -1   4   6   46.20    9.60
  -1   4   6   25.20   11.90
   0  -4  -6  290.97   28.90
   0  -4  -6  285.17   15.20
   0   4   6  275.47   20.60
  -1  -4  -6   16.10   11.60
  -1  -4  -6   10.50    5.00
   1   4   6   22.40   10.00
   1   4   6   11.30   11.20
  -2  -4  -6  517.45   21.80
  -2  -4  -6  517.35   39.80
   2   4   6  509.05   34.30
  -3  -4  -6   37.10    7.70
  -3  -4  -6   43.30   15.30
   3   4   6   31.20   14.30
   3   4   6    7.10   12.80
  -4  -4  -6   93.69   10.80
  -4  -4  -6  102.29   22.40
   4   4   6   91.99   21.70
  -5  -4  -6   35.10   17.10
  -5  -4  -6   37.20    8.80
   5   4   6   24.40   17.20
   5   4   6    1.40   14.20
  -6  -4  -6    0.60   14.30
  -6  -4  -6   -3.50    6.30
   6   4   6    6.80   15.30
   6   4   6    7.80   16.60
   9  -5  -6   -3.00   17.40
  -9   5   6    0.40    5.50
  -9   5   6    3.70    5.50
   8  -5  -6    7.20   17.30
  -8   5   6    8.50    5.70
  -8   5   6    4.80    5.60
   7  -5  -6    0.60   13.60
  -7   5   6    8.10    5.80
  -7   5   6    9.50    5.60
   6  -5  -6    5.70   16.30
  -6   5   6   15.30    5.60
  -6   5   6   17.00    6.30
  -6   5   6   16.20    6.40
   5  -5  -6    1.80   16.40
  -5   5   6   12.40    6.20
  -5   5   6   11.70    6.10
  -5   5   6    7.90    5.60
   4  -5  -6  502.55   55.19
  -4   5   6  697.53   26.20
  -4   5   6  718.23   37.20
  -4   5   6  669.93   28.30
   3  -5  -6   96.09   26.20
   3  -5  -6  103.29   11.40
  -3   5   6  102.49   11.10
  -3   5   6  125.89   17.10
   2  -5  -6  581.04   24.70
   2  -5  -6  564.04   48.30
  -2   5   6  566.14   41.60
  -2   5   6  601.44   28.60
   1  -5  -6  201.28   26.80
   1  -5  -6  192.38   13.00
  -1   5   6  131.69   22.00
  -1   5   6  195.68   17.20
   0  -5  -6   79.99    9.40
   0  -5  -6   75.19   18.30
   0   5   6   81.99   14.30
   0   5   6   31.30   14.30
  -1  -5  -6    8.80   10.90
  -1  -5  -6   14.40    6.00
   1   5   6    5.40    9.70
   1   5   6   11.30    9.80
  -2  -5  -6    0.40    4.70
  -2  -5  -6    3.90   10.70
   2   5   6   -4.40    9.60
   2   5   6   -2.90   10.70
  -3  -5  -6    8.90    6.10
  -3  -5  -6    3.20   11.10
   3   5   6    2.90   12.40
   3   5   6   11.60   13.00
  -4  -5  -6   11.30    6.90
  -4  -5  -6   15.90   14.30
   4   5   6    4.40   14.10
   4   5   6   16.50   16.10
  -5  -5  -6   47.90   19.50
  -5  -5  -6   51.99   10.50
   5   5   6   31.40   20.00
   5   5   6    3.00   15.90
   9  -6  -6    5.70   18.70
  -9   6   6   57.39    9.10
  -9   6   6   56.59    9.10
   8  -6  -6   18.30   22.40
  -8   6   6   88.79   10.00
  -8   6   6   92.39   11.00
  -7   6   6  147.89   11.80
  -7   6   6  160.08   12.90
   6  -6  -6   58.19   26.90
  -6   6   6  132.99   11.60
  -6   6   6  146.29   12.50
   5  -6  -6   23.40   19.10
  -5   6   6   63.99    9.90
  -5   6   6   62.39   11.10
  -5   6   6   53.79    8.80
   4  -6  -6    9.40   16.80
  -4   6   6   11.10    6.50
  -4   6   6    4.70    6.10
  -4   6   6    4.50    6.60
   3  -6  -6   21.70   19.20
   3  -6  -6   29.20    8.70
  -3   6   6   38.10    9.20
  -3   6   6   45.80   13.40
   2  -6  -6   10.40    6.10
   2  -6  -6    9.50   15.50
  -2   6   6    5.90    9.40
  -2   6   6    7.10    7.20
   1  -6  -6    5.90    6.10
   1  -6  -6   -0.70   11.50
  -1   6   6   -0.40    8.20
  -1   6   6   -1.60    7.20
   0  -6  -6    5.40   11.90
   0  -6  -6    3.70    5.80
   0   6   6    1.70    8.90
   0   6   6    2.50    8.90
  -1  -6  -6   50.49    8.80
  -1  -6  -6   49.40   17.70
   1   6   6   41.30   14.50
   1   6   6   14.50   13.50
  -2  -6  -6   81.49   10.80
  -2  -6  -6   68.39   19.50
   2   6   6   69.99   18.00
  -3  -6  -6   68.19   19.90
  -3  -6  -6   71.89   10.80
   3   6   6   43.10   17.30
   3   6   6   16.00   16.70
  -4  -6  -6   65.29   11.00
  -4  -6  -6   66.79   20.60
   4   6   6    7.50   16.80
   4   6   6   45.00   20.00
   8  -7  -6   -3.30   19.70
  -8   7   6    5.20    6.40
  -8   7   6    5.90    6.50
   7  -7  -6    5.50   19.20
  -7   7   6    2.90    6.00
  -7   7   6   -2.50    5.70
   6  -7  -6   -5.40   16.00
  -6   7   6    4.40    6.70
  -6   7   6    2.90    6.10
   5  -7  -6    3.50   17.70
  -5   7   6    9.10    6.80
  -5   7   6   11.00    7.20
   4  -7  -6   27.20   22.90
  -4   7   6   59.39   13.30
  -4   7   6   45.20   10.00
  -4   7   6   52.69    9.60
   3  -7  -6   75.09   11.80
   3  -7  -6   61.79   26.30
  -3   7   6   78.59   12.90
  -3   7   6   86.69   18.20
   2  -7  -6  232.98   36.50
   2  -7  -6  221.18   16.40
  -2   7   6  177.28   26.00
  -2   7   6  247.78   20.30
   1  -7  -6  157.68   30.80
   1  -7  -6  161.58   14.00
  -1   7   6  150.58   18.30
   0  -7  -6   38.80    8.60
   0  -7  -6   48.80   19.90
   0   7   6   46.90   14.00
   0   7   6   17.40   13.10
  -1  -7  -6   42.20    9.00
  -1  -7  -6   59.59   20.40
   1   7   6   46.60   15.60
   1   7   6    6.60   13.00
  -2  -7  -6    4.30   13.70
  -2  -7  -6    3.10    6.50
   2   7   6    1.60   12.80
   2   7   6   -1.70   11.90
  -3  -7  -6    0.50   13.70
  -3  -7  -6    0.20    6.60
   3   7   6   -3.80   14.50
   3   7   6   -1.50   13.70
  -7   8   6  114.09   12.20
  -7   8   6  107.69   12.40
   6  -8  -6   15.60   21.80
  -6   8   6   40.70    9.10
  -6   8   6   40.90    9.90
   5  -8  -6   15.60   21.60
  -5   8   6   72.99   11.10
  -5   8   6   85.79   12.90
   4  -8  -6   13.90   21.30
  -4   8   6   25.60    9.40
  -4   8   6   29.20    8.90
   3  -8  -6    2.60    7.70
   3  -8  -6   -0.60   16.00
  -3   8   6    2.50    8.00
  -3   8   6    6.60   10.80
   2  -8  -6    0.30    7.10
   2  -8  -6    3.00   17.60
  -2   8   6    5.50    8.80
  -2   8   6    1.10   10.00
   1  -8  -6    5.00    7.00
   1  -8  -6    4.50   16.10
  -1   8   6    0.80    9.90
  -1   8   6    2.50   10.20
   0  -8  -6    0.30    6.60
   0  -8  -6    7.60   16.10
   0   8   6    0.20   10.20
   0   8   6    0.30   10.70
  -1  -8  -6   -1.70   13.30
  -1  -8  -6    4.50    6.80
   1   8   6    6.20   12.80
   1   8   6   -3.10   11.70
   2   8   6    0.80   13.30
  -6   9   6   -7.10    7.60
  -6   9   6    4.10    7.50
   5  -9  -6    2.30   21.00
  -5   9   6   -1.20    7.20
  -5   9   6    3.20    7.70
   4  -9  -6   16.80   21.40
  -4   9   6    9.60    8.70
  -4   9   6   12.10    8.40
   3  -9  -6    4.10   20.40
   3  -9  -6   20.10    9.40
  -3   9   6   11.00    9.50
   2  -9  -6   23.60   22.80
   2  -9  -6   27.00   10.20
  -2   9   6   21.00   11.90
  -2   9   6   23.40   15.30
   1  -9  -6   74.69   12.40
   1  -9  -6   68.49   28.40
  -1   9   6   27.70   16.30
  -1   9   6   76.89   17.10
   0   9   6    7.30   13.60
  -2  -9   7    2.90    8.30
  -1  -9   7   25.00   10.10
   0  -9   7   34.80   11.00
   1  -9   7   47.70   11.60
   2  -9   7   70.59   13.60
  -4  -8   7    9.80    6.60
  -4  -8   7    3.80    8.40
  -3  -8   7   47.60    8.30
  -3  -8   7   47.90   12.00
  -2  -8   7   91.79   14.80
  -1  -8   7   55.89   12.30
   0  -8   7   98.99   14.70
   1  -8   7   45.60   10.90
  -2   8  -7   27.30   13.20
   2  -8   7   23.80    9.20
  -3   8  -7    3.60   11.50
   3  -8   7   -1.90    6.80
  -4   8  -7    4.00   12.90
  -5  -7   7   47.00   12.20
  -5  -7   7   43.10    8.50
  -4  -7   7   48.90   11.70
  -4  -7   7   52.69    8.80
  -3  -7   7   -6.70    6.80
  -3  -7   7    0.20    5.30
  -2  -7   7    1.20    6.90
  -2  -7   7    0.70    5.10
  -1  -7   7   27.20    9.40
  -1  -7   7   27.40    6.00
   0   7  -7   20.30   10.50
   0  -7   7   28.30    9.40
  -1   7  -7   71.19   15.70
   1  -7   7   79.49   13.10
  -2   7  -7   79.39   17.30
   2  -7   7   63.29   12.40
  -3   7  -7   52.49   16.80
   3  -7   7   56.79   11.80
  -4   7  -7  112.79   22.90
   4  -7   7  146.19   16.80
  -5   7  -7   22.80   15.20
  -6  -6   7    2.50    7.70
  -6  -6   7    4.70    6.70
  -5  -6   7   20.90    6.70
  -5  -6   7   19.20    9.10
  -4  -6   7   44.70   11.10
  -4  -6   7   43.00    7.60
  -3  -6   7   46.20   10.90
  -3  -6   7   44.10    7.00
  -2  -6   7  258.47   20.70
  -2  -6   7  242.18   12.80
   1   6  -7   39.00   12.30
  -1  -6   7   60.99   11.70
  -1  -6   7   53.69    6.90
   0   6  -7  716.53   42.50
   0  -6   7  763.12   39.70
   0  -6   7  701.63   23.70
  -1   6  -7   43.90   13.20
   1  -6   7   48.00   10.70
  -2   6  -7  128.09   20.10
   2  -6   7  142.89   16.10
  -3   6  -7   92.89   18.60
   3  -6   7   91.09   14.20
  -4   6  -7   30.70   15.00
   4  -6   7   24.50   10.20
  -5   6  -7   -3.50   11.30
   5  -6   7    0.10    7.70
  -6   6  -7    9.30   14.50
  -7  -5   7    2.10    7.80
  -7  -5   7    4.70    6.20
  -6  -5   7  106.99   15.00
  -6  -5   7   98.89   10.70
  -5  -5   7   55.89   11.70
  -5  -5   7   57.19    8.20
  -4  -5   7  165.48   11.40
  -4  -5   7  165.48   17.00
   3   5  -7   54.09   15.90
  -3  -5   7   67.29   12.10
  -3  -5   7   66.19    7.70
   2   5  -7   79.29   16.20
  -2  -5   7   70.09    7.30
  -2  -5   7   82.39   12.50
   1   5  -7   18.90   10.00
  -1  -5   7   26.20    8.90
  -1  -5   7   20.60    4.90
   0   5  -7    2.50    8.20
   0  -5   7    1.30    6.40
   0  -5   7   -1.60    3.50
  -1   5  -7   23.40   11.00
   1  -5   7   24.50    8.80
   1  -5   7   16.40    4.00
  -2   5  -7   37.20   13.30
   2  -5   7   33.00   10.00
  -3   5  -7   80.99   18.40
   3  -5   7   77.09   14.10
  -4   5  -7   33.40   15.10
   4  -5   7   45.20   11.90
  -5   5  -7  107.99   24.00
   5  -5   7  134.39   18.90
  -6   5  -7   61.09   19.60
   6  -5   7   68.19   16.40
  -8  -4   7    8.90    6.60
  -8  -4   7   13.50    8.90
  -7  -4   7   51.99    8.70
  -7  -4   7   52.69   12.10
  -6  -4   7    8.50    7.50
  -6  -4   7   12.90    4.70
  -6  -4   7   10.70    5.60
   5   4  -7    5.40   13.90
  -5  -4   7   13.70    4.00
  -5  -4   7    8.60    5.20
  -5  -4   7   16.30    8.10
   4   4  -7   39.00   17.00
  -4  -4   7   54.29   10.90
  -4  -4   7   50.29    5.00
  -4  -4   7   40.40    6.60
   3   4  -7   49.00   14.70
  -3  -4   7   64.39    7.10
  -3  -4   7   64.29   11.30
  -3  -4   7   64.49    4.50
   2   4  -7  120.59   17.40
  -2  -4   7  125.59    8.60
  -2  -4   7  113.99    4.90
  -2  -4   7  115.49   14.10
   1   4  -7  224.58   22.50
  -1  -4   7  253.97   20.10
  -1  -4   7  234.48   11.50
   0   4  -7  361.26   28.70
   0  -4   7  373.66   14.60
   0  -4   7  392.26   26.10
   0  -4   7  387.16   11.00
  -1   4  -7  372.96   29.80
  -1   4  -7  367.26   12.70
   1  -4   7  382.16   14.20
   1  -4   7  383.96   26.50
  -2   4  -7  366.66   13.40
  -2   4  -7  374.46   31.40
   2  -4   7  405.56   27.80
   2  -4   7  367.96   13.80
  -3   4  -7   56.99    6.50
  -3   4  -7   56.99   15.90
   3  -4   7   67.99   14.10
  -4   4  -7   65.19    7.60
  -4   4  -7   66.29   18.00
   4  -4   7   61.89   14.80
  -5   4  -7   18.10    5.90
  -5   4  -7   15.00   14.00
   5  -4   7   11.00   11.30
  -6   4  -7   -2.00   11.30
  -6   4  -7   -0.70    5.40
   6  -4   7   -8.80   10.20
  -7   4  -7   80.39   10.60
  -7   4  -7   79.79   23.40
   7  -4   7   74.79   21.60
  -8  -3   7   13.30    5.60
  -8  -3   7   12.60    6.50
  -8  -3   7    9.70    8.20
  -7  -3   7  158.08   12.20
  -7  -3   7  154.88    9.70
  -7  -3   7  147.29   16.40
   6   3  -7   38.60   19.90
  -6  -3   7  110.79    9.90
  -6  -3   7  101.09   13.60
  -6  -3   7  118.79    7.90
   5   3  -7   45.50   18.80
  -5  -3   7   73.49   12.20
  -5  -3   7   73.19    8.20
  -5  -3   7   79.49    6.40
   4   3  -7  408.06   38.70
  -4  -3   7  425.36   17.90
  -4  -3   7  421.26   13.80
  -4  -3   7  443.36   27.20
   3   3  -7  385.66   32.40
  -3  -3   7  388.76   16.50
  -3  -3   7  374.56   25.00
  -3  -3   7  385.16   12.40
   2   3  -7  190.68   21.60
  -2  -3   7  191.58   17.20
  -2  -3   7  193.28    7.60
  -2  -3   7  194.08    8.20
  -2  -3   7  190.58   10.60
   1   3  -7  185.18   20.70
  -1  -3   7  181.78    7.70
  -1  -3   7  174.68   16.90
  -1  -3   7  184.78   10.10
  -1  -3   7  180.98    7.20
   0   3  -7    2.90    3.40
   0   3  -7   -1.00    7.40
   0  -3   7    2.90    6.40
   0  -3   7    3.10    3.50
   0  -3   7    3.90    2.40
  -1   3  -7    0.00    3.00
  -1   3  -7    0.50    7.80
   1  -3   7   -0.10    3.40
   1  -3   7    5.60    7.00
  -2   3  -7   -0.50    8.50
  -2   3  -7    1.30    3.50
   2  -3   7   -0.50    3.60
   2  -3   7    6.60    7.80
  -3   3  -7   75.39   17.50
  -3   3  -7   83.19    7.50
   3  -3   7   83.89    7.70
   3  -3   7   73.09   16.00
  -4   3  -7    1.90   10.80
  -4   3  -7    3.50    4.70
   4  -3   7    7.00   10.10
  -5   3  -7  119.99   10.30
  -5   3  -7  108.19   23.40
   5  -3   7  121.39   22.60
  -6   3  -7   81.19   21.30
  -6   3  -7   99.49   10.50
   6  -3   7   93.19   23.30
  -7   3  -7   32.40   17.80
  -7   3  -7   48.50    8.90
   7  -3   7   31.40   19.60
  -9  -2   7  113.79   10.20
  -9  -2   7  124.89   12.20
  -9  -2   7  108.99   15.50
  -8  -2   7  124.39   15.20
  -8  -2   7  120.79   11.40
  -8  -2   7  113.79    9.50
   7   2  -7    3.20   14.60
  -7  -2   7   22.40    5.40
  -7  -2   7   19.10    6.40
  -7  -2   7   14.80    7.70
   6   2  -7   46.20   20.80
  -6  -2   7  105.69    7.70
  -6  -2   7  116.39    9.90
  -6  -2   7  107.49   13.60
   5   2  -7   -0.40   13.20
  -5  -2   7    3.70    4.40
  -5  -2   7    1.80    5.80
  -5  -2   7    2.50    3.40
   4   2  -7    2.00   12.40
  -4  -2   7   -0.20    3.10
  -4  -2   7    3.60    4.40
  -4  -2   7    2.70    5.80
   3   2  -7   28.80   13.20
  -3  -2   7   33.60    4.30
  -3  -2   7   25.80    5.40
  -3  -2   7   34.40    8.80
   2   2  -7   90.59   16.20
  -2  -2   7   92.19   12.70
  -2  -2   7   95.09    6.40
  -2  -2   7   98.09    8.00
   1   2  -7   35.40   11.90
   1   2  -7   29.20    5.40
  -1  -2   7   35.30    5.90
  -1  -2   7   34.20    9.50
  -1  -2   7   37.10    4.60
   0   2  -7   96.59   16.00
   0   2  -7  103.29    7.50
   0  -2   7  108.09    8.60
   0  -2   7  115.19   15.00
  -1   2  -7  538.35   37.80
  -1   2  -7  561.74   18.90
   1  -2   7  564.54   21.60
   1  -2   7  587.94   36.80
  -2   2  -7  314.07   13.40
  -2   2  -7  329.47   29.10
   2  -2   7  333.77   16.10
   2  -2   7  348.87   29.10
  -3   2  -7  196.68   24.60
  -3   2  -7  202.58   11.20
   3  -2   7  201.78   24.90
   3  -2   7  228.28   14.10
  -4   2  -7  201.68   26.70
  -4   2  -7  233.38   12.90
   4  -2   7  220.28   28.80
   4  -2   7  235.38   15.50
  -5   2  -7   -0.30    5.30
  -5   2  -7    4.60   12.00
   5  -2   7    0.10   12.60
  -6   2  -7    0.30   12.30
  -6   2  -7    5.60    6.00
   6  -2   7    6.80   16.10
  -7   2  -7    0.50    6.00
  -7   2  -7    2.80   13.90
   7  -2   7   -5.20   16.20
   9   1  -7   16.20   20.40
  -9  -1   7   11.00    6.20
  -9  -1   7   15.60    8.30
  -9  -1   7   13.50    7.20
   8   1  -7    0.90   14.00
  -8  -1   7    9.20    5.90
  -8  -1   7    8.10    7.20
  -8  -1   7    9.10    5.20
   7   1  -7   -0.80   13.80
  -7  -1   7    0.50    5.80
  -7  -1   7    2.40    4.40
  -7  -1   7    1.40    4.80
   6   1  -7   45.50   20.80
  -6  -1   7  111.09    9.80
  -6  -1   7  109.29   13.20
  -6  -1   7  115.99    8.30
   5   1  -7  187.88   31.20
  -5  -1   7  260.57   11.30
  -5  -1   7  242.38   18.80
  -5  -1   7  243.88   13.50
   4   1  -7  228.98   29.70
  -4  -1   7  254.17   19.40
  -4  -1   7  253.17   13.40
  -4  -1   7  247.48   10.90
   3   1  -7  631.04   44.90
  -3  -1   7  636.84   23.90
  -3  -1   7  660.13   20.60
  -3  -1   7  633.94   35.10
   2   1  -7  330.87   29.00
  -2  -1   7  328.77   13.10
  -2  -1   7  326.47   15.40
  -2  -1   7  328.57   23.50
   1   1  -7  518.95   36.00
   1   1  -7  532.55   19.40
  -1  -1   7  510.65   32.00
  -1  -1   7  504.25   20.60
   0   1  -7  180.38   20.70
   0   1  -7  178.08   10.00
   0  -1   7  191.18   19.60
   0  -1   7  179.18   11.80
  -1   1  -7   72.79   15.80
  -1   1  -7   69.09    6.90
   1  -1   7   65.39   14.70
   1  -1   7   78.19    8.90
  -2   1  -7    9.30    9.90
  -2   1  -7    6.90    4.00
   2  -1   7    9.80    6.00
   2  -1   7   13.10   10.80
  -3   1  -7   12.20    5.00
  -3   1  -7   14.00   11.40
   3  -1   7    9.10    6.60
   3  -1   7   11.40   12.40
  -4   1  -7  185.38   12.10
  -4   1  -7  177.38   25.30
   4  -1   7  173.58   29.30
   4  -1   7  202.58   17.50
  -5   1  -7   14.20    6.30
  -5   1  -7   14.20   12.60
   5  -1   7   10.20   10.30
   5  -1   7   10.80   15.80
  -6   1  -7  185.88   28.50
  -6   1  -7  189.18   13.90
   6  -1   7  122.49   30.50
  -7   1  -7   39.00   17.90
  -7   1  -7   57.89    9.80
   7  -1   7   36.30   22.30
  -9   0   7  114.79   14.40
  -9   0   7  107.99    9.90
  -9   0   7  118.09   11.60
  -8   0   7  190.48   11.50
  -8   0   7  195.38   17.30
  -8   0   7  199.08   13.40
  -7   0   7  231.08   14.00
  -7   0   7  221.28   11.80
  -7   0   7  229.08   18.30
   6   0  -7   26.40   18.60
  -6   0   7   55.29    6.80
  -6   0   7   57.19   10.40
  -6   0   7   69.79    8.30
   5   0  -7  118.39   29.00
  -5   0   7  163.58    9.40
  -5   0   7  172.58   15.50
  -5   0   7  176.28   11.30
   4   0  -7    7.40   12.90
  -4   0   7   11.10    4.60
  -4   0   7   12.30    6.60
  -4   0   7   11.50    4.10
   3   0  -7   88.59   19.70
  -3   0   7   91.59    7.40
  -3   0   7   97.79    9.00
  -3   0   7  100.99   12.90
   2   0  -7   81.09    8.80
   2   0  -7   82.29   16.80
  -2   0   7   80.89    8.60
  -2   0   7   83.09   12.80
   1   0  -7    9.40    4.60
   1   0  -7   12.60   10.00
  -1   0   7   14.40    5.30
  -1   0   7   14.60    8.10
   0   0  -7  121.29   18.20
   0   0  -7  126.39    9.20
   0   0   7  121.99   17.60
   0   0   7  125.89   11.20
  -1   0  -7   55.59   14.90
  -1   0  -7   49.60    6.50
   1   0   7   48.10    8.30
   1   0   7   52.69   15.00
  -2   0  -7  296.27   14.00
  -2   0  -7  299.27   28.80
   2   0   7  273.37   31.90
   2   0   7  301.27   18.80
  -3   0  -7  497.45   39.00
  -3   0  -7  493.85   19.90
   3   0   7  428.06   43.30
   3   0   7  534.65   27.40
  -4   0  -7   87.29   20.00
  -4   0  -7   81.69    9.00
   4   0   7   46.50   20.10
   4   0   7   86.49   14.90
  -5   0  -7  243.58   15.20
  -5   0  -7  241.78   30.30
   5   0   7  252.67   24.20
   5   0   7  174.08   35.40
  -6   0  -7   -1.80    5.70
  -6   0  -7    6.60   13.20
   6   0   7    7.30   15.90
   6   0   7    7.40   12.10
   9  -1  -7    6.90   18.10
  -9   1   7   15.80    6.90
  -9   1   7   14.50    6.20
  -9   1   7   14.70    7.70
   8  -1  -7   -0.80   14.70
  -8   1   7   -0.30    5.80
  -8   1   7    2.80    5.10
  -8   1   7   -0.80    4.90
   7  -1  -7   15.00   17.80
  -7   1   7   67.59   10.90
  -7   1   7   66.49    8.80
  -7   1   7   70.49    8.30
   6  -1  -7    2.30   15.00
  -6   1   7   11.00    6.40
  -6   1   7   18.00    5.00
  -6   1   7    7.80    5.20
   5  -1  -7   27.20   18.30
  -5   1   7   39.10    7.00
  -5   1   7   42.10    6.20
  -5   1   7   34.80    8.60
   4  -1  -7  242.28   32.60
  -4   1   7  264.17   14.60
  -4   1   7  260.57   19.70
  -4   1   7  248.38   12.30
   3  -1  -7  241.28   28.70
  -3   1   7  238.08   19.40
  -3   1   7  217.38   11.90
  -3   1   7  222.98   13.60
   2  -1  -7  441.16   36.00
   2  -1  -7  424.26   19.00
  -2   1   7  437.06   20.20
  -2   1   7  431.36   29.10
   1  -1  -7  365.26   16.60
   1  -1  -7  361.86   30.90
  -1   1   7  377.56   18.90
  -1   1   7  373.96   29.00
   0  -1  -7  166.28   21.30
   0  -1  -7  158.38   10.50
   0   1   7  167.88   21.80
   0   1   7  171.68   13.30
  -1  -1  -7   85.59   17.20
  -1  -1  -7   85.69    8.10
   1   1   7   75.09   19.00
   1   1   7   91.99   12.00
  -2  -1  -7    2.40    4.30
  -2  -1  -7   -2.90    8.90
   2   1   7   -4.40    6.40
   2   1   7    4.50   11.00
  -3  -1  -7   56.39   16.90
  -3  -1  -7   54.39    7.80
   3   1   7   51.89   12.80
   3   1   7   29.00   16.60
  -4  -1  -7   -0.90    5.00
  -4  -1  -7    1.60   11.00
   4   1   7   -2.20    9.70
   4   1   7    0.30   13.00
  -5  -1  -7   40.80    8.30
  -5  -1  -7   40.70   16.70
   5   1   7   51.39   16.40
   5   1   7   10.60   17.00
  -6  -1  -7   26.50   15.80
  -6  -1  -7   27.90    8.00
   6   1   7   10.90   17.90
   6   1   7   24.20   15.60
   9  -2  -7    5.10   18.10
  -9   2   7   74.09   11.90
  -9   2   7   70.39    9.00
  -9   2   7   75.79    9.80
  -8   2   7  138.69   11.70
  -8   2   7  140.49   14.40
  -8   2   7  131.39   10.50
  -7   2   7  502.05   22.10
  -7   2   7  486.55   27.70
  -7   2   7  478.85   19.40
   6  -2  -7   53.49   25.00
  -6   2   7  125.79   10.80
  -6   2   7  132.69   13.50
  -6   2   7  117.49    9.30
   5  -2  -7  105.79   29.30
  -5   2   7  152.88   11.60
  -5   2   7  153.98   14.70
  -5   2   7  137.39   10.00
   4  -2  -7   86.29   24.00
  -4   2   7  100.19    8.90
  -4   2   7   97.39   10.00
  -4   2   7  111.79   13.50
   3  -2  -7   21.30   14.10
  -3   2   7   28.30    6.80
  -3   2   7   30.20    9.10
   2  -2  -7   23.50   13.00
   2  -2  -7   19.40    6.20
  -2   2   7   24.30    9.40
  -2   2   7   21.80    6.50
   1  -2  -7    1.10    8.30
   1  -2  -7    5.00    4.70
  -1   2   7   -0.50    4.80
  -1   2   7    2.50    7.70
   0  -2  -7   99.79    9.00
   0  -2  -7   91.39   17.80
   0   2   7   81.79   11.20
   0   2   7   77.09   18.70
  -1  -2  -7    4.50    4.60
  -1  -2  -7    1.70    8.50
   1   2   7    2.50    9.40
   1   2   7    2.10    6.70
  -2  -2  -7  317.47   30.50
  -2  -2  -7  292.87   15.20
   2   2   7  314.57   22.90
   2   2   7  204.78   31.50
  -3  -2  -7  110.99   20.70
  -3  -2  -7  107.49   10.30
   3   2   7   92.59   16.80
   3   2   7   46.40   20.00
  -4  -2  -7  309.37   17.40
  -4  -2  -7  337.07   34.60
   4   2   7  312.57   29.00
  -5  -2  -7  159.38   13.40
  -5  -2  -7  169.98   25.80
   5   2   7  172.08   26.30
   5   2   7   62.89   26.60
  -6  -2  -7   49.10    9.90
  -6  -2  -7   46.50   20.60
   6   2   7   28.90   17.20
   6   2   7    7.50   19.00
   9  -3  -7    9.00   18.40
  -9   3   7   33.30    7.30
  -9   3   7   38.80    8.20
   8  -3  -7    8.20   16.20
  -8   3   7    4.20    5.60
  -8   3   7   -1.10    5.50
  -8   3   7    3.70    5.30
   7  -3  -7   24.80   20.40
  -7   3   7  101.79   12.10
  -7   3   7   94.29    9.30
  -7   3   7  100.59   10.40
   6  -3  -7   -5.00   15.90
  -6   3   7   -0.50    4.90
  -6   3   7    2.60    5.40
  -6   3   7   -0.70    4.50
   5  -3  -7   10.30   16.10
  -5   3   7   33.20    8.70
  -5   3   7   30.50    7.10
  -5   3   7   26.90    6.30
   4  -3  -7    0.00   13.60
  -4   3   7    6.00    5.30
  -4   3   7    4.50    5.20
  -4   3   7    2.10    5.90
   3  -3  -7  439.16   22.10
   3  -3  -7  468.55   43.70
  -3   3   7  489.75   22.90
  -3   3   7  503.35   31.80
   2  -3  -7   42.10   15.70
   2  -3  -7   36.80    7.80
  -2   3   7   57.29   13.70
  -2   3   7   48.70    9.00
   1  -3  -7  218.98   14.00
   1  -3  -7  240.08   27.70
  -1   3   7  242.18   17.20
  -1   3   7  258.97   27.80
   0  -3  -7  335.17   31.30
   0  -3  -7  338.37   16.90
   0   3   7  291.77   33.00
   0   3   7  369.06   22.30
  -1  -3  -7  106.99   19.50
  -1  -3  -7  117.49   10.40
   1   3   7  109.29   15.10
   1   3   7   64.29   20.60
  -2  -3  -7   46.30    8.00
  -2  -3  -7   49.40   16.50
   2   3   7   18.40   14.70
   2   3   7   42.20   13.10
  -3  -3  -7   15.80    6.50
  -3  -3  -7    9.70   12.70
   3   3   7   18.30   12.90
   3   3   7    8.70   13.10
  -4  -3  -7    6.40   12.40
  -4  -3  -7    4.70    6.10
   4   3   7    3.10   13.90
   4   3   7   -2.00   12.00
  -5  -3  -7    4.40   14.10
  -5  -3  -7    1.10    6.60
   5   3   7   22.20   16.70
   5   3   7    6.40   17.60
   9  -4  -7   -0.80   18.50
  -9   4   7   11.40    6.40
  -9   4   7    9.10    6.40
   8  -4  -7   22.70   21.90
  -8   4   7   69.89    9.70
  -8   4   7   73.69    9.40
   7  -4  -7   45.80   26.50
  -7   4   7  129.99   10.20
  -7   4   7  136.39   11.90
  -7   4   7  143.09   13.90
  -6   4   7  316.57   17.70
  -6   4   7  309.27   20.90
  -6   4   7  296.77   15.80
   5  -4  -7  108.79   32.00
  -5   4   7  167.78   15.90
  -5   4   7  152.38   12.80
  -5   4   7  158.28   11.80
   4  -4  -7  127.99   31.00
  -4   4   7  118.59   12.10
  -4   4   7  120.69   11.20
  -4   4   7  148.49   16.00
   3  -4  -7    0.90    6.10
   3  -4  -7   10.30   15.00
  -3   4   7    5.80    6.00
  -3   4   7   12.10    8.60
   2  -4  -7   20.20    6.60
   2  -4  -7   25.20   14.80
  -2   4   7   20.90    7.50
  -2   4   7   27.00   11.70
   1  -4  -7   36.00    7.40
   1  -4  -7   34.80   15.60
  -1   4   7   43.40   15.70
  -1   4   7   37.60    9.70
   0  -4  -7  146.29   23.00
   0  -4  -7  149.79   12.10
   0   4   7  101.29   24.00
   0   4   7  138.39   16.10
  -1  -4  -7   11.80   12.20
  -1  -4  -7    5.30    5.70
   1   4   7    9.90    9.50
   1   4   7    7.90   12.80
  -2  -4  -7  154.28   24.60
  -2  -4  -7  161.08   12.80
   2   4   7  169.58   21.60
  -3  -4  -7   37.10    8.30
  -3  -4  -7   49.40   17.90
   3   4   7   23.50   14.40
   3   4   7   12.30   15.80
  -4  -4  -7   96.59   23.80
  -4  -4  -7  112.19   12.40
   4   4   7   91.39   22.20
  -5  -4  -7   98.19   25.10
  -5  -4  -7   74.79   11.90
   5   4   7   76.69   22.50
   5   4   7   16.60   21.40
   9  -5  -7   18.70   23.00
  -9   5   7   48.80    8.80
  -9   5   7   47.70    9.20
   8  -5  -7   11.80   20.60
  -8   5   7   37.10    8.50
  -8   5   7   52.29    8.60
   7  -5  -7   10.80   19.90
  -7   5   7   13.00    6.60
  -7   5   7   10.20    5.60
   6  -5  -7    2.20   16.10
  -6   5   7   27.50    7.70
  -6   5   7   25.10    7.30
  -6   5   7   29.00    8.20
   5  -5  -7   53.89   26.90
  -5   5   7  105.09   10.30
  -5   5   7  101.19   11.70
  -5   5   7  102.69   13.70
   4  -5  -7   10.00   17.40
  -4   5   7   12.90    6.70
  -4   5   7   17.80    8.50
  -4   5   7   16.80    7.10
   3  -5  -7   25.30    8.30
   3  -5  -7   17.50   16.90
  -3   5   7   30.40   11.30
  -3   5   7   33.00    8.80
   2  -5  -7  221.68   31.00
   2  -5  -7  240.48   16.30
  -2   5   7  225.28   27.50
  -2   5   7  215.58   17.20
   1  -5  -7  115.69   25.20
   1  -5  -7  106.99   11.50
  -1   5   7  116.39   23.30
  -1   5   7  116.79   15.10
   0  -5  -7  130.29   23.60
   0  -5  -7  120.59   11.20
   0   5   7  146.99   17.40
   0   5   7   70.89   21.90
  -1  -5  -7  171.68   26.50
  -1  -5  -7  186.18   13.50
   1   5   7  200.18   22.00
  -2  -5  -7  124.29   12.20
  -2  -5  -7  145.99   24.90
   2   5   7  120.19   21.50
  -3  -5  -7   44.90    9.30
  -3  -5  -7   53.89   19.70
   3   5   7    4.10   15.20
   3   5   7   28.80   15.80
  -4  -5  -7    6.60   15.10
  -4  -5  -7   12.90    7.70
   4   5   7    6.60   17.00
   4   5   7   17.40   16.90
   8  -6  -7   11.50   19.60
  -8   6   7   -0.20    5.90
  -8   6   7    0.60    6.50
   7  -6  -7   16.40   21.50
  -7   6   7   66.69   10.00
  -7   6   7   66.69   10.40
   6  -6  -7   34.50   23.90
  -6   6   7  103.09   12.10
  -6   6   7  105.19   11.20
   5  -6  -7   56.99   28.90
  -5   6   7  117.69   15.30
  -5   6   7  103.99   12.30
  -5   6   7  101.89   11.70
   4  -6  -7  111.59   33.00
  -4   6   7  128.29   14.00
  -4   6   7  127.09   12.70
  -4   6   7  152.58   17.90
   3  -6  -7   14.30    7.50
   3  -6  -7   22.80   18.80
  -3   6   7   39.70   13.50
  -3   6   7   42.00   10.10
   2  -6  -7   15.10    7.60
   2  -6  -7    9.70   14.80
  -2   6   7   16.80    9.10
  -2   6   7   23.40   13.40
   1  -6  -7    1.40   13.00
   1  -6  -7    9.80    7.00
  -1   6   7   12.70    9.20
  -1   6   7    7.40   12.20
   0  -6  -7   20.20    7.40
   0  -6  -7   27.30   16.50
   0   6   7    5.20   11.20
   0   6   7    9.00    9.70
  -1  -6  -7    4.20    6.40
  -1  -6  -7   11.40   14.30
   1   6   7    3.40   11.70
   1   6   7   23.90   13.20
  -2  -6  -7    2.00    6.60
  -2  -6  -7    3.60   13.50
   2   6   7    4.80   13.20
   2   6   7    6.40   12.70
  -3  -6  -7   15.90    8.30
  -3  -6  -7   11.80   16.10
   3   6   7    5.20   16.70
   3   6   7    0.80   15.30
   7  -7  -7   -3.60   16.30
  -7   7   7   43.50    9.30
  -7   7   7   44.20    9.80
   6  -7  -7    5.50   19.00
  -6   7   7   19.40    7.70
  -6   7   7   22.60    8.80
   5  -7  -7   13.60   20.40
  -5   7   7   33.60    9.60
  -5   7   7   22.30    8.30
   4  -7  -7   19.30   20.90
  -4   7   7   16.40    8.90
  -4   7   7   24.30   11.30
  -4   7   7   21.50    8.40
   3  -7  -7   -0.30   17.60
   3  -7  -7   -1.30    6.90
  -3   7   7    0.20    8.10
  -3   7   7    3.60   10.10
   2  -7  -7   11.30   18.90
   2  -7  -7    5.50    7.50
  -2   7   7   -1.40    7.90
  -2   7   7    5.00   12.80
   1  -7  -7   87.29   12.40
   1  -7  -7  104.99   28.40
  -1   7   7  103.49   16.70
  -1   7   7   59.89   20.10
   0  -7  -7   38.50   19.80
   0  -7  -7   36.40    9.20
   0   7   7   45.10   14.30
   0   7   7   12.60   14.70
  -1  -7  -7  106.59   27.30
  -1  -7  -7   93.79   12.80
   1   7   7   77.89   18.40
  -2  -7  -7   70.89   24.10
  -2  -7  -7   68.29   11.60
   2   7   7    9.20   16.50
   2   7   7   69.79   20.50
   6  -8  -7    4.00   22.30
  -6   8   7    5.00    7.60
  -6   8   7    9.40    7.80
   5  -8  -7   15.90   23.40
  -5   8   7   39.60    9.90
  -5   8   7   51.29   11.50
   4  -8  -7   34.80   25.50
  -4   8   7   65.99   11.50
  -4   8   7   61.29   12.60
   3  -8  -7   58.69   12.60
   3  -8  -7   34.20   25.60
  -3   8   7   65.29   19.20
  -3   8   7   71.39   14.10
   2  -8  -7    0.80   19.50
   2  -8  -7    7.10    8.20
  -2   8   7    6.10    9.50
  -2   8   7    7.70   13.70
   1  -8  -7   24.50   22.00
   1  -8  -7   32.00    9.70
  -1   8   7   36.40   13.40
  -1   8   7   11.00   14.20
   0  -8  -7    6.10    7.70
   0  -8  -7   18.60   19.30
   0   8   7    0.50   12.60
   0   8   7   11.70   12.10
  -3  -8   8   -0.50    8.40
  -2  -8   8   35.70   11.60
  -1  -8   8   35.50   11.30
   0  -8   8  372.76   27.30
   1  -8   8    6.30    8.50
   2  -8   8   92.09   15.10
  -3   8  -8   59.09   19.20
   3  -8   8   60.59   13.20
  -4  -7   8  124.49   16.80
  -4  -7   8  105.99   11.10
  -3  -7   8   68.99   14.10
  -3  -7   8   57.29    8.70
  -2  -7   8  100.59    9.50
  -2  -7   8  101.69   15.80
  -1  -7   8   39.60   11.60
   0  -7   8    3.10    7.90
  -1   7  -8   24.50   12.90
   1  -7   8   12.60    9.10
  -2   7  -8    0.60   11.20
   2  -7   8   -0.50    7.90
  -3   7  -8   47.40   17.30
   3  -7   8   54.09   12.80
  -4   7  -8    4.70   13.40
   4  -7   8    7.70    9.20
  -6  -6   8   67.29   14.10
  -6  -6   8   62.99    9.90
  -5  -6   8   13.30    6.90
  -5  -6   8   18.90    9.80
  -4  -6   8    9.00    8.50
  -4  -6   8    7.20    5.90
  -3  -6   8    2.60    7.60
  -3  -6   8    4.90    5.20
  -2  -6   8    3.30    7.50
  -2  -6   8    2.20    5.10
   1   6  -8   13.70   11.70
  -1  -6   8   10.30    8.30
  -1  -6   8    9.40    5.00
   0   6  -8   24.80   12.90
   0  -6   8   33.90   10.60
  -1   6  -8   72.59   17.40
   1  -6   8   88.89   14.40
  -2   6  -8  135.79   22.60
   2  -6   8  144.79   17.80
  -3   6  -8   63.39   18.60
   3  -6   8   70.99   14.60
  -4   6  -8   72.89   20.60
   4  -6   8   85.69   16.20
  -5   6  -8   32.40   17.80
   5  -6   8   29.00   12.00
  -7  -5   8   12.90    6.90
  -6  -5   8   47.70   12.00
  -6  -5   8   38.50    8.10
  -5  -5   8    3.00    7.70
  -5  -5   8    0.00    5.10
  -4  -5   8   67.69   13.20
  -4  -5   8   73.49    8.90
   3   5  -8  199.48   25.80
  -3  -5   8  186.88   11.80
  -3  -5   8  198.58   19.20
   2   5  -8  132.19   21.00
  -2  -5   8  129.49    9.60
  -2  -5   8  139.79   16.30
   1   5  -8  159.88   21.20
  -1  -5   8  158.58   17.40
  -1  -5   8  164.28   10.10
   0   5  -8   37.50   13.70
   0  -5   8   33.60   10.60
   0  -5   8   32.80    5.50
  -1   5  -8   17.70   11.80
   1  -5   8   13.90    8.90
  -2   5  -8    0.30   10.20
   2  -5   8    8.20    8.80
  -3   5  -8    5.00   11.60
   3  -5   8    2.70    8.40
  -4   5  -8    3.90   12.30
   4  -5   8    2.40    9.30
  -5   5  -8   41.40   19.20
   5  -5   8   52.09   15.20
  -7  -4   8  185.38   19.20
  -7  -4   8  180.88   13.60
  -6  -4   8  104.09   15.10
  -6  -4   8  110.49   10.70
  -5  -4   8   22.20    6.30
  -5  -4   8   23.00    9.30
   4   4  -8  107.79   24.90
  -4  -4   8  120.49   15.40
  -4  -4   8  111.99   10.00
   3   4  -8   -2.40   10.90
  -3  -4   8    2.70    6.70
  -3  -4   8   -3.60    3.90
   2   4  -8   -0.70    9.70
  -2  -4   8    3.00    7.10
  -2  -4   8    3.30    4.40
   1   4  -8    2.70    9.10
  -1  -4   8    3.40    4.30
  -1  -4   8   -1.50    6.80
   0   4  -8    4.70    9.30
   0  -4   8    6.40    7.80
   0  -4   8    8.40    4.30
  -1   4  -8   53.49   15.60
   1  -4   8   55.39   12.70
   1  -4   8   48.70    6.40
  -2   4  -8  217.88   26.20
   2  -4   8  228.08   22.70
  -3   4  -8  113.89   21.70
   3  -4   8  119.59   18.80
  -4   4  -8  158.58   25.90
   4  -4   8  183.18   23.00
  -5   4  -8   69.79   21.60
   5  -4   8   88.39   19.90
  -6   4  -8   51.99   21.30
   6  -4   8   67.79   19.20
  -8  -3   8   61.19    9.90
  -8  -3   8   52.49   12.50
  -7  -3   8    1.80    4.40
  -7  -3   8    3.40    7.50
  -7  -3   8    7.60    6.40
   6   3  -8    4.40   16.40
  -6  -3   8    7.40    7.50
  -6  -3   8    6.70    4.40
  -6  -3   8    5.20    5.40
   5   3  -8   20.60   18.10
  -5  -3   8   21.20    4.50
  -5  -3   8   23.60    6.20
  -5  -3   8   19.90    8.70
   4   3  -8  156.98   26.40
  -4  -3   8  159.98    8.00
  -4  -3   8  170.18   17.00
  -4  -3   8  155.18   10.90
   3   3  -8   42.50   15.80
  -3  -3   8   50.99    7.30
  -3  -3   8   46.60    5.10
  -3  -3   8   49.99   11.40
   2   3  -8  231.98   25.50
  -2  -3   8  241.08    9.50
  -2  -3   8  249.08   21.10
  -2  -3   8  233.38   12.70
   1   3  -8  408.16   33.80
  -1  -3   8  439.86   14.40
  -1  -3   8  409.46   17.40
  -1  -3   8  434.76   29.50
   0   3  -8  315.87   29.00
   0   3  -8  319.77   13.70
   0  -3   8  331.87   25.80
   0  -3   8  309.97   14.60
  -1   3  -8    8.90    4.40
  -1   3  -8   12.90   10.70
   1  -3   8   12.90    8.80
   1  -3   8    8.20    4.40
  -2   3  -8   94.29    7.90
  -2   3  -8   90.39   17.80
   2  -3   8   93.69   16.90
   2  -3   8   96.79    8.70
  -3   3  -8    5.80    4.60
  -3   3  -8    1.80    9.90
   3  -3   8    1.50    9.30
  -4   3  -8    4.70   11.40
  -4   3  -8    8.50    5.60
   4  -3   8    2.00   11.20
  -5   3  -8   16.80    6.90
  -5   3  -8   11.20   14.80
   5  -3   8    9.10   12.70
  -6   3  -8   26.80    8.10
  -6   3  -8   23.20   16.20
   6  -3   8   32.30   19.00
  -8  -2   8   52.99    7.60
  -8  -2   8   58.89    9.50
  -8  -2   8   58.99   12.50
   7   2  -8   10.60   17.30
  -7  -2   8   43.50   10.90
  -7  -2   8   63.19    9.10
  -7  -2   8   47.40    6.70
   6   2  -8   74.29   27.20
  -6  -2   8  146.49   11.40
  -6  -2   8  171.58    9.50
  -6  -2   8  158.78   16.80
   5   2  -8  155.68   30.80
  -5  -2   8  188.58   17.90
  -5  -2   8  196.38    9.80
  -5  -2   8  201.38   12.70
   4   2  -8   26.40   15.20
  -4  -2   8   27.80    6.20
  -4  -2   8   30.20    9.40
  -4  -2   8   25.80    4.70
   3   2  -8   91.59   21.00
  -3  -2   8   92.59   13.80
  -3  -2   8   94.09    6.90
  -3  -2   8   98.59    9.20
   2   2  -8   -3.10    8.60
  -2  -2   8    1.10    3.50
  -2  -2   8    2.60    6.60
  -2  -2   8    0.90    4.50
   1   2  -8    7.80   10.30
   1   2  -8   11.90    5.00
  -1  -2   8   13.70    5.30
  -1  -2   8   13.40    8.20
   0   2  -8    3.90    9.40
   0   2  -8    3.50    4.20
   0  -2   8    3.40    7.70
   0  -2   8    1.40    4.40
  -1   2  -8    5.40    4.30
  -1   2  -8    3.20    9.60
   1  -2   8    1.20    8.20
   1  -2   8    2.60    4.70
  -2   2  -8   60.79   16.60
  -2   2  -8   58.89    7.30
   2  -2   8   65.89    9.10
   2  -2   8   62.99   16.00
  -3   2  -8  142.09   23.50
  -3   2  -8  145.89   10.60
   3  -2   8  161.48   13.00
   3  -2   8  161.58   24.20
  -4   2  -8  169.98   12.10
  -4   2  -8  193.08   27.70
   4  -2   8  169.58   26.90
  -5   2  -8  134.79   12.00
  -5   2  -8  113.79   25.90
   5  -2   8  154.28   28.30
  -6   2  -8   73.39   10.60
  -6   2  -8   70.49   22.90
   6  -2   8   45.60   23.50
   9   1  -8    8.00   20.80
  -9  -1   8   51.39    8.20
  -9  -1   8   53.89   12.00
  -9  -1   8   53.39    9.60
   8   1  -8    0.20   17.80
  -8  -1   8   24.80    7.40
  -8  -1   8   21.90    9.00
  -8  -1   8   23.20    6.50
   7   1  -8   14.80   17.80
  -7  -1   8   77.59    8.10
  -7  -1   8   69.39    9.30
  -7  -1   8   74.09   12.80
   6   1  -8   -0.80   15.20
  -6  -1   8    6.70    6.90
  -6  -1   8    1.10    4.30
  -6  -1   8    5.40    5.40
   5   1  -8    1.20   14.10
  -5  -1   8    3.90    4.20
  -5  -1   8    0.90    4.70
  -5  -1   8    1.80    6.30
   4   1  -8    3.00   12.60
  -4  -1   8    4.90    3.90
  -4  -1   8    2.20    4.70
  -4  -1   8    2.90    6.30
   3   1  -8  157.38   24.20
  -3  -1   8  151.58   11.30
  -3  -1   8  143.39    9.00
  -3  -1   8  147.79   16.50
   2   1  -8   94.19   18.80
  -2  -1   8   97.69   14.40
  -2  -1   8  107.79    9.70
  -2  -1   8  101.79    8.50
   1   1  -8  634.24   45.20
   1   1  -8  725.93   25.20
  -1  -1   8  746.03   27.50
  -1  -1   8  687.53   41.40
   0   1  -8  234.88   12.50
   0   1  -8  234.88   26.20
   0  -1   8  250.57   14.80
   0  -1   8  237.78   23.60
  -1   1  -8  442.46   36.30
  -1   1  -8  424.86   17.70
   1  -1   8  458.05   21.30
   1  -1   8  456.65   35.50
  -2   1  -8   96.59   20.60
  -2   1  -8  101.09    9.20
   2  -1   8  108.19   12.10
   2  -1   8  101.19   20.20
  -3   1  -8   16.60   13.30
  -3   1  -8    9.50    5.20
   3  -1   8   12.20    7.90
   3  -1   8   12.70   13.30
  -4   1  -8    1.00   11.40
  -4   1  -8    2.40    5.10
   4  -1   8    2.10   14.20
   4  -1   8    2.40    7.80
  -5   1  -8   17.50    6.80
  -5   1  -8   10.30   14.60
   5  -1   8   16.60   18.50
  -6   1  -8   22.50    7.80
  -6   1  -8   21.20   17.20
   6  -1   8   13.70   19.50
   9   0  -8    5.70   18.70
  -9   0   8    1.30    5.70
  -9   0   8   -0.90    6.90
  -9   0   8   -2.00    5.90
   8   0  -8    1.70   17.20
  -8   0   8    4.50    5.90
  -8   0   8    1.30    6.70
  -8   0   8   10.10    5.40
   7   0  -8   36.70   22.50
  -7   0   8   95.59   10.20
  -7   0   8  104.09   13.80
  -7   0   8   82.79    8.80
   6   0  -8   23.50   21.00
  -6   0   8   61.29    7.80
  -6   0   8   51.29   10.80
  -6   0   8   50.59    8.30
   5   0  -8  248.98   37.40
  -5   0   8  278.57   21.80
  -5   0   8  302.87   16.20
  -5   0   8  305.57   13.70
   4   0  -8  127.79   25.60
  -4   0   8  150.08    9.60
  -4   0   8  146.69   11.40
  -4   0   8  143.59   16.10
   3   0  -8  153.58   24.70
  -3   0   8  161.78   17.40
  -3   0   8  164.08   10.40
  -3   0   8  166.28   12.00
   2   0  -8   74.79   18.50
   2   0  -8   63.49    8.80
  -2   0   8   70.29    9.00
  -2   0   8   70.39   13.40
   1   0  -8   39.30   13.70
   1   0  -8   41.00    7.10
  -1   0   8   43.60    8.00
  -1   0   8   47.60   12.50
   0   0  -8    7.50    9.70
   0   0  -8    9.10    5.10
   0   0   8   13.40    6.10
   0   0   8   12.90   10.00
  -1   0  -8   54.39    7.50
  -1   0  -8   47.20   15.50
   1   0   8   61.19   10.00
   1   0   8   65.79   17.30
  -2   0  -8   12.30   12.40
  -2   0  -8    2.50    4.70
   2   0   8    4.70   11.80
   2   0   8    0.70    6.70
  -3   0  -8    5.00    5.30
  -3   0  -8    2.70   10.30
   3   0   8    0.90    7.50
   3   0   8    2.50   13.10
  -4   0  -8  114.29   24.90
  -4   0  -8  123.99   11.70
   4   0   8  123.89   17.30
   4   0   8  129.89   31.30
  -5   0  -8  127.79   12.20
  -5   0  -8  122.79   26.80
   5   0   8  122.69   32.90
   5   0   8  138.79   19.70
  -6   0  -8   54.29   10.40
   6   0   8   27.90   22.20
   9  -1  -8    2.50   18.50
  -9   1   8   55.49    8.60
  -9   1   8   50.79    9.30
  -9   1   8   68.99   12.60
   8  -1  -8   -3.10   15.30
  -8   1   8    6.20    6.00
  -8   1   8    7.10    6.90
  -8   1   8    1.40    5.60
  -7   1   8  250.97   20.00
  -7   1   8  254.27   13.70
  -7   1   8  237.78   15.30
   6  -1  -8    6.40   17.30
  -6   1   8   19.40    5.60
  -6   1   8   15.40    7.70
  -6   1   8   19.70    6.50
   5  -1  -8   44.80   21.60
  -5   1   8   42.00    7.80
  -5   1   8   41.40   10.20
  -5   1   8   40.00    6.80
   4  -1  -8   -4.10   11.80
  -4   1   8    6.10    5.30
  -4   1   8    6.10    4.80
  -4   1   8   10.10    7.30
   3  -1  -8   39.20   17.40
  -3   1   8   43.60   10.90
  -3   1   8   46.90    7.30
  -3   1   8   48.00    8.50
   2  -1  -8   70.59   19.10
   2  -1  -8   64.49    9.30
  -2   1   8   67.09   13.50
  -2   1   8   72.39    9.60
   1  -1  -8  162.18   12.10
   1  -1  -8  164.78   23.50
  -1   1   8  151.38   12.90
  -1   1   8  147.19   19.30
   0  -1  -8  302.97   30.60
   0  -1  -8  295.77   15.60
   0   1   8  310.57   18.70
   0   1   8  275.57   29.10
  -1  -1  -8  418.26   18.90
  -1  -1  -8  393.26   35.90
   1   1   8  440.86   39.80
   1   1   8  415.76   23.30
  -2  -1  -8  139.89   22.00
  -2  -1  -8  136.69   11.10
   2   1   8  142.09   26.80
   2   1   8  123.69   15.40
  -3  -1  -8   83.19    9.80
  -3  -1  -8   99.29   22.50
   3   1   8   68.19   23.60
   3   1   8   90.49   15.40
  -4  -1  -8   14.80    6.80
  -4  -1  -8    6.30   12.30
   4   1   8   13.90   11.80
   4   1   8   11.10   16.10
  -5  -1  -8    0.20   12.10
  -5  -1  -8    2.50    6.40
   5   1   8    7.40   12.20
   5   1   8    7.00   16.90
   9  -2  -8   19.30   22.30
  -9   2   8   12.40    6.60
  -9   2   8   25.70    9.10
  -9   2   8   17.30    7.10
   8  -2  -8    0.40   17.50
  -8   2   8    2.50    5.90
  -8   2   8    4.80    6.10
  -8   2   8    3.80    6.50
  -7   2   8  117.09   11.50
  -7   2   8  107.89   13.70
  -7   2   8  114.99   10.40
   6  -2  -8    4.70   18.10
  -6   2   8    9.30    5.90
  -6   2   8   10.70    5.30
  -6   2   8    7.90    6.90
   5  -2  -8  168.18   33.20
  -5   2   8  203.58   18.70
  -5   2   8  213.08   14.60
  -5   2   8  231.08   13.00
   4  -2  -8  547.85   52.09
  -4   2   8  575.64   34.30
  -4   2   8  587.14   25.40
  -4   2   8  546.95   22.00
   3  -2  -8   44.40   17.60
  -3   2   8   42.40    8.40
  -3   2   8   50.79   12.30
   2  -2  -8  491.75   22.80
   2  -2  -8  515.55   43.00
  -2   2   8  528.25   36.10
  -2   2   8  552.54   25.10
   1  -2  -8  127.09   21.30
   1  -2  -8  126.59   11.30
  -1   2   8  153.18   13.80
  -1   2   8  153.78   21.30
   0  -2  -8    6.20   11.40
   0  -2  -8   10.10    5.70
   0   2   8   13.10    7.90
   0   2   8   13.40   12.00
  -1  -2  -8  206.98   13.50
  -1  -2  -8  213.18   27.30
   1   2   8  208.98   30.60
   1   2   8  210.78   18.30
  -2  -2  -8   10.70    6.00
  -2  -2  -8   14.40   12.30
   2   2   8    1.10   12.00
   2   2   8   11.10    9.70
  -3  -2  -8   35.20    8.00
  -3  -2  -8   31.30   15.10
   3   2   8    9.70   15.90
   3   2   8   32.70   12.60
  -4  -2  -8   29.50   16.90
  -4  -2  -8   16.10    7.70
   4   2   8    3.30   15.90
   4   2   8   16.80   13.90
  -5  -2  -8   78.19   23.60
  -5  -2  -8   66.79   11.10
   5   2   8   30.40   23.70
   5   2   8   51.79   19.00
   9  -3  -8    1.60   19.20
  -9   3   8   17.50    7.00
  -9   3   8   14.00    7.30
   8  -3  -8   17.70   21.90
  -8   3   8   57.39    9.50
  -8   3   8   51.59   10.60
  -8   3   8   54.59    8.60
   7  -3  -8   11.10   20.20
  -7   3   8   30.70    8.90
  -7   3   8   21.50    7.20
  -7   3   8   20.70    6.50
   6  -3  -8   26.40   22.40
  -6   3   8   43.80   10.30
  -6   3   8   41.10    8.50
  -6   3   8   48.20    8.00
   5  -3  -8   85.19   29.30
  -5   3   8  127.69   15.50
  -5   3   8  125.49   10.80
  -5   3   8  127.79   12.10
   4  -3  -8   28.80   19.20
  -4   3   8   17.60    6.60
  -4   3   8   18.70    8.70
  -4   3   8   18.40    6.70
   3  -3  -8  101.49   12.10
   3  -3  -8   97.99   24.30
  -3   3   8  119.49   12.30
  -3   3   8  116.29   16.90
   2  -3  -8   17.80    7.30
   2  -3  -8   11.20   12.50
  -2   3   8   18.20    7.60
  -2   3   8   13.00    9.60
   1  -3  -8    6.10   10.90
   1  -3  -8    3.70    5.70
  -1   3   8    3.50    6.00
  -1   3   8    5.10    9.70
   0  -3  -8   67.79    9.70
   0  -3  -8   79.29   20.20
   0   3   8   58.59   19.10
   0   3   8   64.79   12.00
  -1  -3  -8   83.69   10.10
  -1  -3  -8   87.89   21.50
   1   3   8   90.69   15.20
   1   3   8   70.79   22.80
  -2  -3  -8  133.89   24.40
  -2  -3  -8  121.49   11.70
   2   3   8   87.89   27.00
   2   3   8  169.28   19.80
  -3  -3  -8   79.79   11.00
  -3  -3  -8   76.69   21.90
   3   3   8   68.59   17.70
   3   3   8   51.99   23.60
  -4  -3  -8   37.90    9.10
  -4  -3  -8   31.80   18.40
   4   3   8   13.00   20.00
   4   3   8   18.40   14.70
   8  -4  -8   14.40   22.30
  -8   4   8   26.50    7.90
  -8   4   8   27.10    7.50
   7  -4  -8    1.30   17.80
  -7   4   8   -0.90    5.80
  -7   4   8    0.30    6.10
  -7   4   8   -0.10    5.60
   6  -4  -8   29.50   22.00
  -6   4   8   45.00    9.00
  -6   4   8   53.29   11.10
  -6   4   8   48.40    8.40
   5  -4  -8   86.49   31.10
  -5   4   8  122.49   12.60
  -5   4   8  120.09   11.40
  -5   4   8  132.09   16.00
   4  -4  -8   65.49   24.70
  -4   4   8   71.19   14.30
  -4   4   8   68.39   10.00
  -4   4   8   76.09   11.50
   3  -4  -8  388.36   43.80
   3  -4  -8  393.26   21.90
  -3   4   8  434.36   23.40
  -3   4   8  421.46   31.60
   2  -4  -8  130.59   13.00
   2  -4  -8  130.49   24.90
  -2   4   8  158.88   22.50
  -2   4   8  158.58   15.20
   1  -4  -8  179.68   27.80
   1  -4  -8  158.18   13.60
  -1   4   8  173.08   17.00
  -1   4   8  172.88   27.10
   0  -4  -8  111.19   24.20
   0  -4  -8   97.39   11.20
   0   4   8  111.69   26.80
   0   4   8  110.79   15.60
  -1  -4  -8   33.40   16.40
  -1  -4  -8   29.50    7.90
   1   4   8   24.10   17.10
   1   4   8   27.40   11.50
  -2  -4  -8    7.00    6.50
  -2  -4  -8   16.40   15.10
   2   4   8    6.90   15.80
   2   4   8   10.90   11.30
  -3  -4  -8   12.50   15.30
  -3  -4  -8    3.00    6.60
   3   4   8    3.30   16.60
   3   4   8    4.70   12.70
  -4  -4  -8    5.60    7.50
   4   4   8   -4.00   15.80
   4   4   8    1.50   14.80
   8  -5  -8   13.30   22.20
  -8   5   8   31.90    8.80
  -8   5   8   39.70    8.80
   7  -5  -8    7.60   19.50
  -7   5   8   18.20    7.30
  -7   5   8   14.90    7.60
   6  -5  -8   46.20   27.80
  -6   5   8   63.19   10.70
  -6   5   8   57.89    9.50
  -6   5   8   65.39   12.80
   5  -5  -8   43.00   24.30
  -5   5   8   66.69   11.10
  -5   5   8   64.59   10.30
  -5   5   8   67.99   13.60
   4  -5  -8   40.30   24.10
  -4   5   8   43.90    9.30
  -4   5   8   47.90   12.60
  -4   5   8   47.40   10.30
   3  -5  -8   50.69   22.00
   3  -5  -8   66.59   11.80
  -3   5   8   76.79   12.40
  -3   5   8   81.79   17.10
   2  -5  -8    8.00    7.40
   2  -5  -8   10.10   14.40
  -2   5   8   15.90    8.50
  -2   5   8    9.10   11.30
   1  -5  -8   -0.60    6.40
   1  -5  -8    8.60   14.00
  -1   5   8    0.70   11.30
  -1   5   8    6.80    8.00
   0  -5  -8    6.20    6.00
   0  -5  -8    4.80   13.00
   0   5   8    6.20   13.00
   0   5   8    4.40    9.10
  -1  -5  -8   35.10   17.80
  -1  -5  -8   33.10    8.20
   1   5   8   22.00   16.30
   1   5   8   39.70   13.90
  -2  -5  -8   27.40    8.70
  -2  -5  -8   23.60   17.10
   2   5   8   17.40   13.10
   2   5   8    4.30   16.90
  -3  -5  -8   52.59   21.50
  -3  -5  -8   57.89   11.00
   3   5   8   53.69   18.90
   3   5   8    9.60   18.50
   7  -6  -8   -2.00   18.90
  -7   6   8    2.00    6.60
  -7   6   8    2.90    6.70
   6  -6  -8    7.30   19.20
  -6   6   8    4.00    6.70
  -6   6   8   -0.60    6.90
   5  -6  -8   12.30   21.80
  -5   6   8   21.60    8.90
  -5   6   8   23.90   10.00
  -5   6   8   20.90    8.40
   4  -6  -8   52.79   27.10
  -4   6   8   57.19   11.40
  -4   6   8   61.29   14.60
  -4   6   8   64.09   11.20
   3  -6  -8   33.70   10.10
   3  -6  -8   33.10   21.40
  -3   6   8   47.20   15.50
  -3   6   8   56.09   11.80
   2  -6  -8   86.09   26.80
   2  -6  -8   61.69   11.50
  -2   6   8   91.69   22.80
  -2   6   8   74.09   13.50
   1  -6  -8   70.89   11.60
   1  -6  -8   83.09   25.60
  -1   6   8   76.89   14.80
  -1   6   8   59.09   21.40
   0  -6  -8   48.00   21.40
   0  -6  -8   50.29   10.30
   0   6   8   26.30   18.30
   0   6   8   55.19   14.70
  -1  -6  -8   32.40   18.80
  -1  -6  -8   33.90    9.50
   1   6   8    8.40   15.90
   1   6   8   22.20   13.90
  -2  -6  -8    8.60    8.00
   2   6   8   -2.20   14.40
   2   6   8   13.20   14.80
   6  -7  -8    6.40   23.00
  -6   7   8   42.10   10.70
  -6   7   8   38.50    9.70
   5  -7  -8   33.60   26.90
  -5   7   8   48.60   10.60
  -5   7   8   53.19   11.60
   4  -7  -8   37.40   24.30
  -4   7   8   45.30   10.40
  -4   7   8   39.00   13.60
  -4   7   8   41.70   11.20
   3  -7  -8   53.19   12.00
   3  -7  -8   51.89   27.90
  -3   7   8   80.49   14.50
  -3   7   8   56.69   17.70
   2  -7  -8   35.10   10.30
   2  -7  -8   45.10   24.50
  -2   7   8   42.90   19.50
  -2   7   8   51.29   13.50
   1  -7  -8    3.50    7.60
   1  -7  -8    6.10   17.00
  -1   7   8    1.00   14.00
  -1   7   8   -1.50    9.70
   0  -7  -8   -1.20    7.30
   0  -7  -8   13.70   18.70
   0   7   8    7.80   12.10
   0   7   8   -1.50   14.30
  -3  -7   9    9.90    9.60
  -2  -7   9   96.69   16.60
  -1  -7   9   38.70   12.10
   0  -7   9  112.89   17.30
   1  -7   9   70.09   15.00
  -2   7  -9   32.20   16.70
   2  -7   9   32.00   12.30
  -4  -6   9   43.70   12.50
  -4  -6   9   33.80    7.60
  -3  -6   9   36.60   11.70
  -3  -6   9   32.50    7.20
  -2  -6   9   26.70    6.70
  -2  -6   9   34.90   11.80
  -1  -6   9    6.10    8.90
   0   6  -9    1.10   11.70
   0  -6   9    6.30    8.70
  -1   6  -9    8.60   12.00
   1  -6   9   -0.70    8.50
  -2   6  -9   15.20   13.90
   2  -6   9   17.40   10.60
  -3   6  -9   14.60   15.70
   3  -6   9   20.80   11.70
  -6  -5   9   15.80    9.90
  -6  -5   9   15.80    7.50
  -5  -5   9   55.79   13.20
  -5  -5   9   47.50    8.60
  -4  -5   9    3.00    5.60
  -4  -5   9    4.40    8.00
  -3  -5   9    8.30    5.70
  -3  -5   9    4.60    8.30
   2   5  -9   28.80   15.60
  -2  -5   9   21.40   10.10
  -2  -5   9   22.50    6.00
   1   5  -9  129.49   22.00
  -1  -5   9  125.09    9.80
  -1  -5   9  142.09   18.10
   0   5  -9   74.09   18.50
   0  -5   9   94.39   15.90
  -1   5  -9  156.58   23.40
   1  -5   9  174.98   20.50
  -2   5  -9  130.79   23.20
   2  -5   9  144.39   19.90
  -3   5  -9   30.00   16.60
   3  -5   9   21.00   11.90
  -4   5  -9   57.49   20.90
   4  -5   9   87.69   18.60
  -6  -4   9  138.59   17.90
  -6  -4   9  128.19   12.20
  -5  -4   9   93.49   10.40
  -5  -4   9   97.49   15.30
   4   4  -9  120.19   27.50
  -4  -4   9  133.29   11.30
  -4  -4   9  131.99   17.00
   3   4  -9   65.09   19.50
  -3  -4   9   60.89    8.00
  -3  -4   9   67.99   13.60
   2   4  -9   33.30   15.30
  -2  -4   9   33.10    6.60
  -2  -4   9   38.60   11.60
   1   4  -9   65.69   18.10
  -1  -4   9   65.29    8.10
  -1  -4   9   70.89   14.80
   0   4  -9   46.20   16.10
   0  -4   9   40.90    6.60
   0  -4   9   54.09   13.30
  -1   4  -9    0.60   10.50
   1  -4   9    1.00    8.40
  -2   4  -9    3.60   11.70
   2  -4   9    1.50    9.40
  -3   4  -9    4.80   12.80
   3  -4   9   -1.00    9.60
  -4   4  -9   41.70   19.50
   4  -4   9   56.99   17.00
  -7  -3   9   72.79   14.30
  -7  -3   9   74.09   10.30
   6   3  -9   14.30   20.60
  -6  -3   9   21.40    7.30
  -6  -3   9   24.00   10.00
   5   3  -9   24.40   21.20
  -5  -3   9   46.90   11.80
  -5  -3   9   41.90    8.10
   4   3  -9   78.09   22.80
  -4  -3   9   86.09   14.60
  -4  -3   9   90.19    9.30
   3   3  -9   15.40   14.70
  -3  -3   9   12.50    8.90
  -3  -3   9   13.80    5.90
   2   3  -9    2.40   10.70
  -2  -3   9    3.20    7.60
  -2  -3   9   -0.90    4.70
   1   3  -9   66.59   18.00
  -1  -3   9   74.49   14.70
  -1  -3   9   70.49    8.50
   0   3  -9  200.78   25.80
   0  -3   9  199.38   12.40
   0  -3   9  202.28   22.00
  -1   3  -9   42.30   16.10
   1  -3   9   51.79    7.80
   1  -3   9   43.90   13.50
  -2   3  -9  300.57   32.90
   2  -3   9  307.67   29.50
  -3   3  -9  152.08   26.30
   3  -3   9  178.18   24.60
  -4   3  -9   -1.70   13.90
   4  -3   9    6.20   12.60
   5  -3   9  134.59   26.90
   7   2  -9    5.90   18.90
  -7  -2   9    2.40    6.10
  -7  -2   9    4.70    4.90
  -7  -2   9    5.70    8.10
   6   2  -9    5.40   18.70
  -6  -2   9    2.80    5.70
  -6  -2   9    9.80    4.60
  -6  -2   9    9.10    8.30
   5   2  -9  146.69   33.50
  -5  -2   9  172.08   12.60
  -5  -2   9  167.08    9.90
  -5  -2   9  167.68   18.20
   4   2  -9  100.69   25.70
  -4  -2   9   93.59   15.10
  -4  -2   9  114.69    8.10
  -4  -2   9  100.69   10.40
   3   2  -9  266.07   31.70
  -3  -2   9  259.27   11.80
  -3  -2   9  247.38   22.60
  -3  -2   9  266.27   15.20
   2   2  -9   17.30   13.20
  -2  -2   9   20.80    6.40
  -2  -2   9   17.30    4.90
  -2  -2   9   16.00    9.10
   1   2  -9  116.09   21.20
   1   2  -9  118.89   10.60
  -1  -2   9  129.29   10.90
  -1  -2   9  112.89   17.00
   0   2  -9    5.70   10.60
   0   2  -9   12.10    5.60
   0  -2   9   17.10    6.30
   0  -2   9   21.60   11.10
  -1   2  -9  103.09   19.60
  -1   2  -9   79.49    8.80
   1  -2   9   84.79   17.90
   1  -2   9   84.49   10.50
  -2   2  -9    9.90    5.40
  -2   2  -9    9.50   11.80
   2  -2   9   13.70    7.00
   2  -2   9   13.80   11.40
  -3   2  -9    0.40   11.20
  -3   2  -9    4.30    5.40
   3  -2   9   -1.00   11.00
  -4   2  -9   22.00   16.90
  -4   2  -9   14.80    6.70
   4  -2   9   15.80   15.50
  -5   2  -9   69.29   23.30
  -5   2  -9   64.69   10.40
   5  -2   9   47.30   21.60
   8   1  -9   13.60   21.60
  -8  -1   9   30.30    6.90
  -8  -1   9   32.70    8.30
  -8  -1   9   41.80   11.60
   7   1  -9   76.79   30.00
  -7  -1   9  180.58   13.80
  -7  -1   9  202.18   19.40
  -7  -1   9  193.48   11.20
   6   1  -9   40.40   23.70
  -6  -1   9   67.19   13.20
  -6  -1   9   64.19    9.50
  -6  -1   9   58.09    7.40
   5   1  -9   81.19   27.80
  -5  -1   9  110.39   10.80
  -5  -1   9  105.59    8.60
  -5  -1   9  121.09   15.90
   4   1  -9   68.19   23.20
  -4  -1   9   72.39   13.50
  -4  -1   9   76.19    9.30
  -4  -1   9   66.99    7.50
   3   1  -9  132.49   24.70
  -3  -1   9  141.49    9.60
  -3  -1   9  126.39   17.10
  -3  -1   9  143.99   11.70
   2   1  -9   40.90   16.20
  -2  -1   9   46.40    8.20
  -2  -1   9   46.00   12.60
  -2  -1   9   46.30    7.20
   1   1  -9    4.60   11.20
   1   1  -9    2.80    5.60
  -1  -1   9    5.60    8.60
  -1  -1   9    4.40    6.00
   0   1  -9   36.20   15.40
   0   1  -9   38.60    7.10
   0  -1   9   41.10    8.40
   0  -1   9   42.90   13.60
  -1   1  -9  169.38   11.70
  -1   1  -9  151.88   23.50
   1  -1   9  181.68   23.80
   1  -1   9  184.98   14.40
  -2   1  -9  181.28   12.60
  -2   1  -9  188.78   27.20
   2  -1   9  201.88   27.10
   2  -1   9  207.28   15.80
  -3   1  -9   83.09   22.20
  -3   1  -9   75.29    9.80
   3  -1   9   92.69   23.90
   3  -1   9   81.99   12.50
  -4   1  -9  180.58   28.60
  -4   1  -9  193.88   14.30
   4  -1   9  199.38   32.90
  -5   1  -9   33.50    9.00
   5  -1   9   26.50   20.20
   8   0  -9    9.10   21.30
  -8   0   9   41.30    8.70
  -8   0   9   41.00   10.90
  -8   0   9   35.80    7.20
   7   0  -9    5.80   19.60
  -7   0   9    1.40    7.10
  -7   0   9   -2.90    5.20
  -7   0   9   -3.00    5.60
   6   0  -9    7.10   19.00
  -6   0   9   18.90    8.80
  -6   0   9   13.30    5.70
  -6   0   9   12.60    6.50
   5   0  -9    7.10   17.10
  -5   0   9    9.90    5.00
  -5   0   9   10.40    8.00
  -5   0   9    8.00    5.90
   4   0  -9   63.59   22.20
  -4   0   9   59.69    7.80
  -4   0   9   66.39   13.30
  -4   0   9   64.29    9.40
   3   0  -9  109.49   25.20
  -3   0   9  133.99   10.40
  -3   0   9  130.79   17.10
  -3   0   9  128.09   11.80
   2   0  -9   95.89   11.10
   2   0  -9   97.59   21.90
  -2   0   9  108.19   11.30
  -2   0   9   97.19   16.40
   1   0  -9   68.99    9.30
   1   0  -9   70.49   18.70
  -1   0   9   80.69   11.00
  -1   0   9   69.39   15.80
   0   0  -9   14.40   12.70
   0   0  -9    9.70    5.80
   0   0   9   16.90    7.40
   0   0   9    9.30   10.40
  -1   0  -9  142.39   24.30
  -1   0  -9  150.98   11.70
   1   0   9  158.58   24.50
   1   0   9  155.48   14.80
  -2   0  -9    8.30    5.50
  -2   0  -9    2.80   11.90
   2   0   9    0.90    6.90
   2   0   9    6.50   13.30
  -3   0  -9   84.89   10.60
  -3   0  -9   66.39   21.30
   3   0   9   82.39   13.90
   3   0   9   68.69   22.50
  -4   0  -9    2.30    6.20
  -4   0  -9    3.20   14.10
   4   0   9   -5.40    9.50
   4   0   9   -9.90   14.80
   8  -1  -9    0.00   17.90
  -8   1   9   15.70    7.30
  -8   1   9   18.10    6.60
  -8   1   9   20.40    9.10
   7  -1  -9  102.69   34.50
  -7   1   9  205.48   14.90
  -7   1   9  209.28   12.80
  -7   1   9  212.18   19.50
   6  -1  -9   33.60   24.70
  -6   1   9   57.69    8.10
  -6   1   9   61.29    9.60
  -6   1   9   60.29   12.30
   5  -1  -9  143.09   35.30
  -5   1   9  167.68   18.40
  -5   1   9  170.08   11.50
  -5   1   9  178.48   13.70
   4  -1  -9  190.88   32.60
  -4   1   9  198.98   20.00
  -4   1   9  185.68   14.20
  -4   1   9  177.88   11.90
   3  -1  -9   -2.80   12.70
  -3   1   9    2.90    5.70
  -3   1   9   10.70    5.70
  -3   1   9    3.60    7.70
   2  -1  -9  186.58   14.20
   2  -1  -9  210.28   29.10
  -2   1   9  184.28   14.80
  -2   1   9  219.78   23.00
   1  -1  -9   21.20   14.00
   1  -1  -9   18.70    6.90
  -1   1   9   24.10    8.50
  -1   1   9   27.00   12.60
   0  -1  -9   25.70   14.80
   0  -1  -9   24.80    7.20
   0   1   9   24.10    8.30
   0   1   9   31.70   14.30
  -1  -1  -9   41.20   16.10
  -1  -1  -9   39.30    7.90
   1   1   9   33.60   10.10
   1   1   9   37.80   16.60
  -2  -1  -9  104.39   10.90
  -2  -1  -9   96.89   23.00
   2   1   9  108.79   27.10
   2   1   9  108.59   15.00
  -3  -1  -9  116.19   11.90
  -3  -1  -9  121.69   27.00
   3   1   9  122.49   31.10
   3   1   9  138.59   17.50
  -4  -1  -9   80.09   24.20
  -4  -1  -9   90.39   11.90
   4   1   9   77.59   28.80
   4   1   9   65.89   15.80
   8  -2  -9   20.70   23.00
  -8   2   9   51.39    9.60
  -8   2   9   49.99    8.60
  -8   2   9   58.09   12.20
   7  -2  -9   23.60   24.60
  -7   2   9   70.19    9.10
  -7   2   9   68.49   10.40
  -7   2   9   72.89   13.40
   6  -2  -9   20.30   21.20
  -6   2   9   20.80    9.00
  -6   2   9   20.30    7.30
  -6   2   9   15.80    6.60
   5  -2  -9   15.70   19.30
  -5   2   9   20.30    6.60
  -5   2   9   20.10    9.40
  -5   2   9   25.30    7.80
   4  -2  -9    6.60   14.40
  -4   2   9    4.60    5.90
  -4   2   9    7.80    8.00
  -4   2   9    8.50    6.50
   3  -2  -9    0.50   12.10
  -3   2   9    4.30    6.40
  -3   2   9    2.50    8.20
   2  -2  -9  133.39   13.20
   2  -2  -9  137.39   25.80
  -2   2   9  132.99   19.70
  -2   2   9  146.79   13.90
   1  -2  -9  190.48   14.30
   1  -2  -9  212.48   28.20
  -1   2   9  220.08   17.00
  -1   2   9  193.28   24.90
   0  -2  -9   -1.70    9.70
   0  -2  -9    3.50    5.70
   0   2   9    0.80   11.50
   0   2   9    6.40    8.30
  -1  -2  -9  240.78   30.60
  -1  -2  -9  261.47   16.30
   1   2   9  286.07   21.50
   1   2   9  279.67   35.80
  -2  -2  -9    7.20    6.90
  -2  -2  -9   10.30   13.90
   2   2   9   11.40   10.00
   2   2   9   20.00   17.30
  -3  -2  -9   90.89   24.30
  -3  -2  -9   84.39   11.70
   3   2   9   96.29   29.60
   3   2   9   95.99   18.00
  -4  -2  -9   12.30    7.90
   4   2   9   15.60   21.20
   4   2   9   14.90   13.10
   8  -3  -9   17.90   23.20
  -8   3   9   27.50   10.00
  -8   3   9   31.50    8.10
  -8   3   9   25.40    8.30
   7  -3  -9    6.60   20.70
  -7   3   9   24.00    7.30
  -7   3   9   33.30   10.40
  -7   3   9   31.20    8.70
   6  -3  -9   39.50   25.60
  -6   3   9   41.80   11.10
  -6   3   9   53.09    9.70
  -6   3   9   49.60    8.60
   5  -3  -9  163.48   39.40
  -5   3   9  176.78   19.10
  -5   3   9  179.28   13.10
  -5   3   9  170.98   14.60
   4  -3  -9   15.70   17.50
  -4   3   9   11.70    8.90
  -4   3   9   11.40    7.30
  -4   3   9   11.50    6.80
   3  -3  -9  157.08   15.10
   3  -3  -9  156.58   29.90
  -3   3   9  180.88   15.60
  -3   3   9  184.78   21.60
   2  -3  -9    0.70    6.50
   2  -3  -9    0.50   13.00
  -2   3   9    0.70    8.80
  -2   3   9    3.40    6.40
   1  -3  -9   42.30    9.20
   1  -3  -9   43.30   18.40
  -1   3   9   43.50   16.20
  -1   3   9   29.10    9.50
   0  -3  -9   15.90    7.10
   0  -3  -9   16.40   13.50
   0   3   9   22.60    9.40
   0   3   9   12.20   14.30
  -1  -3  -9    7.10   13.80
  -1  -3  -9    8.40    6.50
   1   3   9    7.90    9.40
   1   3   9    4.70   14.60
  -2  -3  -9   30.10   17.40
  -2  -3  -9   34.50    8.70
   2   3   9   25.60   19.90
   2   3   9   23.00   12.30
  -3  -3  -9   52.49   21.20
  -3  -3  -9   38.70    9.60
   3   3   9   22.90   21.70
   3   3   9   42.70   16.40
   7  -4  -9   18.40   23.80
  -7   4   9   52.59    9.20
  -7   4   9   56.99   12.50
  -7   4   9   50.39   10.10
   6  -4  -9   35.20   25.10
  -6   4   9   47.60    9.20
  -6   4   9   52.29   10.10
  -6   4   9   45.40   11.60
   5  -4  -9   24.90   22.40
  -5   4   9   39.90    8.80
  -5   4   9   45.10   12.10
  -5   4   9   45.10   10.00
   4  -4  -9   -3.20   16.40
  -4   4   9    2.70    8.30
  -4   4   9    5.80    6.90
  -4   4   9    6.10    7.00
   3  -4  -9    5.10    7.40
   3  -4  -9   -2.50   13.80
  -3   4   9    2.20    6.10
  -3   4   9    0.40    8.40
   2  -4  -9   25.10    8.60
   2  -4  -9   33.90   19.50
  -2   4   9   30.40    9.80
  -2   4   9   26.30   13.20
   1  -4  -9   72.29   22.90
   1  -4  -9   53.09   10.20
  -1   4   9   67.39   13.40
  -1   4   9   71.09   20.50
   0  -4  -9  168.28   28.80
   0  -4  -9  121.99   13.20
   0   4   9  149.49   31.40
   0   4   9  153.28   18.30
  -1  -4  -9   43.00    9.50
  -1  -4  -9   35.60   19.00
   1   4   9   19.40   19.20
   1   4   9   44.50   13.80
  -2  -4  -9   69.99   23.70
  -2  -4  -9   73.99   11.70
   2   4   9   79.89   18.30
   2   4   9   60.29   25.90
   7  -5  -9    9.00   22.50
  -7   5   9   11.70    8.10
  -7   5   9   14.70    7.50
   6  -5  -9   13.30   22.90
  -6   5   9   15.80    7.80
  -6   5   9   11.80    9.10
  -6   5   9    6.80    7.40
   5  -5  -9   27.10   25.00
  -5   5   9   39.80    9.50
  -5   5   9   39.40   12.40
  -5   5   9   28.10    9.50
   4  -5  -9   48.20   25.20
  -4   5   9   55.89   11.60
  -4   5   9   54.89   10.60
  -4   5   9   56.29   14.50
   3  -5  -9   47.00   11.10
   3  -5  -9   50.29   24.60
  -3   5   9   59.49   11.90
  -3   5   9   58.69   15.70
   2  -5  -9   50.89   22.90
   2  -5  -9   43.70   10.30
  -2   5   9   50.19   17.30
  -2   5   9   42.00   11.60
   1  -5  -9    2.60   15.10
   1  -5  -9    2.60    7.10
  -1   5   9   -0.40    8.70
  -1   5   9   10.40   14.30
   0  -5  -9   46.30   10.40
   0  -5  -9   43.90   20.80
   0   5   9   59.99   23.30
   0   5   9   53.09   14.30
  -1  -5  -9    7.90   16.00
  -1  -5  -9    0.00    7.20
   1   5   9    2.20   17.10
   1   5   9    5.70   11.30
   6  -6  -9   10.60   22.30
  -6   6   9   57.89   10.90
  -6   6   9   44.50   10.90
   5  -6  -9   14.60   24.40
  -5   6   9   22.80    9.10
  -5   6   9   26.90    9.80
  -5   6   9   23.60   11.30
   4  -6  -9    6.30   20.90
  -4   6   9    7.00    8.40
  -4   6   9   11.30    8.10
  -4   6   9    3.70    9.50
   3  -6  -9    2.00    8.20
   3  -6  -9   -7.20   17.20
  -3   6   9   -1.20    9.80
  -3   6   9   -1.20    8.00
   2  -6  -9    9.70    8.50
   2  -6  -9   12.20   18.40
  -2   6   9    4.80   12.80
  -2   6   9    2.40    8.50
   1  -6  -9   34.80   10.40
   1  -6  -9   28.10   19.90
  -1   6   9   36.80   20.50
  -1   6   9   32.50   12.70
   0   6   9   15.20   12.10
   0   6   9    9.70   17.80
  -2  -6  10   59.99   15.00
  -1  -6  10   70.29   15.80
   0   6 -10   39.60   17.90
   0  -6  10   46.20   13.90
  -1   6 -10   23.50   16.10
   1  -6  10   32.00   13.20
  -4  -5  10    3.90    6.10
  -4  -5  10    4.00    9.40
  -3  -5  10   81.09   15.80
  -3  -5  10   72.89    9.30
   2   5 -10   27.10   17.00
  -2  -5  10   21.90    6.40
  -2  -5  10   19.80   11.10
   1   5 -10    4.70   13.50
  -1  -5  10    1.20    8.90
   0   5 -10    0.30   13.70
   0  -5  10    5.50   10.00
  -1   5 -10    6.80   13.70
   1  -5  10   -0.70    9.50
  -2   5 -10   61.29   20.60
   2  -5  10   88.99   18.70
  -5  -4  10    7.20    6.90
  -5  -4  10   14.90   10.10
  -4  -4  10    7.10    9.10
  -4  -4  10    2.30    6.00
   3   4 -10  102.59   25.10
  -3  -4  10  108.69   17.30
  -3  -4  10   95.19   10.20
   2   4 -10   40.30   17.20
  -2  -4  10   46.50   13.20
  -2  -4  10   29.60    7.00
   1   4 -10   94.69   22.20
  -1  -4  10  101.39   17.50
  -1  -4  10   98.29    9.50
   0   4 -10   50.99   18.30
   0  -4  10   49.40   14.50
  -1   4 -10   83.49   21.70
   1  -4  10   90.89   18.70
  -2   4 -10   25.60   16.80
   2  -4  10   23.10   12.90
  -3   4 -10    8.40   15.50
   3  -4  10    3.70   11.70
  -6  -3  10    7.70    9.10
  -6  -3  10    8.70    6.80
   5   3 -10   34.30   24.00
  -5  -3  10   32.30    7.90
  -5  -3  10   31.50   11.60
   4   3 -10   77.09   24.90
  -4  -3  10   76.19    9.60
  -4  -3  10   78.19   15.30
   3   3 -10   28.80   18.10
  -3  -3  10   30.40    7.50
  -3  -3  10   37.90   12.20
   2   3 -10  153.18   25.60
  -2  -3  10  137.79   11.90
  -2  -3  10  158.68   20.10
   1   3 -10    7.60   13.30
  -1  -3  10    7.90    6.00
  -1  -3  10    6.00    9.30
   0   3 -10   49.90   18.10
   0  -3  10   39.90   13.50
   0  -3  10   45.40    7.90
  -1   3 -10    8.00   13.00
   1  -3  10   -3.30    9.40
  -2   3 -10   18.50   15.60
   2  -3  10    0.10   10.60
  -3   3 -10   20.30   17.10
   3  -3  10   20.80   14.80
   6   2 -10   23.90   24.00
  -6  -2  10   48.00    9.40
  -6  -2  10   49.30   12.80
   5   2 -10    0.20   18.00
  -5  -2  10    0.10    8.00
  -5  -2  10    2.30    6.00
   4   2 -10    0.70   14.60
  -4  -2  10    2.90    8.30
  -4  -2  10   -0.10    5.70
   3   2 -10   35.40   18.30
  -3  -2  10   70.49    9.50
  -3  -2  10   60.09   14.20
   2   2 -10   59.99   19.90
  -2  -2  10   64.19    9.40
  -2  -2  10   53.69   14.00
   1   2 -10   79.19   21.40
  -1  -2  10   97.89   17.30
  -1  -2  10   96.29   10.80
   0   2 -10   63.39   19.90
   0  -2  10   67.69    9.70
   0  -2  10   71.59   17.00
  -1   2 -10  107.39   24.70
   1  -2  10  127.39   21.60
   1  -2  10  128.19   12.40
  -2   2 -10   25.80   16.70
   2  -2  10   32.50   15.50
  -3   2 -10   54.09   19.90
   3  -2  10   64.89   20.60
   7   1 -10   65.29   30.20
  -7  -1  10   96.89    9.70
  -7  -1  10  118.79   12.50
  -7  -1  10  109.89   16.90
   6   1 -10   10.70   21.40
  -6  -1  10    5.80    8.50
  -6  -1  10    6.50    6.60
  -6  -1  10    3.30    5.30
   5   1 -10   77.09   28.80
  -5  -1  10   71.49    8.70
  -5  -1  10   76.39   15.20
  -5  -1  10   74.19   10.20
   4   1 -10   80.09   25.90
  -4  -1  10   74.99   14.90
  -4  -1  10   68.39   10.00
  -4  -1  10   67.39    8.00
   3   1 -10   67.59   22.30
  -3  -1  10   67.99    8.70
  -3  -1  10   65.79    9.80
  -3  -1  10   65.99   14.80
   2   1 -10  117.59   26.40
  -2  -1  10  129.69   12.70
  -2  -1  10  138.19   19.30
  -2  -1  10  135.29   11.00
   1   1 -10  139.69   12.90
   1   1 -10  134.39   25.00
  -1  -1  10  141.29   13.30
  -1  -1  10  145.49   20.50
   0   1 -10   56.79   19.30
   0   1 -10   63.39    9.30
   0  -1  10   60.49   10.50
   0  -1  10   85.69   18.50
  -1   1 -10    8.80   13.70
  -1   1 -10    7.20    6.10
   1  -1  10    7.60    6.90
   1  -1  10    7.20   11.20
  -2   1 -10    4.30   13.90
  -2   1 -10    7.30    6.20
   2  -1  10    1.80   12.10
   2  -1  10    8.30    7.70
  -3   1 -10   15.40    7.30
  -3   1 -10   18.50   16.00
   3  -1  10   13.50   15.80
   7   0 -10    3.90   21.80
  -7   0  10    3.20    8.20
  -7   0  10    1.30    5.80
  -7   0  10    4.40    6.80
   6   0 -10  107.69   34.60
  -6   0  10  118.59   12.40
  -6   0  10  115.99   17.10
  -6   0  10  121.49   10.50
   5   0 -10   21.90   21.50
  -5   0  10   24.80    7.90
  -5   0  10   27.30   10.60
  -5   0  10   17.20    6.00
   4   0 -10   13.00   18.10
  -4   0  10   21.20    6.40
  -4   0  10   16.90    7.40
  -4   0  10   20.10   10.30
   3   0 -10   34.30   18.80
  -3   0  10   40.00   12.60
  -3   0  10   43.80    9.10
  -3   0  10   32.10    7.40
   2   0 -10  123.29   23.90
   2   0 -10  111.09   12.30
  -2   0  10   93.49   12.40
  -2   0  10  121.39   18.90
   1   0 -10   51.49    9.30
   1   0 -10   57.89   20.00
  -1   0  10   49.10   10.40
  -1   0  10   68.99   16.80
   0   0 -10    8.30    6.50
   0   0 -10   12.00   14.10
   0   0  10   15.50   12.30
   0   0  10   10.60    7.60
  -1   0 -10  159.38   27.60
  -1   0 -10  176.58   13.90
   1   0  10  181.28   27.00
   1   0  10  187.48   16.70
  -2   0 -10   10.80    6.90
  -2   0 -10   14.80   15.60
   2   0  10    9.40    9.10
   2   0  10    4.80   14.10
  -3   0 -10  109.49   27.50
  -3   0 -10  109.29   12.50
   3   0  10  127.19   17.00
   3   0  10  116.49   29.20
   7  -1 -10    0.60   19.00
  -7   1  10    5.30    7.00
  -7   1  10   -1.10    7.30
  -7   1  10    0.30    6.00
   6  -1 -10   23.40   24.50
  -6   1  10   27.00   10.80
  -6   1  10   25.00    6.90
  -6   1  10   22.10    8.20
   5  -1 -10  109.19   33.10
  -5   1  10  123.49   11.30
  -5   1  10  127.59   17.50
  -5   1  10  118.19   12.50
   4  -1 -10    0.80   15.00
  -4   1  10    9.50    6.20
  -4   1  10    8.30    9.10
  -4   1  10    5.50    6.90
   3  -1 -10  252.17   35.00
  -3   1  10  277.57   18.10
  -3   1  10  258.27   15.80
  -3   1  10  257.57   25.20
   2  -1 -10   64.69   10.90
   2  -1 -10   66.69   21.70
  -2   1  10   60.59   11.10
  -2   1  10   65.99   16.10
   1  -1 -10  147.79   13.20
   1  -1 -10  152.08   27.20
  -1   1  10  172.88   23.90
  -1   1  10  170.28   16.10
   0  -1 -10   79.39   10.90
   0  -1 -10   68.99   21.70
   0   1  10   83.79   13.20
   0   1  10   82.89   20.30
  -1  -1 -10   51.59   19.50
  -1  -1 -10   57.09    9.80
   1   1  10   68.79   21.00
   1   1  10   60.09   12.70
  -2  -1 -10    6.90   13.90
  -2  -1 -10   10.20    7.40
   2   1  10   14.40   16.80
   2   1  10    1.60    9.60
   7  -2 -10   16.20   25.60
  -7   2  10   40.20    9.70
  -7   2  10   27.70    7.70
  -7   2  10   28.80   10.90
   6  -2 -10   15.40   23.40
  -6   2  10   33.60   11.30
  -6   2  10   32.20    8.90
  -6   2  10   40.40    8.10
   5  -2 -10   33.10   23.80
  -5   2  10   38.20   12.10
  -5   2  10   24.70    7.30
  -5   2  10   34.20    9.20
   4  -2 -10   98.09   30.00
  -4   2  10  110.59   12.90
  -4   2  10  108.89   17.60
  -4   2  10  108.69   11.40
   3  -2 -10    5.20   14.00
  -3   2  10   -0.30    8.70
  -3   2  10    4.60    7.10
   2  -2 -10    4.70   13.30
   2  -2 -10   11.00    8.10
  -2   2  10   11.80   10.90
  -2   2  10    8.70    7.80
   1  -2 -10    7.20    7.00
   1  -2 -10    1.80   12.90
  -1   2  10    2.80    7.80
  -1   2  10    1.20   10.50
   0  -2 -10   17.60    7.60
   0  -2 -10   17.70   15.80
   0   2  10   19.00    9.40
   0   2  10   18.80   15.00
  -1  -2 -10   37.70   19.10
  -1  -2 -10   32.20    8.80
   1   2  10   46.20   20.00
   1   2  10   21.00   10.60
  -2  -2 -10   22.00    8.50
  -2  -2 -10   22.40   17.60
   2   2  10   19.60   12.10
   2   2  10   29.40   20.30
  -7   3  10    8.00    7.10
   6  -3 -10   -4.30   21.50
  -6   3  10    4.10    7.30
  -6   3  10    4.30    8.40
  -6   3  10    3.40    6.60
   5  -3 -10   27.70   24.30
  -5   3  10   26.70    8.80
  -5   3  10   38.10   12.50
  -5   3  10   27.80    8.20
   4  -3 -10   22.60   20.90
  -4   3  10   30.40   12.20
  -4   3  10   27.90    9.20
  -4   3  10   33.80    9.00
   3  -3 -10   74.99   12.80
   3  -3 -10   83.49   27.30
  -3   3  10  104.29   18.60
  -3   3  10   96.19   13.80
   2  -3 -10   41.90   10.30
   2  -3 -10   41.60   20.40
  -2   3  10   56.99   16.80
  -2   3  10   55.19   11.80
   1  -3 -10   72.49   23.50
   1  -3 -10   89.29   12.40
  -1   3  10  105.49   23.70
  -1   3  10   73.99   13.90
   0  -3 -10   93.59   25.20
   0  -3 -10   94.99   13.00
   0   3  10   81.49   14.90
   0   3  10  112.29   26.20
  -1  -3 -10   20.10    8.80
  -1  -3 -10   27.10   18.50
   1   3  10   19.10   18.20
   1   3  10   22.60   11.70
   6  -4 -10   39.50   28.50
  -6   4  10   63.19   11.50
  -6   4  10   84.39   16.10
  -6   4  10   63.19   10.60
   5  -4 -10   41.50   26.80
  -5   4  10   46.60   13.50
  -5   4  10   56.69   11.70
  -5   4  10   54.19   10.40
   4  -4 -10   18.80   22.10
  -4   4  10   48.20   14.40
  -4   4  10   45.30   10.80
  -4   4  10   41.80   10.00
   3  -4 -10   58.19   23.70
   3  -4 -10   63.99   12.50
  -3   4  10   62.69   16.90
  -3   4  10   55.39   12.00
   2  -4 -10   25.10   19.40
   2  -4 -10   14.60    8.50
  -2   4  10   31.60   10.80
  -2   4  10   16.60   13.10
   1  -4 -10    7.30    7.80
   1  -4 -10   -0.20   16.00
  -1   4  10    3.40   12.80
  -1   4  10   10.60    9.80
   0  -4 -10    5.50   15.30
   0  -4 -10   -0.30    7.30
   0   4  10    0.00    9.80
   0   4  10   -0.30   14.00
  -5   5  10   11.10    8.60
   4  -5 -10    2.00   20.10
  -4   5  10   -2.00    8.00
  -4   5  10   -2.50    7.60
  -4   5  10    3.40   10.00
   3  -5 -10   13.00   19.30
   3  -5 -10   15.20    9.40
  -3   5  10    6.60   11.40
  -3   5  10   21.20   10.10
   2  -5 -10   20.00    9.70
   2  -5 -10   20.30   20.80
  -2   5  10   32.60   11.50
  -2   5  10   38.10   17.20
   2   4 -11   15.90   16.60
  -2  -4  11   10.50    6.50
  -2  -4  11    9.50   10.90
   1   4 -11   24.00   17.50
  -1  -4  11   20.60   12.50
   0   4 -11   17.70   16.70
   0  -4  11   14.70   12.00
   4   3 -11   21.50   21.70
  -4  -3  11    8.80   10.10
  -4  -3  11    7.50    6.60
   3   3 -11   52.39   22.60
  -3  -3  11   51.89   14.90
  -3  -3  11   52.79    9.30
   2   3 -11   61.29   22.10
  -2  -3  11   52.09   14.90
  -2  -3  11   56.99    9.40
   1   3 -11   21.60   16.50
  -1  -3  11   33.30   13.50
  -1  -3  11   30.90    8.00
   0   3 -11   67.39   22.30
   0  -3  11   53.29   16.70
   1  -3  11   38.80   15.60
   5   2 -11   62.59   28.30
  -5  -2  11   71.69   10.90
  -5  -2  11   79.19   16.80
   4   2 -11   52.49   23.50
  -4  -2  11   50.19    9.60
  -4  -2  11   55.39   14.60
   3   2 -11   22.20   17.90
  -3  -2  11   14.10    7.60
  -3  -2  11   16.10   11.30
   2   2 -11   20.40   17.20
  -2  -2  11   28.60   12.60
  -2  -2  11   21.20    8.10
   1   2 -11    1.80   14.30
  -1  -2  11    0.10    9.90
  -1  -2  11   -3.80    6.40
   0   2 -11   -0.90   13.20
   0  -2  11    0.80   10.70
   0  -2  11   -4.60    6.50
  -1   2 -11   73.79   23.80
   1  -2  11   69.89   19.40
   5   1 -11   10.10   20.80
  -5  -1  11   -2.40    7.00
  -5  -1  11   -2.60    8.60
   4   1 -11    9.80   18.50
  -4  -1  11   15.80    8.20
  -4  -1  11   25.10   11.70
   3   1 -11    7.60   16.60
  -3  -1  11   10.90    7.60
  -3  -1  11    2.90    9.80
   2   1 -11  122.09   28.80
  -2  -1  11  124.69   13.50
  -2  -1  11  126.69   20.40
   1   1 -11   58.09   21.60
  -1  -1  11   74.19   18.10
  -1  -1  11   76.99   11.80
   0   1 -11   17.20   16.30
   0  -1  11   23.60    8.90
   0  -1  11   28.70   14.70
  -1   1 -11   64.89   22.70
   1  -1  11   68.29   19.90
   1  -1  11   60.29   11.70
   5   0 -11   65.19   29.10
  -5   0  11   78.69   16.50
  -5   0  11   79.69   12.00
  -5   0  11   75.79    9.70
   4   0 -11   27.20   22.00
  -4   0  11   50.29    8.40
  -4   0  11   46.90   14.40
  -4   0  11   46.20    9.80
   3   0 -11  123.29   30.30
  -3   0  11  150.28   12.70
  -3   0  11  145.69   21.30
  -3   0  11  133.19   13.90
   2   0 -11    3.00   15.60
  -2   0  11    7.50    7.50
  -2   0  11   14.60   11.70
   1   0 -11    1.30    7.00
   1   0 -11    7.40   14.80
  -1   0  11    6.20   11.10
  -1   0  11    2.50    7.30
   0   0 -11   88.39   11.90
   0   0 -11   88.19   24.50
   0   0  11   97.99   14.20
   0   0  11   99.69   22.30
  -1   0 -11   48.20   20.50
  -1   0 -11   40.90    9.80
   1   0  11   51.19   11.90
   1   0  11   33.90   17.40
   5  -1 -11    8.60   22.10
  -5   1  11    0.10    9.10
  -5   1  11    9.60    6.70
  -5   1  11    2.10    7.20
   4  -1 -11   23.30   20.70
  -4   1  11   41.90    8.40
  -4   1  11   30.70    9.60
  -4   1  11   32.60   12.70
   3  -1 -11   41.30   22.30
  -3   1  11   53.99    9.50
  -3   1  11   53.69   11.00
  -3   1  11   52.09   15.30
   2  -1 -11   -4.60    7.20
   2  -1 -11    1.40   15.50
  -2   1  11    5.60    8.30
  -2   1  11    1.60   10.60
   1  -1 -11   59.69   11.30
   1  -1 -11   72.59   24.40
  -1   1  11   46.80   16.40
  -1   1  11   57.39   11.70
   0  -1 -11   70.69   11.60
   0  -1 -11   64.59   22.20
   0   1  11   72.29   13.80
   0   1  11   79.99   21.50
   5  -2 -11   44.10   27.00
  -5   2  11   55.99   11.60
  -5   2  11   45.20    9.50
  -5   2  11   41.30   13.90
   4  -2 -11   16.10   21.30
  -4   2  11   40.00   14.00
  -4   2  11   30.40    9.10
  -4   2  11   37.30   10.30
   3  -2 -11   61.49   24.60
  -3   2  11   69.89   11.00
  -3   2  11   65.99   12.20
  -3   2  11   70.89   17.50
   2  -2 -11   35.70   20.50
   2  -2 -11   29.50    9.80
  -2   2  11   47.60   12.20
  -2   2  11   40.80   15.40
   1  -2 -11   32.50   19.90
   1  -2 -11   28.80    9.50
  -1   2  11   30.60   15.90
  -1   2  11   30.50   10.90
  -4   3  11   -4.50    9.30
  -4   3  11    5.70    7.70
  -4   3  11    9.10    8.80
   3  -3 -11   -1.40   16.80
  -3   3  11   -2.20    9.90
  -3   3  11    0.00    8.20
   2  -3 -11   -0.30   14.80
   2  -3 -11   12.20    9.10
  -2   3  11    2.30    8.70
  -2   3  11    0.00   11.60
;
_shelx_hkl_checksum              67408
_shelx_res_file
;
REM Solution 1  R1  0.104  Rweak  0.010,  Alpha = 0.0290  in P-1
REM Formula:  C19 N3 Br
TITL III in P1
CELL  0.71073   9.1903   9.6190   9.7443   93.132  101.859  101.684
ZERR    2.00   0.00100   0.00100   0.00110   0.0033   0.0033   0.0033
LATT  1
SFAC C H N O BR
UNIT 36 34 4 4 2
TEMP -73.150
SIZE 0.300 0.400 0.500
ACTA
L.S. 10
FMAP 2
PLAN 20 0 0.00
BOND $H
ISOR 0.01 O1 C8 C9 C10 C11
EADP O1 O100
EADP C8 C80
EADP C9 C90
EADP C10 C100
EADP C11 C110
OMIT     0   1   0  !behind beamstop
OMIT     1   6   1
OMIT    -1   6   1
OMIT     1 -10   2
HTAB
HTAB N2 Br1
MPLA 9 C1 C2 C3 C4 C5 C6 N1 C7 N2 C41 C51
MPLA C8 C9 C10 C11 O1
MPLA C80 C90 C100 C110 O100
MPLA 9 C1 C2 C3 C4 C5 C6 N1 C7 N2 C41 C51
MPLA C13 C14 C15 C16 O2
MPLA 9 C1 C2 C3 C4 C5 C6 N1 C7 N2 C41 C51
CONF
WGHT    0.031000
FVAR       0.66250   0.60807
BR1   5   -0.451134    0.721138   -0.161116    11.00000    0.02943    0.05026 =
         0.03929    0.00671    0.00565    0.00953
C1    1    0.068591    0.925414    0.169167    11.00000    0.03472    0.03521 =
         0.03278    0.01367    0.01371    0.01181
C2    1   -0.087071    0.879002    0.122246    11.00000    0.03592    0.04149 =
         0.02871    0.01376    0.00741    0.01288
C3    1   -0.186972    0.939505    0.183048    11.00000    0.03399    0.05675 =
         0.03216    0.01737    0.00999    0.02383
AFIX  43
H3    2   -0.294015    0.907646    0.149900    11.00000   -1.20000
AFIX   0
C4    1   -0.128330    1.046064    0.291797    11.00000    0.04596    0.05209 =
         0.03223    0.01963    0.01578    0.02627
C5    1    0.032141    1.094804    0.338957    11.00000    0.04912    0.04026 =
         0.02879    0.01447    0.01180    0.01684
C6    1    0.131368    1.034862    0.278362    11.00000    0.03499    0.03452 =
         0.03204    0.00773    0.00860    0.00806
AFIX  43
H6    2    0.238580    1.066962    0.309861    11.00000   -1.20000
AFIX   0
C41   1   -0.235063    1.108457    0.362179    11.00000    0.05980    0.07902 =
         0.04573    0.01368    0.02164    0.04052
AFIX 137
H41A  2   -0.340396    1.059005    0.320137    11.00000   -1.50000
H41B  2   -0.222368    1.210173    0.349157    11.00000   -1.50000
H41C  2   -0.211962    1.096842    0.463098    11.00000   -1.50000
AFIX   0
C51   1    0.095549    1.211684    0.457472    11.00000    0.06523    0.05070 =
         0.04817    0.00347    0.01843    0.02246
AFIX 137
H51A  2    0.206619    1.238468    0.470880    11.00000   -1.50000
H51B  2    0.069304    1.178080    0.544284    11.00000   -1.50000
H51C  2    0.052119    1.294810    0.434624    11.00000   -1.50000
AFIX   0
N1    3    0.136546    0.843310    0.086613    11.00000    0.02704    0.03369 =
         0.02722    0.00662    0.00616    0.00720
N2    3   -0.110737    0.771521    0.014630    11.00000    0.02434    0.04490 =
         0.02769    0.00620    0.00326    0.00828
H2    2   -0.195857    0.732253   -0.037789    11.00000    0.05338
C7    1    0.023436    0.750448   -0.004526    11.00000    0.03657    0.03692 =
         0.02681    0.01125    0.00812    0.01011
PART 1
SAME C13 > O2
C8    1    0.032404    0.646133   -0.104140    21.00000    0.04000    0.03253 =
         0.03150    0.00964    0.01040    0.00817
C9    1   -0.075958    0.551821   -0.197087    21.00000    0.02359    0.04303 =
         0.04066    0.00933    0.00221    0.00316
AFIX  43
H9    2   -0.182562    0.545709   -0.211316    21.00000   -1.20000
AFIX   0
C10   1   -0.006074    0.463914   -0.269638    21.00000    0.04688    0.03997 =
         0.03571   -0.00311    0.00627    0.00431
AFIX  43
H10   2   -0.053555    0.388670   -0.342107    21.00000   -1.20000
AFIX   0
C11   1    0.143429    0.510608   -0.213068    21.00000    0.04548    0.04185 =
         0.04339   -0.00456    0.01518    0.00872
AFIX  43
H11   2    0.220560    0.471005   -0.241448    21.00000   -1.20000
AFIX   0
O1    4    0.172362    0.621118   -0.110409    21.00000    0.03450    0.04758 =
         0.04797   -0.00588    0.01152    0.00785
PART 2
SAME C13 > O2
C80   1    0.038491    0.637205   -0.107699   -21.00000    0.04000    0.03253 =
         0.03150    0.00964    0.01040    0.00817
C90   1    0.155073    0.588823   -0.141326   -21.00000    0.02359    0.04303 =
         0.04066    0.00933    0.00221    0.00316
AFIX  43
H90   2    0.260299    0.623720   -0.100346   -21.00000   -1.20000
AFIX   0
C100  1    0.091419    0.476600   -0.248839   -21.00000    0.04688    0.03997 =
         0.03571   -0.00311    0.00627    0.00431
AFIX  43
H100  2    0.144922    0.420099   -0.294065   -21.00000   -1.20000
AFIX   0
C110  1   -0.058769    0.465127   -0.274782   -21.00000    0.04548    0.04185 =
         0.04339   -0.00456    0.01518    0.00872
AFIX  43
H110  2   -0.129526    0.397163   -0.343793   -21.00000   -1.20000
AFIX   0
O100  4   -0.099356    0.562002   -0.191040   -21.00000    0.03450    0.04758 =
         0.04797   -0.00588    0.01152    0.00785
PART 0
C12   1    0.303659    0.865499    0.101328    11.00000    0.02529    0.03940 =
         0.03394    0.00523    0.00997    0.00400
AFIX  23
H12A  2    0.350358    0.968346    0.125894    11.00000   -1.20000
H12B  2    0.324928    0.836456    0.009696    11.00000   -1.20000
AFIX   0
C13   1    0.375292    0.783133    0.211249    11.00000    0.02600    0.04192 =
         0.02804   -0.00008    0.00575    0.00697
C14   1    0.440107    0.671796    0.206797    11.00000    0.03974    0.04733 =
         0.03498    0.00150    0.00671    0.01567
AFIX  43
H14   2    0.452688    0.621619    0.124843    11.00000   -1.20000
AFIX   0
C15   1    0.486924    0.642468    0.348608    11.00000    0.04367    0.05860 =
         0.04688    0.01186    0.00526    0.02291
AFIX  43
H15   2    0.536744    0.568707    0.379623    11.00000   -1.20000
AFIX   0
C16   1    0.447840    0.737562    0.429180    11.00000    0.05345    0.08142 =
         0.03329    0.01227    0.00471    0.03477
AFIX  43
H16   2    0.465508    0.742471    0.529046    11.00000   -1.20000
AFIX   0
O2    4    0.378071    0.828239    0.347992    11.00000    0.05478    0.06841 =
         0.03285    0.00136    0.00603    0.03402
HKLF 4
REM  III in P1
REM R1 =  0.0276 for    2374 Fo > 4sig(Fo)  and  0.0383 for all    2915 data
REM    230 parameters refined using     60 restraints
END
WGHT      0.0310      0.0000
REM Instructions for potential hydrogen bonds
HTAB N2 Br1
EQIV $1 x+1, y, z
HTAB C90 Br1_$1
EQIV $2 -x, -y+2, -z
HTAB C12 Br1_$2
HTAB C12 O1
EQIV $3 x+1, y, z+1
HTAB C16 Br1_$3
REM Highest difference peak  0.421,  deepest hole -0.362,  1-sigma level  0.066
Q1    1  -0.4329  0.7784 -0.0796  11.00000  0.05    0.42
Q2    1  -0.3640  0.6806 -0.1786  11.00000  0.05    0.39
Q3    1  -0.3879  0.6432 -0.1079  11.00000  0.05    0.33
Q4    1  -0.4697  0.7153 -0.0510  11.00000  0.05    0.31
Q5    1  -0.1247  0.3827 -0.4029  11.00000  0.05    0.29
Q6    1  -0.5161  0.7821 -0.1595  11.00000  0.05    0.28
Q7    1  -0.1671  0.5857 -0.1794  11.00000  0.05    0.27
Q8    1   0.1035  0.7069 -0.0301  11.00000  0.05    0.27
Q9    1  -0.3493  0.7838 -0.1529  11.00000  0.05    0.25
Q10   1   0.2202  0.4753 -0.3062  11.00000  0.05    0.25
Q11   1  -0.4237  0.7184 -0.2759  11.00000  0.05    0.24
Q12   1  -0.5211  0.6795 -0.1796  11.00000  0.05    0.24
Q13   1  -0.0725  0.6959 -0.0845  11.00000  0.05    0.24
Q14   1  -0.3183  0.7859 -0.0971  11.00000  0.05    0.24
Q15   1  -0.5842  0.7357 -0.1190  11.00000  0.05    0.23
Q16   1   0.0589  1.0202  0.3470  11.00000  0.05    0.23
Q17   1  -0.2638  0.6770 -0.0964  11.00000  0.05    0.23
Q18   1   0.4961  0.5972  0.3545  11.00000  0.05    0.23
Q19   1  -0.0005  0.9111  0.1730  11.00000  0.05    0.22
Q20   1  -0.0858  1.1250  0.2925  11.00000  0.05    0.22
;
_shelx_res_checksum              68329
#END Tags that were not found in dictionaries
loop_
_space_group_symop_operation_xyz
'x, y, z'
'-x, -y, -z'
loop_
_atom_site_type_symbol
_atom_site_label
_atom_site_fract_x
_atom_site_fract_y
_atom_site_fract_z
_atom_site_U_iso_or_equiv
_atom_site_adp_type
_atom_site_calc_flag
_atom_site_occupancy
_atom_site_disorder_assembly
_atom_site_disorder_group
Br Br1 -0.45113(3) 0.72114(3) -0.16112(3) 0.03975(11) Uani d 1.0 . .
C C1 0.0686(3) 0.9254(3) 0.1692(2) 0.0323(6) Uani d 1.0 . .
C C2 -0.0871(3) 0.8790(3) 0.1222(2) 0.0343(6) Uani d 1.0 . .
C C3 -0.1870(3) 0.9395(3) 0.1830(3) 0.0381(6) Uani d 1.0 . .
H H3 -0.294 0.9076 0.1499 0.046 Uiso calc 1.0 . .
C C4 -0.1283(3) 1.0461(3) 0.2918(3) 0.0395(6) Uani d 1.0 . .
C C5 0.0321(3) 1.0948(3) 0.3390(2) 0.0375(6) Uani d 1.0 . .
C C6 0.1314(3) 1.0349(2) 0.2784(2) 0.0334(6) Uani d 1.0 . .
H H6 0.2386 1.067 0.3099 0.04 Uiso calc 1.0 . .
C C41 -0.2351(3) 1.1085(3) 0.3622(3) 0.0561(8) Uani d 1.0 . .
H H41A -0.3404 1.059 0.3201 0.084 Uiso calc 1.0 . .
H H41B -0.2224 1.2102 0.3492 0.084 Uiso calc 1.0 . .
H H41C -0.212 1.0968 0.4631 0.084 Uiso calc 1.0 . .
C C51 0.0955(3) 1.2117(3) 0.4575(3) 0.0525(7) Uani d 1.0 . .
H H51A 0.2066 1.2385 0.4709 0.079 Uiso calc 1.0 . .
H H51B 0.0693 1.1781 0.5443 0.079 Uiso calc 1.0 . .
H H51C 0.0521 1.2948 0.4346 0.079 Uiso calc 1.0 . .
N N1 0.1365(2) 0.8433(2) 0.08661(19) 0.0291(4) Uani d 1.0 . .
N N2 -0.1107(2) 0.7715(2) 0.0146(2) 0.0325(5) Uani d 1.0 . .
H H2 -0.196(3) 0.732(3) -0.038(3) 0.053(9) Uiso d 1.0 . .
C C7 0.0234(3) 0.7504(3) -0.0045(2) 0.0327(6) Uani d 1.0 . .
C C8 0.0324(18) 0.646(5) -0.104(6) 0.0340(12) Uani d 0.608(9) A 1
C C9 -0.0760(10) 0.5518(13) -0.1971(13) 0.0369(17) Uani d 0.608(9) A 1
H H9 -0.1826 0.5457 -0.2113 0.044 Uiso calc 0.608(9) A 1
C C10 -0.0061(9) 0.4639(7) -0.2696(7) 0.0423(18) Uani d 0.608(9) A 1
H H10 -0.0536 0.3887 -0.3421 0.051 Uiso calc 0.608(9) A 1
C C11 0.1434(9) 0.5106(7) -0.2131(8) 0.0432(14) Uani d 0.608(9) A 1
H H11 0.2206 0.471 -0.2414 0.052 Uiso calc 0.608(9) A 1
O O1 0.1724(6) 0.6211(5) -0.1104(5) 0.0436(12) Uani d 0.608(9) A 1
C C80 0.038(3) 0.637(8) -0.108(9) 0.0340(12) Uani d 0.392(9) A 2
C C90 0.1551(15) 0.5888(16) -0.1413(14) 0.0369(17) Uani d 0.392(9) A 2
H H90 0.2603 0.6237 -0.1003 0.044 Uiso calc 0.392(9) A 2
C C100 0.0914(14) 0.4766(11) -0.2488(11) 0.0423(18) Uani d 0.392(9) A 2
H H100 0.1449 0.4201 -0.2941 0.051 Uiso calc 0.392(9) A 2
C C110 -0.0588(14) 0.4651(14) -0.2748(15) 0.0432(14) Uani d 0.392(9) A 2
H H110 -0.1295 0.3972 -0.3438 0.052 Uiso calc 0.392(9) A 2
O O100 -0.0994(10) 0.5620(15) -0.1910(15) 0.0436(12) Uani d 0.392(9) A 2
C C12 0.3037(2) 0.8655(3) 0.1013(2) 0.0328(6) Uani d 1.0 . .
H H12A 0.3504 0.9683 0.1259 0.039 Uiso calc 1.0 . .
H H12B 0.3249 0.8365 0.0097 0.039 Uiso calc 1.0 . .
C C13 0.3753(2) 0.7831(3) 0.2112(2) 0.0322(6) Uani d 1.0 . .
C C14 0.4401(3) 0.6718(3) 0.2068(3) 0.0401(6) Uani d 1.0 . .
H H14 0.4527 0.6216 0.1248 0.048 Uiso calc 1.0 . .
C C15 0.4869(3) 0.6425(3) 0.3486(3) 0.0485(7) Uani d 1.0 . .
H H15 0.5367 0.5687 0.3796 0.058 Uiso calc 1.0 . .
C C16 0.4478(3) 0.7376(3) 0.4292(3) 0.0536(8) Uani d 1.0 . .
H H16 0.4655 0.7425 0.529 0.064 Uiso calc 1.0 . .
O O2 0.3781(2) 0.8282(2) 0.34799(18) 0.0497(5) Uani d 1.0 . .
loop_
_atom_site_aniso_label
_atom_site_aniso_U_11
_atom_site_aniso_U_22
_atom_site_aniso_U_33
_atom_site_aniso_U_12
_atom_site_aniso_U_13
_atom_site_aniso_U_23
Br1 0.02943(14) 0.05026(19) 0.03929(16) 0.00953(11) 0.00565(11) 0.00671(12)
C1 0.0347(13) 0.0352(15) 0.0328(14) 0.0118(11) 0.0137(11) 0.0137(12)
C2 0.0359(13) 0.0415(16) 0.0287(13) 0.0129(12) 0.0074(11) 0.0138(12)
C3 0.0340(13) 0.0568(19) 0.0322(14) 0.0238(13) 0.0100(11) 0.0174(14)
C4 0.0460(15) 0.0521(18) 0.0322(14) 0.0263(13) 0.0158(12) 0.0196(14)
C5 0.0491(15) 0.0403(16) 0.0288(14) 0.0168(13) 0.0118(12) 0.0145(12)
C6 0.0350(13) 0.0345(15) 0.0320(14) 0.0081(11) 0.0086(11) 0.0077(12)
C41 0.0598(18) 0.079(2) 0.0457(17) 0.0405(17) 0.0216(15) 0.0137(16)
C51 0.0652(19) 0.0507(19) 0.0482(17) 0.0225(15) 0.0184(15) 0.0035(15)
N1 0.0270(10) 0.0337(12) 0.0272(11) 0.0072(9) 0.0062(9) 0.0066(9)
N2 0.0243(11) 0.0449(14) 0.0277(11) 0.0083(10) 0.0033(9) 0.0062(10)
C7 0.0366(13) 0.0369(15) 0.0268(13) 0.0101(11) 0.0081(11) 0.0113(12)
C8 0.0400(18) 0.033(5) 0.032(3) 0.0082(19) 0.010(2) 0.010(2)
C9 0.024(3) 0.043(4) 0.041(3) 0.003(2) 0.002(2) 0.009(3)
C10 0.047(5) 0.040(2) 0.036(2) 0.004(4) 0.006(4) -0.0031(18)
C11 0.045(4) 0.042(3) 0.043(3) 0.009(2) 0.015(3) -0.005(2)
O1 0.034(2) 0.048(3) 0.048(2) 0.0078(17) 0.0115(17) -0.0059(16)
C80 0.0400(18) 0.033(5) 0.032(3) 0.0082(19) 0.010(2) 0.010(2)
C90 0.024(3) 0.043(4) 0.041(3) 0.003(2) 0.002(2) 0.009(3)
C100 0.047(5) 0.040(2) 0.036(2) 0.004(4) 0.006(4) -0.0031(18)
C110 0.045(4) 0.042(3) 0.043(3) 0.009(2) 0.015(3) -0.005(2)
O100 0.034(2) 0.048(3) 0.048(2) 0.0078(17) 0.0115(17) -0.0059(16)
C12 0.0253(12) 0.0394(15) 0.0339(14) 0.0040(11) 0.0100(11) 0.0052(12)
C13 0.0260(12) 0.0419(16) 0.0280(13) 0.0070(11) 0.0058(10) -0.0001(12)
C14 0.0397(14) 0.0473(17) 0.0350(15) 0.0157(13) 0.0067(12) 0.0015(13)
C15 0.0437(15) 0.059(2) 0.0469(17) 0.0229(14) 0.0053(14) 0.0119(15)
C16 0.0535(17) 0.081(2) 0.0333(15) 0.0348(17) 0.0047(14) 0.0123(16)
O2 0.0548(11) 0.0684(13) 0.0329(10) 0.0340(10) 0.0060(9) 0.0014(10)
loop_
_atom_type_symbol
_atom_type_description
_atom_type_scat_dispersion_real
_atom_type_scat_dispersion_imag
_atom_type_scat_source
C C 0.0033 0.0016 'International Tables Vol C Tables 4.2.6.8 and 6.1.1.4'
H H 0.0000 0.0000 'International Tables Vol C Tables 4.2.6.8 and 6.1.1.4'
N N 0.0061 0.0033 'International Tables Vol C Tables 4.2.6.8 and 6.1.1.4'
O O 0.0106 0.0060 'International Tables Vol C Tables 4.2.6.8 and 6.1.1.4'
Br Br -0.2901 2.4595 'International Tables Vol C Tables 4.2.6.8 and 6.1.1.4'
loop_
_geom_angle_atom_site_label_1
_geom_angle_atom_site_label_2
_geom_angle_atom_site_label_3
_geom_angle
C2 C1 C6 121.4(2)
C2 C1 N1 106.8(2)
C6 C1 N1 131.8(2)
C1 C2 N2 106.8(2)
C1 C2 C3 120.9(2)
N2 C2 C3 132.3(2)
C4 C3 C2 118.9(2)
C4 C3 H3 120.5
C2 C3 H3 120.5
C3 C4 C5 120.1(2)
C3 C4 C41 119.4(2)
C5 C4 C41 120.4(3)
C6 C5 C4 121.0(2)
C6 C5 C51 119.2(2)
C4 C5 C51 119.9(2)
C5 C6 C1 117.7(2)
C5 C6 H6 121.1
C1 C6 H6 121.1
C4 C41 H41A 109.5
C4 C41 H41B 109.5
H41A C41 H41B 109.5
C4 C41 H41C 109.5
H41A C41 H41C 109.5
H41B C41 H41C 109.5
C5 C51 H51A 109.5
C5 C51 H51B 109.5
H51A C51 H51B 109.5
C5 C51 H51C 109.5
H51A C51 H51C 109.5
H51B C51 H51C 109.5
C7 N1 C1 107.74(19)
C7 N1 C12 129.1(2)
C1 N1 C12 123.12(19)
C7 N2 C2 109.6(2)
C7 N2 H2 124.6(19)
C2 N2 H2 125.3(19)
N2 C7 N1 109.0(2)
N2 C7 C8 121.5(7)
N1 C7 C8 129.4(7)
N2 C7 C80 123.4(10)
N1 C7 C80 127.6(9)
C9 C8 O1 109.3(7)
C9 C8 C7 131.7(12)
O1 C8 C7 118.8(11)
C8 C9 C10 109.0(7)
C8 C9 H9 125.5
C10 C9 H9 125.5
C11 C10 C9 104.1(7)
C11 C10 H10 127.9
C9 C10 H10 127.9
C10 C11 O1 112.6(6)
C10 C11 H11 123.7
O1 C11 H11 123.7
C11 O1 C8 105.0(6)
C90 C80 O100 110.6(11)
C90 C80 C7 135.3(17)
O100 C80 C7 114.1(16)
C80 C90 C100 106.7(10)
C80 C90 H90 126.6
C100 C90 H90 126.6
C110 C100 C90 106.4(12)
C110 C100 H100 126.8
C90 C100 H100 126.8
C100 C110 O100 112.3(12)
C100 C110 H110 123.9
O100 C110 H110 123.9
C110 O100 C80 103.9(10)
N1 C12 C13 112.61(17)
N1 C12 H12A 109.1
C13 C12 H12A 109.1
N1 C12 H12B 109.1
C13 C12 H12B 109.1
H12A C12 H12B 107.8
C14 C13 O2 110.5(2)
C14 C13 C12 133.6(2)
O2 C13 C12 115.9(2)
C13 C14 C15 106.6(2)
C13 C14 H14 126.7
C15 C14 H14 126.7
C16 C15 C14 106.9(2)
C16 C15 H15 126.5
C14 C15 H15 126.5
C15 C16 O2 110.5(2)
C15 C16 H16 124.8
O2 C16 H16 124.8
C13 O2 C16 105.5(2)
loop_
_geom_bond_atom_site_label_1
_geom_bond_atom_site_label_2
_geom_bond_distance
C1 C2 1.380(3)
C1 C6 1.397(3)
C1 N1 1.413(3)
C2 N2 1.383(3)
C2 C3 1.391(3)
C3 C4 1.374(4)
C3 H3 0.95
C4 C5 1.423(3)
C4 C41 1.504(3)
C5 C6 1.382(3)
C5 C51 1.501(4)
C6 H6 0.95
C41 H41A 0.98
C41 H41B 0.98
C41 H41C 0.98
C51 H51A 0.98
C51 H51B 0.98
C51 H51C 0.98
N1 C7 1.351(3)
N1 C12 1.483(3)
N2 C7 1.337(3)
N2 H2 0.84(3)
C7 C8 1.384(10)
C7 C80 1.488(15)
C8 C9 1.345(12)
C8 O1 1.368(12)
C9 C10 1.403(10)
C9 H9 0.95
C10 C11 1.344(7)
C10 H10 0.95
C11 O1 1.364(8)
C11 H11 0.95
C80 C90 1.342(16)
C80 O100 1.389(17)
C90 C100 1.405(12)
C90 H90 0.95
C100 C110 1.332(10)
C100 H100 0.95
C110 O100 1.362(13)
C110 H110 0.95
C12 C13 1.491(3)
C12 H12A 0.99
C12 H12B 0.99
C13 C14 1.329(3)
C13 O2 1.372(3)
C14 C15 1.422(3)
C14 H14 0.95
C15 C16 1.324(4)
C15 H15 0.95
C16 O2 1.375(3)
C16 H16 0.95
loop_
_geom_hbond_atom_site_label_D
_geom_hbond_atom_site_label_H
_geom_hbond_atom_site_label_A
_geom_hbond_distance_DH
_geom_hbond_distance_HA
_geom_hbond_distance_DA
_geom_hbond_angle_DHA
_geom_hbond_publ_flag
N2 H2 Br1 0.84(3) 2.38(3) 3.170(2) 155.(2) yes
loop_
_geom_torsion_atom_site_label_1
_geom_torsion_atom_site_label_2
_geom_torsion_atom_site_label_3
_geom_torsion_atom_site_label_4
_geom_torsion
C6 C1 C2 N2 179.83(19)
N1 C1 C2 N2 0.2(2)
C6 C1 C2 C3 -0.4(3)
N1 C1 C2 C3 179.99(19)
C1 C2 C3 C4 -0.5(3)
N2 C2 C3 C4 179.3(2)
C2 C3 C4 C5 1.1(3)
C2 C3 C4 C41 -177.6(2)
C3 C4 C5 C6 -1.0(3)
C41 C4 C5 C6 177.7(2)
C3 C4 C5 C51 179.8(2)
C41 C4 C5 C51 -1.5(3)
C4 C5 C6 C1 0.2(3)
C51 C5 C6 C1 179.4(2)
C2 C1 C6 C5 0.5(3)
N1 C1 C6 C5 -180.0(2)
C2 C1 N1 C7 -0.8(2)
C6 C1 N1 C7 179.6(2)
C2 C1 N1 C12 177.46(17)
C6 C1 N1 C12 -2.1(3)
C1 C2 N2 C7 0.5(2)
C3 C2 N2 C7 -179.3(2)
C2 N2 C7 N1 -1.0(2)
C2 N2 C7 C8 179.(4)
C2 N2 C7 C80 177.(5)
C1 N1 C7 N2 1.1(2)
C12 N1 C7 N2 -177.01(18)
C1 N1 C7 C8 -178.(4)
C12 N1 C7 C8 4.(4)
C1 N1 C7 C80 -177.(6)
C12 N1 C7 C80 5.(6)
N2 C7 C8 C9 1.(9)
N1 C7 C8 C9 -180.(5)
C80 C7 C8 C9 14.E1(10)
N2 C7 C8 O1 -174.(3)
N1 C7 C8 O1 5.(8)
C80 C7 C8 O1 -3.E1(10)
O1 C8 C9 C10 -1.(6)
C7 C8 C9 C10 -177.(6)
C8 C9 C10 C11 1.(3)
C9 C10 C11 O1 0.1(8)
C10 C11 O1 C8 -1.(3)
C9 C8 O1 C11 1.(5)
C7 C8 O1 C11 178.(4)
N2 C7 C80 C90 -175.(9)
N1 C7 C80 C90 2.(15)
C8 C7 C80 C90 15.E1(10)
N2 C7 C80 O100 5.(10)
N1 C7 C80 O100 -178.(4)
C8 C7 C80 O100 -3.E1(10)
O100 C80 C90 C100 -1.(9)
C7 C80 C90 C100 179.(10)
C80 C90 C100 C110 1.(5)
C90 C100 C110 O100 -0.3(15)
C100 C110 O100 C80 0.(5)
C90 C80 O100 C110 1.(9)
C7 C80 O100 C110 -179.(6)
C7 N1 C12 C13 -94.9(3)
C1 N1 C12 C13 87.2(2)
N1 C12 C13 C14 110.9(3)
N1 C12 C13 O2 -69.4(3)
O2 C13 C14 C15 0.3(3)
C12 C13 C14 C15 -179.9(2)
C13 C14 C15 C16 -0.1(3)
C14 C15 C16 O2 -0.1(3)
C14 C13 O2 C16 -0.4(3)
C12 C13 O2 C16 179.81(19)
C15 C16 O2 C13 0.3(3)
