#------------------------------------------------------------------------------
#$Date: 2016-02-20 00:18:51 +0200 (Sat, 20 Feb 2016) $
#$Revision: 176760 $
#$URL: svn://www.crystallography.net/cod/cif/2/01/96/2019627.cif $
#------------------------------------------------------------------------------
#
# This file is available in the Crystallography Open Database (COD),
# http://www.crystallography.net/. The original data for this entry
# were provided by IUCr Journals, http://journals.iucr.org/.
#
# The file may be used within the scientific community so long as
# proper attribution is given to the journal article from which the
# data were obtained.
#
data_2019627
loop_
_publ_author_name
'Gzella, Andrzej K.'
'Kowiel, Marcin'
'Suse\/l, Aneta'
'Wojtyra, Magdalena N.'
'Lesyk, Roman'
_publ_section_title
;
 Heterocyclic tautomerism: reassignment of two crystal structures of
 2-amino-1,3-thiazolidin-4-one derivatives
;
_journal_coeditor_code           WQ3065
_journal_issue                   8
_journal_name_full               'Acta Crystallographica Section C'
_journal_page_first
;
;
_journal_paper_doi               10.1107/S2053229614015162
_journal_volume                  70
_journal_year                    2014
_chemical_formula_iupac          'C10 H11 N3 O2 S'
_chemical_formula_moiety         'C10 H11 N3 O2 S'
_chemical_formula_sum            'C10 H11 N3 O2 S'
_chemical_formula_weight         237.28
_chemical_melting_point_gt       459
_chemical_melting_point_lt       461
_chemical_name_systematic
;
5-(2-Hydroxyethyl)-2-[(pyridin-2-yl)amino]-1,3-thiazolidin-4-one
;
_space_group_crystal_system      triclinic
_space_group_IT_number           2
_space_group_name_Hall           '-P 1'
_space_group_name_H-M_alt        'P -1'
_symmetry_space_group_name_Hall  '-P 1'
_symmetry_space_group_name_H-M   'P -1'
_atom_sites_solution_hydrogens   mixed
_audit_creation_method           SHELXL2014
_cell_angle_alpha                90.638(2)
_cell_angle_beta                 95.794(2)
_cell_angle_gamma                107.990(2)
_cell_formula_units_Z            2
_cell_length_a                   5.78910(15)
_cell_length_b                   8.8045(2)
_cell_length_c                   10.9688(3)
_cell_measurement_reflns_used    3632
_cell_measurement_temperature    130(2)
_cell_measurement_theta_max      29.08
_cell_measurement_theta_min      2.99
_cell_volume                     528.50(2)
_computing_cell_refinement       'CrysAlis PRO (Agilent, 2012)'
_computing_data_collection       'CrysAlis PRO (Agilent, 2012)'
_computing_data_reduction        'CrysAlis PRO (Agilent, 2012)'
_computing_molecular_graphics    'ORTEP-3 for Windows (Farrugia, 2012)'
_computing_publication_material
;
WinGX (Farrugia, 2012), OLEX2 (Dolomanov <i>et al.</i>, 2009)
and
PLATON (Spek, 2009)
;
_computing_structure_refinement  'SHELXL97 (Sheldrick, 2008)'
_computing_structure_solution    'SHELXS97 (Sheldrick, 2008)'
_diffrn_ambient_temperature      130(2)
_diffrn_detector_area_resol_mean 10.3088
_diffrn_measured_fraction_theta_full 0.999
_diffrn_measured_fraction_theta_max 0.884
_diffrn_measurement_device_type  'Agilent Xcalibur Atlas'
_diffrn_measurement_method       \w
_diffrn_radiation_type           MoK\a
_diffrn_radiation_wavelength     0.71073
_diffrn_reflns_av_R_equivalents  0.0157
_diffrn_reflns_limit_h_max       7
_diffrn_reflns_limit_h_min       -6
_diffrn_reflns_limit_k_max       11
_diffrn_reflns_limit_k_min       -11
_diffrn_reflns_limit_l_max       14
_diffrn_reflns_limit_l_min       -14
_diffrn_reflns_number            5332
_diffrn_reflns_theta_full        25.000
_diffrn_reflns_theta_max         29.099
_diffrn_reflns_theta_min         2.435
_exptl_absorpt_coefficient_mu    0.294
_exptl_absorpt_correction_T_max  1.00000
_exptl_absorpt_correction_T_min  0.93908
_exptl_absorpt_correction_type   multi-scan
_exptl_absorpt_process_details   '(CrysAlis PRO; Agilent, 2012)'
_exptl_crystal_colour            colourless
_exptl_crystal_density_diffrn    1.491
_exptl_crystal_density_method    'not measured'
_exptl_crystal_description       lath
_exptl_crystal_F_000             248
_exptl_crystal_size_max          0.42
_exptl_crystal_size_mid          0.22
_exptl_crystal_size_min          0.10
_refine_diff_density_max         0.336
_refine_diff_density_min         -0.209
_refine_ls_extinction_method     none
_refine_ls_goodness_of_fit_ref   1.133
_refine_ls_hydrogen_treatment    mixed
_refine_ls_matrix_type           full
_refine_ls_number_parameters     167
_refine_ls_number_reflns         2501
_refine_ls_number_restraints     4
_refine_ls_restrained_S_all      1.133
_refine_ls_R_factor_all          0.0389
_refine_ls_R_factor_gt           0.0357
_refine_ls_shift/su_max          0.000
_refine_ls_shift/su_mean         0.000
_refine_ls_structure_factor_coef Fsqd
_refine_ls_weighting_details
'w = 1/[\s^2^(Fo^2^)+(0.0328P)^2^+0.2306P] where P=(Fo^2^+2Fc^2^)/3'
_refine_ls_weighting_scheme      calc
_refine_ls_wR_factor_gt          0.0857
_refine_ls_wR_factor_ref         0.0879
_reflns_number_gt                2338
_reflns_number_total             2501
_reflns_threshold_expression     I>2\s(I)
_cod_data_source_file            wq3065sup1.cif
_cod_data_source_block           I
_cod_original_cell_volume        528.50(3)
_cod_database_code               2019627
_cod_database_fobs_code          2019627
#BEGIN Tags that were not found in dictionaries:
_shelx_space_group_comment
;
The symmetry employed for this shelxl refinement is uniquely defined by the
following loop, which should always be used as a source of symmetry information
in preference to the above space-group names. They are only intended as
comments.
;
_shelx_hkl_file
;
   0   0   2 39115.3 249.801   2
   0   0  -2 40378.2 300.084   1
   0   0  -2 39066.2 253.045   2
   0   0   2 40785.5 306.507   1
   0   0  -3 37626.7 300.399   2
   0   0   3 36916.6 297.059   2
   0   0   3 38823.3 365.220   1
   0   0  -3 36791.6 356.437   4
   0   0  -3 38587.2 365.294   1
   0   0   4 36881.8 345.043   2
   0   0  -4 38078.5 416.848   4
   0   0  -4 37993.0 418.347   1
   0   0  -4 38786.6 355.481   2
   0   0   4 39430.5 424.540   1
   0   0   5 294.233 39.2367   2
   0   0   5 338.512 48.4738   1
   0   0  -5 250.653 40.9612   1
   0   0  -5 357.794 48.7718   4
   0   0  -5 387.820 43.0303   2
   0   0   6 147.474 36.1556   1
   0   0  -6 225.730 44.2187   4
   0   0  -6 155.774 35.6114   1
   0   0   6 209.906 33.3597   2
   0   0  -6 172.647 33.6221   2
   0   0  -7 3206.75 166.392   4
   0   0   7 3229.82 166.472   1
   0   0  -7 3044.28 161.362   1
   0   0  -7 3596.47 145.869   2
   0   0   7 3238.58 137.737   2
   0   0  -8 5501.81 232.924   1
   0   0  -8 6019.20 241.411   4
   0   0   8 6077.95 241.727   1
   0   0  -8 5815.32 198.661   2
   0   0   8 5887.72 199.275   2
   0   0   9 6111.05 261.814   1
   0   0   9 6370.39 220.543   2
   0   0  -9 6268.64 264.949   4
   0   0  -9 6364.55 222.388   2
   0   0  10 171.898 45.8834   2
   0   0 -10 167.478 58.0387   4
   0   0  10 121.344 46.9303   1
   0   0 -10 235.956 46.2331   2
   0   0  11 1878.73 169.205   1
   0   0  11 1730.77 130.804   2
   0   0 -11 1497.14 151.185   4
   0   0  12 461.206 93.2433   1
   0   0 -12 488.033 93.7809   4
   0   0  12 531.212 74.2818   2
   0   0 -13 2450.23 211.937   4
   0   0  13 2689.57 175.465   2
   0   0  13 2212.87 201.998   1
   0   1 -13 3083.08 233.138   4
   0  -1  13 2929.94 233.020   1
   0  -1  12 4165.99 192.401   2
   0  -1  12 4213.75 262.083   1
   0   1 -12 4575.44 266.733   4
   0   1 -11-16.0976 37.3516   4
   0  -1  11-36.0744 30.4063   2
   0  -1  11 11.8009 39.3621   1
   0   1 -10 7954.25 314.536   4
   0  -1  10 7866.30 235.444   2
   0   1 -10 7939.03 238.229   2
   0  -1  10 7896.62 319.244   1
   0   1 -10 7628.59 248.853   3
   0  -1   9 22037.7 498.560   1
   0   1  -9 22117.0 488.130   4
   0  -1   9 21880.4 366.976   2
   0   1  -9 22132.3 374.382   2
   0  -1   8 2431.33 114.346   2
   0  -1   8 2408.31 153.643   1
   0   1  -8 2472.00 116.836   2
   0   1  -8 2565.45 157.017   4
   0  -1   7 5425.55 218.236   1
   0  -1   7 5058.51 151.787   2
   0   1  -7 5225.94 215.510   1
   0   1  -7 5374.92 210.859   4
   0   1  -7 5248.89 157.673   2
   0   1  -6 53749.4 632.262   1
   0   1  -6 52360.5 450.140   2
   0  -1   6 53118.0 612.937   1
   0   1  -6 52302.7 593.087   4
   0  -1   5 8980.40 161.844   2
   0   1  -5 9665.80 245.602   1
   0  -1   5 9293.03 239.008   1
   0   1  -5 9120.70 226.871   4
   0   1  -5 9407.18 168.570   2
   0  -1   4 10538.5 225.342   1
   0   1  -4 10233.8 149.653   2
   0   1  -4 10066.4 222.360   1
   0  -1   4 10185.3 148.171   2
   0  -1   3 14880.9 140.969   2
   0  -1   3 15225.9 237.481   1
   0   1  -3 14698.8 142.714   2
   0   1  -3 15380.9 237.793   1
   0  -1   2 95668.3 507.756   1
   0   1  -2 95662.8 509.158   1
   0  -1   1 4130.82 89.5084   1
   0   1  -1 4317.01 90.0547   1
   0  -1   0 69075.1 277.959   2
   0   1   0 68887.4 279.165   2
   0  -1  -1 1805.70 52.4403   4
   0   1   1 1786.50 59.5712   2
   0  -1  -1 1817.67 60.8796   2
   0   1   1 1767.13 51.6881   4
   0   1   2 89501.4 481.167   4
   0   1   2 88399.8 494.306   2
   0  -1  -2 89568.9 476.198   4
   0  -1  -2 88309.5 492.674   2
   0  -1  -3 45741.1 414.369   1
   0   1   3 45100.4 398.482   2
   0  -1  -3 46052.8 404.809   2
   0  -1  -3 45769.3 411.766   4
   0  -1  -4 16359.3 284.014   1
   0  -1  -4 16583.1 286.549   4
   0   1   4 16517.1 269.812   2
   0  -1  -4 16975.1 272.541   2
   0   1   4 17703.0 294.131   1
   0  -1  -5 194.070 35.2724   2
   0  -1  -5 190.145 39.5144   4
   0   1   5 224.239 39.6899   2
   0   1   5 191.440 37.5255   1
   0  -1  -5 219.461 41.5754   1
   0  -1  -6 2132.69 116.345   2
   0  -1  -6 1891.76 119.826   4
   0   1   6 1793.67 105.190   2
   0   1   6 2042.20 123.187   1
   0  -1  -6 1842.83 119.560   1
   0  -1  -7 3804.43 181.458   1
   0  -1  -7 4060.38 171.778   2
   0  -1  -7 4046.64 187.864   4
   0   1   7 3983.85 166.662   2
   0   1   7 4305.98 194.831   1
   0   1   8 3191.22 179.743   1
   0   1   8 3172.81 158.515   2
   0  -1  -8 3390.20 165.008   2
   0  -1  -8 3398.19 183.971   4
   0  -1  -9 5865.47 260.389   4
   0   1   9 5841.18 260.990   1
   0   1   9 5977.58 231.255   2
   0  -1  -9 5861.80 231.432   2
   0   1  10 22466.6 470.850   2
   0  -1 -10 22016.6 533.862   4
   0   1  10 22162.2 539.200   1
   0   1  11 7292.05 284.046   2
   0  -1 -11 7390.87 328.224   4
   0   1  12 8.53203 34.4641   2
   0  -1 -12 117.929 54.3736   4
   0  -1 -13 126.433 59.5491   4
   0   1  13 217.885 50.7946   2
   0   2 -13 123.397 60.5346   4
   0  -2  13 74.3702 47.4120   1
   0  -2  12 5802.96 309.506   1
   0   2 -12 5633.26 295.335   4
   0  -2  11 174.859 55.3321   1
   0   2 -11 163.997 46.7628   4
   0  -2  11 159.166 35.1080   2
   0  -2  10 3003.57 200.136   1
   0   2 -10 3039.47 190.449   4
   0  -2  10 3113.07 131.399   2
   0   2 -10 3167.60 145.771   3
   0  -2   9 489.346 50.4736   2
   0  -2   9 376.559 68.6074   1
   0   2  -9 506.948 76.2985   4
   0   2  -9 496.154 54.4070   3
   0  -2   8 1176.58 111.851   1
   0   2  -8 1124.02 102.250   4
   0   2  -8 1164.81 72.0664   2
   0  -2   8 1196.39 69.6325   2
   0  -2   7 8440.75 164.980   2
   0  -2   7 8787.95 279.551   1
   0   2  -7 8860.12 173.299   2
   0   2  -7 8585.66 260.796   4
   0   2  -7 9122.36 288.357   1
   0  -2   6 17558.6 210.366   2
   0  -2   6 17966.6 369.249   1
   0   2  -6 18213.2 218.891   2
   0   2  -6 17727.5 375.644   1
   0  -2   5 141339. 959.819   1
   0   2  -5 141785. 513.210   2
   0   2  -4 15.9232 7.16504   2
   0   2  -4 4.11925 17.0782   1
   0  -2   3 2715.00 113.395   1
   0   2  -3 2815.86 114.989   1
   0  -2   2 47944.1 427.228   1
   0   2  -1 65.1315 14.4097   2
   0  -2   1 47.7188 11.9545   3
   0  -2   0 13855.1 121.648   4
   0   2   0 13758.3 179.242   2
   0   2   0 13510.8 121.531   4
   0  -2   0 13847.1 176.586   2
   0  -2  -1 50548.7 307.725   4
   0   2   1 49597.3 308.446   4
   0  -2  -1 50173.6 392.424   2
   0   2   1 49455.5 389.016   2
   0   2   2 282984. 1045.70   2
   0   2   2 286641. 924.991   4
   0   2   3 21438.4 318.237   2
   0  -2  -3 22035.9 299.705   4
   0   2   3 21646.6 299.008   4
   0  -2  -3 22300.2 323.995   2
   0   2   4 2948.79 130.084   2
   0  -2  -4 2981.64 131.881   1
   0  -2  -4 2949.60 123.740   4
   0  -2  -4 3204.45 134.847   2
   0  -2  -5 1820.33 109.370   2
   0  -2  -5 1645.82 107.751   1
   0  -2  -5 1754.04 106.971   4
   0   2   5 1662.30 105.728   2
   0  -2  -6 5052.95 197.046   4
   0  -2  -6 4846.77 197.508   1
   0  -2  -6 5073.85 193.881   2
   0   2   6 5016.29 192.965   2
   0  -2  -7 7840.42 268.262   1
   0  -2  -7 8222.27 262.735   2
   0  -2  -7 8130.40 270.789   4
   0   2   7 8222.38 260.220   2
   0  -2  -8 2299.77 148.061   2
   0  -2  -8 2103.10 150.029   4
   0   2   8 2063.38 138.591   2
   0  -2  -9 7119.71 289.483   4
   0   2   9 7200.86 271.083   2
   0  -2 -10 43847.8 765.483   4
   0   2  10 43307.3 701.946   2
   0   2  11 349.364 72.4013   2
   0  -2 -11 337.028 81.1098   4
   0  -2 -12 1250.64 149.218   4
   0   2  12 1308.88 135.050   2
   0  -2 -13-22.6215 41.8897   4
   0   2  13-11.7581 36.7144   2
   0   2  14 3022.29 222.427   2
   0  -3  13 1755.15 187.436   1
   0   3 -13 1629.53 166.508   4
   0  -3  12 2939.58 228.511   1
   0   3 -12 2916.84 211.325   4
   0  -3  11 294.205 74.1932   1
   0   3 -11 177.163 53.7398   4
   0   3 -10 20003.0 316.555   3
   0   3 -10 20474.2 491.472   4
   0  -3  10 20710.5 539.296   1
   0  -3   9 1863.19 155.912   1
   0   3  -9 1955.54 145.148   4
   0   3  -9 1852.73 88.5564   3
   0  -3   8 15793.4 412.648   1
   0   3  -8 15349.0 227.392   3
   0   3  -8 15366.6 375.790   4
   0   3  -7 193.261 48.0331   1
   0  -3   7 261.933 55.1541   1
   0   3  -7 205.894 46.9126   4
   0   3  -7 220.103 24.6159   3
   0   3  -6 5414.17 83.7820   2
   0   3  -6 6501.55 236.598   1
   0  -3   6 6624.16 240.073   1
   0   3  -6 5674.74 100.764   3
   0   3  -6 6314.24 106.887   3
   0  -3   5 24462.1 432.550   1
   0   3  -5 26153.1 448.211   1
   0   3  -4 138031. 953.614   1
   0  -3   4 126675. 939.444   1
   0   3  -3 68598.2 291.231   2
   0  -3   3 69174.7 632.858   1
   0  -3   2 60514.6 569.444   1
   0  -3   2 60573.5 287.631   3
   0   3  -2 60469.4 342.694   2
   0   3  -1 95667.8 371.164   4
   0  -3   1 96965.0 463.914   3
   0   3  -1 95231.7 511.784   2
   0   3   0 37434.8 244.885   4
   0  -3   0 37851.2 345.069   3
   0  -3   0 37672.0 245.125   4
   0   3   0 37393.9 365.766   2
   0   3   1 22122.4 311.012   2
   0  -3  -1 22369.4 230.210   4
   0   3   1 21998.9 231.041   4
   0  -3  -1 22206.2 306.169   2
   0   3   2 1283.10 83.4525   2
   0  -3  -2 1093.01 62.4295   4
   0   3   2 1164.82 64.9047   4
   0  -3  -2 1226.55 81.8949   2
   0  -3  -3 1985.74 95.6305   4
   0   3   3 1937.84 94.5442   4
   0  -3  -3 2042.22 110.530   2
   0   3   3 1928.74 108.762   2
   0  -3  -4 14336.4 282.651   4
   0   3   4 13927.8 307.281   2
   0  -3  -4 14064.4 309.417   2
   0  -3  -5 35675.9 522.846   2
   0   3   5 34292.4 513.786   2
   0  -3  -5 34917.6 491.005   4
   0  -3  -6 7282.58 242.985   4
   0  -3  -6 6981.08 245.648   2
   0  -3  -6 6455.13 236.958   1
   0   3   6 6917.47 245.897   2
   0   3   7 2984.93 170.984   2
   0  -3  -7 3035.16 173.215   2
   0  -3  -7 2984.44 169.419   4
   0  -3  -8 189.207 50.9832   4
   0   3   8 177.317 45.5016   2
   0   3   9 2149.91 159.240   2
   0  -3  -9 1927.69 158.030   4
   0  -3 -10 8497.93 344.489   4
   0   3  10 8547.33 332.274   2
   0  -3 -11 4397.93 264.166   4
   0   3  11 4609.76 256.118   2
   0  -3 -12 10087.5 421.598   4
   0   3  12 10291.4 398.032   2
   0  -3 -13 302.572 68.5269   4
   0   3  13 292.165 76.9421   2
   0   3  14 480.110 93.7291   2
   0   4 -13 5984.77 315.720   4
   0  -4  12 71.0534 45.6147   1
   0   4 -12 39.9734 32.3102   4
   0   4 -11 10875.6 380.925   4
   0  -4  11 11276.4 426.390   1
   0   4 -10 15385.1 424.671   4
   0  -4  10 16068.4 483.748   1
   0   4  -9 44.3268 36.2983   4
   0   4  -9 1.05554 6.07076   3
   0   4  -9 8.05242 6.00641   3
   0  -4   9 3.46791 33.0155   1
   0   4  -8 959.835 95.2955   4
   0  -4   8 936.542 106.557   1
   0  -4   7 13615.5 390.403   1
   0   4  -7 13633.9 322.164   4
   0   4  -6 1470.29 121.431   1
   0  -4   6 1337.97 116.692   1
   0  -4   5 17175.8 393.201   1
   0  -4   4 6073.03 222.091   1
   0   4  -4 5799.21 87.3976   2
   0  -4   3 3840.48 172.457   1
   0  -4   3 3717.36 71.7543   3
   0   4  -2 9402.60 170.852   2
   0  -4   2 9376.22 148.028   3
   0   4  -1 16510.3 170.714   4
   0  -4   1 16872.9 236.296   3
   0   4  -1 16237.4 254.583   2
   0   4   0 11034.9 151.440   4
   0   4   0 11151.0 230.889   2
   0  -4   0 10946.7 214.815   3
   0  -4   0 10890.9 149.642   4
   0  -4  -1 15914.7 212.323   4
   0  -4  -1 15249.8 278.400   3
   0   4   1 15847.8 214.354   4
   0   4   1 16402.1 299.818   2
   0  -4  -2 64138.8 495.024   4
   0   4   2 64269.4 639.894   2
   0  -4  -2 63769.9 629.570   2
   0   4   2 62540.9 495.063   4
   0  -4  -3 1425.15 84.4119   4
   0  -4  -3 1566.22 107.399   2
   0   4   3 1530.30 89.1105   4
   0   4   3 1405.46 101.999   2
   0   4   4 21712.4 416.028   2
   0  -4  -4 21606.8 360.153   4
   0  -4  -4 21334.4 413.171   2
   0  -4  -5 7211.09 256.216   2
   0  -4  -5 7045.70 227.967   4
   0   4   5 6925.88 249.785   2
   0   4   6 15840.0 395.717   2
   0  -4  -6 16156.7 372.922   4
   0   4   7 6690.06 272.900   2
   0  -4  -7 6845.45 261.979   4
   0  -4  -8 0.88707 39.5328   4
   0   4   8 18.7267 31.7694   2
   0  -4  -9 5972.73 278.860   4
   0   4   9 6063.45 283.047   2
   0   4  10 121.799 50.7533   2
   0  -4 -10 192.069 62.8564   4
   0   4  11 89.1441 50.6594   2
   0  -4 -11 129.364 54.5334   4
   0  -4 -12 12084.8 470.000   4
   0   4  12 12653.4 463.450   2
   0   4  13 469.864 96.9902   2
   0   5 -13 150.109 52.3296   4
   0   5 -12 86.8981 50.8588   4
   0  -5  12 22.1052 33.4749   1
   0  -5  11 4586.16 281.764   1
   0   5 -11 4354.27 239.910   4
   0   5 -10 100.549 45.5030   4
   0  -5  10 160.305 52.3959   1
   0   5  -9 59.4985 22.9253   4
   0  -5   9 72.5432 43.6080   1
   0  -5   8 3293.21 207.951   1
   0   5  -8 3108.49 165.344   4
   0   5  -7 2467.19 137.132   4
   0  -5   7 2414.68 175.930   1
   0  -5   6 1184.22 117.903   1
   0  -5   5 534.711 78.6860   1
   0  -5   4 283.490 56.7163   1
   0   5  -4 280.620 25.7875   2
   0   5  -3 502.934 42.5641   2
   0  -5   3 408.188 66.3508   1
   0  -5   3 414.966 31.2415   3
   0   5  -2 3319.26 86.3863   4
   0  -5   2 3418.70 107.171   3
   0  -5   1 55.2860 18.8719   3
   0   5  -1 19.9112 9.99687   4
   0   5   0 33237.3 289.671   4
   0   5   0 33596.1 445.909   2
   0  -5   0 32996.0 417.354   3
   0  -5  -1 4621.58 170.944   3
   0   5   1 4794.98 126.088   4
   0  -5  -1 4858.97 126.310   4
   0   5   1 4983.82 183.703   2
   0   5   2 279.705 51.5192   2
   0   5   2 415.552 45.0246   4
   0  -5  -2 329.205 54.7013   3
   0  -5  -2 327.280 40.3138   4
   0  -5  -3 3265.79 134.190   4
   0  -5  -3 3134.02 162.072   3
   0   5   3 3137.77 163.605   2
   0   5   3 3154.84 132.022   4
   0  -5  -4 2062.02 115.654   4
   0   5   4 2079.77 141.584   2
   0  -5  -4 1988.93 137.434   3
   0  -5  -4 1985.23 138.233   2
   0  -5  -5 77.4247 33.5006   4
   0   5   5 120.809 45.5407   2
   0  -5  -6 35234.8 561.756   4
   0   5   6 35668.8 638.266   2
   0   5   7 4369.09 235.348   2
   0  -5  -7 4034.54 204.980   4
   0   5   8 3010.33 204.177   2
   0  -5  -8 2967.17 187.031   4
   0   5   9 3641.97 233.822   2
   0  -5  -9 3429.64 215.952   4
   0  -5 -10 4216.90 251.720   4
   0   5  10 4540.51 270.312   2
   0  -5 -11 139.187 64.9321   4
   0   5  11 257.802 68.6787   2
   0   5  12 77.5133 55.9055   2
   0  -5 -12 74.6714 45.1566   4
   0   6 -12 3034.29 210.824   4
   0  -6  11 1573.14 174.877   1
   0   6 -11 1650.64 145.565   4
   0   6 -10 5656.38 249.975   4
   0  -6  10 6022.51 321.164   1
   0  -6   9 7520.04 349.004   1
   0   6  -9 6913.09 260.815   4
   0   6  -8 273.114 49.0233   4
   0  -6   8 203.985 57.7860   1
   0  -6   7 165.103 56.7128   1
   0   6  -7 130.472 32.9031   4
   0  -6   6 15971.2 459.611   1
   0  -6   5 20084.2 491.722   1
   0   6  -5 17541.3 174.367   2
   0  -6   4 2455.65 167.773   1
   0  -6   4 2226.84 59.7298   3
   0   6  -3 35443.1 310.554   4
   0   6  -3 36206.5 400.239   2
   0  -6   3 35504.0 332.335   3
   0  -6   3 34469.6 617.992   1
   0   6  -2 159.275 32.2823   2
   0   6  -2 109.292 15.7560   4
   0  -6   2 128.827 26.3718   3
   0   6  -1 21351.4 222.001   4
   0   6  -1 22726.2 376.097   2
   0  -6   1 21793.1 345.678   3
   0  -6   0 30075.5 439.823   3
   0   6   0 30964.6 469.141   2
   0   6   0 29810.5 291.051   4
   0   6   1 3846.55 120.312   4
   0   6   1 3784.80 173.550   2
   0  -6  -1 3726.44 116.768   4
   0  -6  -1 3774.10 169.515   3
   0  -6  -2 10453.9 222.905   4
   0   6   2 10633.5 226.823   4
   0   6   2 10390.4 302.492   2
   0  -6  -2 10626.9 298.998   3
   0  -6  -3 11325.5 257.963   4
   0   6   3 11386.6 335.537   2
   0  -6  -3 11140.6 325.295   3
   0   6   4 4717.80 224.744   2
   0  -6  -4 4889.75 184.516   4
   0  -6  -5 31.2034 21.5791   4
   0   6   5-21.1347 32.5385   2
   0  -6  -6 1368.19 116.701   4
   0   6   6 1623.96 148.504   2
   0   6   7 201.884 59.4915   2
   0  -6  -7 230.284 56.9298   4
   0   6   8 4886.30 272.068   2
   0  -6  -8 4515.40 237.810   4
   0   6   9 48.1879 39.5969   2
   0  -6  -9 94.6406 43.4786   4
   0  -6 -10 1540.61 156.234   4
   0   6  10 1450.82 166.815   2
   0  -6 -11 53.9462 39.2167   4
   0   6  11 126.672 59.3444   2
   0  -7  10 3532.61 257.498   1
   0   7  -9-12.1981 19.4970   4
   0  -7   9-0.35110 42.0416   1
   0   7  -8 6529.96 228.703   4
   0  -7   8 6403.86 330.003   1
   0   7  -7 4004.18 163.854   4
   0  -7   7 3836.46 246.562   1
   0  -7   6 21052.5 557.753   1
   0   7  -6 21067.2 337.907   4
   0  -7   5 4988.99 265.162   1
   0   7  -5 4804.36 140.562   4
   0   7  -5 4636.99 110.105   2
   0   7  -4 12117.5 193.755   4
   0  -7   4 12054.0 404.137   1
   0   7  -4 12866.0 234.666   2
   0  -7   3 1212.77 128.494   1
   0   7  -3 1341.76 55.4535   4
   0   7  -3 1501.29 91.8831   2
   0  -7   3 1443.61 76.3542   3
   0   7  -2 15394.5 320.107   2
   0  -7   2 14913.2 282.598   3
   0   7  -1 6876.35 228.325   2
   0  -7   1 6950.36 213.175   3
   0   7   0 6775.51 240.772   2
   0   7   0 6383.07 137.119   4
   0  -7   0 6646.88 227.526   3
   0   7   1 2123.92 92.3511   4
   0  -7  -1 1994.43 133.645   3
   0   7   1 2264.96 145.131   2
   0  -7  -2 3512.09 133.149   4
   0   7   2 3807.18 200.277   2
   0  -7  -3 2919.81 135.979   4
   0   7   3 3267.89 192.576   2
   0   7   4 306.042 63.9480   2
   0  -7  -4 320.068 52.2559   4
   0  -7  -5 9186.69 282.967   4
   0   7   5 9040.92 349.991   2
   0   7   6 8.60755 48.2961   2
   0  -7  -6-17.1175 31.0969   4
   0   7   7 259.690 75.6569   2
   0  -7  -7 305.032 64.5410   4
   0  -7  -8 4264.91 237.993   4
   0   7   8 4057.19 262.427   2
   0  -7  -9 104.833 45.7999   4
   0   7   9 96.1490 48.1597   2
   0  -7 -10 1809.15 171.322   4
   0  -7 -11 498.531 97.7965   4
   0  -8   9 1526.90 177.810   1
   0  -8   8 3832.74 267.113   1
   0  -8   7 589.845 105.485   1
   0  -8   6 1837.05 178.483   1
   0  -8   5 3368.54 232.044   1
   0   8  -5 3322.13 106.955   2
   0  -8   4 17283.2 522.147   1
   0   8  -4 17984.7 307.539   2
   0  -8   3 2810.17 208.220   1
   0   8  -3 2901.53 141.460   2
   0   8  -2 518.705 65.2853   2
   0  -8   2 685.021 66.7094   3
   0   8  -1 344.359 60.0458   2
   0  -8   1 252.552 47.9773   3
   0   8   0 2058.20 143.500   2
   0  -8   0 1898.17 130.551   3
   0   8   1-23.1571 30.7295   2
   0  -8  -2 190.073 31.9342   4
   0   8   2 116.620 42.5856   2
   0   8   3 1873.24 158.100   2
   0  -8  -3 1551.16 99.1843   4
   0  -8  -4 2911.63 152.668   4
   0   8   4 2879.05 203.040   2
   0  -8  -5 8813.96 282.370   4
   0   8   5 8281.69 355.287   2
   0  -8  -6 829.694 96.3789   4
   0   8   6 616.121 103.794   2
   0   8   7 1298.59 152.766   2
   0  -8  -7 1338.31 128.315   4
   0  -8  -8 2757.25 194.782   4
   0   8   8 2374.56 213.055   2
   0  -8  -9 3108.41 219.355   4
   0  -8 -10 653.001 103.075   4
   0  -9   7 5522.31 335.790   1
   0  -9   6 1154.68 149.874   1
   0  -9   5 5070.54 306.212   1
   0  -9   4 16222.5 541.427   1
   0   9  -3 11343.1 298.103   2
   0  -9   3 10381.4 431.745   1
   0   9  -2 6277.82 239.736   2
   0   9  -1 3017.06 176.971   2
   0   9   0 6079.61 262.380   2
   0   9   1 72.3293 36.3186   2
   0   9   2 5470.00 272.477   2
   0   9   3 2242.01 184.140   2
   0   9   4 1583.32 157.861   2
   0   9   5 150.883 68.0461   2
   0   9   6 387.240 85.5993   2
   0 -10   4 2368.45 224.958   1
   0 -10   3 1344.00 177.868   1
   0  10  -1 816.198 100.281   2
   0  10   0 36.3044 36.0971   2
   0  10   1 2048.15 169.996   2
   0  10   2 1924.28 171.269   2
   0  10   3 3868.98 253.717   2
   0  10   4 4418.40 281.103   2
   0  10   5 345.144 85.3617   2
   0  11   1 1502.13 158.183   2
   0  11   2 150.094 68.0453   2
   0  11   3 1513.90 167.516   2
  -1  11   4 3557.19 256.642   2
  -1  11   3 1741.12 172.030   2
  -1  11   2 476.330 95.1808   2
  -1  11   1 1066.10 126.012   2
  -1  11   0 2348.19 175.980   2
  -1  10   5 2933.16 227.389   2
  -1  10   4 4300.63 266.808   2
  -1  10   3 186.418 60.3730   2
  -1  10   2 1534.65 146.597   2
  -1  10   1 918.992 109.704   2
  -1  10   0 3553.49 204.833   2
  -1  10  -1 6012.56 251.563   2
   1 -10   2 3316.07 253.007   1
  -1  10  -2 3590.83 179.813   2
   1 -10   3 4802.54 307.755   1
   1 -10   4 2352.65 217.402   1
   1 -10   5 1815.86 192.913   1
   1 -10   6-54.1219 54.6875   1
  -1   9   7 102.053 49.9120   2
  -1   9   6 990.933 134.016   2
  -1   9   5 11027.5 422.361   2
  -1   9   4 3793.80 237.995   2
  -1   9   3 3831.12 229.819   2
  -1   9   2 8489.36 324.608   2
  -1   9   1 150.983 43.4348   2
  -1   9   0 6433.94 257.038   2
  -1   9  -1-14.1241 24.9142   2
   1  -9   2 551.061 101.002   1
  -1   9  -2 429.244 62.1723   2
  -1   9  -3 1087.98 84.0674   2
   1  -9   3 1226.07 144.769   1
   1  -9   4 2296.31 200.999   1
   1  -9   5 8010.40 374.478   1
   1  -9   6 11589.8 463.237   1
   1  -9   7 3904.33 272.415   1
   1  -9   8 2319.43 216.149   1
   1  -8 -10 717.900 106.313   4
   1  -8  -9 1763.18 157.285   4
  -1   8   9 1797.60 187.053   2
  -1   8   8 1627.36 173.990   2
   1  -8  -8 1603.97 140.633   4
   1  -8  -7 5089.40 232.117   4
  -1   8   7 5774.68 311.257   2
  -1   8   6 1054.68 132.828   2
   1  -8  -6 961.501 95.3702   4
  -1   8   5 11120.9 398.154   2
   1  -8  -5 10746.3 288.243   4
  -1   8   4 74.5189 35.7023   2
   1  -8  -4 56.7078 28.7301   4
  -1   8   3 10422.4 351.695   2
   1  -8  -3 10103.0 215.615   4
   1  -8  -2 3508.66 98.2575   4
  -1   8   2 4342.43 218.120   2
  -1   8   1 11560.1 336.980   2
   1  -8  -1 11002.6 317.582   3
   1  -8   0 21.0769 24.3725   3
  -1   8   0 26.4787 24.6845   2
   1  -8   1 5987.57 201.652   3
  -1   8  -1 6164.36 220.135   2
   1  -8   2 2828.10 123.463   3
  -1   8  -2 2880.96 137.928   2
   1  -8   3 3901.19 117.507   3
  -1   8  -3 4110.63 148.125   2
   1  -8   3 3915.51 242.668   1
   1  -8   4 29504.0 658.184   1
  -1   8  -4 29296.5 315.924   2
   1  -8   5 8677.77 363.935   1
   1  -8   6 13388.1 469.203   1
   1  -8   7 1787.68 176.019   1
   1  -8   8 8693.55 397.597   1
   1  -8   9 1548.68 176.683   1
   1  -7 -11 295.972 66.5032   4
  -1   7  10 1481.85 170.656   2
   1  -7 -10 1145.32 132.288   4
   1  -7  -9 450.587 73.0716   4
  -1   7   9 452.283 95.9954   2
   1  -7  -8 2323.21 165.830   4
  -1   7   8 2448.95 201.699   2
   1  -7  -7 4841.77 224.305   4
  -1   7   7 5039.47 275.625   2
   1  -7  -6 532.566 71.2969   4
  -1   7   6 398.845 76.5371   2
   1  -7  -5 169.015 38.7259   4
  -1   7   5 169.820 46.9245   2
  -1   7   4 9310.69 324.374   2
   1  -7  -4 9331.34 236.559   4
   1  -7  -3 5562.18 160.533   4
  -1   7   3 5782.66 244.863   2
   1  -7  -2 6420.86 248.326   2
   1  -7  -2 6381.95 141.431   4
  -1   7   2 6689.30 250.222   2
   1  -7  -1 3087.05 163.462   2
  -1   7   1 3187.35 166.120   2
   1  -7   0 379.118 53.8690   2
  -1   7   0 422.648 58.2922   2
   1  -7   1 3494.24 141.798   3
  -1   7  -1 3698.87 155.622   2
   1  -7   2 3784.38 130.703   3
  -1   7  -2 3912.70 147.496   2
  -1   7  -3 3112.64 112.937   2
   1  -7   3 3060.19 93.5110   3
   1  -7   3 2852.24 188.861   1
   1  -7   4 9773.21 351.254   1
  -1   7  -4 9221.26 152.309   2
   1  -7   5 15871.4 458.980   1
  -1   7  -5 14090.2 189.873   4
   1  -7   6 490.900 90.1163   1
  -1   7  -6 547.337 48.4975   4
  -1   7  -7 24.6852 21.0877   4
   1  -7   7 24.0256 41.2251   1
   1  -7   8 1017.21 131.960   1
  -1   7  -8 1015.74 86.5966   4
   1  -7   9 2522.81 213.135   1
  -1   7  -9 2038.78 133.098   4
   1  -7  10 3756.60 270.827   1
   1  -6 -12 2598.33 221.933   4
   1  -6 -11 691.173 105.381   4
  -1   6  11 660.665 113.558   2
   1  -6 -10 1027.83 127.112   4
  -1   6  10 1076.13 139.538   2
   1  -6  -9 959.915 112.384   4
  -1   6   9 1194.37 142.444   2
   1  -6  -8 2464.04 172.007   4
  -1   6   8 2307.51 183.682   2
  -1   6   7 183.380 48.5538   2
   1  -6  -7 325.254 64.6092   4
   1  -6  -6 3771.53 181.645   4
  -1   6   6 3491.75 208.907   2
   1  -6  -5 5320.38 197.631   4
  -1   6   5 5149.10 238.559   2
  -1   6   4 17082.5 412.929   2
   1  -6  -4 17259.5 319.645   4
  -1   6   3 5377.70 219.589   2
   1  -6  -3 5748.75 161.581   4
   1  -6  -3 5809.77 232.240   2
  -1   6   2 74.7102 22.9051   2
   1  -6  -2 78.6179 27.4906   2
   1  -6  -2 47.4838 14.5743   4
   1  -6  -1 5935.34 209.256   2
  -1   6   1 6058.31 207.907   2
   1  -6   0 4642.37 173.358   2
  -1   6   0 4537.36 170.356   2
  -1   6  -1 23015.4 351.606   2
   1  -6   1 22405.6 349.069   2
   1  -6   2 12317.9 209.511   3
  -1   6  -2 12310.6 230.551   2
   1  -6   3 33143.5 582.092   1
  -1   6  -3 33372.2 318.682   2
  -1   6  -4 3597.89 90.1107   4
   1  -6   4 3713.44 200.631   1
   1  -6   5 46166.3 731.411   1
  -1   6  -5 44818.6 410.146   4
  -1   6  -6 13138.3 260.092   4
   1  -6   6 13451.7 406.362   1
   1  -6   7 20736.6 527.860   1
  -1   6  -7 20067.6 363.749   4
  -1   6  -8 4929.06 198.641   4
   1  -6   8 5173.45 272.765   1
   1  -6   9 5636.36 300.903   1
  -1   6  -9 5725.15 231.696   4
   1  -6  10 248.295 70.3195   1
  -1   6 -10 263.448 58.6324   4
   1  -6  11 99.4830 58.4057   1
  -1   6 -11 90.1471 30.4458   4
  -1   6 -12 785.211 110.317   4
   1  -5 -12 3276.55 244.435   4
  -1   5  12 3581.22 258.454   2
  -1   5  11 4405.98 272.365   2
   1  -5 -11 4588.45 273.166   4
   1  -5 -10 1625.14 155.364   4
  -1   5  10 1865.74 169.847   2
   1  -5  -9 8368.81 329.482   4
  -1   5   9 8960.61 358.236   2
  -1   5   8 705.727 101.432   2
   1  -5  -8 724.470 92.3986   4
  -1   5   7 24883.5 541.808   2
   1  -5  -7 25335.4 495.404   4
   1  -5  -6 795.569 80.5799   4
  -1   5   6 807.287 96.8602   2
   1  -5  -5 401.759 55.9606   4
  -1   5   5 490.731 72.2576   2
   1  -5  -4 7726.64 261.898   2
   1  -5  -4 7658.42 209.623   4
  -1   5   4 7669.81 259.342   2
   1  -5  -3 6540.81 229.070   2
   1  -5  -3 6571.88 171.511   4
  -1   5   3 6862.95 231.229   2
   1  -5  -2 28146.6 296.810   4
   1  -5  -2 27920.6 442.084   2
  -1   5   2 27245.2 431.377   2
  -1   5   1 34534.4 452.060   2
   1  -5  -1 33843.5 243.638   4
   1  -5  -1 35180.9 465.867   2
  -1   5   0 1403.71 86.4257   2
   1  -5   0 1401.42 87.1363   2
  -1   5  -1 19041.5 285.024   2
   1  -5   1 19079.8 288.943   2
   1  -5   2 31681.8 503.236   1
   1  -5   2 32840.4 330.432   2
  -1   5  -2 32739.8 326.144   2
   1  -5   3 832.279 86.8545   1
   1  -5   3 737.018 31.9063   3
  -1   5  -3 826.080 37.8481   4
  -1   5  -3 833.872 42.3031   2
   1  -5   3 757.568 32.0580   3
   1  -5   4 15934.3 380.796   1
  -1   5  -4 16388.8 225.673   4
   1  -5   5 6005.75 244.336   1
  -1   5  -5 5737.09 160.625   4
   1  -5   6 28805.1 561.010   1
  -1   5  -6 27987.9 402.821   4
  -1   5  -7 31989.8 475.399   4
   1  -5   7 33348.6 627.140   1
   1  -5   8-7.10784 28.1269   1
  -1   5  -8 83.3346 30.7286   4
   1  -5   9 810.100 106.661   1
  -1   5  -9 889.797 97.5344   4
  -1   5 -10 4182.23 222.046   4
   1  -5  10 4192.25 255.940   1
   1  -5  11 6668.22 338.440   1
  -1   5 -11 6492.67 289.226   4
   1  -5  12 301.873 88.1107   1
  -1   5 -12 165.325 56.8072   4
  -1   5 -13 2638.02 209.003   4
  -1   4  13 43.9297 42.5804   2
   1  -4 -12 1802.19 181.710   4
  -1   4  12 1754.95 173.032   2
  -1   4  11 1672.29 163.411   2
   1  -4 -11 1532.77 158.616   4
   1  -4 -10 11.2430 36.3031   4
  -1   4  10 13.3542 31.7952   2
  -1   4   9 1459.95 140.060   2
   1  -4  -9 1306.40 129.814   4
   1  -4  -8 2371.81 162.488   4
  -1   4   8 2329.14 165.970   2
   1  -4  -7 1988.83 137.480   4
  -1   4   7 2031.71 147.770   2
   1  -4  -6 23039.6 424.920   4
  -1   4   6 22544.9 461.614   2
   1  -4  -6 21825.6 434.063   1
   1  -4  -6 23263.8 467.519   2
   1  -4  -5 35801.2 488.396   4
   1  -4  -5 36793.3 557.539   2
  -1   4   5 35708.7 550.972   2
   1  -4  -4 983.828 88.9659   2
  -1   4   4 888.394 84.3425   2
   1  -4  -4 1019.12 76.4489   4
   1  -4  -3 1284.43 75.2562   4
   1  -4  -3 1307.85 95.1693   2
  -1   4   3 1242.86 95.0849   2
   1  -4  -2 25481.2 275.686   4
   1  -4  -2 26568.1 393.999   2
  -1   4   2 25782.4 384.094   2
  -1   4   1 1037.89 74.7551   2
   1  -4  -1 925.557 41.0467   4
   1  -4  -1 1029.37 72.8576   2
  -1   4   0 847.655 60.2618   2
   1  -4   0 838.749 60.9278   2
   1  -4   1 84659.6 526.944   2
  -1   4  -1 83723.4 521.574   2
   1  -4   2 4410.22 168.560   1
  -1   4  -2 4020.57 65.9782   4
   1  -4   2 4485.91 102.799   2
  -1   4  -2 4333.69 98.9326   2
  -1   4  -3 39.5611 12.4933   4
   1  -4   3 38.7116 26.0556   1
   1  -4   4 11053.7 290.536   1
  -1   4  -4 10909.3 198.723   4
  -1   4  -5 2982.13 160.167   1
  -1   4  -5 2684.75 114.879   4
   1  -4   5 2912.50 158.403   1
  -1   4  -6 782.594 88.9774   1
  -1   4  -6 798.261 71.3530   4
   1  -4   6 642.353 81.1064   1
   1  -4   7 1387.12 121.124   1
  -1   4  -7 1356.79 101.307   4
  -1   4  -8 1648.84 122.988   4
   1  -4   8 1569.79 138.779   1
  -1   4  -9 1244.98 117.990   4
   1  -4   9 1395.27 137.854   1
  -1   4  -9 1108.89 51.7538   3
  -1   4 -10 2321.56 168.505   4
   1  -4  10 2079.65 178.280   1
   1  -4  11 1526.38 163.402   1
  -1   4 -11 1594.08 146.224   4
  -1   4 -12 6695.48 318.445   4
   1  -4  12 6739.97 351.067   1
  -1   4 -13 1190.72 143.013   4
  -1   3  14 5185.06 298.507   2
   1  -3 -13 314.045 83.0148   4
  -1   3  13 337.478 76.3148   2
  -1   3  12 224.484 46.4303   2
   1  -3 -12 294.715 80.4564   4
  -1   3  11 2973.93 203.068   2
   1  -3 -11 3212.19 222.751   4
  -1   3  10 1472.30 139.137   2
   1  -3 -10 1470.71 143.347   4
  -1   3   9 6657.29 275.234   2
   1  -3  -9 6899.48 287.558   4
  -1   3   8 7213.10 271.533   2
   1  -3  -8 7343.68 279.133   4
   1  -3  -7 4013.44 193.021   4
   1  -3  -7 4432.82 203.145   2
  -1   3   7 4156.30 196.289   2
   1  -3  -7 4055.00 191.288   1
   1  -3  -6 2346.79 140.075   2
   1  -3  -6 2194.78 131.520   4
   1  -3  -6 2163.48 128.682   1
  -1   3   6 2175.54 135.205   2
  -1   3   5 78231.0 754.461   2
   1  -3  -5 79039.8 713.100   4
   1  -3  -5 80858.9 764.707   2
   1  -3  -4 2709.90 131.388   2
  -1   3   4 2523.32 128.351   2
   1  -3  -3 15105.5 289.408   2
  -1   3   3 14862.3 286.777   2
  -1   3   2 1609.32 90.3985   2
   1  -3  -2 1748.18 91.9299   2
   1  -3  -1 41753.6 401.295   2
  -1   3   1 40608.2 400.246   2
  -1   3   0 36350.9 339.656   2
   1  -3   0 37236.7 341.040   2
   1  -3   1 84454.5 438.741   2
  -1   3  -1 82849.9 440.664   2
   1  -3   2 24612.0 187.878   3
  -1   3  -2 24717.8 204.379   4
   1  -3   2 24231.9 338.246   1
   1  -3   2 24242.7 191.137   2
  -1   3  -3 13806.6 197.697   4
   1  -3   3 13159.2 117.742   3
  -1   3  -3 14091.3 277.028   1
   1  -3   3 13493.1 273.626   1
   1  -3   4 1530.32 100.505   1
  -1   3  -4 1301.97 40.4347   3
  -1   3  -4 1646.74 104.356   1
  -1   3  -4 1518.84 79.3343   4
  -1   3  -5 8476.50 251.963   1
  -1   3  -5 8113.11 205.722   4
   1  -3   5 8292.41 249.434   1
   1  -3   6 21986.7 430.982   1
  -1   3  -6 22743.1 442.178   1
  -1   3  -6 21164.1 223.352   3
  -1   3  -6 21624.0 375.786   4
   1  -3   7 214.808 50.0092   1
  -1   3  -7 101.709 18.8427   3
   1  -3   7 121.919 16.8163   2
  -1   3  -7 130.626 39.6401   4
  -1   3  -8 7501.39 262.689   4
  -1   3  -8 7562.40 172.163   3
   1  -3   8 7728.03 292.986   1
   1  -3   8 6973.05 130.797   2
   1  -3   9 87.2349 18.3521   2
  -1   3  -9 63.2318 20.1348   3
   1  -3   9 54.0262 35.2184   1
  -1   3  -9 87.4822 37.5614   4
   1  -3  10 2712.21 198.525   1
  -1   3 -10 2416.64 115.495   3
   1  -3  10 2263.92 90.0768   2
  -1   3 -10 2447.98 175.253   4
   1  -3  11 5635.96 296.037   1
  -1   3 -11 5780.55 280.762   4
  -1   3 -12 5550.18 295.322   4
   1  -3  12 5224.02 303.050   1
   1  -3  13 840.571 136.882   1
  -1   3 -13 588.151 105.438   4
  -1   2  14 477.104 90.5150   2
  -1   2  13 542.265 86.7022   2
   1  -2 -13 575.617 106.669   4
  -1   2  12 2110.65 168.356   2
   1  -2 -12 2325.37 198.343   4
   1  -2 -11 40754.6 770.363   4
  -1   2  11 40539.9 701.285   2
   1  -2 -10 4183.38 233.544   4
  -1   2  10 4133.95 214.431   2
  -1   2   9 5914.55 243.981   2
   1  -2  -9 5595.75 258.107   4
   1  -2  -8 14696.0 376.528   1
   1  -2  -8 16014.2 404.021   4
   1  -2  -8 16025.5 380.653   2
  -1   2   8 15659.0 377.932   2
   1  -2  -7 531.418 70.4184   1
  -1   2   7 540.277 70.0587   2
   1  -2  -7 572.802 72.1227   2
   1  -2  -7 567.112 71.4035   4
   1  -2  -6 18761.6 362.217   2
  -1   2   6 18411.2 360.941   2
   1  -2  -6 17530.6 349.224   1
   1  -2  -5 36.6377 26.8689   2
  -1   2   5 53.7373 29.2326   2
   1  -2  -5 70.5885 31.4509   1
   1  -2  -4 131555. 838.795   2
   1  -2  -4 130686. 775.706   1
  -1   2   4 130522. 832.367   2
   1  -2  -3 104601. 617.670   1
  -1   2   3 103345. 686.229   2
   1  -2  -3 104434. 677.751   2
  -1   2   2 12057.9 213.931   2
   1  -2  -2 11881.9 208.983   2
   1  -2  -1 17369.8 226.969   2
  -1   2   1 16727.5 222.218   2
  -1   2   0 14189.2 182.098   2
   1  -2   0 14499.3 183.899   2
   1  -2   1 93.6598 14.4606   4
   1  -2   1 66.7904 14.8578   2
  -1   2  -1 107.357 15.2640   4
   1  -2   1 98.3593 19.6902   1
   1  -2   1 113.636 17.7517   3
   1  -2   2 45115.6 397.320   1
  -1   2  -2 46066.2 400.450   1
   1  -2   2 45836.9 322.336   4
  -1   2  -2 44219.2 263.339   3
  -1   2  -2 44667.0 316.802   4
   1  -2   2 45309.7 262.534   3
   1  -2   3 50152.0 408.179   4
  -1   2  -3 49250.7 404.666   4
   1  -2   3 49637.6 301.638   3
  -1   2  -3 48861.2 295.507   3
  -1   2  -3 50918.1 481.811   1
   1  -2   3 50288.7 477.164   1
   1  -2   4 76684.8 652.089   1
  -1   2  -4 75728.2 416.278   3
  -1   2  -4 77244.2 658.639   1
  -1   2  -4 74082.3 576.715   4
   1  -2   4 74988.9 370.359   2
  -1   2  -5 57708.4 416.651   3
  -1   2  -5 57200.3 621.154   1
  -1   2  -5 56944.8 567.651   4
   1  -2   5 57061.7 619.411   1
   1  -2   5 56711.0 369.733   2
  -1   2  -6 243.214 43.6864   1
   1  -2   6 329.599 49.3905   1
  -1   2  -6 409.545 55.4045   4
  -1   2  -6 355.050 39.0315   3
   1  -2   6 335.508 33.2936   2
  -1   2  -7 2691.54 150.229   4
   1  -2   7 2778.36 159.765   1
  -1   2  -7 2734.29 160.832   1
  -1   2  -7 2612.89 111.332   3
   1  -2   7 2570.19 98.4540   2
  -1   2  -8 933.127 73.0741   3
   1  -2   8 850.177 62.5528   2
  -1   2  -8 893.763 94.3609   4
   1  -2   8 1000.72 106.976   1
   1  -2   9 8156.22 315.304   1
  -1   2  -9 8326.65 230.252   3
  -1   2  -9 8331.91 302.597   4
   1  -2   9 8149.28 206.588   2
   1  -2  10 2630.00 125.889   2
   1  -2  10 2649.90 192.378   1
  -1   2 -10 2627.88 139.026   3
  -1   2 -10 2535.03 181.736   4
  -1   2 -11 8686.56 353.266   4
   1  -2  11 8312.30 234.045   2
   1  -2  11 8252.73 356.936   1
  -1   2 -12 1214.19 140.541   4
   1  -2  12 846.245 119.359   1
   1  -2  13-91.8023 56.3691   1
  -1   2 -13 59.7466 44.2240   4
  -1   1  14 241.286 59.7804   2
  -1   1  13 3717.97 222.815   2
   1  -1 -13 4006.63 267.444   4
  -1   1  12 408.871 74.4169   2
   1  -1 -12 438.829 95.9736   4
  -1   1  11 4180.63 247.475   1
   1  -1 -11 3705.50 235.961   4
  -1   1  11 4423.58 219.282   2
  -1   1  10 524.835 88.8076   1
  -1   1  10 483.262 69.2171   2
   1  -1 -10 410.193 72.9112   4
  -1   1   9 59994.2 797.156   1
   1  -1  -9 58547.4 816.013   4
   1  -1  -9 59842.8 728.784   2
  -1   1   9 57889.3 711.805   2
  -1   1   8 11.6795 29.2249   2
   1  -1  -8 44.9247 28.2553   2
   1  -1  -8-36.0330 34.5876   1
  -1   1   8-6.38706 20.4993   1
   1  -1  -7 1217.92 92.6925   2
  -1   1   7 1354.64 104.901   1
   1  -1  -7 1220.27 98.3616   1
  -1   1   7 1305.02 95.3655   2
   1  -1  -6 903.992 74.8088   2
   1  -1  -6 852.569 77.1768   1
  -1   1   6 811.491 72.6634   2
  -1   1   6 896.085 77.3926   1
  -1   1   5 26664.3 373.249   2
   1  -1  -5 26190.6 374.928   1
   1  -1  -5 26548.4 369.556   2
  -1   1   5 27635.5 382.508   1
  -1   1   4 3456.79 125.307   2
   1  -1  -4 3492.88 124.282   2
   1  -1  -4 3514.29 121.254   1
  -1   1   4 3512.85 120.598   1
   1  -1  -3 16416.9 221.244   1
  -1   1   3 15763.8 242.903   2
   1  -1  -3 15951.7 242.036   2
  -1   1   2 24043.5 270.355   2
   1  -1  -2 25175.7 214.125   1
   1  -1  -2 24208.7 269.113   2
  -1   1   1 82487.9 449.577   2
   1  -1  -1 82507.6 446.019   2
   1  -1   0 206.541 20.7366   4
  -1   1   0 141.561 20.0639   3
   1  -1   0 186.301 21.5803   3
   1  -1   1 57217.0 329.450   3
   1  -1   1 57770.7 341.739   4
   1  -1   1 56988.2 322.372   1
  -1   1  -1 57325.5 319.160   1
  -1   1  -1 56963.1 339.017   4
  -1   1  -1 56902.9 329.216   3
  -1   1  -2 259.925 30.2694   4
   1  -1   2 262.698 28.0826   1
  -1   1  -2 209.922 24.1135   3
   1  -1   2 255.332 26.5757   3
  -1   1  -2 287.522 31.4855   1
   1  -1   2 293.382 30.6502   4
  -1   1  -3 816.318 59.2171   1
   1  -1   3 831.542 58.0288   1
   1  -1   3 928.713 53.0551   3
  -1   1  -3 856.363 49.5923   3
   1  -1   3 929.969 61.6294   4
  -1   1  -3 922.348 61.4710   4
  -1   1  -4 5520.42 164.793   4
   1  -1   4 5625.09 172.000   1
   1  -1   4 5461.45 164.216   4
  -1   1  -4 5469.93 137.731   3
  -1   1  -4 5612.42 171.427   1
   1  -1   4 5363.11 129.428   2
   1  -1   5 6064.86 151.552   2
  -1   1  -5 6091.15 192.538   4
  -1   1  -5 6129.77 199.606   1
  -1   1  -5 6262.65 163.979   3
   1  -1   5 6139.85 200.954   1
   1  -1   5 5992.83 195.245   4
  -1   1  -6 82441.3 644.847   3
   1  -1   6 80863.6 601.408   2
  -1   1  -6 79136.7 785.084   1
   1  -1   6 83621.5 799.781   1
  -1   1  -6 81542.0 767.962   4
  -1   1  -7 6332.25 242.565   1
  -1   1  -7 6527.62 197.952   3
   1  -1   7 6248.00 181.391   2
  -1   1  -7 6576.97 238.555   4
   1  -1   7 6701.21 248.043   1
   1  -1   8 4225.60 159.968   2
  -1   1  -8 4286.28 172.735   3
  -1   1  -8 4360.35 207.663   4
   1  -1   8 4218.40 208.351   1
  -1   1  -9 5826.35 215.305   3
   1  -1   9 5567.75 195.180   2
   1  -1   9 5552.04 257.031   1
  -1   1  -9 5824.03 260.144   4
  -1   1 -10 915.480 91.0939   3
   1  -1  10 1070.85 123.797   1
  -1   1 -10 946.941 115.871   4
   1  -1  10 1030.85 91.7453   2
  -1   1 -11 12124.0 421.196   4
   1  -1  11 11579.4 418.964   1
   1  -1  11 12084.8 324.193   2
   1  -1  12 853.500 126.517   1
   1  -1  12 795.883 88.3770   2
  -1   1 -12 651.641 108.965   4
   1  -1  13 5940.28 339.132   1
  -1   1 -13 6064.78 334.796   4
  -1   0  14 712.263 118.951   1
  -1   0  13 2725.78 177.487   2
   1   0 -13 2662.32 217.675   4
  -1   0  13 2661.83 220.768   1
  -1   0  12-2.54437 50.0449   1
  -1   0  12-38.4219 29.5886   2
   1   0 -12 24.8413 40.9812   4
   1   0 -11 47.4153 43.3680   4
  -1   0  11 31.5989 23.3619   2
  -1   0  11 21.2285 28.7281   1
   1   0 -10 17.4360 25.4111   2
   1   0 -10-13.9453 28.9769   4
  -1   0  10 10.1331 27.6477   2
  -1   0  10 29.3224 38.9227   1
  -1   0   9 74474.7 753.323   2
   1   0  -9 74468.2 759.330   2
  -1   0   9 74318.5 882.783   1
   1   0  -8 32169.8 547.870   1
  -1   0   8 32019.3 464.609   2
   1   0  -8 32059.2 466.244   2
  -1   0   8 32636.9 553.324   1
   1   0  -7 2211.35 115.332   2
   1   0  -7 2010.71 127.582   1
  -1   0   7 2019.26 124.714   1
  -1   0   7 2148.84 112.751   2
   1   0  -6 18811.8 309.185   2
  -1   0   6 18983.4 349.383   1
   1   0  -6 18593.7 349.443   1
  -1   0   6 18878.9 313.690   2
  -1   0   5 1705.10 87.8482   2
   1   0  -5 1830.28 90.7114   2
   1   0  -5 1766.30 99.4663   1
  -1   0   5 1819.51 100.018   1
  -1   0   4 54.5865 20.2302   1
  -1   0   4 58.5729 23.2394   2
   1   0  -4 48.2747 21.1358   2
   1   0  -4 40.2709 18.7252   1
  -1   0   3 3806.60 106.630   1
  -1   0   3 3937.85 112.253   2
   1   0  -3 3708.13 108.655   2
   1   0  -3 3921.97 109.142   1
   1   0  -2 19558.4 223.264   3
   1   0  -2 19676.6 193.610   1
   1   0  -2 19254.7 226.309   2
  -1   0   2 19577.0 194.007   1
  -1   0   1 171847. 615.209   3
   1   0  -1 175203. 620.287   3
  -1   0   0 35.8394 15.0182   3
   1   0   0 14.9239 12.5702   3
  -1   0   0 26.9699 14.0597   4
   1   0   0 58.7036 16.8411   4
   1   0   1 303.970 31.1349   4
   1   0   1 330.215 31.9059   3
  -1   0  -1 290.256 29.3658   3
  -1   0  -1 352.746 33.1800   4
  -1   0  -1 322.983 25.8182   1
   1   0   2 48177.0 397.331   4
  -1   0  -2 46139.3 377.382   3
   1   0   2 46675.9 379.919   3
  -1   0  -2 46132.7 396.097   4
  -1   0  -2 46459.1 371.658   1
  -1   0  -3 1195.35 72.2000   1
   1   0   3 1191.23 73.9959   4
   1   0   3 1307.14 74.1027   1
   1   0   3 1234.38 70.5364   3
  -1   0  -3 1156.60 66.7596   3
  -1   0  -3 1209.46 74.5688   4
   1   0   4 10390.7 233.919   1
   1   0   4 9786.09 204.232   2
  -1   0  -4 9486.64 207.819   3
  -1   0  -4 9833.25 231.862   4
   1   0   4 10300.9 234.657   4
  -1   0  -4 9632.95 226.521   1
   1   0   5 10782.5 264.587   1
  -1   0  -5 10458.1 260.839   4
  -1   0  -5 10145.1 256.647   1
  -1   0  -5 10595.8 236.316   3
   1   0   5 10446.7 228.615   2
   1   0   5 11007.4 272.436   4
  -1   0  -6 29477.4 426.870   3
  -1   0  -6 29520.8 481.891   1
   1   0   6 30590.5 493.135   4
   1   0   6 29392.4 414.166   2
  -1   0  -6 29885.4 484.017   4
   1   0   6 29924.7 479.549   1
  -1   0  -7 21836.7 444.575   1
  -1   0  -7 22410.5 398.938   3
   1   0   7 22552.7 451.495   1
  -1   0  -7 21903.3 440.262   4
   1   0   7 22018.1 380.079   2
  -1   0  -8 2456.32 161.324   4
   1   0   8 2456.60 161.241   1
   1   0   8 2511.24 138.074   2
  -1   0  -8 2538.30 143.421   3
  -1   0  -9 3801.34 185.777   3
   1   0   9 3605.15 210.249   1
   1   0   9 3758.37 176.824   2
  -1   0  -9 3775.93 214.525   4
  -1   0 -10 4747.14 254.438   4
   1   0  10 4508.80 204.177   2
   1   0  10 4538.04 251.277   1
   1   0  11 1638.02 132.302   2
   1   0  11 1449.83 151.361   1
  -1   0 -11 1459.16 151.738   4
   1   0  12-4.65705 33.3696   2
  -1   0 -12 67.4092 39.4263   4
  -1   0 -13 1312.44 159.589   4
   1   0  13 1370.46 129.650   2
   1   1 -13 1007.88 137.678   4
  -1  -1  13 1016.24 135.535   1
   1   1 -12 7740.20 352.071   4
  -1  -1  12 8171.04 272.997   2
  -1  -1  12 7941.35 354.310   1
   1   1 -11 908.143 118.267   4
  -1  -1  11 1003.23 92.4707   2
  -1  -1  11 963.209 119.530   1
  -1  -1  10 12940.4 398.823   1
   1   1 -10 13111.0 313.586   2
   1   1 -10 13083.9 406.178   4
  -1  -1  10 13167.6 315.955   2
   1   1  -9 6837.00 213.935   2
  -1  -1   9 7056.87 216.304   2
  -1  -1   9 6978.49 278.745   1
   1   1  -8 2427.61 119.132   2
  -1  -1   8 2205.95 143.960   1
  -1  -1   8 2262.87 116.382   2
   1   1  -8 2261.42 147.070   1
  -1  -1   7 37385.9 436.256   2
   1   1  -7 36600.6 549.798   1
  -1  -1   7 37325.0 543.356   1
   1   1  -7 36725.4 428.780   2
  -1  -1   6 1781.32 88.3744   2
   1   1  -6 1618.18 85.1808   2
  -1  -1   6 1658.59 108.487   1
   1   1  -6 1575.41 105.445   1
  -1  -1   5 17424.6 316.465   1
   1   1  -5 17004.6 256.310   2
   1   1  -5 17628.4 324.284   1
   1   1  -4 305.502 40.9507   1
   1   1  -4 221.446 30.5807   2
  -1  -1   4 246.534 37.9855   1
   1   1  -4 305.779 32.5625   3
   1   1  -3 43517.3 346.448   3
   1   1  -3 42803.5 350.377   2
   1   1  -3 45033.1 408.698   1
  -1  -1   3 44134.2 405.559   1
   1   1  -2 4074.09 101.675   3
  -1  -1   2 4136.00 111.150   1
  -1  -1   2 4061.56 102.538   3
   1   1  -1 39263.3 315.144   3
  -1  -1   1 40148.6 320.514   3
  -1  -1   0 107213. 544.136   4
   1   1   0 106381. 545.779   4
   1   1   0 106936. 545.668   3
  -1  -1   0 108027. 548.213   3
  -1  -1  -1 992165. 1771.39   4
  -1  -1  -1 999999. 1811.91   3
   1   1   1 972704. 1818.52   3
   1   1   1 976672. 1756.08   4
   1   1   2 2038.56 90.8989   4
  -1  -1  -2 1985.16 90.4448   4
  -1  -1  -2 1973.96 91.4359   3
   1   1   2 2061.04 92.9261   3
   1   1   3 161.935 32.5491   2
  -1  -1  -3 194.144 34.0873   1
   1   1   3 174.073 34.4829   3
  -1  -1  -3 140.137 30.5448   3
  -1  -1  -3 196.285 37.5997   4
   1   1   3 160.322 32.0293   4
  -1  -1  -4 13117.1 273.721   1
  -1  -1  -4 13516.1 273.241   3
   1   1   4 13624.2 283.936   4
   1   1   4 13275.6 271.466   2
  -1  -1  -4 13331.2 277.760   4
  -1  -1  -5 4391.44 175.128   1
  -1  -1  -5 4417.26 170.164   3
   1   1   5 4620.15 181.932   4
  -1  -1  -5 4843.55 184.428   4
   1   1   5 4631.47 171.074   2
  -1  -1  -6 1894.65 119.524   3
  -1  -1  -6 1728.08 121.198   1
  -1  -1  -6 2069.88 131.917   4
   1   1   6 1724.90 113.879   2
   1   1   6 1926.65 128.720   4
  -1  -1  -7 10443.2 292.982   3
  -1  -1  -7 9519.04 302.426   1
  -1  -1  -7 10182.7 310.837   4
   1   1   7 10503.0 287.551   2
  -1  -1  -8 6947.23 274.097   4
   1   1   8 6928.48 245.908   2
  -1  -1  -8 6780.69 253.932   3
   1   1   9 301.759 60.8440   2
  -1  -1  -9 255.601 63.5130   4
   1   1  10 8628.76 304.536   2
  -1  -1 -10 8675.68 348.567   4
  -1  -1 -11 1176.45 136.444   4
   1   1  11 1107.00 114.763   2
   1   1  12 499.263 88.4855   2
  -1  -1 -12 449.424 93.1416   4
   1   1  13 837.574 112.338   2
  -1  -1 -13 785.606 126.441   4
  -1  -2  13 1414.25 165.647   1
   1   2 -13 1533.90 165.219   4
  -1  -2  12 1037.81 131.300   1
   1   2 -12 1236.29 140.408   4
   1   2 -11 2071.61 174.542   4
  -1  -2  11 2079.83 177.815   1
  -1  -2  10 208.571 50.6440   1
   1   2 -10 244.610 43.2455   2
  -1  -2   9 24511.5 523.677   1
   1   2  -9 23930.6 363.035   2
   1   2  -8 16747.8 288.284   2
  -1  -2   8 16769.5 415.297   1
   1   2  -7 526.142 47.7696   2
   1   2  -7 468.858 49.1004   3
  -1  -2   7 564.298 72.6000   1
   1   2  -7 570.728 71.4143   1
   1   2  -6 1690.20 115.312   1
   1   2  -6 1417.54 76.0705   3
   1   2  -6 1513.09 77.5086   2
  -1  -2   6 1549.59 110.990   1
   1   2  -5 26736.3 301.420   3
   1   2  -5 26408.7 301.624   2
  -1  -2   5 27212.6 431.045   1
   1   2  -4 3673.00 105.080   3
   1   2  -4 3564.87 107.642   2
   1   2  -4 3905.35 151.280   1
  -1  -2   4 3766.37 146.753   1
   1   2  -3 108.244 22.0283   3
  -1  -2   3 118.473 21.5590   3
  -1  -2   3 103.017 28.1746   1
  -1  -2   2 24617.7 267.201   3
   1   2  -2 24158.2 261.112   3
  -1  -2   1 7846.11 158.172   3
   1   2  -1 7622.43 157.171   4
   1   2  -1 7534.87 154.171   3
  -1  -2   0 3237.26 109.428   3
  -1  -2   0 2975.25 100.623   4
   1   2   0 3087.83 103.315   4
   1   2   0 3093.40 108.525   3
   1   2   1 373808. 1179.70   4
  -1  -2  -1 370277. 1187.46   4
   1   2   1 374975. 1267.44   3
  -1  -2  -2 624.188 58.6115   3
  -1  -2  -2 518.628 47.3755   4
   1   2   2 496.480 51.9295   3
   1   2   2 579.850 51.7303   4
  -1  -2  -3 11792.5 252.386   4
   1   2   3 11020.7 258.251   2
  -1  -2  -3 11598.1 260.220   3
   1   2   3 11454.1 250.880   4
  -1  -2  -4 3309.57 150.230   3
   1   2   4 3251.41 150.396   2
  -1  -2  -4 3339.55 147.135   4
  -1  -2  -4 3123.77 145.224   1
   1   2   4 3323.88 146.884   4
   1   2   5 16863.6 359.445   2
  -1  -2  -5 16654.5 356.796   3
   1   2   5 17022.8 360.042   4
  -1  -2  -5 16787.0 351.838   4
  -1  -2  -5 16184.6 352.115   1
  -1  -2  -6 443.667 64.1283   3
   1   2   6 375.191 61.1937   2
  -1  -2  -6 393.510 59.7861   1
  -1  -2  -6 306.066 55.8623   4
   1   2   6 413.199 62.5816   4
  -1  -2  -7 971.145 99.7966   3
   1   2   7 993.483 99.8470   2
  -1  -2  -7 1055.54 103.681   4
   1   2   8 159.484 47.2087   2
  -1  -2  -8 175.478 52.6662   4
   1   2   9 2197.70 159.813   2
  -1  -2  -9 1967.41 161.797   4
   1   2  10 248.304 63.1904   2
  -1  -2 -10 271.143 68.5450   4
   1   2  11 9651.89 359.773   2
  -1  -2 -11 9863.25 395.310   4
  -1  -2 -12 9052.40 400.268   4
   1   2  12 9713.35 376.289   2
   1   2  13 49.9259 38.9001   2
  -1  -3  13 969.814 136.881   1
   1   3 -13 1155.45 147.612   4
  -1  -3  12 5467.83 306.769   1
   1   3 -12 5439.29 293.497   4
   1   3 -11 3262.18 141.479   3
  -1  -3  11 3488.88 230.830   1
   1   3 -11 3447.30 218.751   4
   1   3 -10 1709.91 92.4465   2
   1   3 -10 1647.68 96.4655   3
  -1  -3  10 1681.29 153.361   1
   1   3  -9 60.6294 18.3524   2
   1   3  -9 38.5677 17.1989   3
  -1  -3   9 75.8923 36.5805   1
  -1  -3   8 1325.58 124.287   1
   1   3  -8 1468.09 80.8728   3
   1   3  -8 1537.96 79.4214   2
   1   3  -7 140.528 39.9801   1
   1   3  -7 88.1612 19.6547   3
   1   3  -7 183.985 28.8497   2
  -1  -3   7 109.539 35.2401   1
   1   3  -6 3766.14 112.652   2
   1   3  -6 4129.79 190.096   1
  -1  -3   6 3838.83 188.099   1
   1   3  -6 3688.01 111.194   3
   1   3  -5 25208.0 293.939   2
   1   3  -5 25610.6 278.509   3
  -1  -3   5 26409.1 455.658   1
  -1  -3   4 45817.9 567.137   1
   1   3  -4 45568.2 365.590   3
  -1  -3   3 164.327 25.3814   3
  -1  -3   3 126.821 32.9069   1
   1   3  -3 134.422 21.7830   3
  -1  -3   2 5763.47 142.804   3
   1   3  -2 5709.77 140.854   3
  -1  -3   1 1243.71 71.3763   3
   1   3  -1 1105.36 68.2228   3
   1   3  -1 1123.45 66.1430   4
   1   3   0 98.3340 26.7583   3
  -1  -3   0 124.867 28.1236   3
   1   3   0 83.8323 21.1573   4
  -1  -3   0 103.271 23.4540   4
   1   3   1 2166.66 97.4290   4
  -1  -3  -1 2144.09 108.780   3
   1   3   1 2150.28 109.191   3
  -1  -3  -1 2010.81 95.4938   4
  -1  -3  -2 1728.19 106.262   3
   1   3   2 1801.80 109.572   2
   1   3   2 1810.93 96.7011   4
  -1  -3  -2 1735.05 94.4588   4
  -1  -3  -3 153275. 945.017   4
   1   3   3 152629. 1048.35   2
   1   3   3 154439. 965.210   4
   1   3   4 63.7891 32.5349   2
  -1  -3  -4 56.4710 27.9750   3
  -1  -3  -4 10.5304 25.0153   4
   1   3   4 43.2968 18.7710   4
   1   3   5 15.1822 22.2470   2
  -1  -3  -5-12.8915 20.3676   3
  -1  -3  -5 38.0219 29.3232   4
   1   3   5-0.55207 20.6214   4
   1   3   6 610.599 80.1530   2
  -1  -3  -6 506.718 72.6170   4
   1   3   6 567.216 73.1870   4
  -1  -3  -7 1386.92 121.811   4
   1   3   7 1542.63 129.596   2
  -1  -3  -8 6754.20 281.113   4
   1   3   8 6870.79 281.895   2
   1   3   9 23.1315 27.4944   2
  -1  -3  -9 40.5736 39.0359   4
  -1  -3 -10 9004.47 366.475   4
   1   3  10 8972.09 355.028   2
  -1  -3 -11 12996.5 464.123   4
   1   3  11 13037.4 441.669   2
  -1  -3 -12 124.472 49.5975   4
   1   3  12 146.436 60.3586   2
   1   3  13 563.251 105.661   2
   1   4 -13 7836.30 367.513   4
  -1  -4  12 637.755 110.056   1
   1   4 -12 676.183 109.934   4
  -1  -4  11 14105.1 478.232   1
   1   4 -11 13469.3 431.112   4
   1   4 -10 264.234 32.3523   3
  -1  -4  10 199.725 59.5108   1
   1   4  -9 22575.1 273.443   3
   1   4  -9 21821.4 262.509   2
   1   4  -8 344.929 34.5505   3
  -1  -4   8 329.526 67.4893   1
   1   4  -8 328.887 33.8484   2
   1   4  -7 16958.6 230.948   2
   1   4  -7 16789.2 216.846   3
   1   4  -6 7468.42 144.163   3
   1   4  -6 7243.52 153.668   2
  -1  -4   6 7509.76 276.275   1
  -1  -4   5 8376.52 281.438   1
   1   4  -5 8210.84 155.349   3
  -1  -4   4 37105.5 346.453   3
  -1  -4   4 37038.9 564.077   1
   1   4  -4 37945.6 351.221   3
  -1  -4   3 47027.6 418.007   3
   1   4  -3 46679.3 414.016   3
  -1  -4   2 11937.4 225.607   3
   1   4  -2 12108.4 227.507   3
   1   4  -2 11934.7 227.363   4
   1   4  -1 5010.95 146.432   4
   1   4  -1 5133.32 159.064   3
  -1  -4   1 5251.10 160.871   3
  -1  -4   0 26400.8 385.969   3
   1   4   0 26351.1 402.031   2
   1   4   0 26152.1 340.232   4
   1   4   1 30982.7 463.632   2
   1   4   1 31594.2 392.529   4
  -1  -4  -1 31014.1 444.785   3
  -1  -4  -1 30335.8 387.229   4
  -1  -4  -2 2127.27 128.362   3
  -1  -4  -2 2254.52 113.988   4
   1   4   2 2441.34 118.351   4
   1   4   2 2042.30 127.366   2
  -1  -4  -3 12368.5 319.262   3
  -1  -4  -3 12294.7 283.077   4
   1   4   3 12261.9 324.693   2
   1   4   3 13169.2 294.252   4
   1   4   4 286.082 61.0671   2
  -1  -4  -4 200.327 45.9891   3
  -1  -4  -4 154.811 40.3942   4
   1   4   4 203.915 39.8497   4
  -1  -4  -5 1164.66 100.728   4
   1   4   5 1218.15 113.752   2
   1   4   5 1186.02 103.345   4
   1   4   6 7860.86 297.372   2
  -1  -4  -6 7955.00 279.432   4
   1   4   7 9046.86 333.241   2
  -1  -4  -7 8631.82 307.516   4
   1   4   8 459.198 81.2123   2
  -1  -4  -8 536.023 84.8447   4
   1   4   9 637.163 99.2004   2
  -1  -4  -9 547.872 94.0222   4
   1   4  10 380.321 83.7236   2
  -1  -4 -10 278.515 75.2211   4
   1   4  11 6747.91 338.339   2
  -1  -4 -11 6534.12 334.036   4
   1   4  12 401.521 90.8560   2
  -1  -4 -12 387.938 91.8371   4
   1   5 -13 258.760 76.4996   4
  -1  -5  12 8275.79 397.965   1
   1   5 -12 7884.69 345.941   4
   1   5 -11 592.162 95.6230   4
  -1  -5  11 613.357 105.208   1
  -1  -5  10 6500.47 324.057   1
  -1  -5   9 14966.5 483.351   1
  -1  -5   8 1615.55 153.124   1
   1   5  -8 1432.36 56.0878   2
   1   5  -7 808.614 36.9249   3
   1   5  -7 904.239 51.2298   2
  -1  -5   7 1023.34 117.687   1
   1   5  -6 9254.98 179.439   2
   1   5  -6 9806.21 153.146   3
  -1  -5   6 9864.97 347.096   1
  -1  -5   5 15.3899 27.6930   1
   1   5  -5 26.4023 12.4785   3
   1   5  -4 537.046 46.0188   3
  -1  -5   4 361.740 65.4863   1
  -1  -5   4 489.996 44.1170   3
  -1  -5   3 25323.4 335.052   3
   1   5  -3 25700.1 356.636   4
   1   5  -2 11908.8 268.502   2
   1   5  -2 12272.1 239.384   4
  -1  -5   2 12456.5 252.828   3
   1   5  -1 8580.32 200.238   4
  -1  -5   1 8449.67 223.647   3
   1   5  -1 8666.42 242.426   2
   1   5   0 1552.99 88.2597   4
  -1  -5   0 1536.60 103.398   3
   1   5   0 1606.03 112.124   2
   1   5   1 4401.09 154.929   4
  -1  -5  -1 4080.84 149.911   4
  -1  -5  -1 4150.37 178.726   3
   1   5   1 4289.30 189.926   2
   1   5   2 219.998 49.1051   2
  -1  -5  -2 226.968 44.4605   3
  -1  -5  -2 237.208 41.6043   4
   1   5   2 288.123 48.1782   4
  -1  -5  -3 14642.3 380.224   3
  -1  -5  -3 15402.6 330.955   4
   1   5   3 15262.3 332.705   4
   1   5   3 15314.1 391.924   2
  -1  -5  -4 1008.83 93.1406   4
   1   5   4 943.690 105.119   2
   1   5   4 868.677 88.1045   4
   1   5   5 3419.38 199.195   2
  -1  -5  -5 3443.24 179.903   4
   1   5   5 3609.83 186.380   4
  -1  -5  -6 5815.13 247.914   4
   1   5   6 5665.48 270.009   2
  -1  -5  -7 1519.77 135.631   4
   1   5   7 1491.25 146.364   2
   1   5   8 7067.77 323.837   2
  -1  -5  -8 6864.85 304.163   4
   1   5   9 106.402 60.0137   2
  -1  -5  -9 179.575 57.7605   4
   1   5  10 4848.60 293.321   2
  -1  -5 -10 4577.56 277.741   4
  -1  -5 -11 2617.20 219.874   4
   1   5  11 2932.62 237.099   2
   1   6 -12 926.741 119.631   4
  -1  -6  11 775.434 118.622   1
   1   6 -11 707.310 99.5875   4
  -1  -6  10 2806.99 220.412   1
  -1  -6   9 3171.33 235.574   1
  -1  -6   8 1594.45 161.194   1
   1   6  -7 2724.84 89.6198   2
  -1  -6   7 2873.25 206.075   1
  -1  -6   6 3723.30 227.281   1
   1   6  -6 3626.00 123.130   2
  -1  -6   5 52.7692 13.8944   3
  -1  -6   5 50.5755 35.5346   1
   1   6  -5 46.0695 21.8797   2
   1   6  -4 2984.82 133.676   2
  -1  -6   4 2761.66 191.598   1
   1   6  -4 3000.37 130.721   4
  -1  -6   4 2896.44 112.739   3
   1   6  -3 90.9402 29.3799   2
  -1  -6   3 125.651 31.6235   3
   1   6  -3 96.1948 21.7472   4
   1   6  -2 273.120 52.0705   2
  -1  -6   2 190.930 37.6223   3
   1   6  -2 328.851 42.3800   4
   1   6  -1 9317.32 274.961   2
   1   6  -1 9207.13 215.597   4
  -1  -6   1 9061.11 252.772   3
   1   6   0 1030.97 96.3093   2
   1   6   0 1041.62 75.5566   4
  -1  -6   0 918.197 86.9104   3
  -1  -6  -1 13612.9 286.167   4
  -1  -6  -1 14420.8 357.978   3
   1   6   1 14355.1 375.334   2
   1   6   1 14370.4 296.139   4
  -1  -6  -2 3167.46 145.810   4
   1   6   2 3197.23 149.766   4
   1   6   2 3202.46 184.562   2
   1   6   3 7574.49 243.504   4
  -1  -6  -3 8035.88 249.662   4
   1   6   3 7895.44 299.713   2
   1   6   4 1083.50 98.4742   4
  -1  -6  -4 1299.07 109.678   4
   1   6   4 1314.36 130.409   2
  -1  -6  -5 3095.64 176.852   4
   1   6   5 3463.85 217.790   2
   1   6   6 130.965 54.3761   2
  -1  -6  -6 176.353 49.0495   4
   1   6   7 12436.7 436.702   2
  -1  -6  -7 12312.1 392.676   4
  -1  -6  -8 431.289 85.3344   4
   1   6   8 427.867 82.4149   2
  -1  -6  -9 394.999 81.0376   4
   1   6   9 635.596 116.339   2
  -1  -6 -10 380.418 91.7385   4
   1   6  10 737.618 127.039   2
  -1  -7  10 6905.34 375.189   1
  -1  -7   9 4717.09 294.887   1
  -1  -7   8 5876.36 317.575   1
  -1  -7   7 3627.09 249.692   1
   1   7  -6 387.439 42.2078   2
  -1  -7   6 439.894 91.7552   1
   1   7  -5 1249.28 90.6391   4
  -1  -7   5 1208.22 141.044   1
   1   7  -5 1241.13 87.3234   2
  -1  -7   4 9123.11 212.734   3
   1   7  -4 9169.38 227.770   4
   1   7  -4 8980.43 250.465   2
  -1  -7   4 8894.43 364.697   1
  -1  -7   3 1824.86 106.399   3
   1   7  -3 1822.42 120.382   2
   1   7  -3 1859.75 98.3872   4
   1   7  -2 8184.96 206.528   4
  -1  -7   2 8208.71 241.877   3
   1   7  -2 8509.14 271.526   2
   1   7  -1 51.6798 35.4649   2
  -1  -7   1 68.1041 27.7252   3
   1   7  -1 37.9643 15.8740   4
   1   7   0 4050.52 205.317   2
  -1  -7   0 3855.07 187.509   3
   1   7   0 3964.94 153.139   4
   1   7   1 8984.59 315.743   2
   1   7   1 8473.22 237.111   4
   1   7   2 393.605 77.7554   2
  -1  -7  -2 231.108 47.7956   4
   1   7   2 273.925 48.6741   4
  -1  -7  -3 843.607 88.0391   4
   1   7   3 828.616 107.015   2
   1   7   3 890.863 88.3105   4
  -1  -7  -4 1650.61 127.680   4
   1   7   4 1876.97 164.250   2
  -1  -7  -5 3210.65 187.806   4
   1   7   5 3455.51 227.243   2
   1   7   6 279.798 76.0799   2
  -1  -7  -6 271.322 63.7394   4
  -1  -7  -7 3545.10 216.673   4
   1   7   7 3996.99 262.844   2
   1   7   8 1363.44 161.343   2
  -1  -7  -8 1491.39 150.061   4
  -1  -7  -9 577.612 101.557   4
  -1  -7 -10 1220.81 151.634   4
  -1  -8   8 3.77773 38.1070   1
  -1  -8   7 3405.08 256.045   1
  -1  -8   6 2134.54 196.154   1
  -1  -8   5 10619.9 429.885   1
   1   8  -5 11132.8 268.816   2
   1   8  -4 6985.17 234.856   2
  -1  -8   4 6420.82 334.969   1
   1   8  -3 794.882 88.2194   2
   1   8  -2 2226.42 149.607   2
   1   8  -1 2378.46 162.989   2
   1   8   0 3754.06 211.096   2
   1   8   1 669.930 94.1380   2
   1   8   2 1051.18 120.999   2
  -1  -8  -3 2599.54 151.884   4
   1   8   3 2677.70 199.118   2
  -1  -8  -4 1249.86 113.808   4
   1   8   4 1350.42 146.406   2
   1   8   5 10.5328 49.1245   2
  -1  -8  -5 212.521 57.4725   4
  -1  -8  -6 2381.13 172.526   4
   1   8   6 2615.60 218.640   2
   1   8   7 600.863 112.356   2
  -1  -8  -7 502.445 85.3506   4
  -1  -8  -8 366.972 81.5191   4
  -1  -8  -9 6226.38 325.539   4
  -1  -9   6 1201.29 160.260   1
  -1  -9   5 3742.33 275.397   1
  -1  -9   4 738.141 126.873   1
  -1  -9   3 10493.4 451.401   1
   1   9  -3 11145.6 333.648   2
   1   9  -2 851.326 96.9470   2
   1   9  -1 2424.88 172.664   2
   1   9   0 2658.77 185.552   2
   1   9   1 2641.60 194.822   2
   1   9   2 625.982 104.663   2
   1   9   3 795.350 119.176   2
   1   9   4-7.75822 41.3830   2
   1   9   5 884.066 139.165   2
   1  10  -1 174.808 52.8764   2
   1  10   0 973.434 123.621   2
   1  10   1 2253.24 193.911   2
   1  10   2 32.9764 48.4913   2
   1  10   3 384.897 89.3075   2
  -2  11   4 3256.76 243.142   2
  -2  11   3 435.108 96.6548   2
  -2  11   2 2988.69 213.291   2
  -2  11   1 224.159 59.3728   2
  -2  11   0 2097.80 163.079   2
   2 -11   1 1170.78 159.918   1
   2 -11   2 1894.24 197.987   1
   2 -11   3 2276.81 220.073   1
  -2  10   6-15.2994 43.1611   2
  -2  10   5 1990.75 188.446   2
  -2  10   4 784.825 116.203   2
  -2  10   3 6851.86 318.643   2
  -2  10   2 3210.58 210.442   2
  -2  10   1 2354.21 173.768   2
  -2  10   0 1759.48 141.506   2
  -2  10  -1 3356.58 183.238   2
   2 -10   1 3109.40 236.501   1
   2 -10   2 4259.96 277.421   1
   2 -10   3 316.983 83.8124   1
   2 -10   4 5943.18 333.274   1
   2 -10   5 1394.38 165.777   1
   2 -10   6 1437.62 172.611   1
  -2   9   8 45.1893 40.3680   2
  -2   9   7 105.633 52.6488   2
  -2   9   6 213.816 63.7807   2
  -2   9   5 3478.90 234.591   2
  -2   9   4 484.876 84.2126   2
  -2   9   3 4203.78 236.573   2
  -2   9   2 1047.70 112.210   2
  -2   9   1 350.945 62.9075   2
  -2   9   0 1600.18 126.575   2
  -2   9  -1 7665.08 258.863   2
  -2   9  -2 10311.4 277.066   2
   2  -9   2 10378.2 397.737   1
   2  -9   3 42.4792 39.5737   1
  -2   9  -3 44.9548 20.8742   2
   2  -9   4 5587.28 297.087   1
   2  -9   5 3870.97 256.489   1
   2  -9   6 5872.32 319.186   1
   2  -9   7-11.8698 56.7220   1
   2  -9   8 4995.96 312.557   1
   2  -8 -10 2355.11 190.539   4
  -2   8   9 112.762 55.6048   2
   2  -8  -9 85.9892 36.3697   4
  -2   8   8 7930.08 375.286   2
   2  -8  -8 8337.12 314.219   4
  -2   8   7 10212.4 407.057   2
   2  -8  -7 9822.78 316.467   4
  -2   8   6 4051.49 249.127   2
   2  -8  -6 3888.46 183.308   4
  -2   8   5 1679.29 151.675   2
   2  -8  -5 1722.93 111.234   4
  -2   8   4 18916.7 492.627   2
   2  -8  -4 18285.0 314.372   4
  -2   8   3 16031.1 431.695   2
   2  -8  -3 14747.3 233.569   4
  -2   8   2 1969.34 147.576   2
  -2   8   1 19125.4 425.395   2
  -2   8   0 2449.91 144.351   2
   2  -8   0 2478.14 152.169   2
  -2   8  -1 9604.14 268.037   2
   2  -8   1 9238.65 267.360   2
  -2   8  -2 2569.37 130.065   2
   2  -8   2 2528.27 129.491   2
   2  -8   2 2367.82 180.631   1
   2  -8   3 170.219 26.9439   3
   2  -8   3 229.992 30.0120   3
   2  -8   3 249.692 65.6126   1
  -2   8  -3 205.439 31.8766   2
   2  -8   4 2155.85 175.355   1
   2  -8   5 9878.15 385.428   1
   2  -8   6 3015.33 215.927   1
   2  -8   7 5318.34 299.616   1
   2  -8   8 4290.16 273.151   1
   2  -8   9 2392.26 213.952   1
   2  -7 -11 233.625 66.5735   4
  -2   7  10 130.821 60.3589   2
   2  -7 -10 80.8700 37.8869   4
  -2   7   9 293.163 75.0760   2
   2  -7  -9 446.881 75.7090   4
   2  -7  -8 3018.61 189.740   4
  -2   7   8 2784.56 216.037   2
  -2   7   7 1169.79 133.692   2
   2  -7  -7 1256.22 114.384   4
  -2   7   6 3567.39 221.584   2
   2  -7  -6 3450.04 172.218   4
  -2   7   5 5677.07 268.579   2
   2  -7  -5 5502.53 199.781   4
  -2   7   4 34342.3 623.789   2
   2  -7  -4 34180.2 441.817   4
  -2   7   3 1041.13 106.072   2
   2  -7  -3 1085.98 69.8521   4
  -2   7   2 19557.1 424.375   2
   2  -7  -2 18420.7 217.795   4
   2  -7  -2 19061.4 426.996   2
  -2   7   1 5857.61 221.959   2
   2  -7  -1 5662.40 221.872   2
  -2   7   0 11596.5 290.948   2
   2  -7   0 11444.9 297.339   2
  -2   7  -1 3194.37 144.722   2
   2  -7   1 3112.40 146.701   2
   2  -7   2 3908.51 135.681   3
  -2   7  -2 3942.44 148.453   2
   2  -7   2 3772.71 148.769   2
   2  -7   2 3802.38 208.740   1
   2  -7   3 6059.96 142.854   3
   2  -7   3 6069.22 164.717   2
   2  -7   3 5844.39 256.745   1
   2  -7   4 1016.72 38.1963   3
   2  -7   4 1190.02 121.355   1
   2  -7   4 929.555 36.3752   3
  -2   7  -5 12187.1 185.264   4
   2  -7   5 13609.1 416.065   1
   2  -7   6-11.9737 37.2727   1
  -2   7  -6 20.9389 12.9978   4
   2  -7   7 18001.2 514.489   1
  -2   7  -7 16162.1 310.792   4
   2  -7   8 56.7545 42.8291   1
  -2   7  -8 25.8565 24.2579   4
   2  -7   9 7026.62 344.434   1
  -2   7  -9 6451.89 240.831   4
   2  -7  10 3672.40 263.458   1
   2  -6 -12-29.1226 46.1534   4
  -2   6  11 1655.48 171.112   2
   2  -6 -11 1431.11 156.711   4
  -2   6  10 470.764 90.5883   2
   2  -6 -10 516.684 89.4962   4
  -2   6   9 1082.58 133.345   2
   2  -6  -9 981.489 113.916   4
   2  -6  -8 748.167 93.4108   4
  -2   6   8 788.555 106.138   2
  -2   6   7 1685.13 151.901   2
   2  -6  -7 1721.65 133.483   4
  -2   6   6 13469.2 403.195   2
   2  -6  -6 13044.3 332.736   4
  -2   6   5 5054.49 236.716   2
   2  -6  -5 5247.93 195.474   4
  -2   6   4 87.1927 39.0470   2
   2  -6  -4 189.011 36.5004   4
  -2   6   3 5005.52 212.221   2
   2  -6  -3 4925.39 212.541   2
   2  -6  -3 4962.57 150.570   4
  -2   6   2 11118.0 301.661   2
   2  -6  -2 10943.6 298.351   2
   2  -6  -2 10770.7 183.606   4
  -2   6   1 6241.47 212.794   2
   2  -6  -1 6243.48 213.342   2
   2  -6  -1 5641.47 99.2278   4
   2  -6   0 12146.0 280.414   2
  -2   6   0 12707.5 287.134   2
   2  -6   1 220.466 36.6882   2
  -2   6  -1 251.882 42.6828   2
   2  -6   2 5699.34 152.555   3
  -2   6  -2 5811.61 164.866   2
   2  -6   2 5743.14 226.583   1
   2  -6   2 6018.78 168.195   2
   2  -6   3 4996.64 124.501   3
   2  -6   3 5041.61 218.979   1
   2  -6   3 5193.50 136.838   2
   2  -6   4 9795.30 134.570   3
  -2   6  -4 10140.6 171.596   4
   2  -6   4 9665.39 145.640   2
  -2   6  -5 28583.8 348.410   4
   2  -6   5 28969.2 566.321   1
   2  -6   6 13154.6 399.787   1
  -2   6  -6 13013.7 269.596   4
  -2   6  -7 4996.63 186.629   4
   2  -6   7 5075.95 257.200   1
   2  -6   8 201.919 49.1414   1
  -2   6  -8 231.426 45.7873   4
   2  -6   9 2724.22 206.881   1
  -2   6  -9 2589.76 159.122   4
   2  -6  10 305.724 74.2781   1
  -2   6 -10 276.453 60.8243   4
   2  -6  11 6581.58 347.854   1
  -2   6 -11 6113.10 278.530   4
  -2   6 -12 31.8588 30.5879   4
  -2   5  12 1969.07 189.625   2
   2  -5 -12 1892.16 187.798   4
  -2   5  11 6331.29 323.792   2
   2  -5 -11 5937.60 307.653   4
  -2   5  10 1367.78 147.216   2
   2  -5 -10 1239.52 135.486   4
  -2   5   9 8843.57 353.063   2
   2  -5  -9 9069.71 339.784   4
   2  -5  -8 2028.95 152.207   4
  -2   5   8 1905.92 159.798   2
  -2   5   7 12538.8 384.454   2
   2  -5  -7 12377.8 347.690   4
   2  -5  -6 7016.03 243.273   4
   2  -5  -6 6533.51 241.463   1
  -2   5   6 6722.10 269.393   2
  -2   5   5 17494.0 412.426   2
   2  -5  -4 10236.4 301.589   2
  -2   5   4 10095.3 298.267   2
  -2   5   3 20582.5 401.496   2
   2  -5  -3 21998.0 419.408   2
   2  -5  -2 34274.7 494.213   2
  -2   5   2 33967.9 487.877   2
  -2   5   1 10970.3 262.398   2
   2  -5  -1 10964.9 262.653   2
  -2   5   0 884.256 71.6332   2
   2  -5   0 730.979 34.9078   4
   2  -5   0 826.803 68.2244   2
   2  -5   1 1615.09 85.7815   3
  -2   5  -1 1525.19 87.6625   2
   2  -5   1 1416.39 103.442   1
   2  -5   1 1505.22 45.1292   4
   2  -5   1 1682.68 90.0876   2
   2  -5   2 13939.5 228.484   3
   2  -5   2 13767.5 311.820   1
   2  -5   2 13692.4 232.505   2
   2  -5   2 13065.1 158.764   4
   2  -5   3 3425.07 101.371   3
  -2   5  -3 3372.40 97.3410   4
   2  -5   3 3509.33 102.623   2
   2  -5   3 3572.82 167.956   1
   2  -5   4 25647.9 232.683   2
   2  -5   4 25804.7 469.908   1
   2  -5   4 26537.1 247.738   3
  -2   5  -4 25654.3 320.004   4
   2  -5   5 109.859 15.8151   3
  -2   5  -5 95.2063 26.9227   4
   2  -5   5 152.658 43.9911   1
   2  -5   6 30001.1 564.471   1
  -2   5  -6 29106.5 428.793   4
   2  -5   7 21144.1 496.544   1
  -2   5  -7 21147.7 399.913   4
   2  -5   8 4647.13 248.001   1
  -2   5  -8 4546.51 203.202   4
   2  -5   9 2624.44 198.331   1
  -2   5  -9 2559.74 163.269   4
   2  -5  10 2550.31 203.743   1
  -2   5 -10 2400.72 170.013   4
   2  -5  11 1129.64 146.993   1
  -2   5 -11 994.176 118.772   4
  -2   5 -12 792.805 113.727   4
   2  -5  12 676.317 124.621   1
  -2   5 -13 1751.06 170.493   4
  -2   4  13 136.437 56.8687   2
   2  -4 -13-7.69725 53.6439   4
  -2   4  12 5262.18 296.685   2
   2  -4 -12 4978.44 295.036   4
  -2   4  11 3365.27 229.689   2
   2  -4 -11 3669.61 240.785   4
  -2   4  10 2154.10 175.087   2
   2  -4 -10 2198.92 177.896   4
  -2   4   9 1120.15 120.784   2
   2  -4  -9 1185.91 126.089   4
  -2   4   8 15745.1 427.206   2
   2  -4  -8 16183.0 422.847   4
  -2   4   7 66.4221 40.7925   2
   2  -4  -7 51.6720 31.2869   1
  -2   4   6 32628.8 557.771   2
   2  -4  -6 29710.4 474.949   1
  -2   4   5 3422.18 173.454   2
   2  -4  -5 3633.47 156.079   1
   2  -4  -5 3577.57 177.539   2
   2  -4  -4 485.948 63.8001   2
  -2   4   4 430.204 63.5183   2
  -2   4   3 17756.3 351.889   2
   2  -4  -3 18160.5 353.226   2
  -2   4   2 9386.78 240.448   2
   2  -4  -2 8981.88 236.981   2
  -2   4   1 32280.7 418.035   2
   2  -4  -1 32404.0 418.421   2
   2  -4   0 31507.1 385.737   2
  -2   4   0 30681.4 385.537   2
   2  -4   0 30873.4 269.195   4
   2  -4   1 1833.11 88.8412   2
   2  -4   1 1615.82 94.3036   1
   2  -4   1 1871.64 65.9867   4
   2  -4   1 1746.65 84.4175   3
   2  -4   2 2393.84 116.711   1
   2  -4   2 2322.73 91.0671   3
   2  -4   2 2407.42 92.4077   2
  -2   4  -2 2258.27 80.8348   4
   2  -4   2 2388.48 82.5114   4
   2  -4   3 23706.1 260.050   2
  -2   4  -3 23231.5 291.430   4
   2  -4   3 23507.4 387.798   1
   2  -4   3 24049.9 271.849   3
   2  -4   3 23783.0 292.977   4
   2  -4   4 3160.44 87.7298   2
   2  -4   4 3343.50 99.5227   3
  -2   4  -4 3398.28 160.160   1
   2  -4   4 3213.17 155.328   1
  -2   4  -4 3256.40 123.074   4
   2  -4   4 3203.09 122.378   4
   2  -4   5 257.699 24.2002   2
  -2   4  -5 206.642 25.8324   3
   2  -4   5 288.181 30.3499   3
   2  -4   5 301.027 54.6321   1
  -2   4  -5 256.480 47.7109   1
  -2   4  -5 232.323 40.0265   4
  -2   4  -6 30261.2 307.229   3
  -2   4  -6 32149.9 555.891   1
   2  -4   6 29368.5 240.096   2
   2  -4   6 32176.4 550.680   1
   2  -4   6 28973.9 236.171   2
  -2   4  -6 30143.6 456.056   4
  -2   4  -7 21677.6 275.984   3
  -2   4  -7 22044.3 424.752   4
  -2   4  -8 28054.0 333.249   3
  -2   4  -8 28493.7 519.999   4
   2  -4   8 29100.7 595.449   1
  -2   4  -9 1377.76 78.2266   3
   2  -4   9 1562.20 146.807   1
  -2   4  -9 1276.06 120.504   4
   2  -4  10 1766.16 168.728   1
  -2   4 -10 1760.56 148.381   4
  -2   4 -11 1367.36 138.673   4
   2  -4  11 1256.10 144.307   1
  -2   4 -12 3741.63 244.676   4
   2  -4  12 3673.86 266.596   1
  -2   4 -13 934.679 130.280   4
  -2   3  14 4035.41 263.669   2
   2  -3 -13 729.728 120.875   4
  -2   3  13 605.073 98.7115   2
  -2   3  12 1581.76 157.650   2
   2  -3 -12 1261.40 147.659   4
  -2   3  11 3249.32 212.843   2
   2  -3 -11 3097.27 218.153   4
  -2   3  10 5748.99 272.824   2
   2  -3 -10 5612.66 278.754   4
  -2   3   9 54.6134 40.2147   2
   2  -3  -8 942.441 94.9017   1
  -2   3   8 840.528 95.1165   2
   2  -3  -7 853.140 84.1438   1
  -2   3   7 925.298 97.7625   2
  -2   3   6 2268.01 142.616   2
   2  -3  -6 2203.21 137.763   2
   2  -3  -6 2117.87 119.161   1
  -2   3   5 28463.2 470.833   2
   2  -3  -5 28274.7 464.768   2
   2  -3  -4 3380.91 124.405   1
  -2   3   4 3456.12 156.471   2
   2  -3  -4 3564.35 156.375   2
   2  -3  -3 153.458 35.8762   2
  -2   3   3 94.3872 31.0312   2
   2  -3  -2 2122.32 109.394   2
  -2   3   2 2044.50 108.590   2
  -2   3   1 37100.7 427.910   2
   2  -3  -1 37744.0 421.737   2
   2  -3   0 12512.6 227.914   3
   2  -3   0 11825.7 196.752   1
   2  -3   0 12747.3 194.416   4
   2  -3   0 12747.3 232.590   2
  -2   3  -1 1570.34 70.3832   4
   2  -3   1 1692.11 80.9728   2
   2  -3   1 1733.34 73.8034   4
   2  -3   1 1657.24 79.6096   3
   2  -3   1 1558.41 76.7385   1
  -2   3  -2 99435.4 593.792   3
   2  -3   2 101885. 596.411   3
   2  -3   2 100322. 585.846   2
   2  -3   2 101788. 671.114   1
  -2   3  -2 103194. 678.524   1
  -2   3  -2 100920. 595.620   4
   2  -3   2 100173. 591.267   4
  -2   3  -3 26143.9 334.205   4
  -2   3  -3 26433.3 377.036   1
   2  -3   3 25662.6 299.013   3
   2  -3   3 26898.8 380.026   1
   2  -3   3 26326.0 337.887   4
  -2   3  -3 25514.9 298.989   3
  -2   3  -4 3755.22 156.818   1
   2  -3   4 3478.15 114.202   3
   2  -3   4 3671.80 152.979   1
  -2   3  -4 3525.53 135.890   4
   2  -3   4 3482.42 135.753   4
  -2   3  -4 3429.62 112.491   3
  -2   3  -5 22974.2 301.658   3
   2  -3   5 23966.6 422.740   1
   2  -3   5 23014.4 309.686   3
  -2   3  -5 23983.4 386.184   4
   2  -3   5 24207.2 391.436   4
  -2   3  -5 23699.8 429.053   1
   2  -3   6 5588.27 220.655   1
  -2   3  -6 5437.36 155.353   3
   2  -3   6 5610.15 142.253   2
  -2   3  -6 5946.54 234.390   1
  -2   3  -6 5350.61 200.097   4
   2  -3   6 5283.32 201.627   4
   2  -3   7 1121.88 109.479   1
   2  -3   7 1012.49 64.4431   2
  -2   3  -7 1036.97 73.4806   3
  -2   3  -7 1058.20 96.5560   4
   2  -3   8 14467.2 412.620   1
  -2   3  -8 13928.2 279.429   3
  -2   3  -8 13719.6 369.753   4
   2  -3   8 13717.6 242.693   2
  -2   3  -9 2688.30 130.685   3
  -2   3  -9 2837.49 180.066   4
   2  -3   9 2731.48 113.523   2
   2  -3   9 3001.20 200.001   1
   2  -3  10 111.357 50.2519   1
   2  -3  10 157.920 34.0658   2
  -2   3 -10 166.963 48.5144   4
  -2   3 -11 3643.69 231.501   4
   2  -3  11 3768.02 249.856   1
  -2   3 -12 1054.23 131.143   4
   2  -3  12 1216.14 154.323   1
  -2   3 -13 3193.67 239.648   4
  -2   2  14 507.916 90.6240   2
  -2   2  13 7420.90 332.846   2
   2  -2 -13 7278.21 367.868   4
  -2   2  12 1824.69 160.186   2
   2  -2 -12 1839.02 178.972   4
   2  -2 -11-94.8204 57.7061   4
  -2   2  11-0.74064 36.8873   2
  -2   2  10 1069.81 112.100   2
  -2   2   9 77.0809 33.4721   2
  -2   2   8 11639.4 332.071   2
   2  -2  -8 11561.3 318.002   1
  -2   2   7 8744.92 273.423   2
   2  -2  -7 7851.51 240.634   1
   2  -2  -7 8678.36 269.894   2
  -2   2   6 23209.7 424.990   2
   2  -2  -6 23755.7 424.554   2
  -2   2   5 8426.65 241.109   2
   2  -2  -5 7998.72 197.284   1
   2  -2  -5 8582.89 242.411   2
   2  -2  -4 171725. 804.696   1
  -2   2   4 174528. 1047.49   2
   2  -2  -3 615.401 61.4592   2
  -2   2   3 609.899 62.1742   2
   2  -2  -3 556.905 39.6914   1
   2  -2  -2 1910.56 98.4767   2
  -2   2   2 1999.92 102.973   2
   2  -2  -2 2054.96 58.9247   1
   2  -2  -1 12986.8 236.551   3
   2  -2  -1 12473.3 235.565   2
   2  -2   0 4296.42 131.861   3
   2  -2   0 4309.62 123.146   4
   2  -2   0 4320.22 132.849   2
  -2   2   0 4232.31 131.360   3
   2  -2   0 4168.63 81.5238   1
  -2   2  -1 17090.5 256.101   3
   2  -2   1 17685.4 260.325   3
   2  -2   1 16992.9 207.544   1
  -2   2  -1 17109.0 251.424   4
   2  -2   1 17036.5 247.393   4
  -2   2  -1 16503.5 205.455   1
  -2   2  -2 87340.9 581.369   3
   2  -2   2 87368.0 578.768   3
   2  -2   2 89466.5 559.814   1
  -2   2  -2 86621.7 606.160   4
   2  -2   2 87234.3 602.485   4
  -2   2  -2 87909.4 565.592   1
   2  -2   3 664.943 57.1751   1
  -2   2  -3 602.294 52.1211   3
   2  -2   3 611.525 51.1010   3
  -2   2  -3 636.884 56.1169   1
  -2   2  -3 623.817 55.5899   4
   2  -2   3 644.990 58.1947   4
   2  -2   4 1415.27 91.8339   1
  -2   2  -4 1222.24 74.1023   3
  -2   2  -4 1307.69 89.6052   1
   2  -2   4 1479.81 84.8644   3
  -2   2  -4 1324.96 89.8013   4
   2  -2   4 1326.70 88.7128   4
  -2   2  -5 571.006 54.0382   3
   2  -2   5 528.572 54.4150   3
  -2   2  -5 586.379 66.9059   4
  -2   2  -5 553.593 65.8489   1
   2  -2   5 598.899 66.2573   1
   2  -2   5 619.152 67.2600   4
   2  -2   6 9175.15 213.015   2
  -2   2  -6 9013.54 223.058   3
  -2   2  -6 9275.07 283.987   1
  -2   2  -6 8976.31 266.584   4
   2  -2   6 9225.77 275.823   4
   2  -2   6 9068.47 276.941   1
   2  -2   7 106.837 35.8307   4
   2  -2   7 240.365 51.3842   1
   2  -2   7 177.971 36.3755   2
  -2   2  -7 209.071 39.1719   3
  -2   2  -7 180.184 43.8740   4
   2  -2   8 687.778 67.0762   2
  -2   2  -8 802.396 96.7624   4
  -2   2  -8 674.239 70.2358   3
   2  -2   8 670.188 88.7016   1
  -2   2  -9 2305.43 133.783   3
  -2   2  -9 2130.11 159.888   4
   2  -2   9 2162.44 120.456   2
   2  -2   9 2193.73 168.582   1
  -2   2 -10 281.989 66.3666   4
   2  -2  10 253.374 42.8490   2
   2  -2  10 231.562 63.8705   1
   2  -2  11 1831.19 120.890   2
  -2   2 -11 1696.94 159.587   4
   2  -2  11 1867.64 176.745   1
   2  -2  12 221.917 75.1160   1
  -2   2 -12 262.964 68.5412   4
  -2   2 -13 2071.85 199.887   4
  -2   1  14 4548.53 257.942   2
  -2   1  13 3217.60 211.101   2
   2  -1 -13 2968.59 239.773   4
  -2   1  12 261.583 66.8759   2
  -2   1  12 126.599 41.4940   1
   2  -1 -12 267.557 78.3588   4
  -2   1  11 1418.16 129.253   2
  -2   1  11 1395.53 136.156   1
  -2   1  10 47058.1 737.057   1
  -2   1  10 48062.0 711.511   2
  -2   1   9 286.270 55.4177   2
  -2   1   9 311.642 60.3749   1
  -2   1   8 546.190 70.4658   2
   2  -1  -8 565.972 72.7967   2
  -2   1   8 582.492 71.1955   1
   2  -1  -8 451.122 64.1852   1
  -2   1   7 29715.2 483.036   2
   2  -1  -7 28374.7 454.196   1
  -2   1   7 29603.1 457.943   1
   2  -1  -7 29149.9 474.535   2
  -2   1   6 804.768 80.0366   2
   2  -1  -6 612.664 62.3374   1
  -2   1   6 795.613 69.2206   1
   2  -1  -6 743.885 74.0929   2
   2  -1  -5 18439.0 342.142   2
  -2   1   5 19148.9 347.418   2
   2  -1  -5 18158.5 291.841   1
  -2   1   5 19089.9 295.790   1
   2  -1  -4 7929.73 209.511   2
  -2   1   4 7770.25 208.543   2
   2  -1  -4 7538.17 162.414   1
  -2   1   4 8072.41 165.544   1
   2  -1  -3 193759. 988.587   3
   2  -1  -3 193030. 978.044   2
   2  -1  -3 190761. 662.445   1
   2  -1  -2 88202.8 634.116   3
  -2   1   2 87908.0 300.981   1
   2  -1  -2 88917.7 637.173   2
  -2   1   1 10142.6 208.570   3
   2  -1  -1 10154.5 211.179   3
  -2   1   0 22770.9 307.524   3
   2  -1   0 22579.6 305.696   3
   2  -1   0 23565.5 304.351   4
  -2   1  -1 28240.0 342.668   3
   2  -1   1 28206.1 342.233   3
  -2   1  -1 27323.6 242.971   1
  -2   1  -1 27789.5 342.234   4
   2  -1   1 28482.0 342.358   4
   2  -1   1 28800.1 249.332   1
  -2   1  -2 8085.93 189.522   3
  -2   1  -2 8321.66 166.661   1
  -2   1  -2 8320.09 200.228   4
   2  -1   2 8418.16 193.066   3
   2  -1   2 8973.07 205.818   4
   2  -1   2 8529.60 168.929   1
  -2   1  -3 2697.47 114.611   3
  -2   1  -3 2864.10 114.623   1
   2  -1   3 2924.52 120.994   3
  -2   1  -3 3095.29 131.869   4
   2  -1   3 2885.80 125.867   4
   2  -1   3 2977.47 116.283   1
  -2   1  -4 16828.1 298.034   3
  -2   1  -4 16159.1 307.022   1
   2  -1   4 16815.1 300.367   3
  -2   1  -4 16093.6 319.435   4
   2  -1   4 17287.7 329.501   4
   2  -1   4 17111.3 312.593   1
  -2   1  -5 2570.86 124.519   3
  -2   1  -5 2348.15 129.059   1
   2  -1   5 2383.52 122.444   3
  -2   1  -5 2429.50 135.907   4
   2  -1   5 2409.11 135.011   4
   2  -1   5 2468.98 130.999   1
  -2   1  -6 16232.7 326.691   3
  -2   1  -6 15495.7 358.437   1
   2  -1   6 16419.3 319.709   2
  -2   1  -6 16460.4 369.616   4
   2  -1   6 16259.5 365.246   1
   2  -1   6 16701.1 379.959   4
  -2   1  -7 6363.10 216.077   3
   2  -1   7 6539.58 214.284   2
  -2   1  -7 6454.89 248.885   4
   2  -1   7 6454.07 251.354   1
  -2   1  -8 863.085 85.6376   3
  -2   1  -8 871.836 96.8582   4
   2  -1   8 867.081 84.8626   2
   2  -1   8 980.274 106.545   1
  -2   1  -9 1202.36 106.099   3
   2  -1   9 1268.15 130.714   1
  -2   1  -9 1301.91 131.676   4
   2  -1   9 1152.48 100.025   2
   2  -1  10 1835.04 164.093   1
  -2   1 -10 1867.71 164.204   4
   2  -1  10 1591.96 121.904   2
   2  -1  11 442.214 69.9070   2
   2  -1  11 459.041 92.6937   1
  -2   1 -11 407.166 82.1935   4
   2  -1  12 2914.90 235.187   1
  -2   1 -12 3076.51 234.173   4
  -2   0  14 38.7572 36.5683   1
  -2   0  13 665.387 108.516   1
   2   0 -13 604.693 109.534   4
  -2   0  12 3360.13 223.848   1
   2   0 -12 3731.98 250.675   4
  -2   0  11 3526.88 190.625   2
  -2   0  11 3268.09 208.071   1
  -2   0  10 17223.1 400.163   2
  -2   0  10 16669.3 434.957   1
   2   0  -9 172.219 44.4286   2
  -2   0   9 208.103 43.0894   2
  -2   0   9 282.822 57.5998   1
  -2   0   8 23946.9 427.491   2
   2   0  -8 22787.1 446.998   1
   2   0  -8 23381.1 424.682   2
  -2   0   8 24059.9 454.785   1
  -2   0   7 85.8564 32.1400   1
   2   0  -7 196.565 38.3850   1
   2   0  -7 164.358 43.2738   2
   2   0  -6 955.841 80.3935   2
  -2   0   6 1020.49 80.3339   1
   2   0  -6 974.065 79.3085   1
  -2   0   5 14.3606 13.7067   1
   2   0  -5 88.4163 31.5239   3
   2   0  -5 84.3078 24.5120   1
   2   0  -5 58.5272 28.7787   2
   2   0  -4 10423.7 233.120   3
   2   0  -4 10435.6 234.326   2
  -2   0   4 10690.8 202.135   1
   2   0  -4 10481.2 200.621   1
   2   0  -3 10440.4 227.895   3
   2   0  -3 10126.4 221.359   2
  -2   0   3 10113.3 169.679   1
   2   0  -3 10458.4 172.115   1
  -2   0   2 49148.6 468.343   3
   2   0  -2 49881.8 476.631   3
  -2   0   2 48765.0 316.300   1
  -2   0   1 18.2947 19.1666   3
   2   0  -1 3.91011 18.1609   3
   2   0  -1-5.89377 16.1282   4
  -2   0   0 25101.2 336.462   3
   2   0   0 24634.8 332.109   3
  -2   0   0 24765.9 333.656   4
   2   0   0 25440.8 334.021   4
  -2   0  -1 64946.5 553.192   3
  -2   0  -1 63080.5 420.987   1
   2   0   1 62332.1 540.035   3
  -2   0  -1 63269.6 551.365   4
   2   0   1 64811.4 548.644   4
  -2   0  -2 6011.33 174.647   3
   2   0   2 5901.92 176.048   3
  -2   0  -2 6258.39 183.977   4
   2   0   2 6005.80 181.327   4
  -2   0  -2 5844.30 149.090   1
  -2   0  -3 6219.02 188.047   3
   2   0   3 6247.40 190.935   3
   2   0   3 6392.46 195.413   4
  -2   0  -3 6052.22 174.036   1
  -2   0  -3 6315.32 196.183   4
  -2   0  -4 13921.3 294.016   3
   2   0   4 14034.2 299.001   3
  -2   0  -4 13843.4 292.792   1
   2   0   4 14415.1 316.994   4
  -2   0  -4 14553.1 317.719   4
  -2   0  -5 16431.0 347.220   1
  -2   0  -5 17028.0 342.511   3
   2   0   5 16370.2 340.917   3
  -2   0  -5 16882.2 367.889   4
   2   0   5 17600.9 372.930   4
  -2   0  -6 8203.00 266.454   1
  -2   0  -6 8805.86 261.313   3
   2   0   6 8793.77 255.290   2
  -2   0  -6 8796.34 281.368   4
   2   0   6 9204.12 288.893   4
  -2   0  -7 13495.8 340.125   3
   2   0   7 13857.9 338.539   2
  -2   0  -7 13590.2 369.757   4
   2   0   8 6291.04 238.614   2
  -2   0  -8 5983.68 264.528   4
  -2   0  -9 898.066 111.453   4
   2   0   9 823.271 94.0257   2
  -2   0 -10 4904.24 265.861   4
   2   0  10 4651.34 223.798   2
   2   0  11 313.958 65.0771   2
  -2   0 -11 294.226 73.4914   4
  -2   0 -12 6973.19 355.596   4
   2   0  12 6521.18 285.142   2
  -2  -1  14 196.497 75.3488   1
   2   1 -13 66.6212 48.8550   4
   2   1 -13 48.3155 38.5120   3
  -2  -1  13 151.636 59.4080   1
   2   1 -12 6833.53 272.290   3
  -2  -1  12 7089.26 329.270   1
   2   1 -11 238.264 50.4522   3
  -2  -1  11 288.356 67.9921   1
   2   1 -10 977.221 94.8629   3
   2   1 -10 980.358 92.3398   2
  -2  -1  10 1202.06 121.736   1
   2   1  -9 1480.64 111.497   3
  -2  -1   9 1647.93 132.396   1
   2   1  -9 1551.08 111.550   2
   2   1  -8 145020. 1031.02   3
   2   1  -8 145556. 1160.98   1
  -2  -1   8 147935. 1159.73   1
   2   1  -8 144265. 1015.76   2
   2   1  -7 21120.7 370.258   2
   2   1  -7 21203.1 412.963   1
  -2  -1   7 22220.1 418.346   1
   2   1  -7 20899.2 371.893   3
   2   1  -6 2004.56 110.411   3
   2   1  -6 1973.36 109.919   2
   2   1  -6 2030.25 119.603   1
  -2  -1   6 2147.78 120.634   1
   2   1  -5 25813.1 378.944   3
   2   1  -5 25515.4 377.047   2
  -2  -1   5 26253.6 388.854   1
  -2  -1   4 48.3450 15.9842   1
   2   1  -4 96.7090 26.1662   3
   2   1  -4 114.560 26.2063   2
  -2  -1   3 50.9999 22.6095   3
   2   1  -3 87.1879 23.5680   3
  -2  -1   3 20.0281 15.5015   1
  -2  -1   2 4262.06 144.079   3
   2   1  -2 4153.17 142.786   3
  -2  -1   2 4111.79 122.198   1
  -2  -1   1 338.075 43.6310   3
   2   1  -1 384.929 46.7839   3
   2   1  -1 406.013 45.6944   4
   2   1   0 31095.8 396.869   4
  -2  -1   0 30394.7 390.733   4
   2   1   0 30413.6 390.227   3
  -2  -1   0 30580.1 393.121   3
  -2  -1  -1 1072.70 79.1557   4
  -2  -1  -1 1046.56 76.3215   3
   2   1   1 1073.47 76.6084   4
   2   1   1 1241.61 84.9135   3
  -2  -1  -2 535.910 58.9012   3
   2   1   2 583.180 61.2455   4
   2   1   2 488.059 59.3609   3
  -2  -1  -2 501.916 58.4851   4
  -2  -1  -3 1941.24 113.741   3
   2   1   3 1882.17 113.666   3
  -2  -1  -3 1769.39 102.608   1
  -2  -1  -3 1880.06 112.749   4
   2   1   3 1851.54 113.227   4
  -2  -1  -4 4447.49 179.351   3
   2   1   4 4611.04 184.980   3
  -2  -1  -4 4300.71 180.971   4
   2   1   4 4368.17 182.472   4
  -2  -1  -4 4252.72 167.868   1
  -2  -1  -5 1662.59 117.272   3
   2   1   5 1620.78 116.080   2
  -2  -1  -5 1694.99 122.309   4
   2   1   5 1820.83 127.109   4
  -2  -1  -5 1815.32 119.856   1
  -2  -1  -6 1777.72 133.875   4
   2   1   6 1824.54 134.696   4
  -2  -1  -6 1491.11 118.624   3
   2   1   6 1818.37 128.634   2
  -2  -1  -6 1587.54 122.193   1
   2   1   7 22100.2 461.026   2
  -2  -1  -7 21643.3 483.861   4
  -2  -1  -8 4917.31 243.521   4
   2   1   8 4886.48 226.751   2
   2   1   9 349.339 69.7242   2
  -2  -1  -9 384.831 78.5089   4
   2   1  10 169.190 52.6563   2
  -2  -1 -10 303.544 69.0714   4
   2   1  11 42.6568 37.1775   2
  -2  -1 -11 124.642 60.6103   4
  -2  -1 -12 1902.81 189.016   4
   2   1  12 1833.82 162.806   2
   2   1  13 23.1641 33.1196   2
   2   2 -13 4097.91 272.830   4
  -2  -2  13 4350.22 278.474   1
  -2  -2  12 147.876 65.2634   1
   2   2 -12 65.8131 32.3580   3
  -2  -2  11 8244.28 344.077   1
   2   2 -11 7686.45 261.659   3
  -2  -2  10 152.392 50.7304   1
   2   2 -10 72.5646 27.2532   3
   2   2 -10 172.414 37.7906   2
   2   2  -9 5373.42 194.534   2
   2   2  -9 5474.22 202.685   3
  -2  -2   9 5788.02 255.532   1
   2   2  -8 21765.1 377.609   2
   2   2  -8 22223.0 388.647   3
  -2  -2   8 22186.3 472.653   1
   2   2  -7 23.9778 19.1630   3
   2   2  -7-54.9837 39.5350   1
   2   2  -7-3.71300 23.1805   2
  -2  -2   7 14.4154 23.0267   1
   2   2  -6 33217.1 437.974   3
   2   2  -6 33416.0 438.089   2
   2   2  -5 1554.51 93.3432   3
   2   2  -5 1642.37 96.7213   2
  -2  -2   5 1570.86 104.409   1
  -2  -2   4 13807.9 268.165   3
  -2  -2   4 13893.2 291.405   1
   2   2  -4 13751.5 265.995   3
  -2  -2   3 173.487 38.7884   1
  -2  -2   3 195.285 34.0810   3
   2   2  -3 157.743 31.8415   3
   2   2  -2 24598.5 355.808   3
  -2  -2   2 25826.3 368.037   3
   2   2  -2 25834.4 381.027   4
  -2  -2   1 4291.61 154.311   3
   2   2  -1 4245.92 152.794   3
   2   2  -1 4308.28 155.905   4
  -2  -2   0 9844.86 244.193   3
   2   2   0 10082.3 243.015   3
  -2  -2   0 10121.4 239.406   4
   2   2   0 10632.6 246.145   4
   2   2   1 15534.8 304.416   4
  -2  -2  -1 15172.1 311.408   3
   2   2   1 15456.2 313.854   3
  -2  -2  -1 15124.0 301.496   4
  -2  -2  -2 68742.1 672.580   4
  -2  -2  -2 68712.9 687.572   3
   2   2   2 68207.0 684.745   3
   2   2   2 69358.9 673.634   4
  -2  -2  -3 20920.2 407.909   3
   2   2   3 21935.3 409.472   3
  -2  -2  -3 21198.7 393.716   4
   2   2   3 21920.9 400.733   4
   2   2   4 2837.19 154.354   4
  -2  -2  -4 2874.14 155.045   4
   2   2   4 2792.26 154.921   2
  -2  -2  -4 3030.52 160.180   3
   2   2   4 2908.32 158.240   3
  -2  -2  -4 2687.81 145.321   1
  -2  -2  -5 3439.28 178.903   4
  -2  -2  -5 3356.80 178.418   3
   2   2   5 3523.87 180.976   2
  -2  -2  -5 3193.52 168.077   1
   2   2   5 3481.61 181.137   4
   2   2   6 1045.76 103.745   2
  -2  -2  -6 962.982 102.411   4
   2   2   7 3922.03 208.769   2
  -2  -2  -7 3785.87 209.984   4
  -2  -2  -8 7563.62 314.691   4
   2   2   8 7232.86 295.703   2
  -2  -2  -9 4374.41 256.055   4
   2   2   9 4621.65 245.560   2
   2   2  10 220.347 63.8343   2
  -2  -2 -10 147.229 50.1914   4
  -2  -2 -11 4648.58 289.674   4
   2   2  11 5321.98 283.450   2
  -2  -2 -12 2698.14 229.568   4
   2   2  12 2497.86 203.658   2
   2   2  13 339.230 83.2724   2
   2   3 -13 8883.38 406.680   4
  -2  -3  13 9749.68 425.892   1
  -2  -3  12 1844.52 176.642   1
   2   3 -11 1358.06 101.730   3
  -2  -3  11 1311.67 142.423   1
  -2  -3  10 49.7765 38.9905   1
   2   3 -10 42.7292 22.5940   3
   2   3  -9 4.81564 18.2046   3
   2   3  -9 54.1972 21.6528   2
  -2  -3   9 0.23832 27.8190   1
   2   3  -8 13155.4 284.339   2
   2   3  -8 13350.8 286.452   3
  -2  -3   8 13940.9 393.922   1
   2   3  -7 1475.87 94.5391   2
   2   3  -7 1583.60 96.8986   3
  -2  -3   7 1568.43 128.486   1
   2   3  -6 8647.62 220.087   3
  -2  -3   6 8684.06 282.393   1
   2   3  -6 8808.78 226.791   2
   2   3  -5 48.0389 17.9278   3
  -2  -3   5 61.4755 25.6091   1
  -2  -3   4 2375.52 114.439   3
   2   3  -4 2419.15 115.219   3
  -2  -3   4 2330.90 134.412   1
  -2  -3   3 4577.97 159.687   3
   2   3  -3 4254.82 153.416   3
  -2  -3   3 4414.17 182.988   1
  -2  -3   2 3125.67 135.626   3
   2   3  -2 3154.06 135.624   3
   2   3  -2 3482.42 145.755   4
  -2  -3   1 18513.2 339.291   3
   2   3  -1 18331.7 338.815   3
   2   3  -1 19091.0 337.868   4
  -2  -3   0 5058.01 183.837   3
   2   3   0 5031.58 176.563   4
   2   3   0 5218.26 188.960   3
  -2  -3  -1 7948.82 229.756   4
  -2  -3  -1 8064.97 244.430   3
   2   3   1 7970.95 242.054   3
   2   3   1 8451.57 236.400   4
   2   3   2 217543. 1239.27   4
  -2  -3  -2 216991. 1251.38   4
  -2  -3  -2 214588. 1300.05   3
   2   3   2 215473. 1307.83   3
   2   3   3 386.125 65.9661   3
  -2  -3  -3 366.266 59.3138   3
  -2  -3  -3 415.524 60.8064   4
   2   3   3 407.986 55.0870   4
  -2  -3  -4 5118.29 212.445   4
  -2  -3  -4 5136.73 227.824   3
   2   3   4 5136.21 224.171   2
   2   3   4 5451.09 220.875   4
   2   3   5 1935.39 144.930   2
  -2  -3  -5 1902.41 138.937   4
  -2  -3  -6 7974.83 297.507   4
   2   3   6 7982.78 306.155   2
   2   3   7 55.7797 27.5208   2
  -2  -3  -7 50.1519 37.8721   4
   2   3   8 527.176 86.9990   2
  -2  -3  -8 440.692 79.1614   4
   2   3   9 417.771 79.5900   2
  -2  -3  -9 371.291 77.4522   4
   2   3  10 810.790 115.305   2
  -2  -3 -10 686.663 107.411   4
  -2  -3 -11 1401.43 164.128   4
   2   3  11 1522.06 160.752   2
   2   3  12 3596.43 256.984   2
   2   4 -13 3080.27 240.133   4
  -2  -4  12 1948.28 189.860   1
  -2  -4  11 5885.44 310.792   1
  -2  -4  10 3206.43 220.084   1
   2   4  -9 5213.58 172.373   3
  -2  -4   9 5512.58 276.322   1
   2   4  -8 1721.28 100.103   2
   2   4  -8 1726.14 98.2338   3
  -2  -4   8 1805.72 152.553   1
   2   4  -7 6040.87 181.441   3
   2   4  -7 5878.71 187.035   2
  -2  -4   7 6053.44 269.031   1
  -2  -4   6 325.751 61.3658   1
   2   4  -6 277.414 38.8486   3
  -2  -4   5 200.713 35.2442   3
  -2  -4   5 129.541 42.3090   1
   2   4  -5 161.865 32.6949   3
  -2  -4   4 8379.64 222.257   3
   2   4  -4 8293.27 218.691   3
  -2  -4   4 8012.73 277.677   1
  -2  -4   3 6683.66 204.197   3
   2   4  -3 6683.63 213.497   4
   2   4  -3 6428.37 198.815   3
  -2  -4   2 712.316 69.6124   3
   2   4  -2 719.393 69.5629   4
   2   4  -2 667.280 68.0385   3
  -2  -4   1 3208.90 151.501   3
   2   4  -1 3215.70 151.550   3
   2   4  -1 3232.70 148.038   4
  -2  -4   0 1277.44 99.6400   3
   2   4   0 1425.57 105.904   3
   2   4   0 1215.30 93.1460   4
  -2  -4  -1 583.195 72.4459   3
   2   4   1 485.200 67.1997   3
  -2  -4  -1 455.782 60.2907   4
   2   4   1 509.097 61.8780   4
  -2  -4  -2 10380.8 308.997   3
   2   4   2 10777.9 313.917   3
  -2  -4  -2 10061.0 283.185   4
   2   4   2 10413.2 314.259   2
   2   4   2 10780.8 289.552   4
  -2  -4  -3 5620.36 220.733   4
   2   4   3 5567.01 238.829   2
   2   4   3 5653.16 222.266   4
  -2  -4  -4 24172.2 482.194   4
   2   4   4 24235.1 519.502   2
   2   4   5 1062.41 117.306   2
  -2  -4  -5 961.645 103.110   4
   2   4   6 815.551 107.754   2
  -2  -4  -6 572.301 85.0034   4
   2   4   7 428.005 87.2438   2
  -2  -4  -7 488.075 81.7765   4
   2   4   8 122.784 59.2860   2
  -2  -4  -8 175.297 56.6059   4
   2   4   9 1110.17 134.192   2
  -2  -4  -9 966.572 131.048   4
  -2  -4 -10 143.502 56.2956   4
   2   4  10 233.706 70.6380   2
   2   4  11 1092.27 145.294   2
  -2  -4 -11 936.196 139.424   4
  -2  -5  11 177.477 64.4050   1
  -2  -5  10 11093.7 427.767   1
  -2  -5   9 52.6667 42.3976   1
   2   5  -8 7886.47 196.337   3
  -2  -5   8 7985.28 339.836   1
  -2  -5   7 72.1460 41.1264   1
   2   5  -7 52.0569 21.0923   3
   2   5  -7 58.0826 16.4585   2
   2   5  -6 13652.2 275.322   3
  -2  -5   6 12854.4 409.552   1
  -2  -5   5 6547.19 196.877   3
  -2  -5   5 6761.56 284.530   1
   2   5  -5 7092.48 206.355   3
  -2  -5   4 8134.84 227.767   3
   2   5  -4 8477.85 233.546   3
  -2  -5   4 7875.29 304.547   1
   2   5  -4 8112.49 248.892   4
  -2  -5   3 18635.2 357.764   3
   2   5  -3 18647.4 356.829   3
   2   5  -3 18742.5 370.996   4
  -2  -5   2 5145.97 195.762   3
   2   5  -2 4853.29 190.191   3
   2   5  -2 5127.85 193.299   4
  -2  -5   1 5037.64 201.792   3
   2   5  -1 4903.56 200.614   3
   2   5  -1 4877.48 187.966   4
   2   5   0 561.348 73.2412   3
  -2  -5   0 459.155 62.3515   3
   2   5   0 528.165 65.6975   4
  -2  -5  -1 2296.18 148.711   3
   2   5   1 2302.16 134.178   4
   2   5   1 2462.74 159.629   2
  -2  -5  -1 2133.54 130.266   4
   2   5   2 525.520 78.4750   2
  -2  -5  -2 450.726 65.6335   4
   2   5   2 558.256 69.5350   4
  -2  -5  -3 5779.96 232.789   4
   2   5   3 5608.78 258.676   2
   2   5   3 5696.44 232.633   4
  -2  -5  -4 28453.9 541.331   4
   2   5   4 27524.2 590.204   2
   2   5   5 194.554 61.7851   2
  -2  -5  -5 240.411 58.0543   4
   2   5   6 65.1542 35.4790   2
  -2  -5  -6 46.8713 31.0751   4
   2   5   7 980.984 124.348   2
  -2  -5  -7 1104.20 126.409   4
  -2  -5  -8 4685.28 267.328   4
   2   5   8 5086.44 292.580   2
   2   5   9 869.836 127.206   2
  -2  -5  -9 874.595 132.477   4
   2   5  10 222.413 76.7448   2
  -2  -5 -10 397.957 91.4330   4
  -2  -6  10 85.9657 49.6425   1
  -2  -6   9 685.459 110.242   1
  -2  -6   8 10142.2 406.770   1
  -2  -6   7 328.581 75.9742   1
   2   6  -7 248.589 35.5504   3
   2   6  -6 830.244 68.0962   3
  -2  -6   6 812.554 109.236   1
  -2  -6   5 908.872 75.6543   3
   2   6  -5 812.106 87.7773   4
   2   6  -5 952.402 77.8124   3
  -2  -6   5 742.134 108.620   1
  -2  -6   4 1532.81 102.555   3
   2   6  -4 1555.10 104.843   3
  -2  -6   4 1250.05 135.290   1
   2   6  -4 1460.26 108.020   4
   2   6  -3 1239.69 98.1364   4
  -2  -6   3 1188.36 96.6773   3
   2   6  -3 1391.76 104.221   3
  -2  -6   2 28999.5 493.857   3
   2   6  -2 28946.1 491.853   3
   2   6  -2 28199.1 464.672   4
  -2  -6   1 6134.20 237.244   3
   2   6  -1 6235.11 252.792   2
   2   6  -1 5827.70 213.833   4
   2   6   0 5669.06 250.759   2
   2   6   0 5798.64 217.819   4
   2   6   1 11744.6 372.136   2
   2   6   1 11847.0 318.342   4
   2   6   2 7821.85 313.300   2
  -2  -6  -2 7569.62 264.144   4
   2   6   3 85.8517 45.3304   2
  -2  -6  -3 23.6826 25.2953   4
   2   6   4 293.392 68.5830   2
  -2  -6  -4 266.382 61.9818   4
   2   6   5 216.486 64.9576   2
  -2  -6  -5 56.3687 39.9906   4
   2   6   6 68.3336 57.5408   2
  -2  -6  -6 73.7266 36.3512   4
  -2  -6  -7 2617.85 198.940   4
   2   6   7 2959.18 229.987   2
   2   6   8 191.206 62.6959   2
  -2  -6  -8 157.211 59.0015   4
  -2  -6  -9 1802.77 178.572   4
  -2  -7   9 2803.93 232.725   1
  -2  -7   8 8524.75 391.937   1
  -2  -7   7 204.161 65.4083   1
  -2  -7   6 1744.67 176.070   1
   2   7  -6 1662.24 117.426   2
  -2  -7   5 2019.16 185.697   1
   2   7  -5 2125.93 137.805   2
  -2  -7   4 43.0511 35.5105   1
   2   7  -4 51.0065 35.7326   2
   2   7  -3 323.091 63.9050   2
   2   7  -2 162.648 42.6194   2
   2   7  -1 182.475 57.1670   2
   2   7   0 4107.60 228.997   2
   2   7   1 994.206 117.327   2
   2   7   2 4363.51 249.566   2
   2   7   3 183.210 65.2275   2
  -2  -7  -3 18.4422 28.8308   4
  -2  -7  -4 8119.35 309.956   4
   2   7   4 8370.70 366.612   2
  -2  -7  -5 2086.88 166.236   4
   2   7   5 2441.36 207.848   2
   2   7   6 1025.87 139.852   2
  -2  -7  -6 987.042 120.332   4
   2   7   7 127.713 55.8791   2
  -2  -7  -7 106.708 50.9304   4
  -2  -7  -8 1653.93 169.313   4
  -2  -7  -9 674.497 112.737   4
  -2  -8   7 976.593 142.849   1
  -2  -8   6 3651.00 263.146   1
  -2  -8   5 901.590 135.784   1
   2   8  -4-32.2842 31.7595   2
  -2  -8   4 7.39792 32.4616   1
   2   8  -3 2810.77 180.946   2
   2   8  -2 184.530 56.4446   2
   2   8  -1 119.869 46.3487   2
   2   8   0 1219.66 133.438   2
   2   8   1 84.8917 54.2973   2
   2   8   2 2162.53 186.483   2
  -2  -8  -3 2227.08 160.966   4
   2   8   3 2613.92 213.143   2
   2   8   4 690.938 118.836   2
  -2  -8  -4 657.154 96.8742   4
   2   8   5 411.598 95.2086   2
  -2  -8  -5 201.473 57.1308   4
  -2  -8  -6 1526.02 152.600   4
  -2  -8  -7-87.5913 57.1852   4
  -2  -9   4 2892.22 250.443   1
  -2  -9   3 7129.39 389.078   1
   2   9  -3 7445.42 308.133   2
   2   9  -2 513.431 87.1447   2
   2   9  -1 5281.06 279.302   2
   2   9   0 292.788 72.5531   2
   2   9   1 3902.30 256.973   2
   2   9   2 4039.05 270.209   2
   2   9   3 423.210 99.4544   2
   2  10   0 2869.11 222.748   2
   2  10   1 529.122 106.758   2
  -3  11   4 2561.15 215.273   2
  -3  11   3 113.510 44.2096   2
  -3  11   2 1679.60 159.869   2
  -3  11   1 941.688 120.204   2
   3 -11   0 3210.87 243.933   1
   3 -11   1 417.841 101.083   1
   3 -11   2 2642.96 221.227   1
   3 -11   3 423.332 86.2368   1
   3 -11   4 1802.93 192.604   1
  -3  10   6 55.7930 60.6627   2
  -3  10   5 12800.1 469.667   2
  -3  10   4 217.172 64.7009   2
  -3  10   3 3603.63 233.338   2
  -3  10   2 275.770 64.2393   2
  -3  10   1 2079.60 165.309   2
  -3  10   0 251.912 62.4024   2
   3 -10   0 287.457 64.2566   1
  -3  10  -1 1944.34 142.065   2
   3 -10   1 1882.36 175.138   1
   3 -10   2 5982.44 316.461   1
   3 -10   3 1538.72 164.777   1
   3 -10   4 6247.86 331.707   1
   3 -10   5-7.66211 38.9890   1
   3 -10   6 201.043 71.4240   1
  -3   9   7 1942.34 189.378   2
  -3   9   6 3343.99 240.849   2
  -3   9   5 4156.31 257.140   2
  -3   9   4 2195.23 180.626   2
  -3   9   3 856.971 110.191   2
  -3   9   2 1554.91 141.103   2
  -3   9   1 4264.52 222.106   2
  -3   9   0 2005.26 146.355   2
   3  -9   1 753.264 82.6965   3
  -3   9  -1 750.457 85.7944   2
   3  -9   1 727.157 106.695   1
   3  -9   2 938.170 83.4116   3
   3  -9   2 915.500 113.440   1
   3  -9   3 3978.74 240.998   1
   3  -9   4 430.938 85.7110   1
   3  -9   5 14155.1 471.794   1
   3  -9   6 5272.09 298.681   1
   3  -9   7 2938.76 227.831   1
   3  -9   8 2758.20 230.397   1
   3  -8 -10 4588.84 265.099   4
  -3   8   9 22.9304 45.0988   2
   3  -8  -9 88.7523 45.8305   4
  -3   8   8 2372.06 206.560   2
   3  -8  -8 2224.51 163.110   4
  -3   8   7 79.4537 50.8934   2
   3  -8  -7-51.3572 39.0987   4
  -3   8   6 186.384 66.3474   2
   3  -8  -6 128.362 36.4183   4
  -3   8   5 276.829 62.3127   2
   3  -8  -5 225.099 42.1584   4
  -3   8   4 85.6714 45.0735   2
   3  -8  -4 83.4888 27.1717   4
  -3   8   3 6302.72 275.339   2
   3  -8  -3 5605.60 154.908   4
   3  -8  -2 9827.16 160.352   4
   3  -8  -2 9701.51 158.395   4
  -3   8   1 7385.83 273.503   2
   3  -8   0 589.376 77.9518   2
  -3   8   0 605.144 77.1622   2
   3  -8   1 1544.28 107.529   3
  -3   8  -1 1550.18 114.642   2
   3  -8   1 1533.27 135.667   1
   3  -8   1 1663.51 121.323   2
   3  -8   2 12234.1 283.008   3
   3  -8   2 11222.3 361.746   1
   3  -8   2 11481.2 288.588   2
   3  -8   3 6415.88 282.185   1
   3  -8   3 6265.32 181.355   3
   3  -8   4 371.218 38.9934   3
   3  -8   4 448.082 82.0967   1
   3  -8   5 1770.51 159.091   1
   3  -8   6 1896.60 172.431   1
   3  -8   7 7435.50 343.746   1
   3  -8   8 1400.29 153.569   1
   3  -8   9 2574.63 221.262   1
   3  -7 -11 6094.73 320.072   4
  -3   7  10 8165.54 391.798   2
   3  -7 -10 7559.75 337.038   4
   3  -7  -9 3443.59 217.567   4
  -3   7   9 3360.83 242.721   2
  -3   7   8 664.563 110.010   2
   3  -7  -8 401.744 72.1520   4
  -3   7   7 8647.38 362.353   2
   3  -7  -7 8264.73 293.992   4
  -3   7   6 9288.88 360.515   2
   3  -7  -6 8791.36 283.149   4
  -3   7   5 6259.39 286.018   2
   3  -7  -5 6127.48 218.919   4
  -3   7   4 13343.4 395.816   2
  -3   7   3 11128.8 349.350   2
  -3   7   2 20031.1 443.265   2
  -3   7   1 994.825 98.6893   2
   3  -7  -1 819.259 47.5863   4
   3  -7  -1 1065.92 99.8164   2
   3  -7   0 19576.1 389.807   3
  -3   7   0 20255.7 405.671   2
   3  -7   0 19700.2 402.208   2
   3  -7   1 6852.61 217.593   3
   3  -7   1 6467.16 249.131   1
   3  -7   1 7091.57 229.478   2
   3  -7   2 12444.8 275.065   3
   3  -7   2 12107.3 345.807   1
   3  -7   2 12696.5 289.047   2
   3  -7   3 11590.5 244.212   3
   3  -7   3 10993.5 247.092   2
   3  -7   3 11330.2 351.123   1
   3  -7   4 905.920 62.4563   3
   3  -7   4 845.771 97.7908   1
   3  -7   4 835.519 60.5299   2
   3  -7   5 1405.77 65.8135   3
  -3   7  -5 1382.72 79.5992   4
   3  -7   5 1461.59 135.046   1
   3  -7   6 3407.55 211.684   1
  -3   7  -6 2950.05 132.625   4
   3  -7   7 1866.58 163.979   1
  -3   7  -7 1674.25 111.117   4
   3  -7   8 48.8533 38.0187   1
  -3   7  -8 8.44602 22.6609   4
   3  -7   9 2421.70 200.784   1
   3  -7  10 221.507 62.9807   1
   3  -6 -12 6862.13 356.127   4
  -3   6  11 658.380 109.312   2
   3  -6 -11 617.623 106.631   4
  -3   6  10 5.44812 44.0771   2
   3  -6 -10 96.8981 49.4046   4
  -3   6   9 3519.66 241.820   2
   3  -6  -9 3421.49 218.459   4
   3  -6  -8 30.0727 34.3371   4
  -3   6   8-16.3916 33.4097   2
  -3   6   7 5485.42 274.260   2
  -3   6   6 2572.90 182.655   2
   3  -6  -6 2174.71 140.056   1
  -3   6   5 4306.96 225.693   2
  -3   6   4 8647.63 303.153   2
  -3   6   3 37526.3 603.118   2
  -3   6   2 78.9541 37.0981   2
   3  -6  -2 42.2801 29.6262   2
  -3   6   1 9175.43 277.257   2
   3  -6  -1 8798.14 183.192   4
   3  -6  -1 8732.82 267.613   2
   3  -6   0 10089.4 270.434   3
  -3   6   0 9728.16 269.800   2
   3  -6   0 9169.79 262.611   1
   3  -6   0 9661.36 174.665   4
   3  -6   0 10184.7 274.681   2
   3  -6   1 2266.46 121.426   3
   3  -6   1 2228.66 132.188   1
   3  -6   1 2313.86 83.1445   4
   3  -6   1 2320.43 124.748   2
   3  -6   2 10374.6 245.710   3
   3  -6   2 10275.2 184.006   4
   3  -6   2 10310.1 248.016   2
   3  -6   2 10280.8 290.275   1
   3  -6   3 816.823 66.4138   3
   3  -6   3 813.781 86.8216   1
   3  -6   3 862.835 59.0859   4
   3  -6   3 914.828 69.4597   2
   3  -6   4 12288.2 348.403   1
   3  -6   4 12237.4 235.699   3
  -3   6  -4 11633.8 239.977   4
   3  -6   4 11865.2 239.112   4
   3  -6   4 12026.6 230.123   2
   3  -6   5 9941.04 199.824   3
   3  -6   5 9828.13 324.667   1
  -3   6  -5 9415.55 236.660   4
   3  -6   5 9695.39 181.100   2
   3  -6   6 406.818 39.4141   3
   3  -6   6 368.223 68.9702   1
   3  -6   6 297.508 26.3168   2
  -3   6  -6 343.658 52.2273   4
   3  -6   7 885.182 109.372   1
  -3   6  -7 868.395 86.3080   4
   3  -6   8 13226.7 433.944   1
  -3   6  -8 12932.4 351.060   4
   3  -6   9 3007.83 217.705   1
  -3   6  -9 3078.24 185.144   4
   3  -6  10 5378.55 306.586   1
  -3   6 -10 5659.80 264.957   4
   3  -6  11 2859.74 240.386   1
  -3   6 -11 2941.55 201.581   4
  -3   5  12 4271.51 281.487   2
   3  -5 -12 4116.10 273.993   4
  -3   5  11 14.3318 40.2921   2
   3  -5 -11 43.6286 44.9236   4
   3  -5 -10 521.776 97.7755   4
  -3   5  10 598.382 100.493   2
  -3   5   9 589.392 101.536   2
  -3   5   8 1247.26 136.944   2
  -3   5   7 3739.97 217.173   2
   3  -5  -7 3233.07 168.075   1
  -3   5   6 5043.64 240.861   2
   3  -5  -6 4486.00 182.571   1
  -3   5   5 27153.5 535.246   2
   3  -5  -5 23953.5 399.731   1
  -3   5   4 8554.83 288.554   2
  -3   5   3 19880.1 422.168   2
   3  -5  -3 19673.5 417.599   2
  -3   5   2 7742.15 252.104   2
   3  -5  -2 7829.45 252.742   2
   3  -5  -1 20866.7 391.094   2
   3  -5  -1 19971.1 381.129   3
  -3   5   1 20151.1 386.843   2
   3  -5  -1 19723.3 294.852   4
   3  -5   0 3074.44 144.892   2
   3  -5   0 3142.55 144.372   3
   3  -5   0 3044.97 112.042   4
   3  -5   0 2855.38 128.655   1
   3  -5   1 11964.0 269.413   1
   3  -5   1 12412.4 277.651   2
   3  -5   1 12649.5 277.517   3
   3  -5   1 12264.8 221.971   4
   3  -5   2 236.720 41.2383   1
   3  -5   2 297.841 44.2058   3
   3  -5   2 255.681 40.2380   2
   3  -5   2 300.686 36.5912   4
   3  -5   3 5666.25 169.765   2
   3  -5   3 5856.60 176.045   3
  -3   5  -3 5259.66 165.796   4
   3  -5   3 5800.93 210.194   1
   3  -5   3 5698.67 168.512   4
   3  -5   4 1711.10 89.4027   2
   3  -5   4 1725.11 93.1793   3
   3  -5   4 1714.52 119.835   1
  -3   5  -4 1616.00 100.216   4
   3  -5   4 1767.36 101.642   4
   3  -5   5 3435.92 119.119   2
   3  -5   5 3408.13 129.326   3
   3  -5   5 3411.30 178.604   1
  -3   5  -5 3599.16 188.850   1
  -3   5  -5 3461.30 153.742   4
   3  -5   5 3484.15 153.537   4
  -3   5  -6 30231.6 378.373   3
   3  -5   6 31703.9 339.313   2
   3  -5   6 32125.5 581.712   1
   3  -5   6 31989.7 394.903   3
  -3   5  -6 30614.2 493.381   4
   3  -5   6 31800.5 497.744   4
  -3   5  -7 8652.00 201.296   3
   3  -5   7 8919.43 326.822   1
   3  -5   7 9051.91 169.199   2
   3  -5   7 8702.76 167.966   2
  -3   5  -7 9264.84 289.579   4
   3  -5   8 11388.7 385.180   1
  -3   5  -8 10896.1 334.949   4
   3  -5   9 2346.29 187.483   1
  -3   5  -9 2041.94 157.635   4
  -3   5 -10 2522.66 184.584   4
   3  -5  10 2794.83 217.532   1
   3  -5  11 158.054 65.8012   1
  -3   5 -11 174.010 56.1133   4
  -3   5 -12 7597.70 355.127   4
  -3   4  13 62.1878 51.3298   2
  -3   4  12 5327.47 305.096   2
   3  -4 -12 5140.13 307.847   4
   3  -4 -11 441.424 93.2267   4
  -3   4  11 481.169 93.4547   2
  -3   4  10 11277.1 407.202   2
  -3   4   9 2460.78 184.627   2
   3  -4  -8 7798.55 262.450   1
  -3   4   8 8930.72 336.319   2
   3  -4  -7 445.865 58.4300   1
  -3   4   7 582.071 85.1811   2
  -3   4   6 12671.6 365.665   2
   3  -4  -6 11007.0 266.325   1
  -3   4   5 4681.10 215.639   2
   3  -4  -5 4414.55 154.018   1
   3  -4  -4 5214.47 215.763   2
  -3   4   4 5083.71 216.719   2
   3  -4  -4 4471.33 142.820   1
   3  -4  -3 3195.19 161.380   2
  -3   4   3 3382.73 171.078   2
   3  -4  -2 20256.0 386.447   3
   3  -4  -2 20750.8 392.459   2
  -3   4   2 20396.1 390.843   2
   3  -4  -1 47976.9 568.299   3
   3  -4  -1 47295.7 565.391   2
   3  -4  -1 46784.1 476.817   4
   3  -4   0 16048.4 244.884   1
   3  -4   0 17361.6 331.907   3
   3  -4   0 17013.3 329.068   2
   3  -4   0 16691.0 281.197   4
   3  -4   1 493.139 56.2496   3
   3  -4   1 614.542 61.2145   2
   3  -4   1 547.829 51.6330   4
   3  -4   1 524.927 49.0417   1
   3  -4   2 800.243 68.8712   3
   3  -4   2 815.942 68.6004   2
  -3   4  -2 799.390 65.8765   4
   3  -4   2 759.000 65.1820   1
   3  -4   2 827.497 66.1843   4
   3  -4   3 1824.65 100.739   3
   3  -4   3 1956.89 103.347   2
   3  -4   3 2028.76 115.436   1
  -3   4  -3 1736.96 100.328   3
  -3   4  -3 1944.11 107.030   4
  -3   4  -3 1816.33 109.209   1
   3  -4   3 1901.91 105.017   4
  -3   4  -4 391.642 48.0785   3
   3  -4   4 484.111 61.6111   1
   3  -4   4 423.967 50.7103   3
  -3   4  -4 375.836 54.5361   1
  -3   4  -4 378.156 54.3119   4
   3  -4   4 420.710 54.8293   4
  -3   4  -5 9786.07 234.758   3
   3  -4   5 10001.3 290.919   1
  -3   4  -5 9737.52 289.703   1
   3  -4   5 9977.36 238.537   3
  -3   4  -5 9472.46 266.987   4
   3  -4   5 10186.5 274.888   4
  -3   4  -6 3920.15 151.181   3
   3  -4   6 4417.89 207.014   1
   3  -4   6 4205.90 158.332   3
   3  -4   6 4497.64 198.406   4
  -3   4  -6 4265.90 191.495   4
   3  -4   7 1575.48 130.735   1
  -3   4  -7 1533.20 97.3877   3
   3  -4   7 1460.17 85.6379   2
  -3   4  -7 1434.61 122.503   4
   3  -4   8 4785.61 244.378   1
  -3   4  -8 4429.58 170.672   3
  -3   4  -8 4522.10 223.440   4
   3  -4   8 4723.54 155.214   2
   3  -4   9 17.5450 42.1525   1
  -3   4  -9 40.7705 29.5359   4
  -3   4 -10 1064.38 121.703   4
   3  -4  10 1006.21 132.116   1
  -3   4 -11 165.687 60.1268   4
   3  -4  11 220.236 69.3439   1
  -3   4 -12 2141.10 194.591   4
   3  -4  12 1998.93 198.703   1
  -3   3  14 3776.35 262.688   2
  -3   3  13 15129.7 513.004   2
  -3   3  12-17.0239 33.1792   2
  -3   3  11 7047.87 327.799   2
  -3   3  10 8296.70 337.625   2
  -3   3   9 1127.68 121.450   2
  -3   3   8 990.863 109.740   2
   3  -3  -8 950.718 90.9482   1
   3  -3  -7 11791.3 285.306   1
  -3   3   7 13177.3 377.827   2
   3  -3  -6 801.565 68.9856   1
  -3   3   6 912.098 96.5033   2
   3  -3  -5 4559.82 202.036   2
   3  -3  -5 3927.20 132.876   1
  -3   3   5 4491.83 201.823   2
   3  -3  -4 10959.8 191.512   1
   3  -3  -4 11493.7 305.633   2
  -3   3   4 11682.6 310.688   2
   3  -3  -3 1243.05 99.3060   3
   3  -3  -3 1318.82 100.172   2
   3  -3  -3 1282.69 55.1868   1
   3  -3  -2 4486.24 178.185   3
   3  -3  -2 4915.08 186.214   2
   3  -3  -1 1465.14 100.083   3
   3  -3  -1 1376.18 87.5093   4
   3  -3  -1 1478.08 100.091   2
   3  -3  -1 1118.06 42.5466   1
   3  -3   0 5574.92 186.425   3
   3  -3   0 5805.88 189.331   2
   3  -3   0 5410.95 110.861   1
   3  -3   0 5647.77 172.216   4
  -3   3  -1 1612.05 99.5147   3
   3  -3   1 1472.64 94.6656   3
   3  -3   1 1502.99 69.2826   1
   3  -3   1 1470.12 88.9889   4
  -3   3  -2 3615.84 147.232   3
   3  -3   2 3927.59 151.264   4
   3  -3   2 3905.20 129.944   1
   3  -3   2 3888.16 151.609   3
  -3   3  -2 3654.16 128.534   1
  -3   3  -2 3884.68 150.975   4
  -3   3  -3 19705.3 333.356   1
  -3   3  -3 19798.8 344.831   3
   3  -3   3 20191.4 330.121   1
   3  -3   3 20409.1 346.370   3
  -3   3  -3 19909.0 355.640   4
   3  -3   3 20604.0 360.763   4
   3  -3   4 12458.6 287.534   1
  -3   3  -4 12299.5 274.875   3
   3  -3   4 12313.2 272.549   3
  -3   3  -4 12556.5 300.434   4
   3  -3   4 12587.1 301.281   4
  -3   3  -4 12476.9 293.377   1
   3  -3   5 22761.0 424.221   1
  -3   3  -5 22299.0 379.428   3
   3  -3   5 22829.9 387.689   3
  -3   3  -5 22580.5 426.547   4
   3  -3   5 23551.2 437.748   4
  -3   3  -5 22012.9 423.444   1
  -3   3  -6 1177.25 90.4289   3
  -3   3  -6 1306.70 110.487   4
   3  -3   6 1286.63 96.8805   3
  -3   3  -6 1238.96 109.197   1
   3  -3   6 1254.79 109.628   4
   3  -3   6 1253.98 108.720   1
  -3   3  -7 43028.9 559.857   3
   3  -3   7 44297.5 576.182   3
   3  -3   7 45197.2 534.394   2
  -3   3  -7 45594.9 681.621   4
   3  -3   7 45143.2 695.956   1
  -3   3  -8 17002.5 365.465   3
   3  -3   8 17811.9 347.486   2
  -3   3  -8 17189.4 443.891   4
   3  -3   8 16717.7 450.635   1
  -3   3  -9 13091.8 409.585   4
   3  -3   9 13387.5 310.777   2
   3  -3   9 13178.4 424.360   1
  -3   3 -10 4129.50 247.331   4
   3  -3  10 4432.82 260.842   1
  -3   3 -11 1203.36 139.456   4
   3  -3  11 1131.79 146.001   1
   3  -3  12 164.243 63.5394   1
  -3   3 -12 174.783 51.9206   4
  -3   2  13 10050.2 396.563   2
  -3   2  12 283.469 66.8395   2
  -3   2  11 2361.42 180.431   2
  -3   2  10 1696.54 147.490   2
  -3   2   9 3757.26 209.899   2
   3  -2  -9 3331.58 178.937   1
  -3   2   8 13.0742 26.5420   2
   3  -2  -8-5.41694 20.2274   1
  -3   2   7 8332.82 286.150   2
   3  -2  -7 7444.98 222.413   1
   3  -2  -6 3526.09 180.235   2
   3  -2  -6 3228.97 131.206   1
   3  -2  -5 11193.0 306.522   3
   3  -2  -5 11573.3 309.946   2
   3  -2  -5 10506.7 205.196   1
   3  -2  -4 3131.28 157.792   3
   3  -2  -4 3220.85 159.629   2
   3  -2  -4 2817.82 87.0477   1
   3  -2  -3 3199.79 152.571   3
   3  -2  -3 3335.57 155.534   2
   3  -2  -2 8375.83 239.397   3
   3  -2  -2 8498.64 242.950   2
  -3   2   1 12564.6 283.893   3
   3  -2  -1 12721.7 286.283   3
   3  -2  -1 12759.4 286.832   2
   3  -2  -1 13283.2 276.527   4
  -3   2   0 27436.9 412.866   3
   3  -2   0 28409.4 422.071   3
   3  -2   0 27926.5 398.953   4
  -3   2  -1 23611.4 386.474   3
   3  -2   1 24211.2 386.234   3
  -3   2  -1 23298.9 375.848   4
   3  -2   1 23666.3 377.061   4
   3  -2   1 24023.4 247.979   1
  -3   2  -1 22586.0 244.996   1
  -3   2  -2 4368.28 166.715   3
   3  -2   2 4292.55 164.201   3
  -3   2  -2 4386.11 169.042   4
  -3   2  -2 4247.36 128.729   1
   3  -2   2 4378.74 166.520   4
   3  -2   2 4410.37 129.374   1
  -3   2  -3 35963.1 483.113   3
   3  -2   3 35729.8 477.973   3
  -3   2  -3 35684.9 501.413   4
  -3   2  -3 34232.8 427.221   1
   3  -2   3 35429.5 491.991   4
   3  -2   3 35823.9 421.675   1
  -3   2  -4 21408.2 381.093   3
   3  -2   4 21390.1 382.754   3
  -3   2  -4 20834.7 370.902   1
  -3   2  -4 20679.5 406.158   4
   3  -2   4 21659.9 410.724   4
   3  -2   4 21616.3 366.132   1
  -3   2  -5 8111.36 242.900   3
   3  -2   5 8045.04 244.095   3
  -3   2  -5 7944.17 249.909   1
  -3   2  -5 8234.97 266.202   4
   3  -2   5 7938.66 265.514   4
   3  -2   5 8253.12 248.046   1
  -3   2  -6 7337.39 266.981   4
  -3   2  -6 7432.03 240.698   3
   3  -2   6 7533.64 245.221   3
  -3   2  -6 7519.70 264.475   1
   3  -2   6 7644.82 261.593   1
  -3   2  -7 9536.92 283.362   3
   3  -2   7 8947.94 278.635   3
   3  -2   7 9352.97 267.735   2
  -3   2  -7 9172.10 316.976   4
   3  -2   7 9232.10 311.476   1
  -3   2  -8 8851.16 282.966   3
   3  -2   8 8639.77 268.891   2
  -3   2  -8 8650.69 325.719   4
   3  -2   8 8319.26 315.925   1
  -3   2  -9 12434.5 409.577   4
   3  -2   9 12713.0 337.138   2
   3  -2   9 12352.4 411.122   1
  -3   2 -10 1747.34 166.209   4
   3  -2  10 1446.94 150.642   1
   3  -2  10 1574.14 122.718   2
   3  -2  11-37.8292 36.3634   1
  -3   2 -11 36.3545 49.0474   4
   3  -2  12 1848.76 192.260   1
  -3   2 -12 1737.55 183.515   4
   3  -1 -14 1172.22 139.202   3
   3  -1 -13 936.850 122.622   3
   3  -1 -12 7488.36 325.040   3
  -3   1  12 7432.19 323.483   1
  -3   1  11 6405.10 283.410   1
  -3   1  10 402.493 71.5887   1
   3  -1  -9 5095.08 237.809   3
  -3   1   9 5321.37 222.834   1
   3  -1  -9 4633.46 213.888   1
   3  -1  -8 195.175 42.3937   1
   3  -1  -8 238.175 53.9273   3
  -3   1   8 199.113 44.6006   1
   3  -1  -7 1612.95 126.522   3
   3  -1  -7 1485.52 118.927   2
  -3   1   7 1818.75 109.650   1
   3  -1  -7 1441.59 99.0177   1
   3  -1  -6 2804.87 158.412   3
   3  -1  -6 2757.31 154.023   2
  -3   1   6 2977.95 124.507   1
   3  -1  -6 2693.22 120.771   1
   3  -1  -5 13392.8 325.349   3
   3  -1  -5 13221.3 231.187   1
   3  -1  -5 13966.0 332.221   2
  -3   1   5 14201.0 237.400   1
   3  -1  -4 35295.2 514.702   3
   3  -1  -4 35486.4 513.243   2
  -3   1   4 36387.5 315.950   1
   3  -1  -3 58301.7 636.871   3
   3  -1  -3 58807.2 644.576   2
  -3   1   2 338.853 51.0424   3
   3  -1  -2 354.554 52.6620   3
  -3   1   1 240.504 46.2846   3
   3  -1  -1 320.553 51.5501   3
   3  -1  -1 378.246 51.3242   4
  -3   1   0 9854.74 254.327   3
   3  -1   0 9809.37 253.412   3
   3  -1   0 10406.5 255.757   4
  -3   1  -1 423.018 35.3699   1
  -3   1  -1 426.907 58.2234   3
   3  -1   1 428.189 56.4901   3
  -3   1  -1 402.112 55.6211   4
   3  -1   1 479.159 57.0324   4
  -3   1  -2 1478.90 101.888   3
  -3   1  -2 1461.90 77.4006   1
   3  -1   2 1396.17 100.791   3
  -3   1  -2 1335.06 101.045   4
   3  -1   2 1598.43 107.975   4
  -3   1  -3 18172.4 360.261   3
  -3   1  -3 17212.5 300.314   1
  -3   1  -3 17861.2 371.693   4
   3  -1   3 17437.9 353.445   3
  -3   1  -4-31.2327 24.3594   1
  -3   1  -4-30.6549 26.3789   3
   3  -1   4 26.9937 20.3522   3
  -3   1  -4 5.69267 20.7880   4
   3  -1   4-20.7468 19.2583   4
  -3   1  -5 124.681 28.6448   1
  -3   1  -5 173.469 42.0885   3
   3  -1   5 171.530 34.2992   1
   3  -1   5 163.543 46.5372   3
  -3   1  -5 218.364 51.6316   4
   3  -1   5 221.873 49.5212   4
  -3   1  -6 134.304 39.2736   1
   3  -1   6 216.080 49.2645   3
   3  -1   6 149.511 39.9765   1
  -3   1  -6 219.150 55.1204   4
   3  -1   7 630.957 78.3989   2
   3  -1   7 619.909 79.4737   1
  -3   1  -7 647.144 90.4597   4
   3  -1   8 2369.30 152.733   2
  -3   1  -8 2356.47 173.994   4
  -3   1  -9 6341.90 297.958   4
   3  -1   9 6494.55 260.653   2
   3  -1  10 1140.19 115.350   2
  -3   1 -10 927.717 125.846   4
   3  -1  11 117.684 44.8021   2
  -3   1 -11 199.241 67.3426   4
  -3   1 -12-13.9676 50.3865   4
  -3   0  14 1552.56 169.661   1
   3   0 -13 6627.39 306.956   3
  -3   0  13 6462.77 322.333   1
   3   0 -12 6277.99 287.649   3
  -3   0  12 6246.32 296.939   1
   3   0 -11 210.138 54.8624   3
  -3   0  11 173.252 47.8994   1
   3   0 -10 272.896 61.7082   3
  -3   0  10 181.019 50.4045   1
   3   0  -9 11330.5 342.460   3
  -3   0   9 11658.8 337.652   1
  -3   0   8 364.927 56.3487   1
   3   0  -8 206.438 48.8753   1
   3   0  -8 218.526 48.6206   3
  -3   0   7 2492.18 134.011   1
   3   0  -7 2420.01 148.922   3
   3   0  -7 2441.16 145.957   2
   3   0  -7 2269.14 127.996   1
   3   0  -6 13654.2 336.562   3
  -3   0   6 13825.5 280.592   1
   3   0  -6 13474.6 332.357   2
   3   0  -6 13424.8 287.634   1
   3   0  -5 1806.47 120.758   3
  -3   0   5 1850.07 93.6136   1
   3   0  -5 1855.40 122.278   2
   3   0  -4 1280.81 99.5833   3
   3   0  -4 1290.04 99.4674   2
  -3   0   4 1415.94 71.8504   1
  -3   0   3 31836.2 478.439   3
   3   0  -3 31779.2 472.023   3
  -3   0   3 32092.4 304.116   1
  -3   0   2 48279.6 579.969   3
   3   0  -2 48195.0 574.359   3
   3   0  -2 49236.9 582.371   4
  -3   0   1 24037.5 412.129   3
   3   0  -1 23839.5 403.594   3
   3   0  -1 24667.2 407.993   4
  -3   0   0 449.158 56.6166   3
   3   0   0 503.029 62.4648   3
   3   0   0 391.312 51.0264   4
  -3   0  -1 22726.7 406.828   3
   3   0   1 22001.4 393.904   3
   3   0   1 22864.3 401.328   4
  -3   0  -1 22504.1 399.721   4
  -3   0  -1 21349.7 281.548   1
  -3   0  -2 38179.3 533.566   3
   3   0   2 36905.5 524.387   3
  -3   0  -2 36460.9 525.354   4
   3   0   2 37825.9 536.246   4
  -3   0  -3 33843.9 533.228   4
  -3   0  -3 34052.1 519.649   3
   3   0   3 34127.6 522.432   3
   3   0   3 34239.0 524.802   4
  -3   0  -3 32262.8 431.779   1
  -3   0  -4 5218.17 191.984   1
  -3   0  -4 5199.75 209.913   3
   3   0   4 5355.11 217.217   3
  -3   0  -4 5328.93 220.626   4
   3   0   4 5602.50 225.267   4
  -3   0  -5 6347.85 230.771   1
  -3   0  -5 6737.05 247.266   3
   3   0   5 6655.43 249.013   3
  -3   0  -5 7000.65 262.624   4
   3   0   6 3341.46 185.107   3
  -3   0  -6 3629.90 202.112   4
   3   0   7 9711.25 315.230   2
  -3   0  -7 10105.8 351.681   4
   3   0   8 3866.54 207.038   2
  -3   0  -8 3858.19 230.227   4
   3   0   9 505.624 81.4437   2
  -3   0  -9 451.698 86.1468   4
   3   0  10 623.585 93.0708   2
  -3   0 -10 549.488 96.9530   4
   3   0  11 163.372 55.7282   2
  -3   0 -11 190.889 65.4617   4
   3   0  12 50.6624 42.3553   2
  -3  -1  14 1353.44 158.924   1
   3   1 -13 152.529 52.1108   3
  -3  -1  13 219.416 68.4362   1
   3   1 -12 500.960 81.0299   3
  -3  -1  12 638.034 100.193   1
   3   1 -11 2511.76 172.454   3
  -3  -1  11 2691.77 190.980   1
   3   1 -10 3160.69 184.128   3
  -3  -1  10 3609.96 206.602   1
  -3  -1   9 33195.3 589.656   1
   3   1  -9 33116.8 570.618   3
  -3  -1   8 83.5688 31.7498   1
   3   1  -8 69.0522 35.9219   1
   3   1  -8 69.0786 31.7415   3
   3   1  -8 10.3311 24.0524   2
   3   1  -7 5155.01 209.605   3
   3   1  -7 4962.08 206.228   2
  -3  -1   7 5400.88 204.260   1
   3   1  -6 9792.98 282.353   3
   3   1  -6 9338.09 274.683   2
  -3  -1   6 9904.55 256.692   1
   3   1  -5-5.81778 23.6598   3
   3   1  -5 42.4669 26.8362   2
  -3  -1   5 18.4967 17.4858   1
  -3  -1   4 3002.65 150.002   3
   3   1  -4 2926.03 149.492   3
  -3  -1   4 3067.25 125.068   1
  -3  -1   3 64.7591 22.0754   1
  -3  -1   3 125.196 32.4253   3
   3   1  -3 123.996 30.1463   3
  -3  -1   2 42487.4 557.154   3
   3   1  -2 40695.0 538.720   3
   3   1  -2 42395.6 560.528   4
  -3  -1   1 28000.9 459.947   3
   3   1  -1 27567.7 444.986   3
   3   1  -1 28140.3 455.305   4
  -3  -1   0 5538.37 205.114   3
   3   1   0 5217.50 198.027   3
   3   1   0 5642.12 208.412   4
  -3  -1  -1 9853.66 279.426   3
   3   1   1 9729.82 275.273   3
  -3  -1  -1 9752.90 274.598   4
   3   1   1 10100.2 279.795   4
  -3  -1  -2 17345.5 378.093   3
   3   1   2 16269.3 368.276   3
  -3  -1  -2 16831.4 374.994   4
  -3  -1  -2 15758.3 306.295   1
   3   1   2 16742.3 370.799   4
  -3  -1  -3 713.242 83.0767   3
   3   1   3 596.682 79.9102   3
  -3  -1  -3 650.966 80.8884   4
  -3  -1  -3 590.793 66.3185   1
   3   1   3 539.327 71.9903   4
  -3  -1  -4 2874.24 165.278   3
   3   1   4 2665.68 161.967   3
  -3  -1  -4 2897.68 171.257   4
  -3  -1  -4 2642.41 145.298   1
   3   1   5 9272.45 311.394   3
  -3  -1  -5 9333.65 320.287   4
  -3  -1  -5 9178.38 289.924   1
   3   1   6 10173.3 336.574   3
   3   1   6 10140.1 329.098   2
  -3  -1  -6 9963.59 343.875   4
   3   1   7 7592.83 298.416   2
  -3  -1  -7 7732.05 316.040   4
   3   1   8 359.451 67.7891   2
  -3  -1  -8 304.383 67.2207   4
  -3  -1  -9 6446.30 317.010   4
   3   1   9 6952.42 308.959   2
   3   1  10 204.967 58.3908   2
  -3  -1 -10 82.4395 43.8437   4
   3   1  11 746.848 106.743   2
  -3  -1 -11 1165.28 151.098   4
   3   1  12 294.235 78.2997   2
  -3  -2  13 156.610 64.5555   1
  -3  -2  12 36.4454 37.6580   1
   3   2 -12 75.5933 35.6982   3
  -3  -2  11 5424.68 279.932   1
   3   2 -11 5001.97 230.737   3
   3   2 -10 1253.52 114.349   3
  -3  -2  10 1474.01 138.557   1
   3   2  -9 3282.30 176.105   3
  -3  -2   9 3310.08 192.939   1
   3   2  -8 296.488 53.7117   3
  -3  -2   8 313.047 57.9394   1
   3   2  -8 212.624 34.7357   2
   3   2  -7 84743.2 841.736   3
   3   2  -7 83896.5 834.138   2
   3   2  -6 1104.06 96.4990   3
   3   2  -6 1018.97 91.5067   2
  -3  -2   6 1216.60 102.842   1
  -3  -2   5 235.325 42.5320   1
   3   2  -5 207.128 43.5977   3
  -3  -2   4 5445.52 204.974   3
  -3  -2   4 5446.01 191.723   1
   3   2  -4 5758.49 209.557   3
  -3  -2   3 1438.49 105.622   3
   3   2  -3 1527.49 107.458   3
  -3  -2   3 1361.08 95.1383   1
   3   2  -3 1540.46 113.030   4
  -3  -2   2 243.416 48.2638   3
   3   2  -2 141.887 40.9903   3
   3   2  -2 150.391 38.1664   4
  -3  -2   1 11917.9 312.052   3
   3   2  -1 11601.9 302.753   3
   3   2  -1 12441.3 313.319   4
  -3  -2   0 148.490 38.6384   3
   3   2   0 181.307 40.4918   3
   3   2   0 140.003 32.3735   4
  -3  -2  -1 2660.11 152.884   3
  -3  -2  -1 2659.50 150.621   4
   3   2   1 2672.72 154.401   3
   3   2   1 2664.42 151.202   4
  -3  -2  -2 676.843 84.2645   3
   3   2   2 856.097 94.6677   3
  -3  -2  -2 688.346 83.7180   4
   3   2   2 792.750 87.7147   4
   3   2   3 86.4544 41.0485   3
  -3  -2  -3 118.376 36.3860   4
   3   2   4 1734.13 137.669   3
  -3  -2  -4 1900.80 143.943   4
  -3  -2  -4 1719.57 122.178   1
   3   2   5 187.009 49.1374   3
  -3  -2  -5 168.406 49.5739   4
   3   2   6 174.046 54.1943   2
  -3  -2  -6 265.725 64.4929   4
   3   2   7 43.6056 36.1459   2
  -3  -2  -7 40.0427 36.7246   4
  -3  -2  -8 4998.35 275.623   4
   3   2   8 5489.50 279.081   2
  -3  -2  -9 2421.13 201.277   4
   3   2   9 2164.52 181.059   2
   3   2  10 139.689 65.4558   2
  -3  -2 -10 21.6672 43.9467   4
   3   2  11 433.450 93.4438   2
   3   2  12 245.595 80.6853   2
  -3  -3  13 520.228 101.009   1
  -3  -3  12 1199.03 143.325   1
  -3  -3  11 1393.53 145.099   1
   3   3 -10 2167.88 141.963   3
  -3  -3  10 1950.19 166.409   1
   3   3  -9 16.8963 21.3293   3
  -3  -3   9 23.4598 26.9910   1
   3   3  -8 885.275 85.5546   2
   3   3  -8 1023.73 94.9325   3
  -3  -3   8 889.901 101.931   1
   3   3  -7 49178.5 633.004   3
  -3  -3   7 50145.8 729.226   1
   3   3  -6 1644.64 116.099   3
   3   3  -6 1545.48 111.034   2
  -3  -3   6 1520.19 124.408   1
  -3  -3   5 9352.69 273.545   3
   3   3  -5 9085.20 268.257   3
  -3  -3   5 8888.03 279.601   1
  -3  -3   4 1450.62 109.592   3
   3   3  -4 1236.51 100.071   3
  -3  -3   4 1299.26 106.301   1
   3   3  -4 1360.41 111.156   4
  -3  -3   3 3730.61 175.439   3
   3   3  -3 3434.94 167.190   3
   3   3  -3 3723.55 181.083   4
  -3  -3   3 3632.92 176.356   1
  -3  -3   2 17.5787 21.9891   3
   3   3  -2 37.3375 24.0380   3
   3   3  -2 50.2044 25.3991   4
  -3  -3   1 2769.81 156.498   3
   3   3  -1 2657.40 154.186   3
   3   3  -1 2684.21 153.707   4
  -3  -3   0 3003.38 169.304   3
   3   3   0 2841.70 164.324   3
   3   3   0 3226.06 168.693   4
   3   3   1 1626.09 127.795   3
  -3  -3  -1 1358.01 112.733   4
   3   3   1 1627.95 123.565   4
   3   3   2 396.375 68.7753   3
  -3  -3  -2 354.468 64.4942   4
  -3  -3  -3 5246.73 236.031   4
   3   3   3 5116.80 239.408   3
   3   3   4 21201.8 500.503   3
  -3  -3  -4 21289.0 489.271   4
   3   3   5 1800.76 155.412   2
  -3  -3  -5 1793.27 150.502   4
  -3  -3  -6 1270.82 131.594   4
   3   3   6 1054.85 124.243   2
  -3  -3  -7 3361.24 224.229   4
   3   3   7 3324.30 221.109   2
  -3  -3  -8 3966.15 250.374   4
   3   3   8 3675.52 240.834   2
  -3  -3  -9 2712.83 220.163   4
   3   3   9 3156.19 231.345   2
   3   3  10 734.754 117.320   2
  -3  -3 -10 608.661 113.524   4
   3   3  11-51.0733 60.0500   2
  -3  -4  12 6228.36 331.029   1
  -3  -4  11 781.962 116.101   1
  -3  -4  10 4663.82 263.999   1
   3   4  -9 4.51910 20.1175   3
  -3  -4   9 71.7660 44.8637   1
   3   4  -8 823.242 85.6174   3
  -3  -4   8 726.187 101.280   1
  -3  -4   7 101.244 49.4742   1
   3   4  -7 118.108 36.3419   3
  -3  -4   6 430.083 72.5954   1
   3   4  -6 415.948 58.7925   3
  -3  -4   5 26632.2 468.138   3
  -3  -4   5 27378.9 536.123   1
   3   4  -5 26669.7 468.352   3
  -3  -4   4 450.682 73.3068   1
  -3  -4   4 462.232 64.5024   3
   3   4  -4 556.081 71.5013   3
  -3  -4   3 930.376 92.6653   3
   3   4  -3 960.651 94.7281   3
  -3  -4   2 1128.08 103.252   3
   3   4  -2 1215.47 107.503   3
   3   4  -1 5840.52 239.271   3
   3   4   0 5389.12 234.362   3
   3   4   1 4326.77 218.882   3
  -3  -4  -2 11470.6 347.420   4
   3   4   2 12185.0 374.679   3
  -3  -4  -3 57548.0 802.406   4
   3   4   3 55635.5 823.888   3
  -3  -4  -4 1085.06 117.669   4
   3   4   4 1127.11 129.546   2
  -3  -4  -5 3023.59 204.882   4
   3   4   5 3400.26 224.026   2
  -3  -4  -6 1684.81 158.254   4
   3   4   6 1700.94 165.985   2
  -3  -4  -7 1673.32 161.142   4
   3   4   7 1562.08 163.473   2
   3   4   8 1040.19 134.593   2
  -3  -4  -8 750.802 118.860   4
  -3  -4  -9 1133.73 147.822   4
   3   4   9 1155.37 151.066   2
  -3  -5  11 2183.43 196.670   1
  -3  -5  10 1013.28 131.984   1
  -3  -5   9 1362.33 147.495   1
   3   5  -8 2012.66 126.592   3
  -3  -5   8 2320.94 185.570   1
   3   5  -7 10179.3 288.971   3
  -3  -5   7 10156.2 373.993   1
   3   5  -6 469.109 66.6625   3
  -3  -5   6 299.373 68.9572   1
  -3  -5   5 515.820 85.9376   1
   3   5  -5 644.983 77.0118   3
  -3  -5   4-3.40163 22.4726   3
  -3  -5   4 16.6455 30.2471   1
   3   5  -4 27.6186 24.8805   3
   3   5  -3 1393.73 117.610   3
   3   5  -2 1334.91 118.261   3
   3   5  -1 1482.35 125.111   3
   3   5   0 909.467 105.452   3
   3   5   1 64.5456 42.0384   3
   3   5   2 117.106 53.2607   3
   3   5   2 66.1244 40.9150   2
  -3  -5  -2 59.2930 38.8541   4
   3   5   3 10635.4 386.894   2
  -3  -5  -3 9552.13 340.558   4
  -3  -5  -4 1832.01 156.641   4
   3   5   4 2038.58 178.748   2
   3   5   5 2180.52 188.594   2
  -3  -5  -5 2112.09 172.879   4
   3   5   6 68.0497 44.3911   2
  -3  -5  -6 188.335 60.6044   4
   3   5   7 506.747 105.753   2
  -3  -5  -7 485.805 99.1363   4
   3   5   8 57.5565 41.1479   2
  -3  -5  -8 141.614 60.1984   4
  -3  -5  -9 95.1554 53.0075   4
  -3  -6  10 2584.12 223.085   1
  -3  -6   9 2438.67 216.625   1
  -3  -6   8 1203.15 145.061   1
  -3  -6   7 557.767 94.6597   1
   3   6  -6 573.018 70.2483   3
  -3  -6   6 576.029 96.3576   1
  -3  -6   5 2857.15 211.921   1
   3   6  -5 3236.13 173.692   3
   3   6  -4 601.303 78.1876   3
  -3  -6   4 453.545 84.3499   1
   3   6  -3 1511.36 126.380   3
   3   6  -2 5152.61 238.864   3
   3   6  -1 116.788 37.8523   3
   3   6   0 3305.07 204.674   3
   3   6   0 3601.65 221.041   2
   3   6   1 1625.93 151.702   2
   3   6   2 158.098 49.1098   2
  -3  -6  -3 3908.79 222.978   4
   3   6   3 4345.68 261.899   2
   3   6   4 286.343 74.5471   2
  -3  -6  -4 157.266 55.5563   4
  -3  -6  -5 17760.9 512.399   4
   3   6   5 18186.2 571.846   2
   3   6   6 139.935 67.2372   2
  -3  -6  -6 122.004 58.4362   4
  -3  -6  -7 174.919 55.6459   4
  -3  -6  -8-5.57353 39.3002   4
  -3  -7   8 62.3918 45.4046   1
  -3  -7   7 7844.66 385.510   1
  -3  -7   6 1032.85 136.279   1
  -3  -7   5 3296.16 242.281   1
   3   7  -5 3750.01 192.123   3
   3   7  -4 332.491 59.3870   3
  -3  -7   4 196.668 69.0331   1
   3   7  -3 2846.54 179.811   3
   3   7  -3 2689.32 188.350   2
   3   7  -2 1551.95 144.856   2
   3   7  -1 10935.3 396.220   2
   3   7   0 1994.41 176.044   2
   3   7   1 1414.30 152.375   2
   3   7   2 3803.02 255.083   2
   3   7   3 4518.78 283.563   2
   3   7   4 92.9351 40.1062   2
  -3  -7  -4 138.488 56.6884   4
  -3  -7  -5 1354.16 147.183   4
   3   7   5 1295.65 164.834   2
  -3  -7  -6 640.012 113.215   4
  -3  -7  -7 32.4648 39.1482   4
  -3  -8   5 265.357 86.2636   1
  -3  -8   4 461.772 104.802   1
   3   8  -4 491.722 85.0474   2
   3   8  -3 40.4939 41.3002   2
  -3  -8   3-10.2057 42.1840   1
   3   8  -2 95.0028 55.2351   2
   3   8  -1 1689.46 165.537   2
   3   8   0 589.010 101.752   2
   3   8   1 539.460 107.261   2
   3   8   2 257.306 79.7814   2
   3   9  -2 354.508 80.6247   2
   3   9  -1 148.481 65.7643   2
   3   9   0 188.205 72.0364   2
  -4  11   4 576.662 111.104   2
  -4  11   3 113.039 60.4761   2
   4 -11  -2 1023.06 126.153   3
  -4  11   2 1026.13 131.889   2
  -4  11   1 1509.01 147.819   2
   4 -11  -1 1201.07 145.556   1
   4 -11   0 521.955 96.2187   1
   4 -11   1 2424.33 201.232   1
   4 -11   2 2621.96 211.349   1
   4 -11   3 1731.93 180.130   1
   4 -11   4 6776.54 353.058   1
  -4  10   5 2640.16 218.419   2
  -4  10   4 352.793 86.3153   2
  -4  10   3 1106.88 134.912   2
   4 -10  -2 730.880 102.778   3
  -4  10   2 730.801 105.615   2
   4 -10  -1 1391.15 133.534   3
  -4  10   1 1366.58 137.503   2
   4 -10  -1 1161.67 135.194   1
   4 -10   0 8.50755 26.2253   3
   4 -10   0 8.25867 46.0537   1
   4 -10   1 6796.93 314.749   1
   4 -10   2 141.387 58.0226   1
   4 -10   3 2066.65 181.040   1
   4 -10   4 126.896 53.3497   1
   4 -10   5 417.028 94.5166   1
   4 -10   6 3951.47 270.746   1
  -4   9   7 288.151 81.2545   2
  -4   9   6 8934.11 399.227   2
  -4   9   5 68.1826 34.8655   2
  -4   9   4 6671.23 319.601   2
  -4   9   3 1686.67 159.431   2
   4  -9  -2 1193.78 126.508   3
  -4   9   2 913.003 113.813   2
   4  -9  -1 585.013 83.1682   3
   4  -9  -1 724.076 94.6469   1
   4  -9   0 367.593 69.5267   3
   4  -9   0 309.656 64.9245   1
   4  -9   1-14.6255 36.4898   1
   4  -9   1 12.7050 25.3303   3
   4  -9   2 343.109 59.1710   3
   4  -9   2 445.203 81.2855   1
   4  -9   3 5753.59 277.667   1
   4  -9   4 1083.19 121.938   1
   4  -9   5 4778.03 272.295   1
   4  -9   6 1724.06 171.917   1
   4  -9   7 373.026 78.6750   1
   4  -9   8 1619.94 173.661   1
   4  -8 -10 221.002 58.6785   4
   4  -8  -9 106.973 44.6348   4
  -4   8   8 96.6631 58.1690   2
   4  -8  -8 105.848 41.1136   4
  -4   8   7 5971.17 324.216   2
   4  -8  -7 5829.09 258.056   4
  -4   8   6 8824.96 380.012   2
  -4   8   5 508.639 93.8881   2
  -4   8   4 14780.4 456.973   2
  -4   8   3 1478.86 140.673   2
   4  -8  -2 4565.35 233.308   3
  -4   8   2 4622.72 237.151   2
   4  -8  -1-21.5099 27.1488   1
   4  -8  -1 26.7485 27.4274   3
   4  -8   0 8690.65 295.186   3
   4  -8   0 8164.03 284.087   1
   4  -8   1 131.550 37.9162   3
   4  -8   1 144.129 38.0771   1
   4  -8   2 803.767 83.1746   3
   4  -8   2 815.414 98.3251   1
   4  -8   3 1308.04 99.7595   3
   4  -8   3 1162.79 117.531   1
   4  -8   4 3505.78 209.964   1
   4  -8   5 2222.82 175.370   1
   4  -8   6 14436.7 452.916   1
   4  -8   7 1499.80 154.755   1
   4  -8   8 1341.43 152.651   1
   4  -8   9 3783.30 263.388   1
   4  -7 -11 5076.13 299.478   4
   4  -7 -10 416.094 88.4464   4
  -4   7   9 5813.75 330.555   2
   4  -7  -9 5577.40 286.854   4
  -4   7   8 1306.67 155.105   2
  -4   7   7 3320.94 233.693   2
  -4   7   6 230.295 65.9258   2
  -4   7   5 2549.46 191.605   2
  -4   7   4 665.217 98.5335   2
   4  -7  -3 5520.48 255.954   3
  -4   7   3 5905.02 270.973   2
   4  -7  -2 1136.05 115.582   3
   4  -7  -2 958.131 77.7134   4
   4  -7  -1 13048.3 361.490   3
   4  -7  -1 12401.1 310.642   1
   4  -7  -1 12379.0 257.859   4
   4  -7   0 7378.82 265.652   3
   4  -7   0 6804.08 229.662   1
   4  -7   0 7034.00 183.627   4
   4  -7   1 2972.41 161.684   3
   4  -7   1 3037.32 118.074   4
   4  -7   1 3059.31 161.191   1
   4  -7   1 3001.69 164.221   2
   4  -7   2 261.474 45.6337   1
   4  -7   2 320.444 55.1475   3
   4  -7   2 316.988 53.3306   2
   4  -7   2 344.281 39.5296   4
   4  -7   3 10770.3 282.831   3
   4  -7   3 11520.2 338.699   1
   4  -7   3 10797.5 282.250   2
   4  -7   4 2418.87 128.564   3
   4  -7   4 2591.53 167.021   1
   4  -7   5 9.36110 21.1745   3
   4  -7   5 75.9835 42.3960   1
  -4   7  -6 1928.65 125.569   4
   4  -7   6 2075.84 163.809   1
   4  -7   7 7.95414 37.0500   1
  -4   7  -7 28.9396 38.1737   4
   4  -7   8 3090.38 217.783   1
   4  -7   9 948.865 130.800   1
   4  -7  10 120.286 58.4045   1
   4  -6 -11 412.451 92.4055   4
  -4   6  10 13060.5 491.179   2
  -4   6   9 11154.7 439.559   2
  -4   6   8 1875.57 179.732   2
  -4   6   7 1791.35 165.970   2
  -4   6   6 3093.74 210.603   2
   4  -6  -6 2647.28 139.541   1
  -4   6   5 3369.44 213.272   2
   4  -6  -5 2783.04 135.828   1
   4  -6  -4-0.68445 29.4712   3
  -4   6   4 71.8162 42.2099   2
   4  -6  -3 17589.3 441.542   3
   4  -6  -2 75.9265 37.4897   3
   4  -6  -2 44.3287 16.7977   4
   4  -6  -1 11663.9 333.613   3
   4  -6  -1 11286.6 261.923   4
   4  -6  -1 11100.4 248.799   1
   4  -6   0-16.1428 23.9169   3
   4  -6   0 18.6631 22.1349   2
   4  -6   0 35.1800 20.8027   1
   4  -6   0 27.1686 19.0378   4
   4  -6   1 5922.14 223.417   2
   4  -6   1 6048.59 227.304   3
   4  -6   1 5774.74 183.859   4
   4  -6   1 5981.13 197.791   1
   4  -6   2 6502.42 226.624   2
   4  -6   2 6499.29 227.326   3
   4  -6   2 6402.51 218.182   1
   4  -6   2 5923.60 189.135   4
   4  -6   3 10875.5 281.012   2
   4  -6   3 11009.6 289.141   3
   4  -6   3 10796.7 299.670   1
   4  -6   3 10641.2 264.493   4
   4  -6   4 9831.34 258.573   2
   4  -6   4 10119.4 269.845   3
   4  -6   4 9868.18 302.895   1
  -4   6  -4 9107.73 261.067   4
   4  -6   4 9668.06 263.233   4
   4  -6   5 748.568 67.8351   2
   4  -6   5 846.706 95.6229   1
   4  -6   5 778.096 74.3452   3
  -4   6  -5 740.038 79.8920   4
   4  -6   5 775.158 81.0125   4
   4  -6   6 530.745 84.5241   1
   4  -6   6 400.679 54.8248   3
  -4   6  -6 499.491 70.3915   4
   4  -6   7 121.216 45.4053   1
  -4   6  -7 80.2758 31.9076   4
   4  -6   8 6815.35 316.336   1
  -4   6  -8 6471.36 274.652   4
   4  -6   9 348.685 75.5167   1
  -4   6  -9 334.174 70.4630   4
  -4   6 -10 1555.68 147.777   4
   4  -6  10 1459.12 164.790   1
  -4   5  11 2673.57 226.671   2
  -4   5  10 1692.11 173.589   2
  -4   5   9 370.100 80.2713   2
  -4   5   8 7885.80 345.678   2
   4  -5  -7-9.09866 18.1027   1
  -4   5   7-30.4824 28.5866   2
   4  -5  -6 9626.76 242.229   1
  -4   5   6 11823.3 393.955   2
   4  -5  -5 13752.6 405.316   3
  -4   5   5 14120.0 408.535   2
   4  -5  -4 13387.7 384.390   3
   4  -5  -4 11359.7 217.567   1
   4  -5  -3 9975.03 319.981   3
   4  -5  -2 20678.4 444.917   3
   4  -5  -2 20335.4 380.055   4
   4  -5  -1 11084.0 321.150   3
   4  -5  -1 10795.3 310.624   2
   4  -5  -1 10653.4 267.677   4
   4  -5  -1 10292.6 195.230   1
   4  -5   0 1769.98 124.408   3
   4  -5   0 1840.36 126.820   2
   4  -5   0 1809.07 87.9552   1
   4  -5   0 1717.08 106.940   4
   4  -5   1 20157.5 409.718   3
   4  -5   1 20021.1 403.509   2
   4  -5   1 19652.5 313.102   1
   4  -5   1 19131.1 355.705   4
   4  -5   2 751.285 78.9478   3
   4  -5   2 764.254 80.1131   2
   4  -5   2 758.626 68.3422   1
   4  -5   2 763.560 73.7056   4
   4  -5   3 14485.5 334.759   3
   4  -5   3 14342.8 327.754   2
   4  -5   3 14559.0 319.543   1
   4  -5   3 13700.8 315.869   4
  -4   5  -4 863.798 82.6705   3
   4  -5   4 935.745 91.3742   1
   4  -5   4 860.749 82.4294   3
   4  -5   4 917.642 81.8494   2
  -4   5  -4 813.278 85.9273   4
   4  -5   4 813.663 83.5999   4
  -4   5  -5 9352.61 266.316   3
   4  -5   5 9546.21 298.791   1
   4  -5   5 9502.41 256.156   2
   4  -5   5 9578.33 271.920   3
  -4   5  -5 9307.63 289.785   4
   4  -5   5 9656.24 293.969   4
  -4   5  -6 3696.52 167.338   3
   4  -5   6 3728.04 203.241   1
   4  -5   6 4049.19 165.632   2
   4  -5   6 3780.49 172.748   3
  -4   5  -6 3547.33 189.164   4
   4  -5   7 3719.51 172.705   3
  -4   5  -7 3811.60 205.107   4
   4  -5   7 3694.11 213.847   1
   4  -5   8 145.475 49.3982   1
  -4   5  -8 316.137 66.6651   4
  -4   5  -9 4439.41 246.656   4
   4  -5   9 4317.91 260.955   1
  -4   5 -10 4344.27 256.048   4
   4  -5  10 4268.34 270.557   1
  -4   5 -11 2872.25 218.206   4
   4  -5  11 2784.81 231.972   1
  -4   4  12 633.913 114.361   2
  -4   4  11 4528.65 278.710   2
  -4   4  10 778.720 117.698   2
  -4   4   9 3.17447 33.7153   2
  -4   4   8 50.2309 42.2642   2
   4  -4  -8 45.0437 21.3151   1
   4  -4  -7 711.110 98.3518   3
   4  -4  -7 624.125 62.4772   1
   4  -4  -6 1788.85 148.703   3
   4  -4  -6 1508.34 86.1669   1
   4  -4  -5 4588.67 227.674   3
   4  -4  -5 3657.87 114.832   1
   4  -4  -4 24738.4 507.104   3
   4  -4  -4 18766.2 217.889   1
   4  -4  -3 37.2489 8.08687   1
   4  -4  -3 38.6393 8.80999   1
   4  -4  -2 39893.4 611.037   3
   4  -4  -2 39787.0 605.945   2
   4  -4  -2 38482.2 537.838   4
   4  -4  -1 18678.4 405.764   3
   4  -4  -1 18221.0 399.603   2
   4  -4  -1 18606.3 368.285   4
   4  -4   0 15206.7 197.428   1
   4  -4   0 15994.7 371.419   3
   4  -4   0 16560.5 374.435   2
   4  -4   0 15792.8 337.216   4
   4  -4   1 938.341 59.7941   1
   4  -4   1 1000.64 92.5124   3
   4  -4   1 972.960 92.2017   2
   4  -4   1 804.829 76.9878   4
  -4   4  -2 7245.93 243.570   3
   4  -4   2 7661.25 195.375   1
   4  -4   2 7493.43 245.422   3
   4  -4   2 7725.44 245.873   2
   4  -4   2 7410.95 235.890   4
   4  -4   3 237.877 41.4305   1
  -4   4  -3 211.607 41.0634   1
  -4   4  -3 251.850 49.1753   3
   4  -4   3 189.824 45.5769   3
  -4   4  -3 135.054 39.3881   4
   4  -4   3 156.218 34.7249   4
  -4   4  -4 1326.39 105.157   3
   4  -4   4 1196.10 100.301   3
  -4   4  -4 1213.10 98.7029   1
  -4   4  -4 1338.69 111.578   4
   4  -4   4 1444.14 114.417   4
   4  -4   4 1421.24 103.259   1
  -4   4  -5 1619.93 117.984   3
  -4   4  -5 1480.78 115.749   1
   4  -4   5 1533.52 116.592   3
  -4   4  -5 1484.15 122.607   4
   4  -4   5 1537.36 115.452   1
  -4   4  -6 1341.09 108.882   3
   4  -4   6 1336.80 110.790   3
  -4   4  -6 1183.78 115.063   4
   4  -4   6 1353.99 119.680   1
   4  -4   7 9866.41 300.294   3
  -4   4  -7 10355.5 350.929   4
   4  -4   7 10295.2 344.282   1
   4  -4   8 3727.68 173.219   2
  -4   4  -8 3825.66 224.956   4
   4  -4   8 3488.96 215.035   1
  -4   4  -9 4791.18 262.556   4
   4  -4   9 4536.26 260.075   1
   4  -4  10 294.514 70.7504   1
  -4   4 -10 235.764 64.8600   4
  -4   4 -11 1447.35 161.566   4
   4  -4  11 1346.87 160.956   1
   4  -3 -12-35.3161 33.4564   3
   4  -3 -11 9020.37 386.648   3
   4  -3 -10 586.535 99.7759   3
   4  -3  -9 9251.61 363.074   3
   4  -3  -8 2168.40 173.839   3
   4  -3  -8 1857.37 115.159   1
   4  -3  -7 3353.21 204.180   3
   4  -3  -7 2664.54 123.672   1
   4  -3  -6 645.317 90.8817   3
   4  -3  -6 457.023 46.3843   1
   4  -3  -5 3416.13 192.512   3
   4  -3  -5 2370.84 81.7075   1
   4  -3  -4 3615.73 192.795   3
   4  -3  -3 8624.85 290.195   3
   4  -3  -2 4747.78 208.854   3
   4  -3  -2 4798.64 210.555   2
   4  -3  -2 4901.87 198.593   4
   4  -3  -1 7550.51 259.309   3
   4  -3  -1 8130.77 267.622   2
   4  -3  -1 7928.01 247.940   4
  -4   3   0 21015.9 423.876   3
   4  -3   0 20682.7 419.805   3
   4  -3   0 21546.6 420.732   2
   4  -3   0 21068.5 403.654   4
  -4   3  -1 8570.06 268.362   3
   4  -3   1 8587.26 269.476   3
   4  -3   1 9241.91 267.958   4
   4  -3   1 8631.46 157.951   1
  -4   3  -2 613.913 74.6009   3
   4  -3   2 666.334 78.3011   3
  -4   3  -2 609.312 52.8157   1
  -4   3  -2 599.653 73.8622   4
   4  -3   2 662.944 54.8603   1
   4  -3   2 504.640 67.3744   4
  -4   3  -3 229.528 46.8040   3
   4  -3   3 258.993 52.0769   3
  -4   3  -3 169.060 31.7534   1
   4  -3   3 210.856 39.0430   1
  -4   3  -3 258.194 49.7356   4
   4  -3   3 288.231 57.9337   4
  -4   3  -4 794.118 87.2092   3
   4  -3   4 823.662 86.3628   3
  -4   3  -4 772.787 88.1734   4
   4  -3   4 791.756 87.7062   4
   4  -3   4 768.250 75.6170   1
  -4   3  -4 696.440 71.9114   1
  -4   3  -5 2594.33 154.673   3
   4  -3   5 2938.40 166.947   3
  -4   3  -5 2966.85 176.226   4
   4  -3   5 2798.83 153.895   1
  -4   3  -5 2754.84 153.047   1
   4  -3   6 2175.78 148.123   3
  -4   3  -6 1965.45 151.805   4
   4  -3   6 1969.50 138.660   1
   4  -3   7 2914.82 173.819   3
  -4   3  -7 3112.07 198.610   4
   4  -3   7 2895.12 179.600   1
   4  -3   8 59.5926 38.4898   3
   4  -3   8 16.6674 30.3047   2
   4  -3   8-26.9079 37.0336   1
  -4   3  -8 82.9932 40.6598   4
   4  -3   9 769.452 90.2327   2
   4  -3   9 780.051 108.319   1
  -4   3  -9 716.506 104.682   4
   4  -3  10 8.29131 35.7859   1
  -4   3 -10-27.2927 35.7872   4
   4  -3  11 578.833 106.035   1
  -4   3 -11 711.783 112.171   4
   4  -2 -13 2874.59 229.472   3
   4  -2 -12 5719.57 312.512   3
   4  -2 -11 240.321 62.5112   3
   4  -2 -10 3646.49 230.578   3
   4  -2  -9 14632.3 443.658   3
   4  -2  -8 2630.31 182.224   3
   4  -2  -8 2131.69 123.408   1
   4  -2  -7 5871.92 263.401   3
   4  -2  -7 4907.05 166.486   1
   4  -2  -6 5490.89 249.251   3
   4  -2  -6 5073.71 144.975   1
   4  -2  -5 9764.18 320.497   3
   4  -2  -4 449.676 71.1307   3
   4  -2  -3 20667.0 440.215   3
   4  -2  -3 19926.4 438.666   2
   4  -2  -2 11977.2 329.257   3
   4  -2  -2 11324.0 320.944   2
   4  -2  -2 11793.6 312.930   4
  -4   2   1 2876.04 160.545   3
   4  -2  -1 2843.44 160.415   3
   4  -2  -1 2796.68 153.418   4
  -4   2   0 28865.9 501.218   3
   4  -2   0 28058.1 494.218   3
   4  -2   0 28342.1 483.761   4
  -4   2  -1 90.9487 17.7074   1
  -4   2  -1 142.487 39.6351   3
   4  -2   1 171.568 41.6314   3
   4  -2   1 95.0950 31.6976   4
  -4   2  -2 1096.62 100.202   3
   4  -2   2 1338.01 110.714   3
  -4   2  -2 1189.98 106.254   4
  -4   2  -2 1158.17 71.0552   1
   4  -2   2 1126.08 103.451   4
  -4   2  -3 4329.38 201.887   3
   4  -2   3 4212.96 196.572   3
  -4   2  -3 3770.33 148.949   1
  -4   2  -3 4166.11 201.516   4
   4  -2   3 4634.00 209.034   4
   4  -2   4 8070.67 277.665   3
  -4   2  -4 7697.48 234.455   1
  -4   2  -4 8001.87 285.537   4
   4  -2   5 3982.94 200.646   3
  -4   2  -5 3688.48 177.859   1
  -4   2  -5 3878.75 208.885   4
   4  -2   6 15893.9 407.809   3
  -4   2  -6 16056.7 442.351   4
   4  -2   7 750.499 98.0047   3
  -4   2  -7 599.313 95.1558   4
   4  -2   8 12213.3 360.491   2
  -4   2  -8 12357.5 420.315   4
  -4   2  -9 8048.36 358.409   4
   4  -2   9 7721.69 296.888   2
  -4   2 -10 3707.23 252.919   4
   4  -2  10 3796.42 214.027   2
  -4   2 -11 2768.28 228.580   4
   4  -1 -13 1585.35 164.253   3
   4  -1 -12 17295.4 520.985   3
   4  -1 -11 117.742 58.5813   3
  -4   1  11-19.6573 32.9584   1
   4  -1 -10 1811.72 159.441   3
  -4   1  10 1838.13 139.128   1
   4  -1  -9 2478.50 183.390   3
  -4   1   9 2416.98 144.729   1
   4  -1  -8 1033.03 114.464   3
   4  -1  -8 879.282 81.3423   1
  -4   1   8 1121.54 91.3956   1
   4  -1  -7 136.214 45.3134   3
   4  -1  -7 77.0582 22.6093   1
  -4   1   7 134.205 28.6759   1
   4  -1  -6 15992.2 415.121   3
  -4   1   6 16026.1 268.314   1
   4  -1  -5 110.957 39.8841   3
  -4   1   5 183.086 26.4256   1
   4  -1  -4 14951.2 382.782   3
  -4   1   4 13679.5 156.019   1
   4  -1  -3 91.1192 35.1666   3
   4  -1  -3 128.487 45.6312   2
  -4   1   2 13946.7 360.167   3
   4  -1  -2 14412.5 365.461   3
   4  -1  -2 14982.4 363.323   4
  -4   1   1 2250.93 145.852   3
   4  -1  -1 2203.53 145.927   3
   4  -1  -1 2391.50 146.070   4
  -4   1   0 6628.55 248.619   3
   4  -1   0 6398.28 243.570   3
   4  -1   0 6456.83 238.524   4
  -4   1  -1 8005.38 272.736   3
  -4   1  -1 7184.03 156.755   1
   4  -1   1 7746.38 266.801   3
   4  -1   1 7932.07 267.676   4
  -4   1  -2 2943.76 117.466   1
   4  -1   2 2982.26 169.082   3
  -4   1  -2 3050.30 172.799   4
   4  -1   2 3047.82 172.127   4
  -4   1  -3 1367.68 90.6133   1
   4  -1   3 1275.48 117.317   3
  -4   1  -3 1320.77 121.038   4
  -4   1  -4 1484.16 105.127   1
   4  -1   4 1413.17 120.184   3
  -4   1  -4 1496.32 129.175   4
  -4   1  -5 6227.00 231.665   1
   4  -1   5 7021.71 280.462   3
  -4   1  -5 6778.02 284.016   4
   4  -1   6 376.250 71.4865   3
  -4   1  -6 436.787 80.5418   4
   4  -1   7 81.7116 42.5571   3
  -4   1  -7 194.432 57.5610   4
   4  -1   8 11419.5 371.725   2
  -4   1  -8 10845.4 405.753   4
  -4   1  -9 8674.85 376.179   4
   4  -1   9 8699.70 335.787   2
  -4   1 -10 3050.92 234.406   4
   4  -1  10 3429.36 219.184   2
   4   0 -13 1493.83 157.406   3
   4   0 -12 4170.27 251.261   3
  -4   0  12 3990.03 232.015   1
   4   0 -11 6936.43 316.112   3
  -4   0  11 6964.19 288.729   1
   4   0 -10 6975.19 307.465   3
  -4   0  10 6900.27 271.115   1
   4   0  -9 370.510 73.3587   3
  -4   0   9 291.823 54.7206   1
   4   0  -8 2232.03 162.376   3
  -4   0   8 2398.46 137.484   1
   4   0  -7 635.199 84.7117   3
  -4   0   7 696.570 69.7581   1
  -4   0   6 105.357 25.2441   1
   4   0  -6 98.9799 40.1156   3
  -4   0   5 644.874 52.8880   1
   4   0  -5 504.633 74.5895   3
   4   0  -4 811.536 93.4429   3
  -4   0   4 861.243 54.6776   1
   4   0  -3 12809.4 349.674   3
  -4   0   3 12146.6 187.476   1
  -4   0   2 3987.69 200.074   3
  -4   0   2 3470.99 97.5362   1
   4   0  -2 3987.01 195.394   3
  -4   0   1 1447.90 128.932   3
   4   0  -1 1505.79 120.378   3
   4   0  -1 1484.43 121.933   4
   4   0   0 201.424 51.0535   3
  -4   0   0 200.588 30.5050   1
   4   0   1 4130.10 202.719   3
  -4   0  -1 3936.55 135.109   1
   4   0   2 865.885 97.8498   3
  -4   0  -2 950.471 99.5335   4
  -4   0  -2 992.725 75.9629   1
  -4   0  -3 14.4979 15.9914   1
   4   0   3-10.3378 29.0201   3
  -4   0  -4 3510.75 168.851   1
   4   0   4 3890.42 213.303   3
  -4   0  -4 3897.91 213.112   4
  -4   0  -5 2125.03 140.852   1
   4   0   5 2285.78 167.791   3
  -4   0  -5 2413.34 175.274   4
   4   0   6 85.3404 44.4870   3
  -4   0  -6 138.098 43.5966   4
   4   0   7 570.041 94.6996   3
  -4   0  -7 641.888 99.1841   4
   4   0   8 3361.28 214.578   2
  -4   0  -8 3249.67 229.684   4
   4   0   9 103.539 49.2680   2
  -4   0  -9 135.733 61.2343   4
  -4   0 -10 8871.39 406.766   4
   4   0  10 8191.86 354.406   2
   4   0  11 542.399 93.8759   2
   4   1 -12 1640.71 152.654   3
  -4  -1  12 1731.34 158.771   1
   4   1 -11 5061.79 262.562   3
  -4  -1  11 5074.21 254.341   1
   4   1 -10 3398.92 209.758   3
  -4  -1  10 3149.83 188.062   1
  -4  -1   9 154.400 43.3766   1
   4   1  -9 93.9941 40.8753   3
  -4  -1   8 57.7134 23.1017   1
   4   1  -8 64.1009 36.9366   3
   4   1  -7 3097.87 185.661   3
  -4  -1   7 2988.04 151.436   1
   4   1  -6 5023.55 229.716   3
  -4  -1   6 5103.65 184.635   1
   4   1  -5 3231.06 183.338   3
  -4  -1   5 3158.91 137.227   1
   4   1  -4 13748.6 371.259   3
  -4  -1   4 13941.2 268.726   1
  -4  -1   3 1173.20 76.3545   1
   4   1  -3 1232.42 115.190   3
   4   1  -2 27816.9 519.771   3
   4   1  -1 1637.79 129.698   3
   4   1   0 7767.59 281.258   3
   4   1   1 3148.73 182.393   3
   4   1   2 6684.53 273.246   3
  -4  -1  -2 6398.14 269.668   4
  -4  -1  -2 5937.11 202.138   1
   4   1   3 8593.14 317.807   3
  -4  -1  -3 8060.98 309.762   4
  -4  -1  -3 7494.39 242.742   1
   4   1   4 15174.7 427.654   3
  -4  -1  -4 14904.6 429.892   4
   4   1   5 169.324 55.4955   3
  -4  -1  -5 249.355 60.7048   4
   4   1   6 2421.84 184.612   3
  -4  -1  -6 2600.62 195.823   4
   4   1   7 2783.75 198.808   2
  -4  -1  -7 3089.67 221.144   4
  -4  -1  -8 5713.98 310.310   4
   4   1   8 5421.76 286.505   2
   4   1   9 264.526 75.0849   2
  -4  -1  -9 166.659 67.9665   4
   4   1  10 3061.54 229.611   2
   4   1  11 489.144 99.5086   2
  -4  -2  12 644.534 97.3129   1
  -4  -2  11-14.0580 35.2578   1
   4   2 -11 118.875 46.8629   3
  -4  -2  10 651.775 92.3318   1
   4   2 -10 547.109 81.4794   3
  -4  -2   9 496.062 75.4788   1
   4   2  -9 519.874 82.4533   3
   4   2  -8 19032.6 464.083   3
  -4  -2   8 19940.2 447.087   1
   4   2  -7 83.5268 37.6556   3
  -4  -2   7 115.447 30.3171   1
   4   2  -6 1897.53 143.160   3
  -4  -2   6 2125.75 134.663   1
   4   2  -5 14274.1 386.061   3
  -4  -2   5 14463.1 328.042   1
  -4  -2   4 1213.03 93.8790   1
   4   2  -4 1229.97 115.440   3
   4   2  -3 3804.63 199.441   3
  -4  -2   3 3796.50 163.283   1
   4   2  -2 2163.77 152.603   3
   4   2  -1 35756.6 612.918   3
   4   2   0 10783.3 344.948   3
   4   2   1 1223.94 121.576   3
   4   2   2 54.6800 31.7602   3
  -4  -2  -2 139.241 50.3643   4
   4   2   3 417.428 81.4462   3
  -4  -2  -3 436.270 64.7351   1
  -4  -2  -3 509.999 85.9576   4
   4   2   4 2254.17 175.784   3
  -4  -2  -4 1991.50 166.877   4
   4   2   5 152.187 54.6869   3
  -4  -2  -5 129.478 43.2679   4
   4   2   6 1596.61 159.931   3
   4   2   6 1517.26 153.132   2
  -4  -2  -6 1310.16 143.026   4
   4   2   7 920.772 127.313   2
  -4  -2  -7 903.731 131.539   4
  -4  -2  -8 4106.19 273.902   4
   4   2   8 4147.32 263.868   2
   4   2   9-77.0980 58.2736   2
  -4  -2  -9 44.6413 42.6076   4
   4   2  10 1467.40 166.363   2
  -4  -3  12 386.777 85.1373   1
  -4  -3  11 204.011 57.1782   1
   4   3 -10 2360.03 169.827   3
  -4  -3  10 2563.57 189.001   1
   4   3  -9 1950.90 151.249   3
  -4  -3   9 2128.06 166.323   1
   4   3  -8 3074.60 186.711   3
  -4  -3   8 3211.27 191.618   1
   4   3  -7 1950.45 145.800   3
  -4  -3   7 2273.73 155.805   1
   4   3  -6 14142.2 388.711   3
  -4  -3   6 14670.4 380.322   1
   4   3  -5 589.036 81.0204   3
  -4  -3   5 616.335 82.4115   1
  -4  -3   4 452.854 67.0438   1
   4   3  -4 498.889 78.5609   3
   4   3  -3 30.1224 26.0856   3
  -4  -3   3 40.1811 31.7653   1
   4   3  -2 41.4850 24.7137   3
   4   3  -1 116.930 50.6374   3
   4   3   0 6485.97 279.468   3
   4   3   1 745.918 99.3669   3
   4   3   2 486.573 78.7773   3
  -4  -3  -2 782.213 101.897   4
   4   3   3 2047.81 170.616   3
  -4  -3  -3 1883.32 163.170   4
   4   3   4 850.040 115.644   3
  -4  -3  -4 707.378 106.032   4
   4   3   5 1428.69 150.837   3
   4   3   5 1436.56 152.174   2
  -4  -3  -5 1430.34 150.234   4
  -4  -3  -6 2039.32 183.990   4
   4   3   6 2012.56 185.752   2
   4   3   7 199.280 65.0271   2
  -4  -3  -7 174.938 65.3451   4
   4   3   8 360.993 86.8275   2
  -4  -3  -8 556.572 121.641   4
   4   3   9 253.294 83.5504   2
  -4  -4  11 167.559 52.8913   1
  -4  -4  10 3086.41 217.075   1
   4   4  -9 148.055 43.3327   3
  -4  -4   9 145.173 53.5123   1
   4   4  -8 1702.61 138.110   3
  -4  -4   8 1701.22 156.191   1
   4   4  -7 2117.54 156.336   3
  -4  -4   7 2202.11 171.463   1
   4   4  -6 49842.0 741.577   3
  -4  -4   6 52694.5 790.399   1
  -4  -4   5 2926.74 184.198   1
   4   4  -5 2902.89 181.786   3
   4   4  -4 1160.90 116.348   3
  -4  -4   4 1152.60 115.017   1
   4   4  -3 8367.12 313.662   3
  -4  -4   3 8005.34 297.825   1
   4   4  -2 545.900 87.6902   3
   4   4  -1 33.2492 30.9284   3
   4   4   0 913.277 113.125   3
   4   4   1 995.239 118.871   3
   4   4   2 338.863 76.8250   3
   4   4   3 1832.66 171.236   3
  -4  -4  -3 1910.73 168.267   4
   4   4   4 2342.73 196.734   3
  -4  -4  -4 2403.49 193.823   4
   4   4   4 2154.07 189.345   2
  -4  -4  -5 4571.72 274.039   4
   4   4   5 4337.61 271.922   2
   4   4   6 397.932 90.8755   2
  -4  -4  -6 298.952 87.9102   4
   4   4   7 365.477 91.5837   2
  -4  -4  -7 382.472 92.3314   4
  -4  -5  10 69.3003 34.3084   1
  -4  -5   9 4087.78 257.418   1
  -4  -5   8 411.788 78.5637   1
  -4  -5   7 177.496 59.0028   1
   4   5  -7 153.108 54.0364   3
   4   5  -6 4860.55 238.149   3
  -4  -5   6 4797.07 263.712   1
  -4  -5   5 1796.60 157.106   1
   4   5  -5 1842.37 149.728   3
   4   5  -4 18602.5 477.997   3
  -4  -5   4 18096.4 488.476   1
   4   5  -3 316.665 68.9605   3
  -4  -5   3 263.512 64.6200   1
   4   5  -2 2865.20 194.512   3
   4   5  -1 161.071 48.1329   3
   4   5   0 2235.36 179.216   3
   4   5   1 565.077 93.3634   3
   4   5   2 258.881 68.1174   3
   4   5   3 1577.99 165.762   3
  -4  -5  -3 1634.39 161.693   4
   4   5   3 1705.70 172.357   2
  -4  -5  -4 7519.39 347.953   4
   4   5   4 7524.82 367.586   2
  -4  -5  -5 2945.01 228.373   4
   4   5   5 3118.55 244.967   2
  -4  -5  -6 123.058 57.7948   4
  -4  -6   8 23.3425 47.4295   1
  -4  -6   7-12.2365 48.2467   1
  -4  -6   6 4768.14 277.408   1
   4   6  -6 4869.24 242.215   3
  -4  -6   5 1559.73 160.384   1
   4   6  -5 1484.87 136.133   3
   4   6  -4 3212.28 205.527   3
  -4  -6   4 2644.77 207.533   1
  -4  -6   3-63.6064 47.2755   1
   4   6  -3-13.7497 32.6661   3
   4   6  -2 138.538 51.4938   3
   4   6  -1 171.052 57.3610   3
   4   6   0 1890.54 172.987   3
   4   6   1 672.684 111.336   3
   4   6   1 604.531 102.103   2
   4   6   2 432.681 94.2563   2
   4   6   3 287.682 86.2374   2
  -4  -6  -4 7951.27 368.332   4
  -4  -6  -5 173.207 70.8863   4
  -4  -7   6 736.729 124.883   1
  -4  -7   5 300.940 86.7259   1
   4   7  -4 15.3683 31.7394   3
  -4  -7   4-19.0525 34.9334   1
  -4  -7   3 80.2239 51.9830   1
   4   7  -3 13.9182 35.2351   3
   4   7  -2-32.1241 50.8278   3
   4   7  -1 757.452 116.412   2
   4   7   0 793.671 120.749   2
   4   7   1 858.989 135.071   2
   4   8  -2 1570.31 175.672   2
   5 -10  -5 1185.41 149.739   3
   5 -10  -4 3125.58 234.154   3
   5 -10  -3 660.958 106.136   3
   5 -10  -2 616.841 99.7544   3
   5 -10  -1 807.241 109.095   3
   5  -9  -6 2189.84 204.622   3
  -5   9   6 2009.63 195.429   2
   5  -9  -5 2893.27 225.537   3
   5  -9  -4 4077.57 260.423   3
   5  -9  -3 68.7623 46.5592   3
   5  -9  -2 48.5854 38.9159   3
   5  -9  -1 99.7362 46.3262   3
   5  -9   0 137.330 47.3960   3
   5  -9   1 455.084 71.8553   1
   5  -9   1 451.594 76.7074   3
   5  -9   2 1912.46 149.686   1
   5  -9   3 349.362 65.4711   1
   5  -9   4 1122.94 124.065   1
   5  -9   5 365.491 72.2820   1
   5  -9   6 213.970 63.4505   1
   5  -8  -7 2291.73 211.144   3
  -5   8   7 2278.39 208.589   2
   5  -8  -6 75.5397 40.0204   3
   5  -8  -5 5535.37 302.628   3
   5  -8  -4 2114.36 182.754   3
   5  -8  -3 4330.48 249.925   3
   5  -8  -2 7934.61 329.879   3
   5  -8  -1 477.469 82.3434   3
   5  -8  -1 368.574 51.9873   1
   5  -8   0 3409.90 203.962   3
   5  -8   0 3194.17 164.684   1
   5  -8   1 3272.97 193.747   3
   5  -8   1 3269.30 172.770   1
   5  -8   2 1314.14 120.401   3
   5  -8   2 1316.92 113.701   1
   5  -8   3 91.7143 33.0147   3
   5  -8   3 133.501 45.2545   1
   5  -8   4 2142.10 159.477   1
   5  -8   5 14.2070 37.8422   1
   5  -8   6 1313.63 134.783   1
   5  -8   7 3847.79 242.216   1
   5  -8   8 295.039 83.2950   1
   5  -7  -8 118.709 46.4548   3
   5  -7  -7 1509.74 166.218   3
   5  -7  -6 6647.41 330.768   3
   5  -7  -5 11415.9 419.032   3
   5  -7  -4 261.304 74.3983   3
   5  -7  -3 11873.5 401.679   3
   5  -7  -2 281.335 65.9864   3
   5  -7  -2 143.238 27.8735   1
   5  -7  -1 9305.08 339.087   3
   5  -7  -1 8583.59 220.928   1
   5  -7   0 143.747 51.8480   3
   5  -7   0 145.623 33.9507   1
   5  -7   1 6982.29 279.789   3
   5  -7   1 6841.53 218.287   1
   5  -7   2 221.668 53.5006   3
   5  -7   2 220.443 45.4824   1
   5  -7   3 2125.09 148.417   3
   5  -7   3 2183.44 142.123   1
   5  -7   4 4774.34 219.788   1
   5  -7   4 4966.37 219.793   3
   5  -7   5 2385.78 163.318   1
   5  -7   5 2158.60 141.907   3
   5  -7   6 2276.53 169.696   1
   5  -7   7 2268.82 181.418   1
   5  -7   8-132.676 69.9719   1
   5  -7   9 77.3496 64.6414   1
   5  -6  -9 546.546 106.947   3
   5  -6  -8 5140.15 301.351   3
   5  -6  -7 1789.68 176.403   3
   5  -6  -6 5216.01 286.409   3
   5  -6  -5 2580.02 196.291   3
   5  -6  -4 2883.33 200.727   3
   5  -6  -3 686.036 100.064   3
   5  -6  -3 466.114 37.0144   1
   5  -6  -2 4332.88 233.897   3
   5  -6  -2 4043.14 194.300   4
   5  -6  -1 50.4294 14.4610   1
   5  -6  -1 14.9455 26.6673   4
   5  -6   0 3373.70 196.466   3
   5  -6   0 3176.25 114.468   1
   5  -6   0 3147.81 165.310   4
   5  -6   1 3751.78 203.423   3
   5  -6   1 3652.53 138.929   1
   5  -6   1 3398.69 172.681   4
   5  -6   2 2918.85 136.411   1
   5  -6   2 2810.82 174.233   3
   5  -6   3 259.207 46.6164   1
   5  -6   3 245.326 50.9338   3
   5  -6   4 3282.57 174.565   1
   5  -6   4 3465.23 187.589   3
   5  -6   5 1753.87 132.977   3
  -5   6  -5 1730.92 138.307   4
   5  -6   5 1756.59 135.499   1
   5  -6   6 731.826 93.6731   1
   5  -6   6 785.393 90.7337   3
  -5   6  -6 681.278 92.1953   4
  -5   6  -7 5582.54 265.708   4
   5  -6   7 5869.95 280.385   1
  -5   6  -8 317.879 68.7974   4
   5  -6   8 420.914 79.4034   1
   5  -6   9 703.124 114.144   1
  -5   6  -9 657.659 103.056   4
   5  -5 -10 88.3857 64.9948   3
   5  -5  -9 6376.91 340.639   3
   5  -5  -8 7212.88 349.915   3
   5  -5  -7 116.713 57.7762   3
   5  -5  -6 2184.95 179.854   3
   5  -5  -5 220.254 67.3228   3
   5  -5  -4 648.394 98.2085   3
   5  -5  -3 7879.28 315.882   3
   5  -5  -2 2339.47 168.956   3
   5  -5  -1 2362.85 168.398   3
   5  -5   0 5055.20 237.876   3
   5  -5   0 4688.55 210.125   4
   5  -5   0 4400.23 95.2980   1
   5  -5   1 3709.65 203.341   3
   5  -5   1 3787.92 189.154   4
   5  -5   1 3620.33 117.046   1
   5  -5   2 768.730 91.9893   3
   5  -5   2 665.627 61.0410   1
   5  -5   3 3263.94 186.957   3
   5  -5   3 3420.20 151.540   1
   5  -5   4 5325.56 236.986   3
  -5   5  -4 4719.25 226.482   4
   5  -5   4 5218.80 204.258   1
   5  -5   5 2176.56 154.205   3
  -5   5  -5 2183.33 160.555   4
   5  -5   5 2110.93 143.884   1
   5  -5   6 878.792 100.532   3
  -5   5  -6 988.523 114.088   4
   5  -5   6 902.547 100.488   1
   5  -5   7 181.699 49.6319   3
   5  -5   7 125.971 49.2889   1
  -5   5  -7 268.758 68.3372   4
   5  -5   8 136.849 52.3894   1
  -5   5  -8 73.2307 54.0281   4
  -5   5  -9 6463.08 321.319   4
   5  -5   9 6201.30 314.366   1
   5  -5  10 44.1349 44.2780   1
  -5   5 -10 45.5007 44.7662   4
   5  -4 -10 255.343 77.4164   3
   5  -4  -9 6240.41 324.718   3
   5  -4  -8 2938.89 215.922   3
   5  -4  -7 7147.72 331.621   3
   5  -4  -6 413.494 82.1024   3
   5  -4  -5 10830.7 382.978   3
   5  -4  -4 10461.2 366.613   3
   5  -4  -3 8574.47 323.796   3
   5  -4  -2 11009.3 361.335   3
   5  -4  -1 7641.80 297.117   3
   5  -4   0 22142.0 494.552   3
   5  -4   1 1303.49 123.834   3
   5  -4   2 15298.5 406.631   3
   5  -4   3 5371.90 241.976   3
   5  -4   3 4875.56 171.386   1
   5  -4   4 11202.8 350.541   3
  -5   4  -4 10201.7 282.319   1
  -5   4  -4 11328.4 360.974   4
   5  -4   4 10808.8 284.271   1
   5  -4   5 3469.18 199.689   3
  -5   4  -5 3278.33 202.584   4
   5  -4   5 3296.46 171.784   1
   5  -4   6 1538.06 135.899   3
  -5   4  -6 1297.53 135.427   4
   5  -4   6 1539.58 129.255   1
   5  -4   7 414.545 74.7590   3
   5  -4   7 389.460 74.1399   1
  -5   4  -7 242.675 63.1962   4
   5  -4   8 43.7494 42.3794   3
   5  -4   8-35.8369 48.6582   1
  -5   4  -8-75.5586 49.5857   4
   5  -4   9 313.503 76.7002   1
  -5   4  -9 535.447 101.965   4
  -5   4 -10 197.642 66.0281   4
   5  -3 -11 32.7990 42.8520   3
   5  -3 -10 4535.71 280.051   3
   5  -3  -9 2329.68 196.471   3
   5  -3  -8 149.117 60.6697   3
   5  -3  -7 1867.20 168.798   3
   5  -3  -6 752.022 108.225   3
   5  -3  -5 1126.58 124.219   3
   5  -3  -4 66.5612 39.7239   3
   5  -3  -3 13553.4 404.043   3
   5  -3  -2 7781.50 303.968   3
   5  -3  -1 11546.6 362.683   3
   5  -3   0 10084.5 336.386   3
   5  -3   1 4955.43 234.937   3
   5  -3   2 1497.22 132.808   3
  -5   3  -2 1193.01 71.2430   1
  -5   3  -3 1650.28 98.3302   1
   5  -3   3 1676.36 138.968   3
  -5   3  -3 1654.18 142.059   4
   5  -3   4 2085.47 155.888   3
  -5   3  -4 2186.80 165.144   4
  -5   3  -4 1823.83 115.243   1
   5  -3   5 334.518 66.6571   3
  -5   3  -5 271.282 66.0750   4
   5  -3   6 5316.86 260.438   3
  -5   3  -6 5321.34 274.654   4
   5  -3   7 3287.00 210.419   3
  -5   3  -7 3265.20 223.084   4
   5  -3   8 239.138 61.9282   3
  -5   3  -8 236.355 68.5747   4
  -5   3  -9 670.812 113.926   4
   5  -2 -11 72.2325 44.8197   3
   5  -2 -10 2993.20 227.454   3
   5  -2  -9 88.4151 43.4362   3
   5  -2  -8 822.953 124.977   3
   5  -2  -7 618.226 98.9889   3
   5  -2  -6 385.196 77.4227   3
   5  -2  -5 2946.31 198.626   3
   5  -2  -4 653.792 98.5148   3
   5  -2  -3 10374.0 353.744   3
   5  -2  -2 16437.5 438.966   3
   5  -2  -1 15142.8 418.168   3
   5  -2   0 4550.50 228.269   3
  -5   2  -1 3452.38 95.9957   1
   5  -2   1 5626.92 254.962   3
   5  -2   2 4175.62 222.304   3
  -5   2  -2 3337.25 120.534   1
  -5   2  -3 212.133 37.6069   1
   5  -2   3 345.697 69.1181   3
  -5   2  -3 291.391 63.1821   4
   5  -2   4 228.585 61.4647   3
  -5   2  -4 211.354 58.7798   4
  -5   2  -4 147.097 32.3273   1
   5  -2   5 121.711 49.8284   3
  -5   2  -5 201.618 65.8035   4
   5  -2   6 1183.65 128.654   3
  -5   2  -6 1019.68 126.048   4
   5  -2   7 111.880 44.7565   3
  -5   2  -7-26.3308 48.7325   4
   5  -2   8 1436.38 151.311   3
  -5   2  -8 1493.69 163.143   4
   5  -2   9 517.180 90.9958   2
  -5   2  -9 303.977 70.6692   4
   5  -1 -12 29.2279 43.5737   3
   5  -1 -11 598.409 108.873   3
   5  -1 -10 4025.30 258.005   3
   5  -1  -9 994.250 127.576   3
   5  -1  -8 14314.0 453.602   3
   5  -1  -7 2228.90 178.443   3
   5  -1  -6 3167.67 206.777   3
   5  -1  -5 1254.22 133.027   3
   5  -1  -4 11863.5 385.664   3
   5  -1  -3 460.137 80.4164   3
   5  -1  -2 5284.84 252.406   3
   5  -1  -1 14866.7 420.893   3
   5  -1   0 3697.46 212.167   3
  -5   1   0 2171.58 68.6301   1
   5  -1   1 25632.2 554.287   3
  -5   1  -1 20792.1 279.352   1
  -5   1  -2 106.243 24.9280   1
   5  -1   2 122.062 45.0962   3
   5  -1   3 2163.14 167.493   3
  -5   1  -3 1813.63 110.044   1
  -5   1  -3 2340.37 177.040   4
   5  -1   4 228.012 64.6862   3
  -5   1  -4 252.474 47.1043   1
  -5   1  -4 295.219 71.8816   4
   5  -1   5 1757.93 160.190   3
  -5   1  -5 1813.26 167.858   4
   5  -1   6 153.136 52.9911   3
  -5   1  -6 100.782 48.1483   4
   5  -1   7 2088.02 183.053   3
  -5   1  -7 1935.65 182.929   4
   5  -1   8 617.748 104.834   3
   5  -1   8 384.479 77.2676   2
  -5   1  -8 479.144 92.9418   4
   5  -1   9-43.4506 51.3874   2
   5  -1  10 662.743 110.308   2
   5   0 -12 4464.62 278.398   3
   5   0 -11 13985.4 480.607   3
   5   0 -10 54.7094 37.0393   3
   5   0  -9 1932.40 172.699   3
   5   0  -8 4841.82 263.047   3
  -5   0   8 4845.07 183.224   1
   5   0  -7 1030.56 123.469   3
  -5   0   7 1135.32 80.7662   1
   5   0  -6 421.250 82.5139   3
  -5   0   6 502.427 47.9927   1
  -5   0   5 8800.47 173.595   1
   5   0  -5 9222.00 344.528   3
  -5   0   4 39.0488 12.6125   1
   5   0  -4-3.31943 32.3447   3
   5   0  -3 4268.04 233.655   3
  -5   0   3 3217.50 86.5089   1
  -5   0   2 485.772 36.1957   1
  -5   0   2 453.480 34.4108   1
   5   0  -1 4840.77 246.188   3
  -5   0   1 4111.83 113.949   1
   5   0   0 99.4001 45.2547   3
  -5   0   0 60.8494 20.1701   1
  -5   0  -1 359.494 44.1742   1
   5   0   1 411.518 78.7027   3
  -5   0  -2 2380.46 124.121   1
   5   0   2 2619.21 186.670   3
  -5   0  -3 3.14072 22.4786   1
   5   0   3 40.8311 36.2265   3
   5   0   4 232.607 69.2413   3
  -5   0  -4 224.008 65.9028   4
   5   0   5 1170.00 136.515   3
  -5   0  -5 1070.12 134.373   4
   5   0   6 3169.29 228.184   3
  -5   0  -6 3043.58 227.553   4
   5   0   7 3529.94 243.270   3
  -5   0  -7 3280.22 246.129   4
   5   0   8 53.5320 40.8052   2
  -5   0  -8 42.7240 42.1001   4
   5   0   9 7011.61 350.491   2
   5   0  10 2492.88 214.706   2
   5   1 -11 4489.42 268.379   3
   5   1 -10 3210.04 221.777   3
   5   1  -9 2023.08 175.264   3
   5   1  -8 773.804 108.273   3
  -5  -1   7 296.483 48.0655   1
   5   1  -7 366.664 73.2250   3
   5   1  -6 4007.56 234.843   3
  -5  -1   6 4101.20 160.753   1
   5   1  -5 893.012 110.630   3
  -5  -1   5 986.815 73.5286   1
   5   1  -4 2223.44 170.562   3
  -5  -1   4 2222.35 107.471   1
   5   1  -3 209.097 58.5953   3
  -5  -1   3 230.010 34.6516   1
   5   1  -2 62.4245 33.9564   3
  -5  -1   2 93.3106 29.0276   1
   5   1  -1 1522.76 146.021   3
   5   1   0 1340.61 137.003   3
  -5  -1   0 1189.90 87.6144   1
   5   1   1 161.499 51.8374   3
  -5  -1  -1 136.268 37.7840   1
   5   1   2 568.187 94.7700   3
  -5  -1  -2 348.783 52.7752   1
   5   1   3 198.705 54.6243   3
  -5  -1  -3 278.171 73.4130   4
   5   1   4 542.332 94.2715   3
  -5  -1  -4 592.412 101.873   4
   5   1   5 1476.31 159.918   3
  -5  -1  -5 1475.82 161.393   4
   5   1   6 3121.85 231.919   3
  -5  -1  -6 3005.98 233.277   4
   5   1   7 176.195 64.9480   3
   5   1   7 301.613 73.4804   2
  -5  -1  -7 165.008 65.3883   4
   5   1   8 616.694 117.090   2
   5   1   9 4935.50 309.146   2
   5   2 -10 4406.68 256.656   3
   5   2  -9 7473.68 329.091   3
   5   2  -8 115.134 51.4699   3
   5   2  -7 391.910 79.4413   3
  -5  -2   7 357.836 59.6524   1
   5   2  -6 1293.14 133.376   3
  -5  -2   6 1325.64 104.943   1
   5   2  -5 1619.60 150.633   3
  -5  -2   5 1535.80 109.377   1
  -5  -2   4 294.082 47.9195   1
   5   2  -4 324.432 70.1887   3
  -5  -2   3 8947.54 254.413   1
   5   2  -3 10025.3 364.849   3
   5   2  -2 2143.39 171.857   3
   5   2  -1 13264.8 423.291   3
   5   2   0 1109.62 127.757   3
   5   2   1 4787.13 265.531   3
   5   2   2 3946.73 244.675   3
   5   2   3 808.598 116.376   3
  -5  -2  -3 954.009 126.611   4
   5   2   4 1153.31 138.259   3
  -5  -2  -4 1200.40 145.506   4
   5   2   5 964.399 132.838   3
  -5  -2  -5 1096.03 143.899   4
   5   2   6 55.2805 42.7312   3
  -5  -2  -6 40.8466 44.9550   4
   5   2   7 32.9273 56.0837   2
   5   3  -9 165.268 62.9324   3
   5   3  -8 235.551 64.8570   3
   5   3  -7 2909.13 203.411   3
  -5  -3   7 2968.26 180.222   1
  -5  -3   6 454.714 68.9011   1
   5   3  -6 499.296 86.5118   3
  -5  -3   5 446.950 69.5094   1
   5   3  -5 398.391 80.9006   3
  -5  -3   4 2343.46 150.725   1
   5   3  -4 2543.13 189.437   3
   5   3  -3 114.432 46.5913   3
  -5  -3   3 153.335 40.8837   1
   5   3  -2 1345.33 140.429   3
   5   3  -1 1398.74 148.202   3
   5   3   0 10298.4 395.771   3
   5   3   1 5168.00 287.341   3
   5   3   2 15.0755 32.8589   3
   5   3   3 2013.33 191.075   3
  -5  -3  -3 1724.40 173.241   4
   5   3   4 2404.74 206.784   3
  -5  -3  -4 2691.77 219.722   4
   5   3   5 4257.63 290.059   3
  -5  -3  -5 4286.15 282.051   4
   5   3   6 575.872 111.921   2
  -5  -3  -6 547.276 112.831   4
   5   4  -8 635.678 99.1817   3
   5   4  -7 1647.97 152.893   3
  -5  -4   6 402.436 73.4115   1
   5   4  -6 218.248 64.4981   3
   5   4  -5 713.044 105.016   3
  -5  -4   5 841.854 102.873   1
  -5  -4   4 3476.92 201.782   1
   5   4  -4 3764.31 236.169   3
  -5  -4   3 752.710 96.4673   1
   5   4  -3 721.198 108.472   3
   5   4  -2 87.7335 57.5016   3
   5   4  -1 1135.49 140.546   3
   5   4   0 1446.07 159.085   3
   5   4   1 2429.76 204.159   3
   5   4   2 378.420 90.9877   3
   5   4   3 349.672 84.5356   3
  -5  -4  -4 377.546 94.1227   4
   5   4   4 388.108 97.9575   3
   5   5  -6 93.2552 53.1659   3
  -5  -5   5 20869.9 543.866   1
   5   5  -5 21569.4 572.894   3
  -5  -5   4 2083.63 171.360   1
   5   5  -4 2365.08 197.292   3
   5   5  -3 462.631 91.3934   3
  -5  -5   3 196.181 55.2261   1
   5   5  -2 4800.03 281.264   3
   5   5  -1 61.7459 49.0328   3
   5   5   0 202.091 68.4304   3
   5   5   1 2179.86 204.047   3
   5   5   2 519.708 104.450   3
  -5  -6   4 542.863 101.020   1
   5   6  -4 768.514 115.840   3
   5   6  -3 3369.78 238.940   3
  -5  -6   3 3184.83 231.544   1
   5   6  -2 329.323 74.4867   3
   5   6  -1 1058.37 141.205   3
   6 -10  -3 1352.18 161.872   3
   6 -10  -2 4806.34 285.344   3
   6 -10  -1 200.604 62.9632   3
   6  -9  -4 152.323 50.8077   3
   6  -9  -3 742.588 119.669   3
   6  -9  -2 2300.73 197.194   3
   6  -9  -1 165.762 56.5302   3
   6  -9   0 82.2394 50.6527   3
   6  -9   1 1243.78 134.091   3
   6  -8  -5 1504.98 173.374   3
   6  -8  -4 3433.17 247.392   3
   6  -8  -3 3069.22 227.841   3
   6  -8  -2 174.064 59.4900   3
   6  -8  -1 280.598 73.4762   3
   6  -8   0 670.077 102.965   3
   6  -8   1 120.087 48.5149   3
   6  -8   2 27.5186 35.5292   3
   6  -7  -6 285.268 86.5773   3
   6  -7  -5 1487.98 167.105   3
   6  -7  -4 2329.44 199.908   3
   6  -7  -3 4934.99 281.994   3
   6  -7  -2 3998.31 250.527   3
   6  -7  -1 3212.10 220.116   3
   6  -7   0 331.671 77.9385   3
   6  -7   1 3406.88 218.817   3
   6  -7   2 801.359 108.313   3
   6  -7   3 1498.86 138.596   3
   6  -7   4 665.473 97.3021   3
   6  -6  -7 1478.14 165.477   3
   6  -6  -6 2713.26 228.069   3
   6  -6  -5 4673.76 283.015   3
   6  -6  -4 7478.82 348.939   3
   6  -6  -3 195.262 68.2683   3
   6  -6  -2 5535.20 289.314   3
   6  -6  -1 1036.56 126.273   3
   6  -6   0 4545.98 254.125   3
   6  -6   1 118.125 54.4664   3
   6  -6   2 154.997 49.0949   3
   6  -6   3 118.852 51.7727   3
   6  -6   4 1602.12 147.291   3
   6  -6   5 1506.21 142.269   3
  -6   6  -7 1485.96 153.521   4
   6  -5  -8 243.381 79.4274   3
   6  -5  -7 1274.30 158.435   3
   6  -5  -6 900.700 132.320   3
   6  -5  -5 6461.47 326.912   3
   6  -5  -4 4118.27 259.713   3
   6  -5  -3 468.106 87.0049   3
   6  -5  -2 1106.80 133.603   3
   6  -5  -1 61.7069 34.8923   3
   6  -5   0 986.263 122.483   3
   6  -5   1 66.2261 41.0312   3
   6  -5   2 1911.38 163.780   3
   6  -5   3 119.882 46.7473   3
   6  -5   4 228.856 62.9103   3
   6  -5   5 77.0167 46.3464   3
   6  -5   6 1779.86 161.659   3
  -6   5  -6 1641.48 160.187   4
  -6   5  -7 431.339 90.7308   4
  -6   5  -8 4159.34 270.059   4
   6  -4  -8 312.197 77.1579   3
   6  -4  -7 5323.42 307.178   3
   6  -4  -6 3493.37 242.642   3
   6  -4  -5 1234.69 150.477   3
   6  -4  -4 1067.32 133.216   3
   6  -4  -3 157.756 61.2309   3
   6  -4  -2 5002.08 270.875   3
   6  -4  -1 673.776 102.490   3
   6  -4   0 390.563 82.6446   3
   6  -4   1 2711.56 195.143   3
   6  -4   2 6509.89 302.230   3
   6  -4   3 702.784 103.963   3
   6  -4   4 575.736 94.9016   3
   6  -4   5 1167.53 133.437   3
  -6   4  -5 976.715 129.232   4
   6  -4   6 445.844 85.3986   3
  -6   4  -6 463.297 89.7924   4
   6  -4   7 1200.29 139.760   3
  -6   4  -7 948.564 130.365   4
   6  -3  -9 383.879 93.6262   3
   6  -3  -8 9779.98 421.952   3
   6  -3  -7 4834.43 291.490   3
   6  -3  -6 3406.78 241.956   3
   6  -3  -5 1233.64 145.919   3
   6  -3  -4 1936.31 177.953   3
   6  -3  -3 2548.46 201.317   3
   6  -3  -2 170.771 65.0858   3
   6  -3  -1 6816.95 313.948   3
   6  -3   0 1264.27 141.398   3
   6  -3   1 8265.03 344.197   3
   6  -3   2 132.282 57.2631   3
   6  -3   3 4061.88 245.246   3
   6  -3   4 5091.27 277.677   3
   6  -3   5 5521.36 291.745   3
  -6   3  -5 5617.23 299.070   4
   6  -3   6 2475.17 202.030   3
  -6   3  -6 2358.98 203.768   4
   6  -3   7 98.6640 55.6417   3
  -6   3  -7 270.795 80.6359   4
   6  -3   8 425.569 90.9929   3
   6  -2  -9 2497.19 220.971   3
   6  -2  -8 1805.90 182.608   3
   6  -2  -7 3.66441 36.5015   3
   6  -2  -6 2434.18 205.599   3
   6  -2  -5 343.415 81.0659   3
   6  -2  -4 1738.81 168.491   3
   6  -2  -3 1670.97 162.687   3
   6  -2  -2 5954.05 298.190   3
   6  -2  -1 4500.34 259.713   3
   6  -2   0 536.264 91.7829   3
   6  -2   1 148.975 65.5546   3
   6  -2   2 1068.48 129.323   3
   6  -2   3 2444.35 195.798   3
   6  -2   4 199.980 67.5366   3
  -6   2  -4 158.750 56.0762   4
   6  -2   5 3833.33 255.094   3
  -6   2  -5 3931.75 259.721   4
   6  -2   6 725.082 116.069   3
  -6   2  -6 574.779 109.801   4
   6  -2   7 3941.55 266.248   3
   6  -2   8 455.953 96.9004   3
   6  -1  -9 138.033 59.3979   3
   6  -1  -8 954.528 136.163   3
   6  -1  -7 351.903 86.5701   3
   6  -1  -6 113.361 58.6143   3
   6  -1  -5 132.357 55.1027   3
   6  -1  -4 1592.46 160.004   3
   6  -1  -3 440.090 89.9677   3
   6  -1  -2 10909.6 406.952   3
   6  -1  -1 977.626 126.270   3
   6  -1   0 10167.4 394.978   3
   6  -1   1 4532.51 267.809   3
   6  -1   2 2197.95 188.347   3
   6  -1   3 2558.15 209.021   3
   6  -1   4 307.504 78.1558   3
  -6   1  -4 163.554 65.6146   4
   6  -1   5 75.7221 46.0430   3
  -6   1  -5 116.460 59.1181   4
   6  -1   6 356.478 91.0792   3
  -6   1  -6 337.100 82.4637   4
   6  -1   7 999.534 141.337   3
   6  -1   8 673.213 111.785   2
   6   0  -9 5414.35 312.377   3
   6   0  -8 480.769 94.9828   3
   6   0  -7 5696.76 312.243   3
   6   0  -6 272.959 71.8513   3
   6   0  -5 209.874 76.9131   3
   6   0  -4 281.930 69.6501   3
   6   0  -3 2553.86 204.607   3
   6   0  -2 536.656 96.5117   3
   6   0  -1 955.425 123.656   3
   6   0   0 10964.2 417.005   3
   6   0   1 2470.64 200.417   3
   6   0   2 6358.40 325.924   3
   6   0   3 322.854 84.9558   3
   6   0   4 983.344 137.621   3
  -6   0  -4 1014.72 140.641   4
   6   0   5 74.0058 62.4926   3
  -6   0  -5-44.8019 47.9471   4
   6   0   6 245.660 75.3222   3
   6   1  -9 161.993 69.3071   3
   6   1  -8 1732.85 176.157   3
   6   1  -7 4520.66 276.554   3
   6   1  -6 1505.91 159.702   3
   6   1  -5 512.575 98.1279   3
   6   1  -4 2242.20 192.964   3
   6   1  -3 1343.71 148.630   3
   6   1  -2 237.791 73.6398   3
   6   1  -1 516.169 97.8171   3
   6   1   0 1087.88 140.787   3
   6   1   1 234.424 83.8389   3
   6   1   2 5920.92 326.402   3
   6   1   3 827.196 126.129   3
   6   1   4 658.853 118.938   3
   6   2  -8 306.791 80.0804   3
   6   2  -7 2481.86 209.941   3
   6   2  -6 34.4130 31.7369   3
   6   2  -5 2299.95 199.906   3
   6   2  -4 2806.95 219.862   3
   6   2  -3 271.612 71.5119   3
   6   2  -2 1306.11 150.433   3
   6   2  -1 1325.77 156.862   3
   6   2   0 3561.49 256.061   3
   6   2   1 162.643 71.1598   3
   6   2   2 545.806 109.393   3
   6   2   3 260.021 85.9579   3
   6   3  -7 25.7936 38.1418   3
   6   3  -6 92.7771 48.8027   3
   6   3  -5 1081.85 141.699   3
   6   3  -4 173.496 58.6497   3
   6   3  -3 257.780 79.8357   3
   6   3  -2 916.272 129.937   3
   6   3  -1 386.469 86.9917   3
   6   3   0 3433.88 256.991   3
   7  -8  -1 4264.48 278.947   3
   7  -8   0-7.73570 40.7174   3
   7  -8   1 157.740 50.5287   3
   7  -7  -3 1165.76 154.617   3
   7  -7  -2 770.838 127.910   3
   7  -7  -1 893.323 134.171   3
   7  -7   0 28.7801 43.9914   3
   7  -7   1 484.647 99.0054   3
   7  -7   2 326.266 77.2618   3
   7  -7   3 1495.82 155.180   3
   7  -6  -3 1049.23 142.376   3
   7  -6  -2 3371.38 254.481   3
   7  -6  -1 729.717 116.438   3
   7  -6   0 91.1192 49.3025   3
   7  -6   1 46.5985 36.7028   3
   7  -6   2 247.398 70.8420   3
   7  -6   3 73.1574 50.9151   3
   7  -6   4 21.0950 37.8737   3
   7  -5  -4 967.780 140.165   3
   7  -5  -3 3538.05 257.348   3
   7  -5  -2 2715.40 227.630   3
   7  -5  -1 3860.75 262.151   3
   7  -5   0 3256.50 239.634   3
   7  -5   1 356.065 79.2956   3
   7  -5   2 958.318 131.771   3
   7  -5   3 1054.50 137.131   3
   7  -5   4 68.6877 43.9168   3
   7  -5   5 150.598 64.9288   3
   7  -4  -4 3987.03 278.205   3
   7  -4  -3 1519.50 172.519   3
   7  -4  -2 4.91606 40.1391   3
   7  -4  -1 1444.64 162.653   3
   7  -4   0 206.992 63.8204   3
   7  -4   1 5775.97 317.925   3
   7  -4   2 178.261 60.7642   3
   7  -4   3 1707.92 177.270   3
   7  -4   4 790.883 122.486   3
   7  -4   5 237.313 68.5699   3
   7  -3  -5 5692.62 334.937   3
   7  -3  -4 1394.49 163.443   3
   7  -3  -3 1802.09 180.254   3
   7  -3  -2 182.900 61.0319   3
   7  -3  -1 204.186 73.9501   3
   7  -3   0-15.5421 49.4927   3
   7  -3   1 144.018 62.6062   3
   7  -3   2 296.592 76.1060   3
   7  -3   3 1698.26 178.205   3
   7  -3   4 381.921 96.3900   3
   7  -2  -4 1492.64 172.334   3
   7  -2  -3 349.357 85.0429   3
   7  -2  -2 1385.37 163.256   3
   7  -2  -1 4443.50 289.350   3
   7  -2   0 739.070 120.265   3
   7  -2   1 46.2328 52.7847   3
   7  -2   2 735.015 124.419   3
   7  -2   3 1792.04 187.482   3
   7  -1  -3 1154.82 150.292   3
   7  -1  -2 1538.25 173.439   3
   7  -1  -1 1268.32 160.637   3
   7  -1   0 857.714 133.673   3
   7  -1   1 468.948 103.443   3
   0   0   0    0.00    0.00   0
TITL LES_4789_130 in P-1
REM P-1 (#2 in standard setting)
CELL 0.71073   5.789104   8.804469  10.968803  90.6382  95.7943 107.9903
ZERR    2.00   0.000150   0.000242   0.000278   0.0022   0.0022   0.0024
LATT  1
SFAC C H N O S
UNIT 20.00 22.00 6.00 4.00 2.00
TREF
HKLF 4
END
;
_shelx_hkl_checksum              91576
_shelx_res_file
;
TITL LES_4789_130 in P-1 #2
CELL 0.71073 5.789104 8.804469 10.968803 90.6382 95.7943 107.9903
ZERR 2 0.00015 0.000242 0.000278 0.0022 0.0022 0.0024
LATT 1
SFAC C H N O S
UNIT 20 22 6 4 2
DFIX 0.61 0.04 H16b H16a
SADI O16b C15b C15a O16a
SADI C14b C15b C14a C15a
SADI C5b C14b C5a C14a
EADP S1a S1b
EADP C5a C5b
EADP C14b C14a
EADP C15a C15b
EADP O16a O16b
L.S. 6
PLAN  20
TEMP -143
MPLA S1a C2 N3 C4 C5a
MPLA C7 N8 C9 C10 C11 C12
MPLA S1b C2 N3 C4 C5b
MPLA S1a C2 N3 C4 C5a
MPLA N6 C7 N8 C9 C10 C11 C12
MPLA S1b C2 N3 C4 C5b
RTAB Omeg N3 C2 N6 H6
RTAB Omeg S1a C2 C7 N8
RTAB Omeg S1b C2 C7 N8
REM reset to P-1 #2
BOND $H
CONF
fmap 2
acta 50
REM <HKL>\\ANDRZEJGZELLA\Users\Andrzej%20Gzella\Documents\Andrzej\LES4789_130\
REM LES_4789_130.hkl</HKL>
WGHT    0.032800    0.230600
FVAR       7.45814   0.88344
PART 1
S1A   5    0.401611    0.385790    0.271701    21.00000    0.02429    0.01972 =
         0.01731    0.00383    0.00674    0.00808
PART 0
C2    1    0.206177    0.444610    0.362455    11.00000    0.02505    0.01731 =
         0.01621    0.00090    0.00476    0.00401
N3    3    0.177226    0.382883    0.471662    11.00000    0.02855    0.02082 =
         0.01667    0.00350    0.00564    0.00925
C4    1    0.293517    0.269084    0.489227    11.00000    0.04049    0.02447 =
         0.01944    0.00304    0.00776    0.01511
N6    3    0.091602    0.550395    0.327637    11.00000    0.02420    0.02255 =
         0.01675    0.00460    0.00648    0.00823
H6    2    0.004133    0.571565    0.382162    11.00000    0.03444
C7    1    0.094205    0.623021    0.213455    11.00000    0.02326    0.01860 =
         0.01632    0.00337    0.00254    0.00283
N8    3    0.252999    0.602694    0.140935    11.00000    0.02799    0.02264 =
         0.01858    0.00413    0.00654    0.00672
C9    1    0.253835    0.668477    0.030606    11.00000    0.02862    0.02867 =
         0.01890    0.00452    0.00731    0.00517
AFIX  43
H9    2    0.364038    0.653274   -0.023356    11.00000   -1.20000
AFIX   0
C10   1    0.102064    0.757132   -0.008033    11.00000    0.02910    0.03072 =
         0.01897    0.00950    0.00319    0.00392
AFIX  43
H10   2    0.108652    0.802585   -0.086249    11.00000   -1.20000
AFIX   0
C11   1   -0.059908    0.777658    0.070788    11.00000    0.02586    0.02943 =
         0.02564    0.00886    0.00114    0.00723
AFIX  43
H11   2   -0.165188    0.838818    0.047166    11.00000   -1.20000
AFIX   0
C12   1   -0.068153    0.709167    0.183654    11.00000    0.02284    0.02468 =
         0.02213    0.00448    0.00455    0.00613
AFIX  43
H12   2   -0.179394    0.720208    0.238557    11.00000   -1.20000
AFIX   0
O13   4    0.288190    0.193471    0.582290    11.00000    0.06905    0.03811 =
         0.02184    0.01359    0.01629    0.03327
PART 1
C15A  1    0.504899    0.041160    0.239597    21.00000    0.02233    0.02058 =
         0.02216    0.00139    0.00400    0.00581
AFIX  23
H15A  2    0.444142   -0.073353    0.212799    21.00000   -1.20000
H15B  2    0.488044    0.104352    0.167046    21.00000   -1.20000
AFIX   0
C5A   1    0.439994    0.245410    0.386282    21.00000    0.02444    0.02087 =
         0.01839    0.00344    0.00325    0.00949
AFIX  13
H5A   2    0.616559    0.273591    0.418556    21.00000   -1.20000
AFIX   0
C14A  1    0.349553    0.072259    0.334772    21.00000    0.02161    0.01982 =
         0.02485    0.00252    0.00524    0.00641
AFIX  23
H14A  2    0.351109   -0.000262    0.402965    21.00000   -1.20000
H14B  2    0.178628    0.047549    0.297035    21.00000   -1.20000
AFIX   0
O16A  4    0.756734    0.082041    0.285906    21.00000    0.02543    0.02836 =
         0.02955    0.00878    0.00692    0.01080
AFIX 147
H16A  2    0.775625    0.015887    0.337493    21.00000   -1.50000
AFIX   0
PART 0
PART 2
S1B   5    0.311758    0.357084    0.255617   -21.00000    0.02429    0.01972 =
         0.01731    0.00383    0.00674    0.00808
C5B   1    0.311532    0.201257    0.362279   -21.00000    0.02444    0.02087 =
         0.01839    0.00344    0.00325    0.00949
AFIX  13
H5B   2    0.168530    0.103943    0.338706   -21.00000   -1.20000
AFIX   0
C14B  1    0.546975    0.157745    0.375211   -21.00000    0.02161    0.01982 =
         0.02485    0.00252    0.00524    0.00641
AFIX  23
H14C  2    0.545736    0.084008    0.442801   -21.00000   -1.20000
H14D  2    0.689153    0.255074    0.393878   -21.00000   -1.20000
AFIX   0
C15B  1    0.564142    0.076981    0.253425   -21.00000    0.02233    0.02058 =
         0.02216    0.00139    0.00400    0.00581
AFIX  23
H15C  2    0.421825   -0.020725    0.236970   -21.00000   -1.20000
H15D  2    0.555902    0.150192    0.186439   -21.00000   -1.20000
AFIX   0
O16B  4    0.778369    0.035678    0.252486   -21.00000    0.02543    0.02836 =
         0.02955    0.00878    0.00692    0.01080
AFIX 147
H16B  2    0.774519   -0.038873    0.300147   -21.00000   -1.50000
AFIX   0
HKLF 4
REM  LES_4789_130 in P-1 #2
REM R1 =  0.0357 for    2338 Fo > 4sig(Fo)  and  0.0389 for all    2501 data
REM    167 parameters refined using      4 restraints
END
WGHT      0.0328      0.2303
REM Highest difference peak  0.336,  deepest hole -0.209,  1-sigma level  0.048
Q1    1   0.2950  0.4197  0.3227  11.00000  0.05    0.34
Q2    1   0.3645  0.2570  0.4378  11.00000  0.05    0.30
Q3    1   0.0301  0.6821  0.2053  11.00000  0.05    0.29
Q4    1   0.3903  0.1618  0.3663  11.00000  0.05    0.26
Q5    1   0.4383  0.0599  0.2925  11.00000  0.05    0.24
Q6    1   0.2331  0.3356  0.4780  11.00000  0.05    0.23
Q7    1   0.1359  0.6843 -0.0016  11.00000  0.05    0.23
Q8    1  -0.0095  0.7461  0.0227  11.00000  0.05    0.22
Q9    1   0.3075  0.2972  0.2058  11.00000  0.05    0.21
Q10   1   0.0795  0.3977  0.5178  11.00000  0.05    0.20
Q11   1  -0.0645  0.7364  0.1244  11.00000  0.05    0.20
Q12   1   0.1343  0.5859  0.1638  11.00000  0.05    0.20
Q13   1   0.6536  0.1480  0.2929  11.00000  0.05    0.20
Q14   1   0.6437  0.0079  0.2417  11.00000  0.05    0.20
Q15   1   0.1338  0.4848  0.3348  11.00000  0.05    0.19
Q16   1   0.2192  0.6593  0.1943  11.00000  0.05    0.18
Q17   1   0.1996  0.7435  0.0301  11.00000  0.05    0.17
Q18   1   0.1506  0.1381  0.5512  11.00000  0.05    0.17
Q19   1   0.2743  0.5373  0.1441  11.00000  0.05    0.17
Q20   1   0.6170  0.2164  0.3911  11.00000  0.05    0.16
;
_shelx_res_checksum              60631
_shelxl_version_number           2.014
#END Tags that were not found in dictionaries
loop_
_space_group_symop_operation_xyz
'x, y, z'
'-x, -y, -z'
loop_
_atom_site_type_symbol
_atom_site_label
_atom_site_fract_x
_atom_site_fract_y
_atom_site_fract_z
_atom_site_U_iso_or_equiv
_atom_site_adp_type
_atom_site_calc_flag
_atom_site_occupancy
_atom_site_disorder_assembly
_atom_site_disorder_group
S S1A 0.40161(15) 0.38579(7) 0.27170(4) 0.01982(15) Uani d 0.883(2) A 1
C C2 0.2062(3) 0.44461(16) 0.36246(12) 0.0199(3) Uani d 1 . .
N N3 0.1772(2) 0.38288(14) 0.47166(10) 0.0214(3) Uani d 1 . .
C C4 0.2935(3) 0.26908(18) 0.48923(13) 0.0267(3) Uani d 1 . .
N N6 0.0916(2) 0.55040(14) 0.32764(11) 0.0206(3) Uani d 1 . .
H H6 0.004(4) 0.572(2) 0.3822(18) 0.034(5) Uiso d 1 . .
C C7 0.0942(3) 0.62302(16) 0.21345(12) 0.0202(3) Uani d 1 . .
N N8 0.2530(2) 0.60269(15) 0.14094(11) 0.0230(3) Uani d 1 . .
C C9 0.2538(3) 0.66848(18) 0.03061(13) 0.0259(3) Uani d 1 . .
H H9 0.3640 0.6533 -0.0234 0.031 Uiso calc 1 . .
C C10 0.1021(3) 0.75713(19) -0.00803(13) 0.0274(3) Uani d 1 . .
H H10 0.1087 0.8026 -0.0862 0.033 Uiso calc 1 . .
C C11 -0.0599(3) 0.77766(19) 0.07079(14) 0.0274(3) Uani d 1 . .
H H11 -0.1652 0.8388 0.0472 0.033 Uiso calc 1 . .
C C12 -0.0682(3) 0.70917(18) 0.18365(13) 0.0233(3) Uani d 1 . .
H H12 -0.1794 0.7202 0.2386 0.028 Uiso calc 1 . .
O O13 0.2882(3) 0.19347(15) 0.58229(10) 0.0383(3) Uani d 1 . .
C C15A 0.5049(3) 0.0412(2) 0.2396(2) 0.0218(4) Uani d 0.883(2) A 1
H H15A 0.4441 -0.0734 0.2128 0.026 Uiso calc 0.883(2) A 1
H H15B 0.4880 0.1044 0.1670 0.026 Uiso calc 0.883(2) A 1
C C5A 0.4400(3) 0.2454(2) 0.38628(14) 0.0206(3) Uani d 0.883(2) A 1
H H5A 0.6166 0.2736 0.4186 0.025 Uiso calc 0.883(2) A 1
C C14A 0.3496(3) 0.07226(19) 0.33477(15) 0.0219(3) Uani d 0.883(2) A 1
H H14A 0.3511 -0.0003 0.4030 0.026 Uiso calc 0.883(2) A 1
H H14B 0.1786 0.0475 0.2970 0.026 Uiso calc 0.883(2) A 1
O O16A 0.7567(2) 0.08204(17) 0.28591(13) 0.0269(3) Uani d 0.883(2) A 1
H H16A 0.7756 0.0159 0.3375 0.040 Uiso calc 0.883(2) A 1
S S1B 0.3118(10) 0.3571(5) 0.2556(4) 0.01982(15) Uani d 0.117(2) A 2
C C5B 0.312(3) 0.2013(16) 0.3623(11) 0.0206(3) Uani d 0.117(2) A 2
H H5B 0.1685 0.1039 0.3387 0.025 Uiso calc 0.117(2) A 2
C C14B 0.547(2) 0.1577(14) 0.3752(11) 0.0219(3) Uani d 0.117(2) A 2
H H14C 0.5457 0.0840 0.4428 0.026 Uiso calc 0.117(2) A 2
H H14D 0.6892 0.2551 0.3939 0.026 Uiso calc 0.117(2) A 2
C C15B 0.564(3) 0.077(2) 0.2534(17) 0.0218(4) Uani d 0.117(2) A 2
H H15C 0.4218 -0.0207 0.2370 0.026 Uiso calc 0.117(2) A 2
H H15D 0.5559 0.1502 0.1864 0.026 Uiso calc 0.117(2) A 2
O O16B 0.778(2) 0.0357(15) 0.2525(11) 0.0269(3) Uani d 0.117(2) A 2
H H16B 0.7745 -0.0389 0.3001 0.040 Uiso calc 0.117(2) A 2
loop_
_atom_site_aniso_label
_atom_site_aniso_U_11
_atom_site_aniso_U_22
_atom_site_aniso_U_33
_atom_site_aniso_U_12
_atom_site_aniso_U_13
_atom_site_aniso_U_23
S1A 0.0243(3) 0.0197(2) 0.0173(2) 0.0081(2) 0.0067(2) 0.00383(16)
C2 0.0251(7) 0.0173(6) 0.0162(6) 0.0040(5) 0.0048(5) 0.0009(5)
N3 0.0285(7) 0.0208(6) 0.0167(5) 0.0093(5) 0.0056(5) 0.0035(4)
C4 0.0405(9) 0.0245(7) 0.0194(7) 0.0151(7) 0.0078(6) 0.0030(6)
N6 0.0242(6) 0.0225(6) 0.0167(5) 0.0082(5) 0.0065(5) 0.0046(5)
C7 0.0233(7) 0.0186(6) 0.0163(6) 0.0028(5) 0.0025(5) 0.0034(5)
N8 0.0280(7) 0.0226(6) 0.0186(6) 0.0067(5) 0.0065(5) 0.0041(5)
C9 0.0286(8) 0.0287(8) 0.0189(7) 0.0052(6) 0.0073(6) 0.0045(6)
C10 0.0291(8) 0.0307(8) 0.0190(7) 0.0039(6) 0.0032(6) 0.0095(6)
C11 0.0259(8) 0.0294(8) 0.0256(7) 0.0072(6) 0.0011(6) 0.0089(6)
C12 0.0228(7) 0.0247(7) 0.0221(7) 0.0061(6) 0.0045(5) 0.0045(6)
O13 0.0691(9) 0.0381(7) 0.0218(5) 0.0333(6) 0.0163(5) 0.0136(5)
C15A 0.0223(11) 0.0206(11) 0.0222(8) 0.0058(8) 0.0040(8) 0.0014(7)
C5A 0.0244(9) 0.0209(8) 0.0184(7) 0.0095(7) 0.0032(6) 0.0034(6)
C14A 0.0216(8) 0.0198(8) 0.0248(8) 0.0064(6) 0.0052(6) 0.0025(6)
O16A 0.0254(7) 0.0284(8) 0.0295(8) 0.0108(5) 0.0069(5) 0.0088(6)
S1B 0.0243(3) 0.0197(2) 0.0173(2) 0.0081(2) 0.0067(2) 0.00383(16)
C5B 0.0244(9) 0.0209(8) 0.0184(7) 0.0095(7) 0.0032(6) 0.0034(6)
C14B 0.0216(8) 0.0198(8) 0.0248(8) 0.0064(6) 0.0052(6) 0.0025(6)
C15B 0.0223(11) 0.0206(11) 0.0222(8) 0.0058(8) 0.0040(8) 0.0014(7)
O16B 0.0254(7) 0.0284(8) 0.0295(8) 0.0108(5) 0.0069(5) 0.0088(6)
loop_
_atom_type_symbol
_atom_type_description
_atom_type_scat_dispersion_real
_atom_type_scat_dispersion_imag
_atom_type_scat_source
C C 0.0033 0.0016 'International Tables Vol C Tables 4.2.6.8 and 6.1.1.4'
H H 0.0000 0.0000 'International Tables Vol C Tables 4.2.6.8 and 6.1.1.4'
N N 0.0061 0.0033 'International Tables Vol C Tables 4.2.6.8 and 6.1.1.4'
O O 0.0106 0.0060 'International Tables Vol C Tables 4.2.6.8 and 6.1.1.4'
S S 0.1246 0.1234 'International Tables Vol C Tables 4.2.6.8 and 6.1.1.4'
loop_
_geom_angle_atom_site_label_1
_geom_angle_atom_site_label_2
_geom_angle_atom_site_label_3
_geom_angle
C2 S1A C5A 89.64(7)
N3 C2 N6 118.87(13)
N3 C2 S1B 120.45(18)
N6 C2 S1B 118.35(18)
N3 C2 S1A 117.77(11)
N6 C2 S1A 123.35(10)
C2 N3 C4 111.24(12)
O13 C4 N3 123.02(14)
O13 C4 C5A 121.08(14)
N3 C4 C5A 115.86(12)
O13 C4 C5B 123.3(5)
N3 C4 C5B 107.5(4)
C2 N6 C7 126.46(13)
C2 N6 H6 114.2(13)
C7 N6 H6 119.3(13)
N8 C7 C12 124.43(13)
N8 C7 N6 116.53(12)
C12 C7 N6 119.04(13)
C7 N8 C9 117.15(13)
N8 C9 C10 123.26(14)
N8 C9 H9 118.4
C10 C9 H9 118.4
C9 C10 C11 118.06(13)
C9 C10 H10 121.0
C11 C10 H10 121.0
C12 C11 C10 120.01(14)
C12 C11 H11 120.0
C10 C11 H11 120.0
C11 C12 C7 117.06(14)
C11 C12 H12 121.5
C7 C12 H12 121.5
O16A C15A C14A 112.19(16)
O16A C15A H15A 109.2
C14A C15A H15A 109.2
O16A C15A H15B 109.2
C14A C15A H15B 109.2
H15A C15A H15B 107.9
C4 C5A C14A 111.18(14)
C4 C5A S1A 105.24(11)
C14A C5A S1A 112.27(11)
C4 C5A H5A 109.3
C14A C5A H5A 109.3
S1A C5A H5A 109.3
C15A C14A C5A 112.54(14)
C15A C14A H14A 109.1
C5A C14A H14A 109.1
C15A C14A H14B 109.1
C5A C14A H14B 109.1
H14A C14A H14B 107.8
C15A O16A H16A 109.5
C2 S1B C5B 87.4(4)
C14B C5B C4 105.5(9)
C14B C5B S1B 113.8(9)
C4 C5B S1B 106.5(7)
C14B C5B H5B 110.3
C4 C5B H5B 110.3
S1B C5B H5B 110.3
C5B C14B C15B 107.7(11)
C5B C14B H14C 110.2
C15B C14B H14C 110.2
C5B C14B H14D 110.2
C15B C14B H14D 110.2
H14C C14B H14D 108.5
O16B C15B C14B 113.1(13)
O16B C15B H15C 109.0
C14B C15B H15C 109.0
O16B C15B H15D 109.0
C14B C15B H15D 109.0
H15C C15B H15D 107.8
C15B O16B H16B 109.5
loop_
_geom_bond_atom_site_label_1
_geom_bond_atom_site_label_2
_geom_bond_distance
S1A C2 1.7655(15)
S1A C5A 1.8178(16)
C2 N3 1.3256(17)
C2 N6 1.3385(19)
C2 S1B 1.660(5)
N3 C4 1.3744(19)
C4 O13 1.2227(18)
C4 C5A 1.528(2)
C4 C5B 1.535(13)
N6 C7 1.4119(17)
N6 H6 0.88(2)
C7 N8 1.3251(19)
C7 C12 1.396(2)
N8 C9 1.3473(18)
C9 C10 1.384(2)
C9 H9 0.9500
C10 C11 1.387(2)
C10 H10 0.9500
C11 C12 1.382(2)
C11 H11 0.9500
C12 H12 0.9500
C15A O16A 1.427(2)
C15A C14A 1.520(3)
C15A H15A 0.9900
C15A H15B 0.9900
C5A C14A 1.532(2)
C5A H5A 1.0000
C14A H14A 0.9900
C14A H14B 0.9900
O16A H16A 0.8400
S1B C5B 1.813(13)
C5B C14B 1.520(14)
C5B H5B 1.0000
C14B C15B 1.533(15)
C14B H14C 0.9900
C14B H14D 0.9900
C15B O16B 1.397(16)
C15B H15C 0.9900
C15B H15D 0.9900
O16B H16B 0.8400
loop_
_geom_hbond_atom_site_label_D
_geom_hbond_atom_site_label_H
_geom_hbond_atom_site_label_A
_geom_hbond_site_symmetry_A
_geom_hbond_distance_DH
_geom_hbond_distance_HA
_geom_hbond_distance_DA
_geom_hbond_angle_DHA
_geom_hbond_publ_flag
N6 H6 N3 2_566 0.88(2) 2.10(2) 2.9733(17) 173(2) y
O16a H16A O13 2_656 0.84 2.00 2.7940(19) 158 y
O16b H16B O13 2_656 0.84 1.86 2.692(12) 168 y
C10 H10 O16a 2_665 0.95 2.52 3.442(2) 164 y
C12 H12 O13 2_566 0.95 2.31 3.199(2) 155 y
C14a H14B O16a 1_455 0.99 2.54 3.448(2) 152 y
loop_
_geom_torsion_atom_site_label_1
_geom_torsion_atom_site_label_2
_geom_torsion_atom_site_label_3
_geom_torsion_atom_site_label_4
_geom_torsion
C5A_a S1A_a C2 N3 4.74(12)
C5A S1A C2 N6 -176.87(13)
C5A S1A C2 S1B -99.0(5)
N6 C2 N3 C4 175.93(13)
S1B C2 N3 C4 13.5(3)
S1A C2 N3 C4 -5.60(17)
C2 N3 C4 O13 -178.53(15)
C2 N3 C4 C5A 3.5(2)
C2 N3 C4 C5B -25.5(6)
N3 C2 N6 C7 -177.41(13)
S1B C2 N6 C7 -14.7(3)
S1A C2 N6 C7 4.2(2)
C2 N6 C7 N8 -10.6(2)
C2 N6 C7 C12 168.97(14)
C12 C7 N8 C9 -0.9(2)
N6 C7 N8 C9 178.62(12)
C7 N8 C9 C10 1.3(2)
N8 C9 C10 C11 -0.6(2)
C9 C10 C11 C12 -0.6(2)
C10 C11 C12 C7 1.0(2)
N8 C7 C12 C11 -0.3(2)
N6 C7 C12 C11 -179.74(13)
O13 C4 C5A C14A 60.0(2)
N3 C4 C5A C14A -121.96(15)
C5B C4 C5A C14A -43.3(9)
O13 C4 C5A S1A -178.17(14)
N3 C4 C5A S1A -0.17(18)
C5B C4 C5A S1A 78.4(10)
C2 S1A C5A C4 -2.25(12)
C2 S1A C5A C14A 118.83(13)
O16A C15A C14A C5A 55.8(2)
C4 C5A C14A C15A -175.19(15)
S1A C5A C14A C15A 67.21(17)
N3 C2 S1B C5B 3.1(5)
N6 C2 S1B C5B -159.4(5)
S1A C2 S1B C5B 88.8(7)
O13 C4 C5B C14B -59.0(11)
N3 C4 C5B C14B 148.0(7)
C5A C4 C5B C14B 35.7(7)
O13 C4 C5B S1B 179.7(3)
N3 C4 C5B S1B 26.7(8)
C5A C4 C5B S1B -85.6(11)
C2 S1B C5B C14B -132.4(10)
C2 S1B C5B C4 -16.6(7)
C4 C5B C14B C15B 175.6(11)
S1B C5B C14B C15B -67.9(14)
C5B C14B C15B O16B 178.1(14)
