#------------------------------------------------------------------------------
#$Date: 2016-02-14 16:26:36 +0200 (Sun, 14 Feb 2016) $
#$Revision: 176435 $
#$URL: svn://www.crystallography.net/cod/cif/2/01/98/2019889.cif $
#------------------------------------------------------------------------------
#
# This file is available in the Crystallography Open Database (COD),
# http://www.crystallography.net/. The original data for this entry
# were provided by IUCr Journals, http://journals.iucr.org/.
#
# The file may be used within the scientific community so long as
# proper attribution is given to the journal article from which the
# data were obtained.
#
data_2019889
loop_
_publ_author_name
'Lamberts, Kevin'
'\,Serb, Mihaela-Diana'
'Englert, Ulli'
_publ_section_title
;
 Unexpected proline coordination in the copper chain polymer
 [Cu(\m-Cl)~2~(\m-<small>DL</small>-proline-\k^2^<i>O</i>:<i>O</i>')]^1^~{\\infty
 ~}
;
_journal_coeditor_code           YF3081
_journal_issue                   4
_journal_name_full               'Acta Crystallographica Section C'
_journal_page_first
;
;
_journal_paper_doi               10.1107/S205322961500426X
_journal_volume                  71
_journal_year                    2015
_chemical_formula_iupac          '[Cu Cl2 (C5 H9 N1 O2)]'
_chemical_formula_sum            'C5 H9 Cl2 Cu N O2'
_chemical_formula_weight         249.57
_chemical_name_systematic
<i>catena</i>-Poly[copper(II)-di-\m-chlorido-\m-proline-\k^2^<i>O</i>:<i>O</i>']
_space_group_crystal_system      triclinic
_space_group_IT_number           2
_space_group_name_Hall           '-P 1'
_symmetry_space_group_name_Hall  '-P 1'
_symmetry_space_group_name_H-M   'P -1'
_atom_sites_solution_hydrogens   mixed
_audit_creation_method           SHELXL2013
_cell_angle_alpha                76.136(4)
_cell_angle_beta                 89.521(4)
_cell_angle_gamma                81.162(4)
_cell_formula_units_Z            4
_cell_length_a                   6.6312(14)
_cell_length_b                   9.717(2)
_cell_length_c                   12.837(3)
_cell_measurement_temperature    100(2)
_cell_volume                     793.2(3)
_computing_cell_refinement
;
SAINT-Plus (Bruker, 2009)
;
_computing_data_collection
;
SMART (Bruker, 2001)
;
_computing_data_reduction
;
SAINT-Plus (Bruker, 2009), TWINABS (Sheldrick, 2008a), CELLNOW
(Sheldrick, 2009)
;
_computing_molecular_graphics
;
PLATON (Spek, 2009)
;
_computing_publication_material
;
SHELXL97 (Sheldrick, 2008b)
;
_computing_structure_refinement
;
SHELXL2013 (Sheldrick, 2015)
;
_computing_structure_solution
;
SHELXS97 (Sheldrick, 2008b)
;
_diffrn_ambient_temperature      100(2)
_diffrn_measured_fraction_theta_full 0.999
_diffrn_measured_fraction_theta_max 0.997
_diffrn_measurement_device_type
'Bruker D8 goniometer with APEX CCD area-detector'
_diffrn_measurement_method       \w
_diffrn_radiation_type           MoK\a
_diffrn_radiation_wavelength     0.71073
_diffrn_reflns_av_R_equivalents  0.0746
_diffrn_reflns_limit_h_max       8
_diffrn_reflns_limit_h_min       -8
_diffrn_reflns_limit_k_max       12
_diffrn_reflns_limit_k_min       -11
_diffrn_reflns_limit_l_max       16
_diffrn_reflns_limit_l_min       0
_diffrn_reflns_number            15560
_diffrn_reflns_theta_full        25.242
_diffrn_reflns_theta_max         26.560
_diffrn_reflns_theta_min         2.186
_exptl_absorpt_coefficient_mu    3.370
_exptl_absorpt_correction_T_max  0.7454
_exptl_absorpt_correction_T_min  0.5434
_exptl_absorpt_correction_type   multi-scan
_exptl_absorpt_process_details
;
(TWINABS; Sheldrick, 2008a)
;
_exptl_crystal_colour            green
_exptl_crystal_density_diffrn    2.090
_exptl_crystal_description       block
_exptl_crystal_F_000             500
_exptl_crystal_size_max          0.140
_exptl_crystal_size_mid          0.120
_exptl_crystal_size_min          0.060
_refine_diff_density_max         0.587
_refine_diff_density_min         -0.454
_refine_ls_extinction_method     none
_refine_ls_goodness_of_fit_ref   1.022
_refine_ls_hydrogen_treatment    mixed
_refine_ls_matrix_type           full
_refine_ls_number_parameters     212
_refine_ls_number_reflns         5870
_refine_ls_number_restraints     4
_refine_ls_restrained_S_all      1.022
_refine_ls_R_factor_all          0.0575
_refine_ls_R_factor_gt           0.0432
_refine_ls_shift/su_max          0.000
_refine_ls_shift/su_mean         0.000
_refine_ls_structure_factor_coef Fsqd
_refine_ls_weighting_details
'w = 1/[\s^2^(Fo^2^)+(0.0300P)^2^] where P=(Fo^2^+2Fc^2^)/3'
_refine_ls_weighting_scheme      calc
_refine_ls_wR_factor_gt          0.0845
_refine_ls_wR_factor_ref         0.0905
_reflns_number_gt                4741
_reflns_number_total             5870
_reflns_threshold_expression     I>2\s(I)
_cod_data_source_file            yf3081sup1.cf
_cod_data_source_block           I
_cod_original_formula_sum        'C5 H9 Cl2 Cu1 N1 O2'
_cod_database_code               2019889
_cod_database_fobs_code          2019889
#BEGIN Tags that were not found in dictionaries:
_shelx_space_group_comment
;
The symmetry employed for this shelxl refinement is uniquely defined
by the following loop, which should always be used as a source of
symmetry information in preference to the above space-group names.
They are only intended as comments.
;
_shelx_estimated_absorpt_t_min   0.650
_shelx_estimated_absorpt_t_max   0.823
_shelx_hkl_file
;
   1   0   0 0.10301 0.44485   2
   1   0   0 -0.3029 0.48342   1
   1   0   0 -2.8815 2.46362  -2
   1   0   0 -2.8815 2.46362   1
   2   0   0 75.8855 5.26883   2
   2   0   0 129.213 6.65720   1
   3   0   0 36.1479 4.57121   1
   3   0   0 21.9730 3.59055   2
   4   0   0 581.051 19.2090   1
   4   0   0 340.031 14.4261   2
   5   0   0 2.56909 2.78120   2
   5   0   0 4.73404 3.33121   1
   6   0   0 144.039 18.7425   1
   6   0   0 106.523 14.1098   2
  -7   0   1 30.8471 21.7770  -2
   7   0   0 30.8471 21.7770   1
   7   0   0 9.97249 9.70544   1
   7   0   0 4.13662 7.17531   2
  -8   0   1 361.390 33.8775  -2
   8   0   0 361.390 33.8775   1
  -8   1   0 210.440 22.9643   2
  -8   1   0 428.996 36.1823   1
  -7   1   0 4.15757 5.93911   2
  -7   1   0 9.35716 7.16672   1
  -6   1   0 371.260 30.6336   1
  -6   1   0 223.582 21.2923   2
  -5   1   0 47.3259 10.3799   1
  -5   1   0 33.6082 7.69739   2
  -4   1   1 1938.45 60.2885  -2
  -4   1   0 1938.45 60.2885   1
  -4   1   0 720.797 52.1598   1
  -3   1   1 83.5463 5.46408  -2
  -3   1   0 83.5463 5.46408   1
  -2   1   0 55.1437 5.00308   1
  -2   1   1 196.521 17.1919  -2
  -2   1   0 196.521 17.1919   1
  -2   1   0 37.8659 6.49814   2
  -1   1   0 24.6799 2.23621   1
  -1   1   0 19.3356 3.03861   2
   0   1   0 2.71482 0.63996   1
   0   1   0 1.23470 0.30672   2
   1   1   0 42.6103 3.27063   2
   1   1   0 64.6314 4.11115   1
   2   1   0 2254.36 34.9420   2
   2   1   0 3435.32 48.9098   1
   3   1   0 4.87489 2.66180   2
   3   1   0 2.45769 2.66693   1
   4   1   0 10.6269 5.09914   2
   4   1   0 25.4147 9.49649  -2
   4   1   0 25.4147 9.49649   1
   4   1   0 14.0756 5.57748   1
   5   1   0 106.926 9.51059  -2
   5   1   0 106.926 9.51059   1
   6   1   0 852.588 36.2879  -2
   6   1   0 852.588 36.2879   1
   7   1   0 40.6686 12.9408  -2
   7   1   0 40.6686 12.9408   1
   8   1   0 21.7151 9.61235   1
   8   1   0 9.26811 6.66291   2
  -7   2   2 26.4756 11.4315  -2
  -7   2   0 26.4756 11.4315   1
  -6   2   2 47.2805 12.6772  -2
  -6   2   0 47.2805 12.6772   1
  -5   2   2 74.7963 14.1089  -2
  -5   2   0 74.7963 14.1089   1
  -5   2   0 31.6874 15.7562   1
  -4   2   0 649.326 26.4786   2
  -4   2   0 1066.50 37.4298   1
  -3   2   0 16.9656 4.59225   2
  -3   2   0 23.1194 6.20226   1
  -2   2   0 -0.6254 1.72443   1
  -2   2   0 2.77197 2.31347   2
  -1   2   0 39.4052 4.23303   1
  -1   2   0 20.9915 2.70362   2
   0   2   0 4699.25 59.6163   1
   0   2   0 3070.86 35.0512   2
   1   2   0 133.375 6.68226   1
   1   2   0 84.5466 4.60029   2
   2   2   0 958.198 27.8190   1
   2   2   1 5735.83 157.842  -2
   2   2   0 5735.83 157.842   1
   2   2   0 592.501 28.3729   2
   3   2   1 225.283 12.6327  -2
   3   2   0 225.283 12.6327   1
   4   2   0 28.6745 7.46484   2
   4   2   0 28.7747 13.1283   1
   4   2   1 201.189 24.8914  -2
   4   2   0 201.189 24.8914   1
   5   2   0 34.4925 6.18104   2
   5   2   0 60.4709 9.18759   1
   6   2   0 402.672 25.3035   1
   6   2   0 277.844 18.2712   2
   7   2   0 7.31165 5.84970   2
   7   2   0 6.27238 7.39514   1
   8   2   0 111.051 16.2489   2
   8   2   0 184.394 28.8314   1
  -7   3   0 140.044 21.7977   2
  -7   3   0 215.969 34.7122   1
  -7   3   3 245.601 36.8721  -2
  -7   3   0 245.601 36.8721   1
  -6   3   0 331.709 27.1627   2
  -6   3   0 599.006 39.2895   1
  -5   3   0 4.05735 4.44408   2
  -5   3   0 -2.9699 4.78296   1
  -4   3   0 107.532 13.2097   2
  -4   3   0 184.230 18.5068   1
  -3   3   0 233.582 9.32005   1
  -3   3   0 131.822 13.2878   2
  -2   3   2 5052.06 124.358  -2
  -2   3   0 5052.06 124.358   1
  -2   3   0 3114.40 61.1715   1
  -2   3   0 1918.90 35.6387   2
  -1   3   2 1923.23 32.8360  -2
  -1   3   0 1923.23 32.8360   1
   0   3   2 70.6535 6.19019  -2
   0   3   0 70.6535 6.19019   1
   0   3   0 58.2068 4.81601   2
   0   3   0 76.4715 13.7457   1
   1   3   0 18.9139 1.75966   2
   1   3   0 31.8550 3.97323   1
   2   3   0 2608.74 41.4907   2
   2   3   0 3886.51 64.4766   1
   3   3   0 4.94385 3.85679   1
   3   3   0 6.58793 2.95043   2
   4   3   0 124.680 11.0419   2
   4   3   0 217.043 15.4267   1
   5   3   0 9.29424 4.52165   1
   5   3   0 3.81551 3.49575   2
   6   3   0 369.688 24.5334   1
   6   3   0 217.438 19.9586   2
   7   3   1 16.8870 9.72290  -2
   7   3   0 16.8870 9.72290   1
   8   3   1 560.204 57.6482  -2
   8   3   0 560.204 57.6482   1
  -7   4   0 0.26457 8.17458   1
  -7   4   0 9.37000 6.92580   2
  -6   4   0 274.032 25.9489   2
  -6   4   0 439.583 34.8401   1
  -5   4   3 224.901 24.1317  -2
  -5   4   0 224.901 24.1317   1
  -5   4   0 155.957 31.6795   1
  -5   4   0 88.5711 23.4994   2
  -4   4   3 144.635 14.1532  -2
  -4   4   0 144.635 14.1532   1
  -3   4   3 351.904 13.7918  -2
  -3   4   0 351.904 13.7918   1
  -2   4   0 8.94664 3.87396   1
  -2   4   0 2.37627 3.55100   2
  -1   4   0 76.3835 7.49415   1
  -1   4   0 35.9039 4.61918   2
   0   4   0 1406.80 33.6059   2
   0   4   0 2129.95 37.1311   1
   1   4   0 38.4546 6.35007   2
   1   4   0 55.1061 5.99806   1
   2   4   0 289.012 13.0666   1
   2   4   0 167.815 13.4838   2
   3   4   0 8.25702 3.00297   2
   3   4   0 -0.3192 2.22594   1
   4   4   0 1324.85 44.2550   2
   4   4   0 2175.56 65.2670   1
   4   4   2 2794.95 75.1228  -2
   4   4   0 2794.95 75.1228   1
   5   4   2 460.288 20.5196  -2
   5   4   0 460.288 20.5196   1
   6   4   2 291.753 24.2704  -2
   6   4   0 291.753 24.2704   1
   7   4   0 -8.3492 6.98281   2
   7   4   0 4.97934 11.6229   1
   7   4   2 -10.168 19.8813  -2
   7   4   0 -10.168 19.8813   1
   8   4   0 84.5996 18.7396   1
   8   4   0 31.1376 15.5410   2
  -6   5   4 542.925 33.0462  -2
  -6   5   0 542.925 33.0462   1
  -5   5   0 -5.6387 7.43470   1
  -5   5   0 -0.1395 4.98249   2
  -5   5   4 50.0655 22.8495  -2
  -5   5   0 50.0655 22.8495   1
  -4   5   0 44.6375 10.9318   1
  -4   5   0 18.8748 6.69418   2
  -3   5   0 -3.4365 3.16045   2
  -3   5   0 3.83556 4.00690   1
  -2   5   0 14.0591 4.65470   1
  -2   5   0 4.55662 4.20312   2
  -1   5   0 206.526 12.2564   2
  -1   5   0 298.315 14.8722   1
   0   5   0 50.8302 5.10150   2
   0   5   0 75.6101 7.86562   1
   1   5   0 36.2719 11.1021   2
   1   5   3 50.5348 6.81862  -2
   1   5   0 50.5348 6.81862   1
   1   5   0 58.0645 16.8986   1
   2   5   3 124.932 8.26951  -2
   2   5   0 124.932 8.26951   1
   3   5   3 73.5151 11.2363  -2
   3   5   0 73.5151 11.2363   1
   3   5   0 1.70778 4.23506   1
   3   5   0 -0.5526 6.37840   2
   4   5   0 252.988 16.4361   2
   4   5   0 401.811 21.8685   1
   5   5   0 20.6103 5.33719   2
   5   5   0 33.8140 7.36853   1
   6   5   0 452.040 31.9008   1
   6   5   0 302.485 20.9850   2
   7   5   0 11.5355 7.72431   2
   7   5   0 3.67504 8.00073   1
   8   5   0 52.6094 25.3130   2
   8   5   0 -13.345 12.8111   1
  -6   6   0 37.6803 12.0858   1
  -6   6   0 22.3916 9.67587   2
  -5   6   0 430.827 33.4788   1
  -5   6   0 221.281 23.1449   2
  -4   6   0 1594.88 52.2872   1
  -4   6   0 872.530 38.6373   2
  -3   6   0 15.5324 5.67015   2
  -3   6   0 42.6811 8.80459   1
  -2   6   4 76.3519 8.95709  -2
  -2   6   0 76.3519 8.95709   1
  -1   6   4 241.624 13.0449  -2
  -1   6   0 241.624 13.0449   1
   0   6   4 1568.43 40.0159  -2
   0   6   0 1568.43 40.0159   1
   0   6   0 1600.87 78.7415   1
   0   6   0 1112.10 52.5866   2
   1   6   0 506.256 18.6069   1
   1   6   0 323.713 21.6171   2
   2   6   0 10.3088 4.11647   1
   2   6   0 8.02550 4.13884   2
   3   6   0 121.356 11.5714   1
   3   6   0 72.7763 7.45864   2
   4   6   0 473.254 21.3091   2
   4   6   0 721.890 26.0554   1
   5   6   0 117.339 14.9453   1
   5   6   0 99.3626 13.8609   2
   6   6   3 508.220 56.4236  -2
   6   6   0 508.220 56.4236   1
   6   6   0 557.064 44.8628   1
   7   6   3 448.259 33.7896  -2
   7   6   0 448.259 33.7896   1
  -5   7   5 152.337 17.8997  -2
  -5   7   0 152.337 17.8997   1
  -4   7   5 58.2203 11.9458  -2
  -4   7   0 58.2203 11.9458   1
  -3   7   5 435.468 25.3694  -2
  -3   7   0 435.468 25.3694   1
  -2   7   0 155.018 14.4031   1
  -2   7   0 82.1047 11.7096   2
  -1   7   0 5.22615 7.28004   2
  -1   7   0 2.82159 4.23462   1
   0   7   0 26.8294 6.23920   1
   0   7   0 19.7511 6.54092   2
   1   7   0 184.803 13.6012   1
   1   7   0 91.8958 12.6527   2
   2   7   0 1592.19 36.9859   1
   2   7   0 1017.02 45.0150   2
   3   7   4 221.214 20.3998  -2
   3   7   0 221.214 20.3998   1
   3   7   0 123.723 16.3790   1
   3   7   0 67.8870 19.5184   2
   4   7   4 347.779 21.1299  -2
   4   7   0 347.779 21.1299   1
   5   7   4 389.213 32.8372  -2
   5   7   0 389.213 32.8372   1
   6   7   0 332.227 54.1347   1
   6   7   4 396.539 52.9816  -2
   6   7   0 396.539 52.9816   1
   7   7   0 51.7904 17.0210   1
   7   7   0 39.3278 14.0524   2
  -5   8   0 50.0758 12.6382   1
  -5   8   0 5.17805 9.89651   2
  -4   8   0 79.1669 14.6970   1
  -4   8   0 61.4440 17.6701   2
  -3   8   0 9.75660 6.71903   1
  -3   8   0 3.21793 6.97862   2
  -2   8   0 101.752 14.3940   1
  -2   8   0 55.3984 16.3981   2
  -1   8   0 3.31748 4.58348   1
  -1   8   0 -5.0368 4.15375   2
   0   8   5 81.8253 15.1463  -2
   0   8   0 81.8253 15.1463   1
   0   8   0 1.15143 9.68597   1
   1   8   5 52.8133 10.0303  -2
   1   8   0 52.8133 10.0303   1
   2   8   5 303.219 20.9579  -2
   2   8   0 303.219 20.9579   1
   3   8   5 105.559 15.5739  -2
   3   8   0 105.559 15.5739   1
   3   8   0 30.0881 14.4272   2
   3   8   0 15.0138 13.0226   1
   4   8   0 414.833 39.4101   1
   4   8   0 315.988 26.1571   2
   5   8   0 35.3943 11.7138   1
   5   8   0 21.5146 8.50953   2
   6   8   0 8.11403 9.06326   1
   6   8   0 -3.6539 5.98311   2
  -4   9   0 0.12163 8.80952   2
  -4   9   0 9.75273 9.86378   1
  -3   9   6 268.970 28.9825  -2
  -3   9   0 268.970 28.9825   1
  -2   9   6 593.144 40.0454  -2
  -2   9   0 593.144 40.0454   1
  -1   9   6 350.512 23.6303  -2
  -1   9   0 350.512 23.6303   1
   0   9   0 16.3074 8.90397   1
   0   9   0 20.6334 9.24142   2
   0   9   6 46.2429 20.3436  -2
   0   9   0 46.2429 20.3436   1
   1   9   0 54.8370 11.3325   2
   1   9   0 100.067 15.4616   1
   2   9   0 261.390 24.9263   1
   2   9   0 148.869 18.3834   2
   3   9   0 228.711 22.9775   2
   3   9   0 405.753 40.2961   1
   4   9   0 168.058 19.5685   2
   4   9   0 209.576 29.3258   1
   5   9   0 175.630 28.1905   1
   5   9   0 102.642 20.6382   2
   6   9   5 155.998 25.9998  -2
   6   9   0 155.998 25.9998   1
  -3  10   0 30.6912 21.4774   1
  -3  10   0 46.2326 15.0685   2
  -3  10   7 437.499 51.2379  -2
  -3  10   0 437.499 51.2379   1
  -2  10   0 -9.7700 7.61128   1
  -2  10   0 12.9150 8.71795   2
  -1  10   0 291.167 27.4357   1
  -1  10   0 201.650 30.2586   2
   0  10   0 355.848 28.9411   2
   0  10   0 485.752 36.5092   1
   1  10   0 26.3461 9.46190   2
   1  10   0 51.2121 10.8976   1
   2  10   0 125.927 34.3127   2
   2  10   0 156.100 25.1860   1
   3  10   6 100.335 20.2012  -2
   3  10   0 100.335 20.2012   1
   4  10   6 270.853 30.9839  -2
   4  10   0 270.853 30.9839   1
   5  10   6 243.967 31.9733  -2
   5  10   0 243.967 31.9733   1
  -1  11   0 0.32815 15.8179   2
  -1  11   7 25.3882 25.9327  -2
  -1  11   0 25.3882 25.9327   1
  -1  11   0 4.09686 12.4108   1
   0  11   7 91.1675 14.9714  -2
   0  11   0 91.1675 14.9714   1
   1  11   7 82.0311 17.8331  -2
   1  11   0 82.0311 17.8331   1
   2  11   7 131.749 23.7576  -2
   2  11   0 131.749 23.7576   1
   3  11   0 21.3300 9.28513   1
   3  11   0 12.5964 10.9081   2
   4  11   0 11.6248 11.1650   1
   4  11   0 23.5741 9.55486   2
  -3 -11   1 65.9464 17.4285   2
  -3 -11   1 74.9535 18.3764   1
   2  11   8 67.1096 18.0922  -2
  -2 -11   1 67.1096 18.0922   1
   1  11   8 462.307 37.2893  -2
  -1 -11   1 462.307 37.2893   1
   0  11   8 216.644 21.2658  -2
   0 -11   1 216.644 21.2658   1
  -1  11   8 346.563 33.8018  -2
   1 -11   1 346.563 33.8018   1
   1 -11   1 252.635 51.1710   2
   5  10   7 176.724 27.6076  -2
  -5 -10   1 176.724 27.6076   1
   4  10   7 153.925 24.3578  -2
  -4 -10   1 153.925 24.3578   1
   3  10   7 76.2756 17.8301  -2
  -3 -10   1 76.2756 17.8301   1
  -2 -10   1 89.2826 19.0897   1
  -2 -10   1 79.9176 27.7705   2
  -1 -10   1 36.4272 9.42911   2
  -1 -10   1 51.0849 11.3674   1
   0 -10   1 13.3402 7.40075   1
   0 -10   1 8.63412 6.14479   2
   1 -10   1 47.7035 12.6547   1
   1 -10   1 18.5437 10.1930   2
   2 -10   1 53.1203 14.2941   1
   2 -10   1 28.1880 9.21160   2
  -3  10   8 95.0445 29.5981  -2
   3 -10   1 95.0445 29.5981   1
   3 -10   1 9.29372 22.2389   1
   3 -10   1 14.1630 11.4857   2
   6   9   6 44.9054 20.3929  -2
  -6  -9   1 44.9054 20.3929   1
  -5  -9   1 -0.5692 8.33314   1
  -5  -9   1 2.38856 14.0592   2
  -4  -9   1 49.0497 11.4248   2
  -4  -9   1 107.568 21.6251   1
  -3  -9   1 32.2228 9.38130   2
  -3  -9   1 45.5798 13.8053   1
  -2  -9   1 5.26648 8.39793   1
  -2  -9   1 7.73963 6.84281   2
  -1  -9   1 47.8728 11.0516   2
  -1  -9   1 90.6233 14.8583   1
   0  -9   1 665.406 41.0299   1
   0  -9   1 402.158 40.8797   2
  -1   9   7 319.014 22.7901  -2
   1  -9   1 319.014 22.7901   1
  -2   9   7 110.791 18.0522  -2
   2  -9   1 110.791 18.0522   1
  -3   9   7 98.4425 20.2234  -2
   3  -9   1 98.4425 20.2234   1
   4  -9   1 7.26694 9.47407   2
   4  -9   1 2.46150 9.55648   1
  -6  -8   1 206.965 23.4809   2
  -6  -8   1 313.221 37.6689   1
  -5  -8   1 84.6087 14.5095   2
  -5  -8   1 127.099 21.6382   1
  -4  -8   1 1.11138 4.40834   2
  -4  -8   1 3.40294 6.52190   1
  -3  -8   1 244.810 47.0044   1
   3   8   6 470.297 49.4505  -2
  -3  -8   1 470.297 49.4505   1
   2   8   6 646.326 29.9775  -2
  -2  -8   1 646.326 29.9775   1
   1   8   6 97.2435 12.6375  -2
  -1  -8   1 97.2435 12.6375   1
   0   8   6 327.650 21.7519  -2
   0  -8   1 327.650 21.7519   1
   1  -8   1 166.959 15.7278   1
   1  -8   1 126.471 15.7463   2
   2  -8   1 1653.50 44.7501   1
   2  -8   1 965.563 57.7539   2
   3  -8   1 673.217 34.4118   1
   3  -8   1 339.418 38.7905   2
   4  -8   1 78.5180 14.4668   1
   4  -8   1 42.0359 14.6463   2
   5  -8   1 58.0731 13.2238   1
   5  -8   1 39.6515 11.4912   2
  -7  -7   1 10.1933 9.04433   2
  -7  -7   1 3.78830 10.2560   1
  -6  -7   1 328.839 54.8365   1
   6   7   5 361.690 50.3040  -2
  -6  -7   1 361.690 50.3040   1
   5   7   5 199.094 24.8472  -2
  -5  -7   1 199.094 24.8472   1
   4   7   5 216.330 17.0098  -2
  -4  -7   1 216.330 17.0098   1
  -3  -7   1 64.4090 22.8598   1
   3   7   5 354.547 19.0530  -2
  -3  -7   1 354.547 19.0530   1
  -2  -7   1 362.134 18.7385   1
  -2  -7   1 199.225 19.0052   2
  -1  -7   1 226.557 19.8001   2
  -1  -7   1 396.096 19.3431   1
   0  -7   1 304.391 19.1789   1
   0  -7   1 189.623 18.2981   2
   1  -7   1 -6.7472 4.00118   2
   1  -7   1 4.91218 4.69211   1
   2  -7   1 99.7092 13.1914   2
   2  -7   1 171.615 15.5063   1
  -3   7   6 243.496 19.2999  -2
   3  -7   1 243.496 19.2999   1
  -4   7   6 658.394 33.5977  -2
   4  -7   1 658.394 33.5977   1
  -5   7   6 82.5953 14.0310  -2
   5  -7   1 82.5953 14.0310   1
   7   6   4 119.183 18.6819  -2
  -7  -6   1 119.183 18.6819   1
  -6  -6   1 300.627 26.6850   1
  -5  -6   1 304.553 25.9115   1
  -5  -6   1 234.979 22.1455   2
  -4  -6   1 43.3925 7.67954   2
  -4  -6   1 72.8459 9.56334   1
  -3  -6   1 5.84684 3.67799   1
  -3  -6   1 5.69071 4.44261   2
  -2  -6   1 775.039 29.5212   2
  -2  -6   1 1289.51 31.9246   1
  -1  -6   1 128.109 10.9674   1
  -1  -6   1 83.2144 11.1240   2
   0  -6   1 49.6613 17.1585   1
   0   6   5 211.374 14.5868  -2
   0  -6   1 211.374 14.5868   1
   0  -6   1 41.4576 11.4414   2
  -1   6   5 456.314 18.1676  -2
   1  -6   1 456.314 18.1676   1
  -2   6   5 369.731 17.4173  -2
   2  -6   1 369.731 17.4173   1
   3  -6   1 110.966 14.5801   1
   3  -6   1 60.4542 10.2222   2
   4  -6   1 100.342 14.7725   1
   4  -6   1 82.9615 14.2491   2
   5  -6   1 41.4843 10.4315   1
   5  -6   1 27.9831 9.02055   2
   6  -6   1 88.1114 15.7379   2
   6  -6   1 104.805 24.3890   1
  -7  -5   1 11.6283 6.03073   2
  -7  -5   1 11.7684 8.58795   1
  -6  -5   1 62.7327 9.76616   2
  -6  -5   1 51.6269 10.6991   1
  -5  -5   1 177.379 18.6930   1
  -5  -5   1 102.331 11.1737   2
  -4  -5   1 757.372 24.2515   2
  -4  -5   1 1191.98 32.1403   1
  -3  -5   1 489.883 53.8946   1
   3   5   4 826.492 26.7093  -2
  -3  -5   1 826.492 26.7093   1
   2   5   4 611.342 19.3933  -2
  -2  -5   1 611.342 19.3933   1
   1   5   4 2229.14 47.1177  -2
  -1  -5   1 2229.14 47.1177   1
  -1  -5   1 154.735 22.0670   2
  -1  -5   1 193.449 31.2342   1
   0  -5   1 4040.44 64.4709   1
   0  -5   1 2560.68 42.5342   2
   1  -5   1 123.298 9.69627   2
   1  -5   1 162.906 12.3217   1
   2  -5   1 17.5789 5.22174   1
   2  -5   1 10.4700 3.84379   2
   3  -5   1 28.1970 6.06141   1
   3  -5   1 15.4406 5.65252   2
   4  -5   1 436.421 30.5928   2
   4  -5   1 708.987 33.3158   1
   5  -5   1 315.834 37.2697   1
  -5   5   5 499.977 45.9108  -2
   5  -5   1 499.977 45.9108   1
   5  -5   1 191.250 34.4844   2
  -6   5   5 119.593 16.3863  -2
   6  -5   1 119.593 16.3863   1
  -8  -4   1 355.321 36.5085   2
  -8  -4   1 479.634 48.2056   1
  -7  -4   1 20.4499 9.69117   1
  -7  -4   1 20.9136 9.84523   2
   6   4   3 680.819 38.4749  -2
  -6  -4   1 680.819 38.4749   1
   5   4   3 284.587 18.9494  -2
  -5  -4   1 284.587 18.9494   1
  -4  -4   1 792.024 37.3058   1
   4   4   3 777.072 33.4451  -2
  -4  -4   1 777.072 33.4451   1
  -4  -4   1 539.112 39.5923   2
  -3  -4   1 14.3051 3.61811   2
  -3  -4   1 9.78213 3.80117   1
  -2  -4   1 536.345 15.5170   2
  -2  -4   1 800.799 20.7673   1
  -1  -4   1 215.932 12.1604   1
  -1  -4   1 123.005 11.0779   2
   0  -4   1 54.2958 5.31720   2
   0  -4   1 87.2750 7.93284   1
   1  -4   1 678.589 19.9249   1
   1  -4   1 416.123 14.1069   2
   2  -4   1 1241.64 29.4985   2
   2  -4   1 1956.04 39.5127   1
  -3   4   4 495.563 17.4589  -2
   3  -4   1 495.563 17.4589   1
  -4   4   4 79.2525 11.1467  -2
   4  -4   1 79.2525 11.1467   1
   5  -4   1 382.002 49.5524   1
  -5   4   4 606.382 37.9311  -2
   5  -4   1 606.382 37.9311   1
   6  -4   1 766.437 41.0775   1
   6  -4   1 460.215 40.2020   2
   7  -4   1 -11.904 6.04008   2
   7  -4   1 -0.2843 9.76606   1
   8   3   2 225.269 26.3470  -2
  -8  -3   1 225.269 26.3470   1
   7   3   2 8.11046 12.1425  -2
  -7  -3   1 8.11046 12.1425   1
  -6  -3   1 195.559 17.8971   1
  -6  -3   1 129.460 12.9445   2
  -5  -3   1 25.3048 5.84993   2
  -5  -3   1 57.7218 8.85381   1
  -4  -3   1 1155.86 29.4033   2
  -4  -3   1 1769.07 40.1064   1
  -3  -3   1 185.095 12.1061   1
  -3  -3   1 134.433 9.95116   2
  -2  -3   1 155.768 9.50814   2
  -2  -3   1 229.186 11.2765   1
  -1  -3   1 68.9789 6.09427   1
  -1  -3   1 41.8998 4.77440   2
   0  -3   1 26.2897 6.75136   2
   0   3   3 60.5817 5.97420  -2
   0  -3   1 60.5817 5.97420   1
   0  -3   1 58.0799 13.4994   1
  -1   3   3 2489.11 40.5235  -2
   1  -3   1 2489.11 40.5235   1
   2  -3   1 222.141 9.71641   2
   2  -3   1 337.966 17.9093   1
  -2   3   3 318.080 22.4749  -2
   2  -3   1 318.080 22.4749   1
   3  -3   1 141.985 10.7366   1
   3  -3   1 95.3390 11.5215   2
   4  -3   1 239.483 21.0781   1
   4  -3   1 126.262 14.6754   2
   5  -3   1 82.6932 13.7003   1
   5  -3   1 48.3008 9.32761   2
   6  -3   1 233.797 24.6584   1
   6  -3   1 119.359 16.3600   2
   7  -3   1 18.6628 13.7596   1
   7  -3   1 6.64757 6.77358   2
  -8  -2   1 268.737 35.3303   1
  -8  -2   1 180.416 26.4140   2
  -7  -2   1 89.2620 14.6272   1
  -7  -2   1 50.2510 10.1414   2
  -6  -2   1 551.997 36.8941   1
  -6  -2   1 308.376 19.3333   2
  -5  -2   1 9.07968 3.79186   2
  -5  -2   1 10.9012 5.08171   1
  -4  -2   1 334.764 23.9903   2
  -4  -2   1 530.046 27.5510   1
   4   2   2 1130.26 55.9920  -2
  -4  -2   1 1130.26 55.9920   1
   3   2   2 481.531 16.1972  -2
  -3  -2   1 481.531 16.1972   1
  -2  -2   1 5634.68 146.524   2
  -2  -2   1 8689.40 154.506   1
   2   2   2 9999.99 255.321  -2
  -2  -2   1 9999.99 255.321   1
  -1  -2   1 1949.84 30.1758   1
  -1  -2   1 1255.81 23.9851   2
   0  -2   1 97.4331 6.29033   1
   0  -2   1 60.9075 4.31213   2
   1  -2   1 1114.66 22.5155   2
   1  -2   1 1706.87 29.2685   1
   2  -2   1 1258.06 22.7968   2
   2  -2   1 1961.52 34.6697   1
   3  -2   1 39.0623 7.30204   2
   3  -2   1 73.1276 7.05625   1
   4  -2   1 20.2770 6.00409   2
   4  -2   1 38.8973 5.04880   1
  -5   2   3 247.032 22.2265  -2
   5  -2   1 247.032 22.2265   1
   5  -2   1 22.5203 13.5618   1
  -6   2   3 447.382 27.0194  -2
   6  -2   1 447.382 27.0194   1
  -7   2   3 191.223 19.6477  -2
   7  -2   1 191.223 19.6477   1
  -8  -1   1 127.404 20.1853   2
  -8  -1   1 230.711 32.4074   1
   7   1   1 173.300 18.3387  -2
  -7  -1   1 173.300 18.3387   1
  -7  -1   1 16.3459 13.4287   2
   6   1   1 1074.99 41.2707  -2
  -6  -1   1 1074.99 41.2707   1
   5   1   1 27.2125 5.85465  -2
  -5  -1   1 27.2125 5.85465   1
  -4  -1   1 295.181 18.6253   2
  -4  -1   1 551.300 27.8878   1
   4   1   1 671.355 32.1865  -2
  -4  -1   1 671.355 32.1865   1
  -3  -1   1 96.5299 10.0362   1
  -3  -1   1 56.4738 6.12840   2
  -2  -1   1 198.007 10.1540   1
  -2  -1   1 123.568 7.36276   2
  -1  -1   1 8.41380 1.24001   1
  -1  -1   1 4.19363 1.41754   2
   0  -1   1 1858.66 25.3510   2
   0  -1   1 2905.71 37.8067   1
   1  -1   1 174.023 6.75315   1
   1  -1   1 111.868 4.89808   2
   2  -1   1 8.65496 3.51141   2
  -2   1   2 388.714 23.0225  -2
   2  -1   1 388.714 23.0225   1
   2  -1   1 17.2330 3.26043   1
  -3   1   2 318.584 12.5936  -2
   3  -1   1 318.584 12.5936   1
   4  -1   1 1447.44 73.2011   2
  -4   1   2 2482.32 70.6695  -2
   4  -1   1 2482.32 70.6695   1
   4  -1   1 2448.26 58.5212   1
   5  -1   1 17.1686 7.95442   1
   5  -1   1 5.78094 3.69292   2
   6  -1   1 46.3283 11.3317   1
   6  -1   1 24.7277 7.20414   2
   7  -1   1 2.40027 5.84621   2
   7  -1   1 34.4901 9.72048   1
   8  -1   1 96.9468 25.8672   1
   8  -1   1 93.5875 14.7061   2
   8   0   0 234.112 27.9024  -2
  -8   0   1 234.112 27.9024   1
  -7   0   1 35.2070 10.0107   2
  -7   0   1 60.8295 17.7969   1
   7   0   0 70.6726 22.2756  -2
  -7   0   1 70.6726 22.2756   1
  -6   0   1 274.432 25.8598   1
  -6   0   1 137.859 16.0032   2
  -5   0   1 17.9569 4.48152   1
  -5   0   1 11.9523 3.97955   2
  -4   0   1 104.273 9.97142   1
  -4   0   1 71.6948 7.52185   2
  -3   0   1 108.722 8.88620   1
  -3   0   1 69.6887 6.42201   2
  -2   0   1 166.423 7.34127   2
  -2   0   1 275.732 10.4672   1
  -1   0   1 126.184 6.22846   1
   1   0   1 210.227 14.2672  -2
  -1   0   1 210.227 14.2672   1
  -1   0   1 82.2474 3.91122   2
   0   0   1 1.24968 0.27395  -2
   0   0   1 1.24968 0.27395   1
   1   0   1 95.9677 4.36923   2
   1   0   1 146.789 5.14050   1
   2   0   1 76.9673 5.99694   1
   2   0   1 51.3769 4.62589   2
   3   0   1 213.048 10.1493   2
   3   0   1 330.368 12.8377   1
   4   0   1 243.833 14.5516   1
   4   0   1 160.128 10.8748   2
   5   0   1 106.562 10.6957   1
   5   0   1 85.8258 12.1210   2
   6   0   1 709.609 38.1320   1
   6   0   1 408.104 28.3800   2
   7   0   1 23.1388 9.38463   2
  -7   0   2 120.489 24.9757  -2
   7   0   1 120.489 24.9757   1
   7   0   1 28.5651 17.2490   1
  -8   0   2 133.949 24.6627  -2
   8   0   1 133.949 24.6627   1
  -8   1   1 87.5959 16.7484   2
  -8   1   1 156.418 22.3674   1
  -7   1   1 34.7525 10.8185   1
  -7   1   1 35.1649 8.28060   2
  -6   1   1 57.6291 12.4982   1
  -6   1   1 22.9636 6.62839   2
  -5   1   1 124.399 16.2934   1
  -5   1   1 68.6428 10.9840   2
  -4   1   1 1238.35 66.6370   2
  -4   1   1 1746.25 84.6685   1
  -4   1   0 2191.76 43.9899  -2
  -4   1   1 2191.76 43.9899   1
  -3   1   0 93.4296 5.29165  -2
  -3   1   1 93.4296 5.29165   1
  -2   1   1 129.040 5.86728   2
  -2   1   0 244.314 20.6173  -2
  -2   1   1 244.314 20.6173   1
  -2   1   1 184.548 16.3193   1
  -1   1   1 35.3545 2.32415   2
  -1   1   1 56.0188 2.02350   1
   0   1   1 4439.04 60.5249   2
   0   1   1 5799.65 66.4774   1
   1   1   1 7.08763 1.47971   1
   1   1   1 5.88394 1.31968   2
   2   1   1 33.5112 4.11628   1
   2   1   1 22.1203 3.18332   2
   3   1   1 300.702 13.1868   2
   3   1   1 476.130 16.1267   1
   4   1   1 337.473 20.3015   1
  -4  -1   1 570.699 29.2671  -2
   4   1   1 570.699 29.2671   1
   4   1   1 215.598 17.9860   2
  -5  -1   1 39.8187 7.79709  -2
   5   1   1 39.8187 7.79709   1
  -6  -1   1 1123.57 49.9677  -2
   6   1   1 1123.57 49.9677   1
  -7  -1   1 219.346 24.4202  -2
   7   1   1 219.346 24.4202   1
   7   1   1 205.016 43.3997   1
   8   1   1 345.249 43.1609   1
   8   1   1 186.733 28.2078   2
  -7   2   1 239.254 27.3266  -2
  -7   2   1 239.254 27.3266   1
  -6   2   1 121.694 17.3577  -2
  -6   2   1 121.694 17.3577   1
  -5   2   1 175.419 19.9623  -2
  -5   2   1 175.419 19.9623   1
  -5   2   1 101.828 24.8934   2
  -5   2   1 88.5217 25.3572   1
  -4   2   1 552.580 25.6292   2
  -4   2   1 955.685 35.7586   1
  -3   2   1 597.189 25.4761   1
  -3   2   1 351.930 19.2572   2
  -2   2   1 2143.61 45.9650   1
  -2   2   1 1373.61 32.7550   2
  -1   2   1 253.104 7.86177   2
  -1   2   1 410.570 14.2070   1
   0   2   1 36.2520 2.49925   1
   0   2   1 24.3676 2.81054   2
   1   2   1 149.535 6.18866   2
   1   2   1 232.801 7.14971   1
   2   2   1 5269.43 96.7907   2
   2   2   0 9724.70 242.471  -2
   2   2   1 9724.70 242.471   1
   2   2   1 8204.29 142.416   1
   3   2   0 358.546 13.5196  -2
   3   2   1 358.546 13.5196   1
   4   2   1 157.414 16.4216   2
   4   2   0 253.691 29.2941  -2
   4   2   1 253.691 29.2941   1
   4   2   1 259.663 21.1891   1
   5   2   1 -2.7392 2.94311   2
   5   2   1 -0.8715 3.19027   1
   6   2   1 547.572 36.2142   1
   6   2   1 367.137 21.4193   2
   7   2   1 61.8025 11.7562   2
   7   2   1 100.122 15.4184   1
   8   2   1 52.3589 17.4326   1
   8   2   1 21.9511 11.2634   2
  -7   3   1 3.94613 12.2120   1
  -7   3   1 12.4996 7.90768   2
  -7   3   2 235.519 38.5300  -2
  -7   3   1 235.519 38.5300   1
  -6   3   1 79.5110 13.3891   2
  -6   3   1 131.718 19.1514   1
  -5   3   1 -2.7607 3.77497   2
  -5   3   1 2.19677 5.08426   1
  -4   3   1 -1.1439 3.63353   2
  -4   3   1 -0.6788 3.97468   1
  -3   3   1 47.3837 8.05221   2
  -3   3   1 67.2339 10.0473   1
  -2   3   1 141.289 9.47049   1
  -2   3   1 80.2634 5.75664   2
  -1   3   1 2182.14 41.7486  -2
  -1   3   1 2182.14 41.7486   1
   0   3   1 235.795 15.9309   2
   0   3   1 356.699 19.8764   1
   0   3   1 608.998 15.7195  -2
   0   3   1 608.998 15.7195   1
   1   3   1 306.023 9.04566   1
   1   3   1 195.535 7.65107   2
   2   3   1 266.607 10.8506   2
   2   3   1 386.969 12.3982   1
   3   3   1 93.2343 8.14957   2
   3   3   1 154.109 11.1528   1
   4   3   1 248.170 15.4929   2
   4   3   1 378.074 19.8808   1
   5   3   1 -1.4511 3.58516   1
   5   3   1 -3.6324 2.86292   2
   6   3   1 98.6256 12.4385   1
   6   3   1 59.0003 8.57134   2
   7   3   0 -11.397 12.4970  -2
   7   3   1 -11.397 12.4970   1
   8   3   0 367.949 44.8061  -2
   8   3   1 367.949 44.8061   1
  -7   4   1 417.153 35.2637   1
  -7   4   1 216.450 29.5873   2
  -6   4   1 247.630 24.1199   2
  -6   4   1 535.247 39.2121   1
  -5   4   2 81.5099 17.1204  -2
  -5   4   1 81.5099 17.1204   1
  -5   4   1 -2.4838 8.42769   1
  -5   4   1 1.50061 7.42511   2
  -4   4   2 21.3985 9.95613  -2
  -4   4   1 21.3985 9.95613   1
  -3   4   2 654.100 34.6868  -2
  -3   4   1 654.100 34.6868   1
  -2   4   1 1695.42 34.6180   1
  -2   4   1 1084.64 24.1009   2
  -1   4   1 315.391 13.0911   1
  -1   4   1 210.592 11.4224   2
   0   4   1 -1.2761 1.80767   2
   0   4   1 0.01090 2.22073   1
   1   4   1 459.986 17.4523   2
   1   4   1 802.756 17.3897   1
   2   4   1 1124.50 24.2053   2
   2   4   1 1724.78 32.1214   1
   3   4   1 606.263 18.8894   2
   3   4   1 891.597 23.5266   1
   4   4   1 617.274 28.7181   2
   4   4   1 1641.36 54.2920  -2
   4   4   1 1641.36 54.2920   1
   4   4   1 1004.15 38.8078   1
   5   4   1 299.037 19.5232  -2
   5   4   1 299.037 19.5232   1
   6   4   1 300.727 24.7354  -2
   6   4   1 300.727 24.7354   1
   7   4   1 8.01533 11.0507   2
   7   4   1 -33.539 17.4908  -2
   7   4   1 -33.539 17.4908   1
   7   4   1 -1.7668 11.9911   1
   8   4   1 128.044 22.0300   2
   8   4   1 192.190 28.5144   1
  -6   5   3 550.264 33.3957  -2
  -6   5   1 550.264 33.3957   1
  -5   5   3 939.258 67.3213  -2
  -5   5   1 939.258 67.3213   1
  -5   5   1 783.706 59.7692   1
  -5   5   1 433.890 36.6492   2
  -4   5   1 181.031 20.5733   1
  -4   5   1 105.805 14.2372   2
  -3   5   1 2.32137 3.45310   2
  -3   5   1 -1.0713 4.73572   1
  -2   5   1 17.4289 4.49026   1
  -2   5   1 4.90424 2.63043   2
  -1   5   1 316.090 16.7977   2
  -1   5   1 530.955 17.9788   1
   0   5   1 4337.27 65.3042   1
   0   5   1 2860.90 45.8995   2
   1   5   2 744.093 20.2592  -2
   1   5   1 744.093 20.2592   1
   1   5   1 208.675 30.2041   1
   1   5   1 121.065 19.5039   2
   2   5   2 482.047 17.2990  -2
   2   5   1 482.047 17.2990   1
   3   5   2 53.4766 10.5895  -2
   3   5   1 53.4766 10.5895   1
   3   5   1 16.6723 5.59121   2
   3   5   1 19.2179 6.24184   1
   4   5   1 1200.04 36.1959   1
   4   5   1 798.666 24.9371   2
   5   5   1 120.841 12.6617   2
   5   5   1 157.759 14.4808   1
   6   5   1 60.6926 10.1492   1
   6   5   1 38.0580 7.89250   2
   7   5   1 45.4718 13.5566   1
   7   5   1 23.6572 8.60687   2
   8   5   1 325.034 38.2603   1
   8   5   1 189.286 26.5352   2
  -6   6   1 66.7769 14.2932   2
  -6   6   1 128.907 19.4345   1
  -5   6   1 16.1775 9.49164   2
  -5   6   1 22.6159 9.05068   1
  -4   6   1 214.260 27.4284   2
  -4   6   1 301.067 26.0707   1
  -3   6   1 103.889 14.3457   1
  -3   6   1 66.6893 20.5162   2
  -2   6   3 135.983 10.8202  -2
  -2   6   1 135.983 10.8202   1
  -1   6   3 413.856 16.4632  -2
  -1   6   1 413.856 16.4632   1
   0   6   3 75.4968 9.19653  -2
   0   6   1 75.4968 9.19653   1
   0   6   1 38.2262 11.0289   2
   0   6   1 44.2969 14.7515   1
   1   6   1 1095.67 25.8661   1
   1   6   1 684.999 26.6031   2
   2   6   1 1048.15 26.0876   1
   2   6   1 665.807 27.8532   2
   3   6   1 102.851 10.2336   1
   3   6   1 53.6130 6.77591   2
   4   6   1 -0.8947 3.39088   1
   4   6   1 -3.0611 3.11836   2
   5   6   1 50.1040 8.06779   1
   5   6   1 34.8116 7.18368   2
   6   6   1 103.148 18.2249   1
   6   6   1 67.8956 13.5134   2
   6   6   2 163.149 33.5087  -2
   6   6   1 163.149 33.5087   1
   7   6   2 358.783 44.3033  -2
   7   6   1 358.783 44.3033   1
  -5   7   4 279.649 24.2150  -2
  -5   7   1 279.649 24.2150   1
  -4   7   4 562.414 30.2329  -2
  -4   7   1 562.414 30.2329   1
  -3   7   4 500.324 27.2751  -2
  -3   7   1 500.324 27.2751   1
  -2   7   1 73.1435 8.71888   2
  -2   7   1 91.7414 11.1053   1
  -1   7   1 34.4616 6.98561   1
  -1   7   1 21.6667 5.57172   2
   0   7   1 79.1142 9.24314   1
   0   7   1 54.8662 10.0496   2
   1   7   1 362.526 25.1602   2
   1   7   1 551.743 18.9968   1
   2   7   1 62.4243 11.0450   2
   2   7   1 92.2330 13.2019   1
   3   7   1 132.151 26.0554   2
   3   7   3 1280.30 50.8100  -2
   3   7   1 1280.30 50.8100   1
   3   7   1 230.528 41.5249   1
   4   7   3 700.505 31.2112  -2
   4   7   1 700.505 31.2112   1
   5   7   3 23.1510 11.6281  -2
   5   7   1 23.1510 11.6281   1
   6   7   3 192.151 38.1109  -2
   6   7   1 192.151 38.1109   1
   6   7   1 223.858 46.3053   1
   7   7   1 3.19061 9.06465   1
   7   7   1 -11.060 8.73025   2
  -5   8   1 16.9400 8.79521   1
  -5   8   1 30.2942 13.3072   2
  -4   8   1 21.2056 8.13662   1
  -4   8   1 12.3036 9.49947   2
  -3   8   1 386.678 29.5354   1
  -3   8   1 229.636 30.3654   2
  -2   8   1 350.288 36.3825   2
  -2   8   1 638.440 32.5855   1
  -1   8   1 75.8729 13.2765   1
  -1   8   1 47.8685 10.6559   2
   0   8   4 270.080 25.3959  -2
   0   8   1 270.080 25.3959   1
   0   8   1 194.875 29.2497   2
   0   8   1 269.318 41.6800   1
   1   8   4 172.250 16.0918  -2
   1   8   1 172.250 16.0918   1
   2   8   4 1282.08 45.1257  -2
   2   8   1 1282.08 45.1257   1
   3   8   1 712.506 78.5361   1
   3   8   4 954.620 46.0755  -2
   3   8   1 954.620 46.0755   1
   3   8   1 344.064 45.7355   2
   4   8   1 6.17419 5.56519   1
   4   8   1 -5.1909 4.74020   2
   5   8   1 90.6399 14.6281   2
   5   8   1 119.223 22.3658   1
   6   8   1 417.423 41.2166   1
   6   8   1 214.513 23.8913   2
   7   8   1 93.9256 21.0540   1
   7   8   1 61.4292 16.9829   2
  -4   9   1 7.70711 8.92637   2
  -4   9   1 15.8778 10.2257   1
  -3   9   5 61.6673 16.7615  -2
  -3   9   1 61.6673 16.7615   1
  -2   9   5 30.4394 12.5739  -2
  -2   9   1 30.4394 12.5739   1
  -1   9   5 1120.43 43.3014  -2
  -1   9   1 1120.43 43.3014   1
   0   9   1 -2.5411 7.66323   1
   0   9   5 11.4785 16.0234  -2
   0   9   1 11.4785 16.0234   1
   0   9   1 1.56516 6.67031   2
   1   9   1 79.2368 14.1573   1
   1   9   1 37.6127 9.73353   2
   2   9   1 85.4472 14.1492   2
   2   9   1 144.553 18.4712   1
   3   9   1 -0.1641 5.61828   2
   3   9   1 23.5431 8.31934   1
   4   9   1 443.266 40.6637   1
   4   9   1 265.072 25.2236   2
   5   9   1 218.495 31.4351   1
   5   9   1 160.646 38.4755   2
   6   9   4 257.122 31.6537  -2
   6   9   1 257.122 31.6537   1
  -3  10   6 32.3995 24.4079  -2
  -3  10   1 32.3995 24.4079   1
  -3  10   1 -5.5820 17.8057   1
  -3  10   1 18.7101 13.4254   2
  -2  10   1 59.0707 16.6354   1
  -2  10   1 54.9173 15.6142   2
  -1  10   1 213.727 30.3124   2
  -1  10   1 405.854 32.7720   1
   0  10   1 1.34300 5.51845   2
   0  10   1 17.5027 8.43780   1
   1  10   1 266.567 25.7112   1
   1  10   1 135.595 23.5631   2
   2  10   1 19.8767 11.0198   1
   2  10   1 13.8803 8.08033   2
   2  10   5 127.388 28.9591  -2
   2  10   1 127.388 28.9591   1
   3  10   5 31.6745 13.7793  -2
   3  10   1 31.6745 13.7793   1
   4  10   5 286.514 31.9594  -2
   4  10   1 286.514 31.9594   1
   5  10   5 229.586 29.1632  -2
   5  10   1 229.586 29.1632   1
  -2  11   1 4.52274 9.58417   2
  -2  11   1 -2.7001 9.48810   1
  -1  11   1 101.830 28.1143   1
  -1  11   1 42.0780 22.8488   2
  -1  11   6 109.277 32.0978  -2
  -1  11   1 109.277 32.0978   1
   0  11   6 224.325 21.6346  -2
   0  11   1 224.325 21.6346   1
   1  11   6 546.327 32.9312  -2
   1  11   1 546.327 32.9312   1
   2  11   6 45.7141 15.8090  -2
   2  11   1 45.7141 15.8090   1
   3  11   1 62.4495 17.4567   1
   3  11   1 31.9524 10.4776   2
   4  11   1 166.528 27.9722   1
   4  11   1 118.355 18.1388   2
   1  12   1 72.0982 17.9475   2
   1  12   1 64.3026 25.5676   1
  -3 -11   2 5.18487 8.58325   1
  -3 -11   2 11.2304 10.6207   2
   2  11   9 510.108 42.7346  -2
  -2 -11   2 510.108 42.7346   1
   1  11   9 33.2461 13.1994  -2
  -1 -11   2 33.2461 13.1994   1
   0  11   9 48.2192 15.8253  -2
   0 -11   2 48.2192 15.8253   1
  -5 -10   2 74.7800 34.4031   1
   4  10   8 37.2273 14.3851  -2
  -4 -10   2 37.2273 14.3851   1
   3  10   8 553.965 42.8021  -2
  -3 -10   2 553.965 42.8021   1
  -2 -10   2 77.9890 17.8384   1
  -2 -10   2 30.6170 15.3641   2
  -1 -10   2 44.4460 12.3595   1
  -1 -10   2 10.0671 6.78008   2
   0 -10   2 583.111 39.7653   1
   0 -10   2 363.453 30.1763   2
   1 -10   2 305.147 39.0717   2
   1 -10   2 501.883 37.9066   1
   2 -10   2 24.8117 10.2944   2
   2 -10   2 22.2866 11.7953   1
  -5  -9   2 83.0152 17.8236   2
  -5  -9   2 117.092 22.3777   1
  -4  -9   2 25.5736 8.91476   2
  -4  -9   2 32.4006 12.6259   1
  -3  -9   2 94.9224 14.9498   2
  -3  -9   2 140.824 23.5377   1
  -2  -9   2 184.951 26.6195   1
  -2  -9   2 118.682 17.0434   2
  -1  -9   2 -1.0421 4.68782   2
  -1  -9   2 10.1311 5.01301   1
   0  -9   2 85.0549 19.2436   1
   0  -9   2 57.0496 16.1919   2
   0   9   8 83.5007 24.6204  -2
   0  -9   2 83.5007 24.6204   1
  -1   9   8 215.261 19.2395  -2
   1  -9   2 215.261 19.2395   1
  -2   9   8 480.099 36.0943  -2
   2  -9   2 480.099 36.0943   1
  -3   9   8 175.519 22.6014  -2
   3  -9   2 175.519 22.6014   1
  -6  -8   2 -1.7002 9.39300   1
  -6  -8   2 -5.3763 7.75408   2
  -5  -8   2 -8.6087 5.48146   2
  -5  -8   2 11.5619 7.90297   1
  -4  -8   2 301.552 34.6268   1
  -4  -8   2 210.721 21.9911   2
  -3  -8   2 14.0544 15.9864   1
   3   8   7 75.2574 23.5236  -2
  -3  -8   2 75.2574 23.5236   1
   2   8   7 43.6605 12.0075  -2
  -2  -8   2 43.6605 12.0075   1
   1   8   7 198.265 16.5535  -2
  -1  -8   2 198.265 16.5535   1
   0   8   7 276.587 17.0850  -2
   0  -8   2 276.587 17.0850   1
   1  -8   2 24.1419 6.94591   2
   1  -8   2 25.3351 6.87187   1
   2  -8   2 8.75818 5.69504   1
   2  -8   2 11.5280 8.31775   2
   3  -8   2 15.1780 7.58961   1
   3  -8   2 27.0338 11.1867   2
   4  -8   2 89.4192 14.0557   1
   4  -8   2 53.1350 15.3627   2
  -7  -7   2 15.7908 9.45375   2
  -7  -7   2 -4.5947 10.0457   1
  -6  -7   2 212.216 44.8969   1
   6   7   6 201.597 42.3667  -2
  -6  -7   2 201.597 42.3667   1
   5   7   6 380.605 25.0231  -2
  -5  -7   2 380.605 25.0231   1
   4   7   6 205.058 18.0234  -2
  -4  -7   2 205.058 18.0234   1
   3   7   6 640.512 34.4220  -2
  -3  -7   2 640.512 34.4220   1
  -3  -7   2 -2.7292 10.7516   1
  -2  -7   2 1111.60 31.5677   1
  -2  -7   2 694.981 32.2207   2
  -1  -7   2 388.759 26.6739   2
  -1  -7   2 542.026 21.5845   1
   0  -7   2 29.0271 6.79120   1
   0  -7   2 22.9536 6.98054   2
   1  -7   2 140.677 15.4801   2
   1  -7   2 213.344 17.1525   1
   2  -7   2 590.914 46.8303   2
   2  -7   2 1078.26 34.1071   1
  -3   7   7 148.018 16.3784  -2
   3  -7   2 148.018 16.3784   1
  -4   7   7 30.4455 9.05689  -2
   4  -7   2 30.4455 9.05689   1
  -5   7   7 305.569 30.7550  -2
   5  -7   2 305.569 30.7550   1
   7   6   5 332.066 30.1999  -2
  -7  -6   2 332.066 30.1999   1
   6   6   5 644.578 57.3193  -2
  -6  -6   2 644.578 57.3193   1
  -6  -6   2 565.240 47.9923   1
  -5  -6   2 80.8772 13.1602   1
  -5  -6   2 51.7021 10.5067   2
  -4  -6   2 109.993 14.2193   2
  -4  -6   2 173.941 18.4623   1
  -3  -6   2 18.6889 6.92821   2
  -3  -6   2 34.9855 6.60176   1
  -2  -6   2 6.74339 4.76761   2
  -2  -6   2 10.7037 3.89215   1
  -1  -6   2 92.0592 12.3293   2
  -1  -6   2 157.210 12.7877   1
   0   6   6 1081.35 34.0353  -2
   0  -6   2 1081.35 34.0353   1
   0  -6   2 958.882 63.6061   1
  -1   6   6 565.762 21.3902  -2
   1  -6   2 565.762 21.3902   1
  -2   6   6 247.437 15.0226  -2
   2  -6   2 247.437 15.0226   1
   3  -6   2 457.428 27.5689   1
   3  -6   2 292.993 24.4066   2
   4  -6   2 554.335 35.6102   1
   4  -6   2 335.963 27.2957   2
   5  -6   2 33.7585 10.0468   2
   5  -6   2 45.8797 10.9867   1
   6  -6   2 4.02034 7.55529   2
   6  -6   2 -4.7773 11.4741   1
  -7  -5   2 62.9157 16.6071   1
  -7  -5   2 59.2156 12.7261   2
  -6  -5   2 174.882 16.3297   2
  -6  -5   2 308.837 26.9784   1
  -5  -5   2 6.73051 4.44875   1
  -5  -5   2 -1.8571 4.10643   2
  -4  -5   2 85.0330 9.68187   2
  -4  -5   2 130.067 15.6519   1
   3   5   5 185.016 12.1524  -2
  -3  -5   2 185.016 12.1524   1
  -3  -5   2 175.287 32.8403   1
   2   5   5 383.410 15.0699  -2
  -2  -5   2 383.410 15.0699   1
   1   5   5 779.293 31.2342  -2
  -1  -5   2 779.293 31.2342   1
  -1  -5   2 614.275 32.7143   1
   0  -5   2 16.4952 3.36693   2
   0  -5   2 26.8112 5.64023   1
   1  -5   2 48.4628 7.45915   1
   1  -5   2 43.5467 5.79681   2
   2  -5   2 1107.78 30.7644   1
   2  -5   2 744.418 22.1917   2
   3  -5   2 2.10674 4.16156   2
   3  -5   2 -2.5534 3.46724   1
   4  -5   2 93.9426 14.4551   2
   4  -5   2 138.196 16.9445   1
   5  -5   2 29.2166 12.3679   1
   5  -5   2 21.5253 12.4567   2
  -5   5   6 42.5934 18.6564  -2
   5  -5   2 42.5934 18.6564   1
  -6   5   6 324.141 33.7165  -2
   6  -5   2 324.141 33.7165   1
  -8  -4   2 149.513 27.0004   1
  -8  -4   2 114.557 22.1119   2
  -7  -4   2 -6.3572 7.62957   1
  -7  -4   2 12.3370 7.86430   2
   6   4   4 153.214 18.6229  -2
  -6  -4   2 153.214 18.6229   1
   5   4   4 685.527 31.2371  -2
  -5  -4   2 685.527 31.2371   1
   4   4   4 887.094 28.8088  -2
  -4  -4   2 887.094 28.8088   1
  -4  -4   2 814.548 58.1568   1
  -4  -4   2 708.742 42.5286   2
  -3  -4   2 951.098 24.9403   1
  -3  -4   2 593.333 18.9164   2
  -2  -4   2 -3.4709 1.92002   2
  -2  -4   2 3.35008 2.35056   1
  -1  -4   2 74.9418 7.30172   1
  -1  -4   2 44.6257 5.18768   2
   0  -4   2 1037.92 22.9455   2
   0  -4   2 1653.24 33.8582   1
   1  -4   2 0.35298 2.96078   1
   1  -4   2 2.09252 2.18945   2
   2  -4   2 79.3696 10.7093   1
   2  -4   2 53.7745 6.98828   2
  -2   4   5 71.4813 17.1579  -2
   2  -4   2 71.4813 17.1579   1
  -3   4   5 841.009 24.5270  -2
   3  -4   2 841.009 24.5270   1
  -4   4   5 329.653 20.6228  -2
   4  -4   2 329.653 20.6228   1
   5  -4   2 64.0841 21.3414   1
  -5   4   5 60.4512 15.2993  -2
   5  -4   2 60.4512 15.2993   1
   6  -4   2 91.2460 15.4302   2
   6  -4   2 151.896 27.6640   1
   7  -4   2 124.442 18.8826   2
   7  -4   2 181.042 31.5294   1
   8   3   3 457.102 38.4736  -2
  -8  -3   2 457.102 38.4736   1
   7   3   3 -4.4443 10.7257  -2
  -7  -3   2 -4.4443 10.7257   1
  -6  -3   2 323.677 20.6295   2
  -6  -3   2 590.341 36.8931   1
  -5  -3   2 2.78197 3.97125   2
  -5  -3   2 3.52551 4.44375   1
  -4  -3   2 249.693 16.5154   1
  -4  -3   2 142.004 11.8953   2
  -3  -3   2 6.82344 3.11306   1
  -3  -3   2 4.39980 2.96513   2
  -2  -3   2 1651.38 30.8171   1
  -2  -3   2 1048.83 23.0666   2
  -1  -3   2 155.523 10.9945   1
  -1  -3   2 103.657 9.48048   2
   1   3   4 163.997 17.6884  -2
  -1  -3   2 163.997 17.6884   1
   0   3   4 40.9911 4.76471  -2
   0  -3   2 40.9911 4.76471   1
  -1   3   4 775.467 19.8905  -2
   1  -3   2 775.467 19.8905   1
   2  -3   2 5981.19 100.051   1
   2  -3   2 3758.99 56.9473   2
  -2   3   4 6943.86 182.021  -2
   2  -3   2 6943.86 182.021   1
   3  -3   2 119.800 6.64975   2
   3  -3   2 180.493 12.9759   1
   4  -3   2 7.16286 4.80249   2
   4  -3   2 17.1395 4.50382   1
   5  -3   2 65.3469 11.7254   2
   5  -3   2 140.588 16.9332   1
   6  -3   2 110.605 16.0300   2
   6  -3   2 162.986 20.9173   1
   7  -3   2 -3.9778 6.21910   2
   7  -3   2 11.2092 12.5297   1
  -8  -2   2 21.3409 11.0425   1
  -8  -2   2 35.0116 12.3464   2
  -7  -2   2 2.54478 5.68808   2
  -7  -2   2 7.72809 8.50244   1
  -6  -2   2 365.823 21.5744   2
  -6  -2   2 598.534 38.5535   1
  -5  -2   2 14.0870 4.77343   2
  -5  -2   2 25.4782 6.35116   1
  -4  -2   2 649.599 31.5568   1
  -4  -2   2 421.578 24.8237   2
   4   2   3 725.818 43.0746  -2
  -4  -2   2 725.818 43.0746   1
   3   2   3 233.712 10.9948  -2
  -3  -2   2 233.712 10.9948   1
   2   2   3 1329.53 27.8679  -2
  -2  -2   2 1329.53 27.8679   1
  -2  -2   2 768.767 42.9126   1
  -2  -2   2 659.963 30.8411   2
  -1  -2   2 1108.19 20.7437   1
  -1  -2   2 666.875 16.9249   2
   0  -2   2 56.9184 5.00581   2
   0  -2   2 98.0558 6.71729   1
   1  -2   2 1329.90 24.4735   2
   1  -2   2 2104.25 35.4041   1
   2  -2   2 123.801 7.09704   2
   2  -2   2 200.558 11.6520   1
   3  -2   2 41.6531 6.02024   1
   3  -2   2 35.6824 3.97394   2
   4  -2   2 899.005 32.4540   2
   4  -2   2 1373.70 31.5987   1
  -5   2   4 633.979 35.4667  -2
   5  -2   2 633.979 35.4667   1
   5  -2   2 46.8884 18.0500   1
  -6   2   4 59.5991 10.8148  -2
   6  -2   2 59.5991 10.8148   1
  -7   2   4 123.733 22.0079  -2
   7  -2   2 123.733 22.0079   1
  -8  -1   2 5.61658 8.19246   2
  -8  -1   2 2.08491 8.66369   1
   7   1   2 638.963 34.2626  -2
  -7  -1   2 638.963 34.2626   1
  -7  -1   2 220.356 42.2506   2
   6   1   2 938.022 38.4396  -2
  -6  -1   2 938.022 38.4396   1
   5   1   2 557.571 21.1728  -2
  -5  -1   2 557.571 21.1728   1
   4   1   2 217.561 18.5773  -2
  -4  -1   2 217.561 18.5773   1
  -4  -1   2 127.601 16.1337   1
  -4  -1   2 83.1000 14.6288   2
  -3  -1   2 24.5991 5.43558   1
  -3  -1   2 12.6156 3.42241   2
  -2  -1   2 2099.65 33.5883   2
  -2  -1   2 3270.13 48.4857   1
  -1  -1   2 60.0528 4.26048   2
  -1  -1   2 92.5518 7.44264   1
   0  -1   2 7.60566 1.69335   1
   0  -1   2 6.62829 1.89789   2
   1  -1   2 83.8512 5.61595   2
   1  -1   2 132.065 6.27644   1
  -2   1   3 1869.96 59.5859  -2
   2  -1   2 1869.96 59.5859   1
   2  -1   2 1177.54 34.1809   2
   2  -1   2 1817.71 37.6818   1
  -3   1   3 840.959 20.6445  -2
   3  -1   2 840.959 20.6445   1
  -4   1   3 1408.79 34.8125  -2
   4  -1   2 1408.79 34.8125   1
   5  -1   2 420.879 25.4632   2
   5  -1   2 682.893 32.7007   1
   6  -1   2 225.878 22.7262   1
   6  -1   2 126.817 15.9539   2
   7  -1   2 11.3582 6.56505   2
   7  -1   2 27.7914 13.1871   1
   8   0   1 249.549 41.6946  -2
  -8   0   2 249.549 41.6946   1
  -7   0   2 112.453 19.5063   2
   7   0   1 274.559 39.2845  -2
  -7   0   2 274.559 39.2845   1
  -7   0   2 164.701 27.9633   1
  -6   0   2 478.535 35.2827   2
  -6   0   2 907.855 45.3674   1
  -5   0   2 178.027 12.9254   2
  -5   0   2 301.806 25.0742   1
  -4   0   2 2355.92 46.0536   1
  -4   0   2 1440.11 31.0824   2
  -3   0   2 153.493 10.6823   2
  -3   0   2 256.373 14.0898   1
  -2   0   2 8.51103 2.32359   2
  -2   0   2 22.3619 3.72355   1
  -1   0   2 589.461 11.0901   2
  -1   0   2 894.576 19.5874   1
   1   0   2 1191.65 44.2871  -2
  -1   0   2 1191.65 44.2871   1
   0   0   2 3356.85 62.2130  -2
   0   0   2 3356.85 62.2130   1
   1   0   2 257.057 8.09469   2
   1   0   2 411.469 9.01838   1
   2   0   2 42.3120 4.35158   2
   2   0   2 74.0958 5.92956   1
   3   0   2 1033.69 22.8244   2
   3   0   2 1612.02 31.8602   1
   4   0   2 2786.34 50.0848   1
   4   0   2 1767.91 35.2797   2
   5   0   2 10.2950 4.36149   1
   5   0   2 2.57099 4.03384   2
   6   0   2 4.42029 4.44114   2
   6   0   2 12.6734 7.81365   1
   7   0   2 99.3096 21.5013   1
   7   0   2 63.7101 19.1048   2
  -8   0   3 256.207 31.4641  -2
   8   0   2 256.207 31.4641   1
  -8   1   2 96.5482 17.2066   1
  -8   1   2 42.7282 14.4565   2
  -7   1   2 25.2400 8.19348   2
  -7   1   2 54.4446 13.4737   1
  -6   1   2 50.4676 12.2563   2
  -6   1   2 84.8950 15.6499   1
  -5   1   2 556.282 34.7680   1
  -5   1   2 327.163 23.4027   2
   4  -1   1 2147.41 43.7065  -2
  -4   1   2 2147.41 43.7065   1
  -4   1   2 345.779 39.5362   2
   3  -1   1 295.842 10.6674  -2
  -3   1   2 295.842 10.6674   1
   2  -1   1 541.759 17.5159  -2
  -2   1   2 541.759 17.5159   1
  -2   1   2 338.249 11.6797   2
  -2   1   2 528.203 23.6318   1
  -1   1   2 395.731 10.3588   1
  -1   1   2 244.312 7.33504   2
   0   1   2 54.9732 3.80520   1
   0   1   2 34.9639 2.89188   2
   1   1   2 528.247 11.0591   1
   1   1   2 356.786 11.7422   2
   2   1   2 1394.87 25.1234   2
   2   1   2 2148.55 34.7006   1
   3   1   2 106.674 9.16041   1
   3   1   2 72.4389 7.45576   2
   4   1   2 99.9854 12.7334   2
  -4  -1   2 219.694 18.2347  -2
   4   1   2 219.694 18.2347   1
   4   1   2 130.443 14.6979   1
  -5  -1   2 564.683 22.8344  -2
   5   1   2 564.683 22.8344   1
  -6  -1   2 943.012 45.2475  -2
   6   1   2 943.012 45.2475   1
  -7  -1   2 613.190 39.2912  -2
   7   1   2 613.190 39.2912   1
   7   1   2 386.003 54.6301   1
   8   1   2 17.4349 9.03923   2
   8   1   2 32.2862 15.9571   1
  -7   2   0 24.8815 13.6075  -2
  -7   2   2 24.8815 13.6075   1
  -6   2   0 54.5708 10.3199  -2
  -6   2   2 54.5708 10.3199   1
  -5   2   2 75.7460 21.7965   2
  -5   2   0 105.039 12.9008  -2
  -5   2   2 105.039 12.9008   1
  -4   2   2 820.589 34.4016   1
  -4   2   2 517.596 26.1927   2
  -3   2   2 58.3491 5.38760   2
  -3   2   2 95.6221 11.8041   1
  -2   2   2 60.0577 5.03240   2
  -2   2   2 97.1390 9.85203   1
  -1   2   2 787.808 16.5814   1
  -1   2   2 477.508 11.8846   2
   0   2   2 232.461 7.70512   2
   0   2   2 384.067 9.29835   1
   1   2   2 2260.74 36.0754   1
   1   2   2 1411.91 23.4298   2
  -1  -2   1 3331.14 100.173  -2
   1   2   2 3331.14 100.173   1
   2   2   2 319.818 21.6686   1
  -2  -2   1 5317.25 142.405  -2
   2   2   2 5317.25 142.405   1
  -3  -2   1 606.123 21.0324  -2
   3   2   2 606.123 21.0324   1
   4   2   2 725.619 30.6435   1
   4   2   2 531.741 25.7408   2
  -4  -2   1 1086.65 63.9744  -2
   4   2   2 1086.65 63.9744   1
   5   2   2 -2.0060 3.02035   2
   5   2   2 2.10421 3.64144   1
   6   2   2 78.0745 10.6481   1
   6   2   2 57.8182 9.96159   2
   7   2   2 112.145 20.8509   2
   7   2   2 215.078 23.6462   1
   8   2   2 159.993 26.3916   2
   8   2   2 315.613 40.8836   1
  -7   3   1 367.314 48.2515  -2
  -7   3   2 367.314 48.2515   1
  -7   3   2 205.607 28.4678   2
  -7   3   2 353.591 44.1509   1
  -6   3   2 349.284 29.9128   1
  -6   3   2 202.029 25.5410   2
  -5   3   2 180.818 18.4313   2
  -5   3   2 344.954 28.2352   1
  -4   3   2 86.3688 12.9816   1
  -4   3   2 59.2142 9.97856   2
  -3   3   2 125.601 16.1154   2
  -3   3   2 209.351 18.3112   1
  -2   3   2 1953.17 43.4618   2
  -2   3   2 3309.76 55.9784   1
  -1   3   0 2320.62 43.4490  -2
  -1   3   2 2320.62 43.4490   1
  -1   3   2 2114.91 67.1793   1
   0   3   0 51.8108 7.80317  -2
   0   3   2 51.8108 7.80317   1
   0   3   2 2.28627 3.60275   2
   0   3   2 0.34304 1.10088   1
   1   3   2 299.103 10.1852   2
   1   3   2 462.053 8.29403   1
   2   3   2 5071.82 69.8821   1
   2   3   2 3422.14 51.2877   2
   3   3   2 450.197 16.4880   1
   3   3   2 272.869 17.7358   2
   4   3   2 2.90636 3.02712   2
   4   3   2 -0.2926 3.34972   1
   5   3   2 3.32276 3.66080   2
   5   3   2 3.51194 3.53870   1
   6   3   2 558.588 27.2636   1
   6   3   2 330.933 20.7240   2
  -7  -3   1 -21.618 12.4220  -2
   7   3   2 -21.618 12.4220   1
  -8  -3   1 345.748 33.9862  -2
   8   3   2 345.748 33.9862   1
  -7   4   2 9.04749 7.07110   2
  -7   4   2 -4.1080 8.21678   1
  -6   4   2 261.233 24.5464   2
  -6   4   2 513.549 38.7047   1
  -5   4   1 110.251 20.1566  -2
  -5   4   2 110.251 20.1566   1
  -5   4   2 169.239 35.8604   1
  -4   4   1 2.20456 7.19075  -2
  -4   4   2 2.20456 7.19075   1
  -3   4   1 947.299 42.9914  -2
  -3   4   2 947.299 42.9914   1
  -2   4   2 168.683 10.2632   2
  -2   4   2 313.240 14.1038   1
  -1   4   2 1590.11 30.6349   1
  -1   4   2 958.676 22.0495   2
   0   4   2 1129.57 23.5716   2
   0   4   2 1669.98 30.9235   1
   1   4   2 4.16513 2.23241   2
   1   4   2 5.09175 3.05471   1
   2   4   2 84.8315 7.54315   2
   2   4   2 115.471 8.28844   1
   3   4   2 11.2177 3.56907   2
   3   4   2 14.6628 3.88010   1
   4   4   0 2447.53 71.0568  -2
   4   4   2 2447.53 71.0568   1
   4   4   2 1131.96 40.7173   1
   4   4   2 760.715 45.8884   2
   5   4   0 566.020 25.7969  -2
   5   4   2 566.020 25.7969   1
   7   4   2 15.6774 8.43137   1
   7   4   0 -19.153 18.2629  -2
   7   4   2 -19.153 18.2629   1
   7   4   2 8.85230 8.30351   2
   8   4   2 308.012 50.8172   1
   8   4   2 171.585 26.6712   2
  -6   5   2 165.812 19.6599  -2
  -6   5   2 165.812 19.6599   1
  -5   5   2 19.6828 8.53715   2
  -5   5   2 68.6954 26.7813  -2
  -5   5   2 68.6954 26.7813   1
  -5   5   2 38.6718 13.8699   1
  -4   5   2 1.67652 7.02919   1
  -4   5   2 4.32172 6.03936   2
  -3   5   2 24.6069 7.27887   2
  -3   5   2 49.3293 13.1998   1
  -2   5   2 107.896 10.1446   1
  -2   5   2 64.1001 7.47500   2
  -1   5   2 78.3354 7.99452   1
  -1   5   2 67.3248 7.22864   2
   0   5   2 102.419 11.1286   2
   0   5   2 144.246 8.10816   1
   1   5   1 990.405 38.3908  -2
   1   5   2 990.405 38.3908   1
   1   5   2 814.267 43.5257   1
   1   5   2 544.819 37.5652   2
   2   5   1 569.066 15.8075  -2
   2   5   2 569.066 15.8075   1
   3   5   1 63.9503 10.8214  -2
   3   5   2 63.9503 10.8214   1
   3   5   2 72.1427 10.6334   1
   3   5   2 33.2685 9.46472   2
   4   5   2 362.360 19.9723   1
   4   5   2 247.646 16.5089   2
   5   5   2 123.126 12.8059   1
   5   5   2 75.0669 10.1377   2
   6   5   2 33.7475 9.12341   1
   6   5   2 17.1054 6.24686   2
   7   5   2 130.014 17.7871   1
   7   5   2 79.8814 15.7871   2
   8   5   2 117.029 29.3263   1
   8   5   2 38.1345 13.8498   2
  -6   6   2 25.2397 9.95096   2
  -6   6   2 49.2206 13.0124   1
  -5   6   2 644.660 42.2354   1
  -5   6   2 337.513 28.7092   2
  -4   6   2 363.775 28.0711   2
  -4   6   2 520.264 35.2180   1
  -3   6   2 -1.5526 4.59243   2
  -3   6   2 1.95378 5.32155   1
  -2   6   2 5.52221 5.72112  -2
  -2   6   2 5.52221 5.72112   1
  -1   6   2 67.8412 7.31746  -2
  -1   6   2 67.8412 7.31746   1
   0   6   2 4104.71 73.8642  -2
   0   6   2 4104.71 73.8642   1
   0   6   2 2398.95 96.4035   1
   0   6   2 1549.32 67.0401   2
   1   6   2 689.996 26.4633   1
   1   6   2 461.878 32.6940   2
   2   6   2 52.7660 6.10728   2
   2   6   2 62.6556 5.74450   1
   3   6   2 169.534 13.7350   2
   3   6   2 251.322 14.1565   1
   4   6   2 859.471 26.8836   1
   4   6   2 542.264 21.9740   2
   5   6   2 157.362 17.1837   1
   5   6   2 96.0881 11.2538   2
   6   6   1 139.523 20.2013  -2
   6   6   2 139.523 20.2013   1
   6   6   2 66.1150 14.1577   1
   6   6   2 62.3541 13.5107   2
   7   6   1 287.875 40.3030  -2
   7   6   2 287.875 40.3030   1
  -6   7   3 -4.9008 17.7603  -2
  -6   7   2 -4.9008 17.7603   1
  -5   7   3 198.152 20.6204  -2
  -5   7   2 198.152 20.6204   1
  -4   7   3 309.037 23.2112  -2
  -4   7   2 309.037 23.2112   1
  -3   7   3 1189.78 42.8203  -2
  -3   7   2 1189.78 42.8203   1
  -2   7   2 47.4501 7.53013   2
  -2   7   2 74.7484 9.90961   1
  -1   7   2 92.6485 10.2688   1
  -1   7   2 68.2686 8.51850   2
   0   7   2 81.5394 11.8852   2
   0   7   2 105.465 9.49922   1
   1   7   2 22.0080 6.56552   2
   1   7   2 39.4137 9.08074   1
   2   7   2 505.895 31.4035   1
   2   7   2 341.111 29.8703   2
   3   7   2 421.326 28.6330  -2
   3   7   2 421.326 28.6330   1
   4   7   2 10.2820 7.22273  -2
   4   7   2 10.2820 7.22273   1
   5   7   2 53.6026 10.2591  -2
   5   7   2 53.6026 10.2591   1
   6   7   2 162.291 33.9942   2
   6   7   2 546.409 58.8770  -2
   6   7   2 546.409 58.8770   1
   6   7   2 330.260 53.4734   1
   7   7   2 332.540 38.6189   1
   7   7   2 195.042 29.4944   2
  -5   8   2 -0.4310 7.35335   2
  -5   8   2 12.2250 9.08534   1
  -4   8   2 6.50048 6.74427   1
  -4   8   2 1.21345 6.42636   2
  -3   8   2 103.660 21.3572   2
  -3   8   2 189.076 20.2662   1
  -2   8   2 13.9387 8.90130   1
  -2   8   2 14.9569 9.24070   2
  -1   8   2 377.333 26.6909   2
  -1   8   2 565.314 35.7065   1
   0   8   2 5.10209 7.69390   2
   0   8   3 26.2295 11.8267  -2
   0   8   2 26.2295 11.8267   1
   0   8   2 11.6591 11.5620   1
   1   8   3 336.806 22.2121  -2
   1   8   2 336.806 22.2121   1
   2   8   3 424.532 25.2822  -2
   2   8   2 424.532 25.2822   1
   3   8   3 859.080 44.5613  -2
   3   8   2 859.080 44.5613   1
   3   8   2 478.110 62.7771   1
   4   8   2 10.6327 5.81568   2
   4   8   2 15.8442 5.58884   1
   5   8   2 12.3105 9.26238   1
   5   8   2 16.6104 6.79153   2
   6   8   2 -5.0032 8.16558   1
   6   8   2 -7.9519 8.01982   2
   7   8   2 0.57605 9.53557   1
   7   8   2 -2.2151 9.87034   2
  -4   9   2 13.9039 10.2901   1
  -4   9   2 -0.6407 8.66881   2
  -3   9   4 186.392 25.2966  -2
  -3   9   2 186.392 25.2966   1
  -2   9   4 247.530 26.2513  -2
  -2   9   2 247.530 26.2513   1
  -1   9   4 86.9650 13.0285  -2
  -1   9   2 86.9650 13.0285   1
   0   9   2 18.9506 6.81390   2
   0   9   2 9.66243 8.21328   1
   0   9   4 134.109 31.0098  -2
   0   9   2 134.109 31.0098   1
   1   9   2 48.8521 10.9098   2
   1   9   2 80.8385 14.3125   1
   2   9   2 181.452 20.5357   1
   2   9   2 113.761 16.5267   2
   3   9   2 323.326 27.8837   2
   3   9   2 551.042 37.4265   1
   4   9   2 287.395 27.0831   1
   4   9   2 179.084 21.1139   2
   5   9   2 112.365 23.4847   2
   5   9   2 170.269 26.9238   1
   6   9   3 300.356 33.5388  -2
   6   9   2 300.356 33.5388   1
  -3  10   2 8.37476 13.0884   2
  -3  10   2 11.5652 19.3363   1
  -3  10   5 99.6081 29.9474  -2
  -3  10   2 99.6081 29.9474   1
  -2  10   2 76.1925 19.2884   2
  -2  10   2 126.629 24.5176   1
  -1  10   2 302.347 35.6731   1
  -1  10   2 226.817 32.2822   2
   0  10   2 38.5975 10.0743   2
   0  10   2 112.745 17.6476   1
   1  10   2 23.7180 8.91302   1
   1  10   2 26.8407 8.17879   2
   2  10   2 158.927 26.2805   1
   2  10   2 90.5864 18.4478   2
   2  10   4 180.244 32.7904  -2
   2  10   2 180.244 32.7904   1
   3  10   4 72.4252 12.9746  -2
   3  10   2 72.4252 12.9746   1
   4  10   4 292.586 30.1253  -2
   4  10   2 292.586 30.1253   1
   5  10   4 632.367 48.4543  -2
   5  10   2 632.367 48.4543   1
  -2  11   2 74.6351 19.1671   1
  -2  11   2 45.8408 15.7516   2
  -1  11   2 44.9816 24.0777   2
  -1  11   2 80.1217 25.5048   1
  -1  11   5 171.406 36.0435  -2
  -1  11   2 171.406 36.0435   1
   0  11   5 31.5095 11.3399  -2
   0  11   2 31.5095 11.3399   1
   1  11   5 338.706 25.8472  -2
   1  11   2 338.706 25.8472   1
   2  11   5 105.842 16.9750  -2
   2  11   2 105.842 16.9750   1
   3  11   2 -0.1728 7.51121   1
   3  11   2 -1.3564 6.51633   2
   4  11   2 9.49515 7.66575   2
   4  11   2 -4.1089 7.67861   1
   1  12   2 112.491 18.6821   2
   1  12   2 169.585 22.7212   1
   2  12   2 8.59402 8.56318   1
   2  12   2 -11.089 7.17221   2
  -2 -11   3 3.43827 11.9785   2
  -2 -11   3 8.29030 11.2372   1
   2  11  10 6.72440 25.0288  -2
  -2 -11   3 6.72440 25.0288   1
   1  11  10 147.214 21.6229  -2
  -1 -11   3 147.214 21.6229   1
   4  10   9 10.7278 13.2558  -2
  -4 -10   3 10.7278 13.2558   1
   3  10   9 148.195 24.0632  -2
  -3 -10   3 148.195 24.0632   1
  -2 -10   3 239.064 44.9701   2
  -2 -10   3 294.415 35.5933   1
  -1 -10   3 93.5790 19.8558   1
  -1 -10   3 51.3652 11.9594   2
   0 -10   3 1.57125 8.41814   1
   0 -10   3 -0.0852 6.45355   2
   1 -10   3 3.96155 7.64389   1
   1 -10   3 -9.4589 9.29591   2
   2 -10   3 132.180 25.0668   1
   2 -10   3 68.6115 19.4415   2
  -5  -9   3 79.8988 24.4630   2
  -5  -9   3 114.413 23.4737   1
  -4  -9   3 228.524 24.1896   2
  -4  -9   3 368.758 39.8380   1
  -3  -9   3 472.050 34.5947   2
  -3  -9   3 692.038 54.2488   1
  -2  -9   3 9.46900 8.59293   1
  -2  -9   3 16.8191 7.86426   2
  -1  -9   3 -12.533 5.29663   1
  -1  -9   3 3.10901 6.02432   2
   0   9   9 752.696 62.0027  -2
   0  -9   3 752.696 62.0027   1
   0  -9   3 650.335 52.9260   1
   0  -9   3 377.988 55.6433   2
  -1   9   9 96.9476 13.4658  -2
   1  -9   3 96.9476 13.4658   1
  -2   9   9 7.58099 10.5594  -2
   2  -9   3 7.58099 10.5594   1
  -3   9   9 40.2463 14.5252  -2
   3  -9   3 40.2463 14.5252   1
  -6  -8   3 211.447 31.0906   1
  -6  -8   3 109.406 21.6891   2
  -5  -8   3 70.3829 18.8148   1
  -5  -8   3 50.0169 14.8816   2
  -4  -8   3 10.4550 6.42367   2
  -4  -8   3 23.1695 11.7256   1
  -3  -8   3 11.2568 15.1768   1
   3   8   8 261.906 37.7236  -2
  -3  -8   3 261.906 37.7236   1
   2   8   8 309.408 20.7336  -2
  -2  -8   3 309.408 20.7336   1
   1   8   8 531.912 22.2927  -2
  -1  -8   3 531.912 22.2927   1
   0   8   8 2.71129 9.14843  -2
   0  -8   3 2.71129 9.14843   1
   0  -8   3 5.03088 10.9949   1
   1  -8   3 83.9225 12.0024   1
   1  -8   3 66.6960 10.8424   2
   2  -8   3 188.275 27.6434   2
   2  -8   3 390.631 25.4576   1
   3  -8   3 58.0068 17.0947   2
   3  -8   3 158.641 18.5329   1
   4  -8   3 -6.2160 8.70586   2
   4  -8   3 -1.2093 11.2317   1
  -6  -7   3 214.279 46.3145   1
   6   7   7 273.222 46.0931  -2
  -6  -7   3 273.222 46.0931   1
   5   7   7 141.854 15.6145  -2
  -5  -7   3 141.854 15.6145   1
   4   7   7 548.373 29.0503  -2
  -4  -7   3 548.373 29.0503   1
   3   7   7 430.496 29.0639  -2
  -3  -7   3 430.496 29.0639   1
  -3  -7   3 211.749 41.7691   1
  -2  -7   3 22.1553 7.19419   2
  -2  -7   3 35.3094 8.28697   1
  -1  -7   3 5.18405 4.64743   2
  -1  -7   3 11.0918 4.32311   1
   0  -7   3 719.611 27.1209   1
   0  -7   3 449.419 28.6140   2
   1  -7   3 167.006 15.6337   1
   1  -7   3 123.861 14.8987   2
   2  -7   3 68.7548 16.8879   2
   2  -7   3 161.479 15.3645   1
  -3   7   8 309.212 21.7724  -2
   3  -7   3 309.212 21.7724   1
  -4   7   8 467.093 28.2715  -2
   4  -7   3 467.093 28.2715   1
  -5   7   8 3.29510 13.6164  -2
   5  -7   3 3.29510 13.6164   1
   7   6   6 289.424 29.8043  -2
  -7  -6   3 289.424 29.8043   1
  -6  -6   3 412.438 40.6434   1
   6   6   6 444.540 48.3658  -2
  -6  -6   3 444.540 48.3658   1
  -5  -6   3 17.2075 6.35776   2
  -5  -6   3 28.3123 9.24028   1
  -4  -6   3 9.27929 5.26993   1
  -4  -6   3 2.53308 5.20153   2
  -3  -6   3 5.23116 4.85636   2
  -3  -6   3 6.32351 5.70921   1
  -2  -6   3 310.274 18.1117   1
  -2  -6   3 194.258 18.1231   2
  -1  -6   3 18.6877 6.24396   2
  -1  -6   3 22.6630 5.25222   1
   0   6   7 112.149 10.8810  -2
   0  -6   3 112.149 10.8810   1
  -1   6   7 158.453 12.0094  -2
   1  -6   3 158.453 12.0094   1
  -2   6   7 935.724 29.9826  -2
   2  -6   3 935.724 29.9826   1
   3  -6   3 84.7301 17.4439   2
   3  -6   3 141.656 18.1543   1
   4  -6   3 4.27898 5.54545   2
   4  -6   3 1.24765 5.79154   1
   5  -6   3 360.688 41.7208   1
   5  -6   3 201.169 25.3274   2
  -7  -5   3 4.95197 7.61651   1
  -7  -5   3 8.90044 7.60616   2
  -6  -5   3 512.422 36.2733   1
  -6  -5   3 314.562 25.4538   2
  -5  -5   3 39.4704 7.08366   2
  -5  -5   3 38.2210 9.73584   1
  -4  -5   3 775.453 33.8269   1
  -4  -5   3 449.865 21.1261   2
   3   5   6 221.058 19.3781  -2
  -3  -5   3 221.058 19.3781   1
  -3  -5   3 86.3389 24.3662   1
   2   5   6 307.450 13.6586  -2
  -2  -5   3 307.450 13.6586   1
   1   5   6 758.551 32.9510  -2
  -1  -5   3 758.551 32.9510   1
  -1  -5   3 144.859 29.3959   1
   0  -5   3 1361.28 33.2393   1
   0  -5   3 902.219 23.5678   2
   1  -5   3 485.522 18.4065   2
   1  -5   3 785.371 26.2092   1
   2  -5   3 2.59354 2.99621   2
   2  -5   3 6.08032 4.91054   1
   3  -5   3 353.670 26.3788   2
   3  -5   3 523.410 24.1600   1
   4  -5   3 791.191 35.2365   1
   4  -5   3 458.618 36.9672   2
   5  -5   3 20.4845 10.2185   1
   5  -5   3 14.1564 11.0624   2
  -6   5   7 58.2256 17.2624  -2
   6  -5   3 58.2256 17.2624   1
  -7  -4   3 14.4538 18.1292   2
   7   4   5 46.2331 21.4020  -2
  -7  -4   3 46.2331 21.4020   1
  -7  -4   3 -6.9719 13.0029   1
   6   4   5 703.484 40.6498  -2
  -6  -4   3 703.484 40.6498   1
   5   4   5 1316.97 45.3882  -2
  -5  -4   3 1316.97 45.3882   1
  -4  -4   3 272.455 41.4197   1
   4   4   5 391.200 27.8292  -2
  -4  -4   3 391.200 27.8292   1
  -4  -4   3 191.461 26.1858   2
  -3  -4   3 14.7664 3.66820   1
  -3  -4   3 7.71274 3.37043   2
  -2  -4   3 115.984 9.81301   2
  -2  -4   3 173.575 9.94666   1
  -1  -4   3 883.600 23.0621   1
  -1  -4   3 583.643 17.7667   2
   0  -4   3 31.8822 5.51135   1
   0  -4   3 21.1484 3.93016   2
   1  -4   3 61.7951 7.67592   1
   1  -4   3 40.2463 5.75544   2
  -2   4   6 2066.37 85.7095  -2
   2  -4   3 2066.37 85.7095   1
   2  -4   3 2131.99 50.2817   1
   2  -4   3 1331.36 33.3122   2
  -3   4   6 393.847 16.8907  -2
   3  -4   3 393.847 16.8907   1
  -4   4   6 333.150 19.9570  -2
   4  -4   3 333.150 19.9570   1
  -5   4   6 693.825 32.7399  -2
   5  -4   3 693.825 32.7399   1
   6  -4   3 258.530 35.5164   1
   6  -4   3 139.305 18.1307   2
   8   3   4 154.050 22.9133  -2
  -8  -3   3 154.050 22.9133   1
   7   3   4 47.3103 15.2639  -2
  -7  -3   3 47.3103 15.2639   1
  -6  -3   3 156.558 17.3548   2
  -6  -3   3 189.108 20.7232   1
  -5  -3   3 332.199 25.5557   1
  -5  -3   3 266.580 21.0350   2
  -4  -3   3 637.262 29.0548   1
  -4  -3   3 365.033 19.1859   2
  -3  -3   3 4.57855 2.65488   2
  -3  -3   3 2.03288 2.40283   1
  -2  -3   3 60.9984 8.10854   1
  -2  -3   3 32.3850 4.83325   2
   1   3   5 276.554 25.8913  -2
  -1  -3   3 276.554 25.8913   1
  -1  -3   3 24.1740 4.71145   1
  -1  -3   3 12.5563 4.73494   2
   0   3   5 2465.02 42.1133  -2
   0  -3   3 2465.02 42.1133   1
  -1   3   5 1514.04 31.1965  -2
   1  -3   3 1514.04 31.1965   1
  -2   3   5 22.8460 11.6044  -2
   2  -3   3 22.8460 11.6044   1
   2  -3   3 7.15617 3.56231   1
   2  -3   3 -7.7455 3.30857   2
   3  -3   3 386.685 15.3479   2
   3  -3   3 702.340 22.6140   1
   4  -3   3 672.874 31.0009   2
   4  -3   3 1185.44 31.4915   1
   5  -3   3 31.3620 8.29570   1
   5  -3   3 19.2426 6.27169   2
   6  -3   3 45.5733 10.6327   2
   6  -3   3 54.5659 16.8064   1
   7  -3   3 12.7234 13.8481   1
   7  -3   3 5.82066 7.11375   2
  -8  -2   3 31.3785 13.5100   2
  -8  -2   3 29.7705 13.0545   1
  -7  -2   3 14.1167 8.77774   1
  -7  -2   3 19.4604 7.88946   2
  -6  -2   3 419.611 23.2545   2
  -6  -2   3 635.049 49.5063   1
  -5  -2   3 3.42326 3.32951   2
  -5  -2   3 -5.0179 3.52748   1
   4   2   4 1101.84 47.5092  -2
  -4  -2   3 1101.84 47.5092   1
  -4  -2   3 120.925 17.3166   1
  -4  -2   3 108.303 14.1426   2
   3   2   4 1822.52 35.6243  -2
  -3  -2   3 1822.52 35.6243   1
   2   2   4 1585.80 38.0979  -2
  -2  -2   3 1585.80 38.0979   1
  -1  -2   3 1034.43 18.2919   1
   1   2   4 1103.58 49.5700  -2
  -1  -2   3 1103.58 49.5700   1
  -1  -2   3 684.506 18.7317   2
   0  -2   3 20.3531 3.29064   2
   0  -2   3 24.9943 3.82473   1
   1  -2   3 327.265 11.8497   2
   1  -2   3 502.687 14.8339   1
   2  -2   3 1958.83 39.3215   2
   2  -2   3 3026.49 49.7294   1
   3  -2   3 58.8818 7.17667   1
   3  -2   3 35.5398 5.09094   2
   4  -2   3 57.1605 7.67171   1
   4  -2   3 29.7591 6.69596   2
  -5   2   5 645.833 35.0366  -2
   5  -2   3 645.833 35.0366   1
   5  -2   3 301.573 42.7338   1
  -6   2   5 608.895 43.3297  -2
   6  -2   3 608.895 43.3297   1
  -7   2   5 6.91689 13.9620  -2
   7  -2   3 6.91689 13.9620   1
  -8  -1   3 139.880 24.0363   1
  -8  -1   3 67.1501 17.9218   2
   7   1   3 423.340 35.7090  -2
  -7  -1   3 423.340 35.7090   1
   6   1   3 919.049 38.3241  -2
  -6  -1   3 919.049 38.3241   1
   5   1   3 37.9324 7.23399  -2
  -5  -1   3 37.9324 7.23399   1
  -4  -1   3 607.563 32.5681   1
  -4  -1   3 398.046 23.1233   2
   4   1   3 1409.04 48.1483  -2
  -4  -1   3 1409.04 48.1483   1
  -3  -1   3 432.675 14.0730   2
  -3  -1   3 600.186 19.2383   1
  -2  -1   3 175.489 8.17998   2
  -2  -1   3 258.486 10.9290   1
  -1  -1   3 111.612 5.56869   2
  -1  -1   3 195.875 11.1182   1
   0  -1   3 3645.53 50.9934   1
   0  -1   3 2395.93 36.1903   2
   1  -1   3 12.0778 2.09051   1
   1  -1   3 9.50836 2.69048   2
   2  -1   3 -3.1509 3.15699   2
   2  -1   3 6.18525 5.38214   1
  -2   1   4 1021.21 32.3740  -2
   2  -1   3 1021.21 32.3740   1
  -3   1   4 1674.90 33.0390  -2
   3  -1   3 1674.90 33.0390   1
  -4   1   4 1247.66 33.5903  -2
   4  -1   3 1247.66 33.5903   1
   4  -1   3 1136.08 64.0131   1
   5  -1   3 150.660 12.9382   1
   5  -1   3 88.9455 12.6779   2
   6  -1   3 107.990 15.0163   2
   6  -1   3 179.207 28.2108   1
   7  -1   3 116.169 26.3235   1
   7  -1   3 93.0730 19.6618   2
   8   0   2 154.611 24.6756  -2
  -8   0   3 154.611 24.6756   1
   7   0   2 295.345 30.2392  -2
  -7   0   3 295.345 30.2392   1
  -7   0   3 215.689 45.3173   1
  -7   0   3 151.851 23.3403   2
  -6   0   3 26.2169 7.99988   2
  -6   0   3 45.4719 10.8644   1
  -5   0   3 14.1847 4.46300   2
  -5   0   3 26.2971 7.89251   1
  -4   0   3 20.4029 4.73335   1
  -4   0   3 10.7806 3.62760   2
  -3   0   3 329.372 16.9751   1
  -3   0   3 206.623 11.3652   2
  -2   0   3 564.079 16.4236   1
  -2   0   3 345.534 10.6480   2
  -1   0   3 678.236 32.3556   2
   1   0   3 2790.80 59.0648  -2
  -1   0   3 2790.80 59.0648   1
  -1   0   3 1189.66 30.6331   1
   0   0   3 37.7300 4.09783  -2
   0   0   3 37.7300 4.09783   1
   1   0   3 2630.53 76.6918   1
   1   0   3 1729.96 38.7859   2
  -1   0   3 3202.90 67.0634  -2
   1   0   3 3202.90 67.0634   1
   2   0   3 998.851 20.5416   1
   2   0   3 627.076 15.5608   2
   3   0   3 204.306 11.0807   1
   3   0   3 113.909 8.71757   2
   4   0   3 99.6739 8.89999   2
   4   0   3 134.463 11.4868   1
   5   0   3 169.213 17.0538   2
   5   0   3 299.686 18.3371   1
   6   0   3 223.538 21.3890   2
   6   0   3 365.168 28.1671   1
   7   0   3 83.9466 21.4156   1
  -8   0   4 130.844 24.7992  -2
   8   0   3 130.844 24.7992   1
  -8   1   3 213.201 29.1356   2
  -8   1   3 378.539 42.3957   1
  -7   1   3 25.9409 8.19010   2
  -7   1   3 28.6327 10.0683   1
  -6   1   3 109.343 17.6242   1
  -6   1   3 60.0863 11.2775   2
  -5   1   3 373.845 25.3922   2
  -5   1   3 631.437 37.2583   1
   4  -1   2 1770.76 36.9158  -2
  -4   1   3 1770.76 36.9158   1
  -4   1   3 957.033 58.2269   2
   3  -1   2 956.364 22.8689  -2
  -3   1   3 956.364 22.8689   1
  -2   1   3 22.3949 6.00821   1
  -2   1   3 9.71172 3.61125   2
   2  -1   2 1306.83 34.0697  -2
  -2   1   3 1306.83 34.0697   1
  -1   1   3 4.08440 1.81746   1
  -1   1   3 2.09563 1.39707   2
   0   1   3 2043.15 30.0195   2
   0   1   3 3238.17 44.7276   1
   1   1   3 27.6947 4.51764   2
   1   1   3 43.4837 3.54553   1
   2   1   3 230.919 9.37608   1
   2   1   3 157.999 7.51969   2
   3   1   3 2.86110 2.50893   1
   3   1   3 2.69570 2.34870   2
   4   1   3 671.858 28.4309   2
  -4  -1   3 1361.76 45.5559  -2
   4   1   3 1361.76 45.5559   1
   4   1   3 1016.23 36.4150   1
  -5  -1   3 56.4968 7.53506  -2
   5   1   3 56.4968 7.53506   1
  -6  -1   3 815.438 33.9760  -2
   6   1   3 815.438 33.9760   1
  -7  -1   3 514.156 58.1223  -2
   7   1   3 514.156 58.1223   1
   7   1   3 396.765 54.9031   1
   8   1   3 128.046 22.8982   2
   8   1   3 223.697 35.0930   1
   7  -2   1 151.085 17.6525  -2
  -7   2   3 151.085 17.6525   1
   6  -2   1 405.208 26.2197  -2
  -6   2   3 405.208 26.2197   1
  -5   2   3 207.422 36.1530   2
   5  -2   1 330.182 21.8966  -2
  -5   2   3 330.182 21.8966   1
  -4   2   3 153.489 9.29425   2
  -4   2   3 270.561 22.7895   1
  -3   2   3 1744.79 46.3937   1
  -3   2   3 1152.68 25.0113   2
  -2   2   3 1473.42 27.7943   1
  -2   2   3 934.637 20.4149   2
  -1   2   3 46.5495 4.71457   2
  -1   2   3 59.8107 5.52675   1
   0   2   3 257.659 8.65845   2
   0   2   3 382.559 10.5612   1
   1   2   3 43.0837 4.51105   1
   1   2   3 32.2639 3.25873   2
  -1  -2   2 707.168 37.4739  -2
   1   2   3 707.168 37.4739   1
   2   2   3 865.171 35.4832   1
   2   2   3 820.080 39.1058   2
  -2  -2   2 1397.70 36.5252  -2
   2   2   3 1397.70 36.5252   1
  -3  -2   2 237.131 11.1379  -2
   3   2   3 237.131 11.1379   1
   4   2   3 10.9378 5.22716   2
  -4  -2   2 489.644 42.8245  -2
   4   2   3 489.644 42.8245   1
   4   2   3 17.1295 6.72573   1
   5   2   3 474.483 24.3001   1
   5   2   3 280.318 17.2379   2
   6   2   3 696.233 27.4988   1
   6   2   3 427.606 28.5014   2
   7   2   3 258.861 34.5601   1
   7   2   3 162.819 24.5429   2
   8   2   3 -11.024 8.65300   2
   8   2   3 3.15579 10.6525   1
  -7   3   0 170.237 34.7409  -2
  -7   3   3 170.237 34.7409   1
  -7   3   3 12.2624 11.4768   2
  -7   3   3 24.9568 12.8869   1
  -6   3   3 28.1379 9.78909   1
  -6   3   3 18.8326 7.11127   2
  -5   3   3 44.8714 8.75127   2
  -5   3   3 87.7005 14.4887   1
  -4   3   3 137.120 15.1286   2
  -4   3   3 196.730 20.0888   1
  -3   3   3 843.062 31.8286   1
  -3   3   3 516.873 15.2840   2
  -2   3   3 0.31420 1.63259   1
  -2   3   3 0.65032 2.85179   2
   1  -3   1 3123.78 47.5263  -2
  -1   3   3 3123.78 47.5263   1
   0  -3   1 58.3238 5.43645  -2
   0   3   3 58.3238 5.43645   1
   0   3   3 34.5630 8.45917   2
   0   3   3 60.0267 10.2156   1
   1   3   3 759.020 16.3014   1
   1   3   3 487.817 13.4914   2
   2   3   3 138.853 7.72636   2
   2   3   3 228.418 10.2670   1
   3   3   3 321.207 14.0381   2
   3   3   3 484.193 17.0201   1
   4   3   3 415.824 19.0863   1
   4   3   3 260.065 14.1238   2
   5   3   3 118.816 11.6384   2
   5   3   3 199.690 15.7588   1
   6   3   3 221.512 17.8235   1
   6   3   3 142.911 16.1395   2
  -7  -3   2 14.3968 14.9584  -2
   7   3   3 14.3968 14.9584   1
  -8  -3   2 433.541 38.4827  -2
   8   3   3 433.541 38.4827   1
  -7   4   3 590.687 43.9603   1
  -7   4   3 392.805 41.0947   2
  -6   4   3 234.357 26.1163   1
  -6   4   3 126.684 17.4314   2
  -5   4   0 250.746 26.4845  -2
  -5   4   3 250.746 26.4845   1
  -5   4   3 187.028 38.1226   1
  -5   4   3 86.2300 24.7689   2
  -4   4   0 105.528 12.0567  -2
  -4   4   3 105.528 12.0567   1
  -3   4   0 538.127 25.3413  -2
  -3   4   3 538.127 25.3413   1
  -2   4   3 538.169 16.6015   2
  -2   4   3 858.487 23.6446   1
  -2   4   0 823.106 51.5674  -2
  -2   4   3 823.106 51.5674   1
  -1   4   3 20.2511 4.04912   1
  -1   4   3 14.4360 3.46668   2
   0   4   3 981.278 20.7280   1
   0   4   3 624.431 17.3668   2
   1   4   3 166.929 10.4796   2
   1   4   3 305.650 16.2469   1
   2   4   3 552.131 15.1180   1
   2   4   3 366.567 13.7249   2
   3   4   3 348.208 14.6199   1
   3   4   3 208.211 11.8766   2
   4   4   3 8.20733 5.84646   2
  -4  -4   1 521.954 29.3488  -2
   4   4   3 521.954 29.3488   1
   4   4   3 6.43178 7.24492   1
  -5  -4   1 486.474 24.2748  -2
   5   4   3 486.474 24.2748   1
  -6  -4   1 788.720 52.8426  -2
   6   4   3 788.720 52.8426   1
  -7  -4   1 21.6017 18.5577  -2
   7   4   3 21.6017 18.5577   1
   7   4   3 11.1672 8.72082   1
   7   4   3 5.13187 8.07084   2
   8   4   3 19.5334 9.92440   2
   8   4   3 43.8750 17.2843   1
  -6   5   1 435.978 37.0562  -2
  -6   5   3 435.978 37.0562   1
  -5   5   3 393.338 43.2674   1
  -5   5   1 913.870 69.6817  -2
  -5   5   3 913.870 69.6817   1
  -5   5   3 213.803 37.2733   2
  -4   5   3 309.153 24.5402   2
  -4   5   3 578.311 37.0794   1
  -3   5   3 108.439 13.3581   2
  -3   5   3 212.263 20.9217   1
  -2   5   3 538.754 18.3725   2
  -2   5   3 902.447 25.2720   1
  -1   5   3 271.794 13.8821   2
  -1   5   3 480.055 16.2604   1
   0   5   3 121.293 9.84184   2
   0   5   3 217.348 9.17635   1
   1   5   3 8.50669 7.14054   2
   1   5   0 16.7081 8.39494  -2
   1   5   3 16.7081 8.39494   1
   1   5   3 0.32976 3.80827   1
   2   5   0 108.025 6.11985  -2
   2   5   3 108.025 6.11985   1
   3   5   3 59.1785 10.4660   2
   3   5   0 78.3584 12.6434  -2
   3   5   3 78.3584 12.6434   1
   3   5   3 103.918 12.2378   1
   4   5   3 845.798 25.7395   2
   4   5   3 1232.93 38.8144   1
   5   5   3 321.099 20.3882   2
   5   5   3 474.088 29.5774   1
   6   5   3 29.8979 8.71806   2
   6   5   3 70.6876 11.9047   1
   7   5   3 33.2083 10.4829   2
   7   5   3 62.4540 16.4911   1
  -6   6   3 65.3770 15.5420   1
  -6   6   3 39.1882 12.0145   2
  -5   6   3 48.8303 11.2211   2
  -5   6   3 97.1947 16.9080   1
  -4   6   3 61.4225 11.7617   2
  -4   6   3 68.0354 17.9977   1
  -3   6   3 368.196 25.9990   2
  -3   6   3 604.251 32.9027   1
  -2   6   1 128.259 10.5320  -2
  -2   6   3 128.259 10.5320   1
  -1   6   1 433.255 19.2029  -2
  -1   6   3 433.255 19.2029   1
   0   6   3 16.8723 8.86877   1
   0   6   1 53.7677 6.87129  -2
   0   6   3 53.7677 6.87129   1
   0   6   3 13.8923 8.78891   2
   1   6   3 1281.70 28.7324   2
   1   6   3 1895.12 48.0275   1
   2   6   3 6.20650 4.01524   1
   2   6   3 1.07576 2.78125   2
   3   6   3 143.362 10.7900   1
   3   6   3 89.1665 9.21001   2
   4   6   3 220.949 15.8107   2
   4   6   3 367.016 25.8593   1
   5   6   3 14.3829 4.76252   2
   5   6   3 21.7498 6.87181   1
   6   6   0 539.062 37.7608  -2
   6   6   3 539.062 37.7608   1
   6   6   3 97.6491 16.5661   2
   7   6   0 529.757 39.0643  -2
   7   6   3 529.757 39.0643   1
  -6   7   2 30.1984 20.0701  -2
  -6   7   3 30.1984 20.0701   1
  -6   7   3 -0.4683 19.8990   1
  -6   7   3 9.86991 11.6554   2
  -5   7   2 241.900 22.0409  -2
  -5   7   3 241.900 22.0409   1
  -4   7   2 276.639 21.5042  -2
  -4   7   3 276.639 21.5042   1
  -3   7   2 802.783 34.7218  -2
  -3   7   3 802.783 34.7218   1
  -2   7   3 11.2409 5.16400   1
  -2   7   3 2.02864 3.97362   2
  -1   7   3 93.6584 10.1518   2
  -1   7   3 138.183 11.8643   1
   0   7   3 301.489 29.9692   1
   0   7   3 219.987 14.4280   2
   1   7   3 329.295 23.7835   1
   1   7   3 222.648 19.7306   2
   2   7   3 327.476 24.0996   2
   2   7   3 489.409 29.5588   1
   3   7   3 1154.43 71.7655   2
   3   7   1 1689.71 61.3003  -2
   3   7   3 1689.71 61.3003   1
   3   7   3 1682.84 84.5154   1
   4   7   1 663.694 37.6714  -2
   4   7   3 663.694 37.6714   1
   5   7   1 17.4268 10.8952  -2
   5   7   3 17.4268 10.8952   1
   6   7   1 161.804 21.5922  -2
   6   7   3 161.804 21.5922   1
   6   7   3 15.7547 13.1522   2
   7   7   3 33.6988 14.3122   2
   7   7   3 76.5056 18.9894   1
  -5   8   3 0.21479 7.11407   2
  -5   8   3 11.6567 8.16323   1
  -4   8   3 300.556 27.0257   2
  -4   8   3 436.476 33.8187   1
  -3   8   3 325.432 26.5911   2
  -3   8   3 656.943 54.7940   1
  -2   8   3 122.354 22.1586   1
  -2   8   3 103.889 19.4101   2
  -1   8   3 17.8417 7.17434   1
  -1   8   3 17.2708 6.52206   2
   0   8   3 -1.4195 6.38757   2
   0   8   2 0.77237 11.1968  -2
   0   8   3 0.77237 11.1968   1
   0   8   3 -5.0242 7.91535   1
   1   8   2 272.861 20.2098  -2
   1   8   3 272.861 20.2098   1
   2   8   2 525.786 34.4476  -2
   2   8   3 525.786 34.4476   1
   3   8   3 317.637 45.3503   2
   3   8   2 871.831 44.6169  -2
   3   8   3 871.831 44.6169   1
   4   8   3 13.3767 6.77552   2
   4   8   3 6.73755 8.80594   1
   5   8   3 9.91829 9.20272   2
   5   8   3 18.0950 6.36171   1
   6   8   3 224.330 32.2792   2
   6   8   3 417.651 42.1860   1
   7   8   3 100.111 21.2285   1
   7   8   3 63.6698 18.8057   2
  -4   9   3 15.2686 10.1210   1
  -4   9   3 0.61525 9.25644   2
  -3   9   3 584.988 43.9395  -2
  -3   9   3 584.988 43.9395   1
  -2   9   3 474.023 37.9288  -2
  -2   9   3 474.023 37.9288   1
  -1   9   3 1069.45 42.8907  -2
  -1   9   3 1069.45 42.8907   1
   0   9   3 -0.4375 6.81400   2
   0   9   3 6.21151 7.61942   1
   0   9   3 -5.9804 20.0586  -2
   0   9   3 -5.9804 20.0586   1
   1   9   3 16.7260 6.31765   1
   1   9   3 11.8231 6.76744   2
   2   9   3 -1.0796 5.08863   2
   2   9   3 1.18196 5.19700   1
   3   9   3 201.381 21.6596   2
   3   9   3 304.749 27.9507   1
   4   9   3 0.88845 6.64728   1
   4   9   3 10.1059 6.66464   2
   5   9   3 192.164 29.5774   2
   5   9   3 304.263 36.2428   1
   6   9   2 280.960 31.4422  -2
   6   9   3 280.960 31.4422   1
  -3  10   4 207.622 39.2229  -2
  -3  10   3 207.622 39.2229   1
  -3  10   3 145.272 45.2030   1
  -3  10   3 117.816 30.8213   2
  -2  10   3 17.3256 10.2285   2
  -2  10   3 8.33868 10.0553   1
  -1  10   3 162.373 26.3467   2
  -1  10   3 266.519 34.4925   1
   0  10   3 68.0762 13.1019   2
   0  10   3 139.857 19.0215   1
   1  10   3 515.238 38.0526   1
   1  10   3 329.286 28.6218   2
   2  10   3 55.7465 15.2406   2
   2  10   3 82.1333 17.6401   1
   2  10   3 107.828 31.4137  -2
   2  10   3 107.828 31.4137   1
   3  10   3 163.427 18.4581  -2
   3  10   3 163.427 18.4581   1
   4  10   3 22.0658 9.18341  -2
   4  10   3 22.0658 9.18341   1
   5  10   3 247.883 30.0336  -2
   5  10   3 247.883 30.0336   1
  -2  11   3 9.61982 12.4169   1
  -2  11   3 17.6575 11.1686   2
  -1  11   4 61.8845 28.3280  -2
  -1  11   3 61.8845 28.3280   1
  -1  11   3 46.0624 22.6924   2
  -1  11   3 59.9116 22.3524   1
   0  11   4 107.871 16.0532  -2
   0  11   3 107.871 16.0532   1
   1  11   4 589.211 35.0797  -2
   1  11   3 589.211 35.0797   1
   2  11   4 49.8293 13.3903  -2
   2  11   3 49.8293 13.3903   1
   3  11   4 131.141 31.2971  -2
   3  11   3 131.141 31.2971   1
   3  11   3 153.331 26.5120   1
   3  11   3 94.6708 16.6097   2
   4  11   3 460.049 47.0671   1
   4  11   3 289.459 37.3129   2
   0  12   3 124.923 25.3616   2
   0  12   3 189.628 31.0491   1
   1  12   3 103.825 15.6245   1
   1  12   3 43.6861 12.4790   2
   2  12   3 154.865 22.1666   1
   2  12   3 91.0814 15.5369   2
  -4 -10   4 109.742 42.2197   1
   3  10  10 321.173 33.8232  -2
  -3 -10   4 321.173 33.8232   1
  -2 -10   4 17.6030 13.7797   2
  -2 -10   4 27.6974 13.0621   1
  -1 -10   4 1.78917 6.71525   2
  -1 -10   4 9.86240 9.89541   1
   0 -10   4 123.861 17.6102   2
   0 -10   4 164.050 26.3053   1
   1 -10   4 218.083 30.2093   1
   1 -10   4 132.892 23.9262   2
  -5  -9   4 130.307 32.8243   2
  -5  -9   4 155.344 26.3239   1
  -4  -9   4 15.6910 9.89026   2
  -4  -9   4 51.4134 12.6582   1
  -3  -9   4 133.197 23.1332   1
  -3  -9   4 125.878 16.6463   2
  -2  -9   4 256.153 31.4223   1
  -2  -9   4 199.634 22.2379   2
  -1  -9   4 51.0968 10.8849   2
  -1  -9   4 78.6688 17.4831   1
   0  -9   4 33.4114 17.3297   2
   0   9  10 64.3758 15.6888  -2
   0  -9   4 64.3758 15.6888   1
  -1   9  10 24.1904 9.59512  -2
   1  -9   4 24.1904 9.59512   1
  -2   9  10 272.617 26.0933  -2
   2  -9   4 272.617 26.0933   1
  -3   9  10 173.123 24.7728  -2
   3  -9   4 173.123 24.7728   1
  -6  -8   4 17.9236 10.4943   2
  -6  -8   4 21.5856 12.7530   1
  -5  -8   4 59.5722 15.7513   1
  -5  -8   4 47.8683 14.5764   2
  -4  -8   4 264.322 33.2203   1
  -4  -8   4 166.417 24.4006   2
  -3  -8   4 11.2974 15.3889   1
   3   8   9 254.291 36.5131  -2
  -3  -8   4 254.291 36.5131   1
   2   8   9 18.4987 7.30778  -2
  -2  -8   4 18.4987 7.30778   1
   1   8   9 192.815 17.0759  -2
  -1  -8   4 192.815 17.0759   1
   0   8   9 1538.70 49.8875  -2
   0  -8   4 1538.70 49.8875   1
   0  -8   4 1347.56 84.8292   1
   1  -8   4 114.826 15.9440   2
   1  -8   4 166.349 16.7856   1
   2  -8   4 3.22639 8.84673   2
   2  -8   4 19.8436 6.93960   1
   3  -8   4 97.6155 20.7256   1
   3  -8   4 33.8970 14.1928   2
   4  -8   4 336.040 40.0232   2
   4  -8   4 517.559 50.3409   1
   6   7   8 246.607 30.2047  -2
  -6  -7   4 246.607 30.2047   1
  -6  -7   4 272.855 53.8818   1
   5   7   8 260.647 22.2426  -2
  -5  -7   4 260.647 22.2426   1
   4   7   8 353.058 23.8081  -2
  -4  -7   4 353.058 23.8081   1
  -3  -7   4 89.2029 29.0290   1
   3   7   8 914.344 44.7136  -2
  -3  -7   4 914.344 44.7136   1
  -2  -7   4 186.642 18.9718   2
  -2  -7   4 294.192 24.0982   1
  -1  -7   4 599.268 30.4132   1
  -1  -7   4 392.271 28.0724   2
   0  -7   4 39.0229 7.48261   1
   0  -7   4 12.5978 6.15274   2
   1  -7   4 38.6244 8.53852   1
   1  -7   4 26.9306 7.33162   2
   2  -7   4 438.884 26.6241   1
   2  -7   4 268.053 31.9390   2
  -3   7   9 26.0082 9.62493  -2
   3  -7   4 26.0082 9.62493   1
  -4   7   9 147.509 21.9073  -2
   4  -7   4 147.509 21.9073   1
  -5   7   9 30.8936 15.5663  -2
   5  -7   4 30.8936 15.5663   1
   7   6   7 291.872 29.0528  -2
  -7  -6   4 291.872 29.0528   1
  -6  -6   4 23.5168 11.8223   1
   6   6   7 28.6888 20.6247  -2
  -6  -6   4 28.6888 20.6247   1
  -5  -6   4 264.332 25.2268   1
  -5  -6   4 132.133 21.3701   2
  -4  -6   4 573.408 35.7471   1
  -4  -6   4 380.463 27.8691   2
  -3  -6   4 164.578 17.4868   2
  -3  -6   4 262.003 22.9637   1
  -2  -6   4 -2.0189 3.70004   1
  -2  -6   4 2.42691 4.92606   2
  -1  -6   4 25.9475 5.95732   1
  -1  -6   4 23.1295 6.90436   2
   0   6   8 1011.02 30.5505  -2
   0  -6   4 1011.02 30.5505   1
  -1   6   8 335.177 17.4062  -2
   1  -6   4 335.177 17.4062   1
  -2   6   8 15.8616 7.02311  -2
   2  -6   4 15.8616 7.02311   1
   3  -6   4 421.036 29.2848   1
   3  -6   4 318.314 32.4191   2
   4  -6   4 96.5555 15.8948   2
   4  -6   4 155.136 26.4711   1
   5  -6   4 0.21419 7.13443   2
   5  -6   4 -16.761 8.17874   1
  -7  -5   4 172.691 29.6013   1
  -7  -5   4 87.6090 17.5132   2
  -6  -5   4 66.8058 12.6484   2
  -6  -5   4 120.373 17.4903   1
  -5  -5   4 6.67588 6.01674   2
  -5  -5   4 11.4997 6.21192   1
  -4  -5   4 89.1100 9.90450   2
  -4  -5   4 124.262 16.2761   1
   3   5   7 325.091 24.6731  -2
  -3  -5   4 325.091 24.6731   1
   2   5   7 739.847 20.5497  -2
  -2  -5   4 739.847 20.5497   1
   1   5   7 1483.02 34.6267  -2
  -1  -5   4 1483.02 34.6267   1
   0  -5   4 26.7799 5.32675   2
   0  -5   4 55.8845 8.10241   1
   1  -5   4 410.436 17.8502   2
   1  -5   4 626.331 24.5575   1
   2  -5   4 949.927 27.4628   2
   2  -5   4 1582.37 40.2681   1
   3  -5   4 124.819 16.1537   2
   3  -5   4 218.639 17.3739   1
   4  -5   4 34.6263 9.02611   2
   4  -5   4 43.9786 14.8346   1
   5  -5   4 2.50363 9.09712   1
   5  -5   4 5.88220 9.82391   2
  -6   5   8 309.039 31.7006  -2
   6  -5   4 309.039 31.7006   1
   7   4   6 2.28082 22.1092  -2
  -7  -4   4 2.28082 22.1092   1
  -7  -4   4 4.51947 9.32975   2
  -7  -4   4 30.7288 19.2642   1
   6   4   6 154.481 20.4611  -2
  -6  -4   4 154.481 20.4611   1
   5   4   6 794.558 35.2972  -2
  -5  -4   4 794.558 35.2972   1
   4   4   6 757.191 40.0234  -2
  -4  -4   4 757.191 40.0234   1
  -4  -4   4 829.066 75.8443   1
  -3  -4   4 353.108 17.2301   2
  -3  -4   4 532.075 27.6874   1
  -2  -4   4 26.5379 6.65075   1
  -2  -4   4 19.1741 4.67966   2
  -1  -4   4 25.7208 5.02110   2
  -1  -4   4 39.6378 5.54133   1
   0  -4   4 338.479 17.1162   2
   0  -4   4 595.181 19.9921   1
   1  -4   4 113.324 10.2438   2
   1  -4   4 163.556 12.8813   1
   2  -4   4 12.4613 5.36674   1
  -2   4   7 53.1271 18.3205  -2
   2  -4   4 53.1271 18.3205   1
   2  -4   4 11.5386 6.05547   2
  -3   4   7 90.2639 8.74221  -2
   3  -4   4 90.2639 8.74221   1
  -4   4   7 1139.50 39.8263  -2
   4  -4   4 1139.50 39.8263   1
  -5   4   7 73.6006 16.0627  -2
   5  -4   4 73.6006 16.0627   1
   6  -4   4 14.6137 10.0130   1
   6  -4   4 5.36247 6.80182   2
   7   3   5 60.4831 15.5329  -2
  -7  -3   4 60.4831 15.5329   1
  -6  -3   4 385.956 31.0122   1
  -6  -3   4 321.315 25.2193   2
  -5  -3   4 616.549 45.0026   1
  -5  -3   4 408.370 26.5689   2
  -4  -3   4 257.532 21.7894   1
  -4  -3   4 177.467 13.3203   2
  -3  -3   4 66.5824 7.33416   2
  -3  -3   4 121.528 14.1770   1
  -2  -3   4 629.256 18.7811   2
  -2  -3   4 941.367 30.2084   1
  -1  -3   4 97.8794 9.02792   1
   1   3   6 319.142 30.0168  -2
  -1  -3   4 319.142 30.0168   1
  -1  -3   4 33.7812 9.82925   2
   0   3   6 289.378 12.2140  -2
   0  -3   4 289.378 12.2140   1
  -1   3   6 308.309 12.7321  -2
   1  -3   4 308.309 12.7321   1
   2  -3   4 481.162 21.6651   1
  -2   3   6 440.654 34.9529  -2
   2  -3   4 440.654 34.9529   1
   2  -3   4 282.804 33.2613   2
   3  -3   4 13.6990 4.46120   1
   3  -3   4 5.88504 3.23047   2
   4  -3   4 73.6184 11.6218   2
   4  -3   4 126.217 11.9718   1
   5  -3   4 307.485 25.9241   2
   5  -3   4 530.046 47.0838   1
   6  -3   4 281.355 37.8456   1
   6  -3   4 165.322 19.4495   2
   7  -3   4 4.43477 9.20360   2
   7  -3   4 -4.7431 10.1141   1
  -8  -2   4 36.7654 13.2837   1
  -8  -2   4 18.5993 11.4294   2
  -7  -2   4 -0.5287 8.10521   1
  -7  -2   4 13.9288 8.30046   2
  -6  -2   4 22.7555 6.53367   2
  -6  -2   4 23.6057 9.71184   1
  -5  -2   4 392.368 29.1438   1
  -5  -2   4 209.890 14.9505   2
  -4  -2   4 394.826 44.8877   1
  -4  -2   4 275.555 34.1886   2
   4   2   5 537.880 25.0475  -2
  -4  -2   4 537.880 25.0475   1
   3   2   5 1238.89 28.2443  -2
  -3  -2   4 1238.89 28.2443   1
   2   2   5 9.18729 4.72288  -2
  -2  -2   4 9.18729 4.72288   1
  -1  -2   4 124.680 13.0550   2
  -1  -2   4 177.428 9.26962   1
   1   2   5 194.956 22.4708  -2
  -1  -2   4 194.956 22.4708   1
   0  -2   4 520.080 15.6880   2
   0  -2   4 763.708 19.2203   1
   1  -2   4 116.211 8.95954   2
   1  -2   4 189.799 9.82393   1
   2  -2   4 10.1669 3.10539   2
   2  -2   4 13.2007 3.47337   1
   3  -2   4 518.445 19.4101   1
   3  -2   4 291.418 14.0541   2
   4  -2   4 590.763 29.4264   2
   4  -2   4 968.389 28.1490   1
  -5   2   6 488.670 53.5276  -2
   5  -2   4 488.670 53.5276   1
   5  -2   4 90.7700 25.4858   1
  -6   2   6 98.3071 18.5607  -2
   6  -2   4 98.3071 18.5607   1
  -7   2   6 94.6130 20.3343  -2
   7  -2   4 94.6130 20.3343   1
  -8  -1   4 13.6491 11.1873   2
  -8  -1   4 59.0199 16.1610   1
   7   1   4 735.756 48.5740  -2
  -7  -1   4 735.756 48.5740   1
  -7  -1   4 297.270 49.7295   2
   6   1   4 648.698 42.0040  -2
  -6  -1   4 648.698 42.0040   1
   5   1   4 110.659 10.1220  -2
  -5  -1   4 110.659 10.1220   1
   4   1   4 306.988 21.6299  -2
  -4  -1   4 306.988 21.6299   1
  -4  -1   4 212.364 19.9767   2
  -4  -1   4 298.784 26.9343   1
  -3  -1   4 629.747 19.9780   1
  -3  -1   4 398.184 13.7346   2
  -2  -1   4 229.532 10.1841   1
  -2  -1   4 149.341 6.32990   2
  -1  -1   4 105.670 5.88595   2
  -1  -1   4 169.110 8.50640   1
   0  -1   4 117.076 7.80764   1
   0  -1   4 75.6538 6.40220   2
   1  -1   4 333.557 12.0043   2
   1  -1   4 495.518 13.2180   1
  -2   1   5 2091.42 56.9823  -2
   2  -1   4 2091.42 56.9823   1
   2  -1   4 1981.74 44.4019   1
  -3   1   5 585.231 17.8452  -2
   3  -1   4 585.231 17.8452   1
  -4   1   5 503.824 18.2115  -2
   4  -1   4 503.824 18.2115   1
   5  -1   4 914.861 53.2623   1
   5  -1   4 523.700 28.8480   2
  -5   1   5 1203.69 55.7870  -2
   5  -1   4 1203.69 55.7870   1
   6  -1   4 721.122 58.2615   1
   6  -1   4 421.258 30.2787   2
   7  -1   4 33.8744 11.8570   2
   7  -1   4 72.8993 20.2401   1
   8   0   3 219.492 29.4287  -2
  -8   0   4 219.492 29.4287   1
  -7   0   4 56.6598 15.0561   2
   7   0   3 104.367 19.8818  -2
  -7   0   4 104.367 19.8818   1
  -6   0   4 55.2219 13.2225   2
  -6   0   4 105.706 16.9731   1
  -5   0   4 406.674 18.0200   2
  -5   0   4 658.058 35.4178   1
  -4   0   4 1257.49 33.1450   1
  -4   0   4 862.758 23.4908   2
  -3   0   4 167.310 12.5587   1
  -3   0   4 96.1913 7.76988   2
  -2   0   4 1314.80 28.4620   1
  -2   0   4 822.858 17.2507   2
   1   0   4 1403.39 26.7260  -2
  -1   0   4 1403.39 26.7260   1
   0   0   4 10.4728 3.09247  -2
   0   0   4 10.4728 3.09247   1
  -1   0   4 1630.99 44.3594  -2
   1   0   4 1630.99 44.3594   1
   1   0   4 1535.19 57.0767   1
   2   0   4 19.3992 2.62776   1
   2   0   4 12.8176 2.85153   2
   3   0   4 4.57107 2.59054   2
   3   0   4 3.76469 2.40311   1
   4   0   4 1210.19 29.5707   1
   4   0   4 766.036 22.1631   2
   5   0   4 162.631 13.7129   1
   5   0   4 90.7100 12.6712   2
   6   0   4 84.5747 17.7293   2
   6   0   4 165.351 26.9733   1
   7   0   4 9.37508 11.4853   1
  -7   1   4 26.0168 9.95537   2
  -7   1   4 45.4914 10.8595   1
  -6   1   4 7.16861 5.60799   2
  -6   1   4 -2.6035 5.33747   1
  -5   1   4 341.923 28.5423   1
  -5   1   4 196.647 18.1626   2
   4  -1   3 1000.58 26.9773  -2
  -4   1   4 1000.58 26.9773   1
   3  -1   3 1790.67 36.0527  -2
  -3   1   4 1790.67 36.0527   1
   2  -1   3 1615.93 36.3691  -2
  -2   1   4 1615.93 36.3691   1
  -2   1   4 989.065 28.6498   2
  -2   1   4 1514.20 64.0203   1
  -1   1   4 2234.10 34.2734   2
  -1   1   4 3593.80 53.7843   1
   0   1   4 352.950 10.4742   2
   0   1   4 577.279 14.8023   1
   1   1   4 842.993 17.0876   1
   1   1   4 540.952 10.0993   2
   2   1   4 750.101 16.6916   2
   2   1   4 1081.60 29.0438   1
   3   1   4 402.661 14.3109   2
   3   1   4 587.457 17.5783   1
   4   1   4 9.02399 5.10575   2
  -4  -1   4 189.602 15.3281  -2
   4   1   4 189.602 15.3281   1
   4   1   4 15.7548 6.40483   1
  -5  -1   4 104.546 9.49703  -2
   5   1   4 104.546 9.49703   1
  -6  -1   4 762.504 45.5081  -2
   6   1   4 762.504 45.5081   1
  -7  -1   4 596.247 63.7922  -2
   7   1   4 596.247 63.7922   1
   7   1   4 380.424 53.5741   1
   8   1   4 89.1889 23.4369   1
   8   1   4 26.9219 10.9789   2
   7  -2   2 107.140 15.7661  -2
  -7   2   4 107.140 15.7661   1
   6  -2   2 88.3979 11.9856  -2
  -6   2   4 88.3979 11.9856   1
  -5   2   4 761.239 73.2598   2
   5  -2   2 980.886 40.0281  -2
  -5   2   4 980.886 40.0281   1
  -4   2   4 55.8981 7.06553   2
  -4   2   4 98.6596 14.2146   1
  -3   2   4 73.9469 7.48329   1
  -3   2   4 50.0990 6.10432   2
  -2   2   4 3.87606 2.36337   2
  -2   2   4 -0.6456 1.83704   1
  -1   2   4 260.208 9.70454   2
  -1   2   4 399.735 12.9509   1
   0   2   4 245.674 10.1373   1
   0   2   4 155.174 7.65115   2
   1   2   4 108.051 3.86398   2
   1   2   4 182.539 8.97853   1
  -1  -2   3 800.413 43.6947  -2
   1   2   4 800.413 43.6947   1
  -2  -2   3 1007.00 23.5397  -2
   2   2   4 1007.00 23.5397   1
  -3  -2   3 2569.62 45.1224  -2
   3   2   4 2569.62 45.1224   1
   4   2   4 863.122 35.3965   2
   4   2   4 1332.15 44.1105   1
  -4  -2   3 1489.89 49.7011  -2
   4   2   4 1489.89 49.7011   1
   5   2   4 35.7937 6.57637   2
   5   2   4 62.9282 8.99481   1
   6   2   4 38.4374 9.53951   1
   6   2   4 11.1989 8.54034   2
   7   2   4 230.810 32.7046   1
   7   2   4 124.391 22.2897   2
   8   2   4 36.4808 13.6674   2
   8   2   4 58.6152 21.8053   1
  -7   3   4 33.4051 11.5145   1
  -7   3   4 13.1676 8.51803   2
  -6   3   4 372.346 32.5603   1
  -6   3   4 218.767 22.0884   2
  -5   3   4 7.49854 4.91968   2
  -5   3   4 5.46827 5.44085   1
  -4   3   4 812.885 36.1321   1
  -4   3   4 491.016 26.5352   2
  -3   3   4 602.731 17.9131   2
  -3   3   4 947.873 21.7845   1
  -2   3   4 1495.71 36.8723   2
  -2   3   4 2409.54 46.1854   1
   1  -3   2 580.414 15.8952  -2
  -1   3   4 580.414 15.8952   1
   0  -3   2 60.6041 4.86298  -2
   0   3   4 60.6041 4.86298   1
   1   3   4 18.0776 3.39237   2
   1   3   4 24.3739 5.04522   1
  -1  -3   2 138.514 12.3833  -2
   1   3   4 138.514 12.3833   1
   2   3   4 429.725 12.8526   2
   2   3   4 688.282 17.6962   1
   3   3   4 268.193 11.8536   2
   3   3   4 414.934 15.3698   1
   4   3   4 215.518 14.9506   1
   4   3   4 120.085 10.1997   2
   5   3   4 32.0633 6.24731   2
   5   3   4 69.8466 11.8692   1
   6   3   4 1001.51 33.1045   1
   6   3   4 572.932 30.8776   2
  -7  -3   3 60.4526 18.4447  -2
   7   3   4 60.4526 18.4447   1
  -8  -3   3 148.081 24.6850  -2
   8   3   4 148.081 24.6850   1
  -7   4   4 28.4914 11.8616   2
  -7   4   4 57.2052 13.3569   1
  -6   4   4 64.0861 13.8329   1
  -6   4   4 29.5096 8.98169   2
   5  -4   1 517.398 29.6292  -2
  -5   4   4 517.398 29.6292   1
   4  -4   1 77.1566 11.2216  -2
  -4   4   4 77.1566 11.2216   1
   3  -4   1 700.870 29.4673  -2
  -3   4   4 700.870 29.4673   1
  -2   4   4 323.927 15.2457   1
  -2   4   4 193.996 12.1768   2
   2  -4   1 1459.08 73.9966  -2
  -2   4   4 1459.08 73.9966   1
  -1   4   4 1692.53 33.2891   2
  -1   4   4 2784.83 47.1490   1
   0   4   4 199.426 11.9457   2
   0   4   4 307.378 12.1934   1
   1   4   4 281.189 10.5276   1
   1   4   4 193.003 11.5072   2
   2   4   4 379.045 13.3818   1
   2   4   4 235.222 11.4257   2
   3   4   4 30.9913 5.02567   2
   3   4   4 48.7291 6.44204   1
  -4  -4   2 607.231 25.6362  -2
   4   4   4 607.231 25.6362   1
   4   4   4 63.0887 16.3647   2
  -5  -4   2 822.878 27.6878  -2
   5   4   4 822.878 27.6878   1
  -6  -4   2 250.029 23.1964  -2
   6   4   4 250.029 23.1964   1
   7   4   4 -2.8606 7.66427   2
   7   4   4 26.6206 9.13764   1
   8   4   4 295.103 38.9656   1
   8   4   4 181.354 41.6915   2
  -6   5   0 344.143 33.7643  -2
  -6   5   4 344.143 33.7643   1
  -5   5   0 27.6894 23.4732  -2
  -5   5   4 27.6894 23.4732   1
  -5   5   4 20.2300 11.1017   1
  -5   5   4 25.0961 8.78010   2
  -4   5   4 24.3444 7.11289   2
  -4   5   4 50.7119 10.9567   1
  -3   5   4 620.064 32.7964   1
  -3   5   4 376.328 16.1161   2
  -2   5   4 506.184 17.9245   1
  -2   5   4 331.704 15.6364   2
  -1   5   4 1163.63 27.7063   1
  -1   5   4 752.028 21.6449   2
   0   5   4 209.765 9.94753   1
   0   5   4 146.765 11.3047   2
   1   5   4 2114.62 83.4577   2
   1   5   4 3345.55 110.573   1
  -1  -5   1 3364.47 84.7207  -2
   1   5   4 3364.47 84.7207   1
  -2  -5   1 732.911 18.7915  -2
   2   5   4 732.911 18.7915   1
  -3  -5   1 763.365 24.2435  -2
   3   5   4 763.365 24.2435   1
   3   5   4 444.455 43.8734   1
   3   5   4 351.182 41.5507   2
   4   5   4 93.5643 9.91389   1
   4   5   4 59.9763 7.07857   2
   5   5   4 332.678 20.8411   1
   5   5   4 208.125 20.7971   2
   6   5   4 75.0668 11.0531   1
   6   5   4 42.7224 10.1088   2
   7   5   4 47.8650 12.2380   2
   7   5   4 116.628 16.4016   1
  -6   6   4 83.8678 15.3117   2
  -6   6   4 194.708 32.0326   1
  -5   6   4 361.583 32.9232   1
  -5   6   4 203.235 22.0014   2
  -4   6   4 117.526 15.5704   2
  -4   6   4 203.061 23.2002   1
  -3   6   4 4.53956 4.77351   2
  -3   6   4 8.13961 5.74646   1
  -2   6   0 60.0934 14.4186  -2
  -2   6   4 60.0934 14.4186   1
  -1   6   0 358.994 18.4131  -2
  -1   6   4 358.994 18.4131   1
   0   6   0 1125.13 26.6241  -2
   0   6   4 1125.13 26.6241   1
   0   6   4 158.687 22.8361   1
   0   6   4 142.926 22.9902   2
   1   6   4 3.64136 2.89641   2
   1   6   4 0.63504 3.49730   1
   2   6   4 115.845 13.7398   1
   2   6   4 72.4363 8.20036   2
   3   6   4 0.69297 3.12949   2
   3   6   4 2.79242 4.36267   1
   4   6   4 454.710 20.7450   2
   4   6   4 666.071 30.6729   1
   5   6   4 102.312 15.0253   2
   5   6   4 149.632 17.4453   1
   6   6   4 23.1774 7.97660   2
  -6  -6   1 189.899 24.5291  -2
   6   6   4 189.899 24.5291   1
  -7  -6   1 149.127 29.0572  -2
   7   6   4 149.127 29.0572   1
  -5   7   1 319.108 26.1224  -2
  -5   7   4 319.108 26.1224   1
  -4   7   1 394.015 25.5867  -2
  -4   7   4 394.015 25.5867   1
  -3   7   1 670.364 32.1908  -2
  -3   7   4 670.364 32.1908   1
  -2   7   4 237.370 17.0582   1
  -2   7   4 155.588 13.2292   2
  -1   7   4 453.228 22.1095   1
  -1   7   4 293.274 18.0788   2
   0   7   4 331.568 18.8158   2
   0   7   4 436.267 25.1768   1
   1   7   4 549.618 28.3759   1
   1   7   4 339.723 16.3008   2
   2   7   4 16.2998 3.85843   2
   2   7   4 20.9349 7.17898   1
   3   7   4 149.786 16.8853   2
   3   7   0 266.959 24.3325  -2
   3   7   4 266.959 24.3325   1
   3   7   4 164.333 29.2342   1
   4   7   0 244.506 18.5282  -2
   4   7   4 244.506 18.5282   1
   5   7   0 322.404 27.7863  -2
   5   7   4 322.404 27.7863   1
   6   7   0 467.344 35.9441  -2
   6   7   4 467.344 35.9441   1
   6   7   4 213.428 39.3871   2
   7   7   4 549.366 48.2873   1
   7   7   4 346.796 40.8383   2
  -5   8   4 50.9184 12.8748   2
  -5   8   4 88.4026 15.4288   1
  -4   8   4 27.1695 9.45810   2
  -4   8   4 33.3720 14.2300   1
  -3   8   4 187.455 29.4098   1
  -3   8   4 135.990 16.7492   2
  -2   8   4 127.322 15.8928   2
  -2   8   4 233.668 30.5063   1
  -1   8   4 607.051 31.3653   2
  -1   8   4 998.526 41.4598   1
   0   8   1 231.598 24.9850  -2
   0   8   4 231.598 24.9850   1
   0   8   4 36.4720 12.5410   2
   1   8   1 162.629 19.5213  -2
   1   8   4 162.629 19.5213   1
   2   8   1 628.439 53.0006  -2
   2   8   4 628.439 53.0006   1
   3   8   4 387.541 51.3511   2
   3   8   4 692.912 65.4670   1
   3   8   1 1048.92 50.0559  -2
   3   8   4 1048.92 50.0559   1
   4   8   4 15.5375 6.78006   1
   4   8   4 6.71017 8.13213   2
   5   8   4 181.576 21.2347   1
   5   8   4 121.690 23.7115   2
   6   8   4 24.7893 9.73948   1
   6   8   4 23.1081 11.5913   2
  -4   9   4 32.5951 13.1929   1
  -4   9   4 26.0405 11.8937   2
  -3   9   2 218.544 28.3327  -2
  -3   9   4 218.544 28.3327   1
  -2   9   2 187.445 23.8872  -2
  -2   9   4 187.445 23.8872   1
  -1   9   2 97.4324 14.3385  -2
  -1   9   4 97.4324 14.3385   1
   0   9   4 213.155 23.2191   1
   0   9   4 145.215 21.2479   2
   1   9   4 113.577 15.8479   2
   1   9   4 221.264 23.2922   1
   2   9   4 459.971 40.4115   1
   2   9   4 294.972 26.0699   2
   3   9   4 12.3018 6.39691   2
   3   9   4 18.1775 6.32509   1
   4   9   4 -1.8907 6.63002   2
   4   9   4 10.9391 9.28908   1
   5   9   4 123.899 30.5541   1
   5   9   4 75.5892 19.5700   2
   5   9   1 267.938 39.7043  -2
   5   9   4 267.938 39.7043   1
   6   9   1 268.472 30.7183  -2
   6   9   4 268.472 30.7183   1
  -3  10   4 17.8642 15.7796   2
  -3  10   4 85.6824 31.5294   1
  -3  10   3 153.457 37.3253  -2
  -3  10   4 153.457 37.3253   1
  -2  10   4 296.744 35.3963   2
  -2  10   4 542.865 51.8097   1
  -1  10   4 321.641 38.0786   1
  -1  10   4 218.046 29.3944   2
   0  10   4 27.5618 8.68503   2
   0  10   4 46.8816 11.4220   1
   1  10   4 71.6825 14.5820   1
   1  10   4 43.5494 10.6428   2
   2  10   4 -1.3066 7.94269   2
   2  10   4 2.66780 7.06040   1
   2  10   2 93.6407 31.6823  -2
   2  10   4 93.6407 31.6823   1
   3  10   2 73.8589 13.4174  -2
   3  10   4 73.8589 13.4174   1
   4  10   2 183.160 19.1154  -2
   4  10   4 183.160 19.1154   1
   5  10   2 583.264 45.3296  -2
   5  10   4 583.264 45.3296   1
  -2  11   4 -12.491 8.22699   2
  -2  11   4 2.03376 10.6063   1
  -1  11   3 77.5072 29.9637  -2
  -1  11   4 77.5072 29.9637   1
  -1  11   4 80.8008 25.6576   1
  -1  11   4 31.1782 20.0460   2
   0  11   3 109.953 15.8483  -2
   0  11   4 109.953 15.8483   1
   1  11   3 645.745 36.7784  -2
   1  11   4 645.745 36.7784   1
   2  11   3 29.7840 13.5206  -2
   2  11   4 29.7840 13.5206   1
   3  11   4 26.6368 12.6680   2
   3  11   4 38.5907 11.7791   1
   4  11   4 1.04348 9.26228   2
   4  11   4 6.14026 9.12773   1
   0  12   4 38.4835 15.3862   2
   0  12   4 85.8081 21.2971   1
   1  12   4 79.8287 15.3909   2
   1  12   4 181.638 24.4036   1
   2  12   4 237.986 28.1779   1
   2  12   4 146.070 20.3987   2
   3  10  11 16.2146 15.2393  -2
  -3 -10   5 16.2146 15.2393   1
  -2 -10   5 353.290 40.1661   1
  -1 -10   5 9.21572 7.07937   2
  -1 -10   5 11.2411 8.52227   1
   0 -10   5 74.4523 15.1675   2
   0 -10   5 150.926 25.5809   1
  -4  -9   5 179.362 27.9369   2
  -4  -9   5 269.863 35.5835   1
  -3  -9   5 27.3386 12.7128   2
  -3  -9   5 40.2295 11.4356   1
  -2  -9   5 65.8698 12.3194   2
  -2  -9   5 72.6345 18.2437   1
  -1  -9   5 3.69116 8.01909   1
  -1  -9   5 -1.7515 5.78440   2
   0   9  11 146.130 21.6856  -2
   0  -9   5 146.130 21.6856   1
   0  -9   5 15.4899 15.1726   2
  -1   9  11 273.926 26.6478  -2
   1  -9   5 273.926 26.6478   1
  -2   9  11 76.7640 16.5604  -2
   2  -9   5 76.7640 16.5604   1
  -5  -8   5 48.8100 16.1626   1
  -5  -8   5 55.0507 16.5192   2
  -4  -8   5 25.4580 9.95639   1
  -4  -8   5 13.3925 9.54279   2
   3   8  10 133.074 19.0683  -2
  -3  -8   5 133.074 19.0683   1
  -3  -8   5 6.12288 14.3826   1
   2   8  10 488.710 27.8382  -2
  -2  -8   5 488.710 27.8382   1
   1   8  10 151.651 15.6448  -2
  -1  -8   5 151.651 15.6448   1
   0   8  10 192.065 18.3626  -2
   0  -8   5 192.065 18.3626   1
   1  -8   5 66.2454 17.1792   2
   1  -8   5 108.534 14.0177   1
   2  -8   5 -4.1427 5.70880   1
   2  -8   5 5.14873 9.63434   2
   3  -8   5 5.87254 10.3313   2
   3  -8   5 15.8360 11.5366   1
   6   7   9 35.2869 14.1799  -2
  -6  -7   5 35.2869 14.1799   1
   5   7   9 25.2272 9.77635  -2
  -5  -7   5 25.2272 9.77635   1
   4   7   9 377.544 25.8050  -2
  -4  -7   5 377.544 25.8050   1
  -3  -7   5 450.645 65.5623   1
   3   7   9 672.495 39.1340  -2
  -3  -7   5 672.495 39.1340   1
  -2  -7   5 89.5581 13.1858   1
  -2  -7   5 46.4877 10.4356   2
  -1  -7   5 18.5729 7.33026   2
  -1  -7   5 16.1781 6.77335   1
   0  -7   5 687.524 34.6294   2
   0  -7   5 1117.35 36.2182   1
   1  -7   5 123.501 14.0534   1
   1  -7   5 61.6629 11.1185   2
   2  -7   5 26.2057 7.26827   1
   2  -7   5 7.38398 8.73603   2
  -3   7  10 194.415 25.5030  -2
   3  -7   5 194.415 25.5030   1
  -4   7  10 218.018 26.6417  -2
   4  -7   5 218.018 26.6417   1
   6   6   8 171.550 32.6808  -2
  -6  -6   5 171.550 32.6808   1
  -6  -6   5 116.529 22.3633   1
  -5  -6   5 54.4045 12.1268   1
  -5  -6   5 30.5425 9.99016   2
  -4  -6   5 804.987 41.4777   1
  -4  -6   5 517.671 42.4305   2
  -3  -6   5 104.749 13.9506   2
  -3  -6   5 126.314 16.0749   1
  -2  -6   5 342.225 25.0767   2
  -2  -6   5 625.106 31.7235   1
  -1  -6   5 96.2094 13.5092   2
  -1  -6   5 113.009 13.4318   1
   0   6   9 34.5308 7.95657  -2
   0  -6   5 34.5308 7.95657   1
  -1   6   9 23.1231 6.44582  -2
   1  -6   5 23.1231 6.44582   1
  -2   6   9 780.254 28.5713  -2
   2  -6   5 780.254 28.5713   1
  -3   6   9 947.655 59.5402  -2
   3  -6   5 947.655 59.5402   1
   3  -6   5 92.0815 19.1838   1
   3  -6   5 125.396 32.4004   2
   4  -6   5 -12.726 8.06579   1
   4  -6   5 -4.9437 6.13904   2
   5  -6   5 74.2879 14.3661   2
   5  -6   5 71.8740 20.4564   1
  -7  -5   5 13.6365 10.4904   2
  -7  -5   5 31.7744 12.1132   1
  -6  -5   5 -6.5068 6.21109   2
  -6  -5   5 -5.4149 5.57295   1
  -5  -5   5 22.9374 8.87264   1
  -5  -5   5 11.5391 6.00583   2
  -4  -5   5 237.911 20.3303   2
  -4  -5   5 396.039 29.7655   1
   3   5   8 50.4447 10.4192  -2
  -3  -5   5 50.4447 10.4192   1
   2   5   8 596.052 27.7353  -2
  -2  -5   5 596.052 27.7353   1
   1   5   8 1033.82 28.1187  -2
  -1  -5   5 1033.82 28.1187   1
   0  -5   5 288.654 18.4977   1
   0  -5   5 197.763 14.3878   2
   1  -5   5 224.666 16.8928   1
   1  -5   5 131.892 12.3574   2
   2  -5   5 -1.8819 3.51617   1
   2  -5   5 -0.2756 4.04203   2
   3  -5   5 72.7559 10.0934   1
   3  -5   5 57.2710 11.0983   2
   4  -5   5 36.5523 9.60390   2
   4  -5   5 63.6634 17.4548   1
   5  -5   5 3.47854 9.16943   1
   5  -5   5 -6.8933 10.2002   2
  -6   5   9 71.5827 25.5264  -2
   6  -5   5 71.5827 25.5264   1
   6  -5   5 17.9190 9.79322   2
   6  -5   5 52.7413 28.8075   1
   7   4   7 122.729 31.1069  -2
  -7  -4   5 122.729 31.1069   1
  -7  -4   5 22.9350 9.78634   2
  -7  -4   5 54.0150 24.0962   1
   6   4   7 49.2882 12.2044  -2
  -6  -4   5 49.2882 12.2044   1
   5   4   7 276.076 20.9848  -2
  -5  -4   5 276.076 20.9848   1
   4   4   7 50.2488 10.5950  -2
  -4  -4   5 50.2488 10.5950   1
  -3  -4   5 -2.7219 3.06369   2
  -3  -4   5 4.42894 4.13179   1
  -2  -4   5 1188.12 30.1251   2
  -2  -4   5 1855.65 49.4329   1
  -1  -4   5 500.869 17.6792   1
  -1  -4   5 314.431 17.6079   2
   0  -4   5 6.00035 3.47788   2
   0  -4   5 7.42028 3.93342   1
   1  -4   5 440.314 19.7970   1
   1  -4   5 245.653 15.4578   2
   2  -4   5 888.707 30.5277   1
  -2   4   8 790.167 54.9754  -2
   2  -4   5 790.167 54.9754   1
  -3   4   8 107.666 9.85338  -2
   3  -4   5 107.666 9.85338   1
  -4   4   8 150.977 19.3420  -2
   4  -4   5 150.977 19.3420   1
  -5   4   8 1021.93 55.7814  -2
   5  -4   5 1021.93 55.7814   1
   6  -4   5 50.0685 16.9472   1
   6  -4   5 40.7662 14.5275   2
   7   3   6 87.4555 21.2657  -2
  -7  -3   5 87.4555 21.2657   1
  -6  -3   5 215.884 23.3101   1
  -6  -3   5 158.715 18.2607   2
  -5  -3   5 464.445 28.6638   2
  -5  -3   5 846.595 55.7721   1
  -4  -3   5 50.7714 8.89360   2
  -4  -3   5 71.8215 12.1057   1
  -3  -3   5 19.5343 5.21963   2
  -3  -3   5 29.5038 7.21451   1
  -2  -3   5 116.994 13.1998   1
  -2  -3   5 100.494 9.16157   2
  -1  -3   5 964.505 26.8370   1
   1   3   7 1392.95 69.2345  -2
  -1  -3   5 1392.95 69.2345   1
   0   3   7 2790.97 48.8893  -2
   0  -3   5 2790.97 48.8893   1
  -1   3   7 2159.71 41.0260  -2
   1  -3   5 2159.71 41.0260   1
  -2   3   7 59.1510 17.4529  -2
   2  -3   5 59.1510 17.4529   1
   2  -3   5 11.9724 4.39645   1
   3  -3   5 400.392 18.2809   2
   3  -3   5 645.961 23.0655   1
   4  -3   5 1229.60 49.6033   2
   4  -3   5 1702.07 51.3378   1
   5  -3   5 89.8662 19.6376   1
   5  -3   5 67.8927 11.9399   2
   6  -3   5 70.3854 18.2856   2
   6  -3   5 113.489 21.9426   1
  -7  -2   5 -0.1032 7.40386   1
  -7  -2   5 1.12801 7.28419   2
  -6  -2   5 606.081 32.1976   2
  -6  -2   5 1023.57 61.3697   1
  -5  -2   5 4.91675 4.64588   2
  -5  -2   5 16.3577 6.88012   1
   4   2   6 1192.01 52.3187  -2
  -4  -2   5 1192.01 52.3187   1
  -4  -2   5 726.492 53.2154   1
  -4  -2   5 457.861 45.2144   2
   3   2   6 1190.79 45.6597  -2
  -3  -2   5 1190.79 45.6597   1
   2   2   6 295.809 17.0963  -2
  -2  -2   5 295.809 17.0963   1
  -1  -2   5 29.4312 7.08195   1
   1   2   6 84.1493 17.7894  -2
  -1  -2   5 84.1493 17.7894   1
   0  -2   5 86.0750 7.73063   1
   0  -2   5 58.6698 6.88008   2
   1  -2   5 319.488 13.6545   1
   1  -2   5 234.716 13.8069   2
   2  -2   5 254.413 12.0810   1
   2  -2   5 164.206 11.7802   2
   3  -2   5 -2.3419 2.41799   2
   3  -2   5 0.17489 2.91458   1
   4  -2   5 129.590 15.4244   2
   4  -2   5 220.624 20.4210   1
   5  -2   5 23.2012 13.6430   1
  -5   2   7 17.7439 19.7929  -2
   5  -2   5 17.7439 19.7929   1
  -6   2   7 382.636 34.6267  -2
   6  -2   5 382.636 34.6267   1
  -7   2   7 401.547 37.5644  -2
   7  -2   5 401.547 37.5644   1
   7   1   5 65.0588 16.8303  -2
  -7  -1   5 65.0588 16.8303   1
  -7  -1   5 55.1538 25.4410   2
   6   1   5 92.1120 16.0337  -2
  -6  -1   5 92.1120 16.0337   1
   5   1   5 158.345 14.5866  -2
  -5  -1   5 158.345 14.5866   1
   4   1   5 2332.45 64.5247  -2
  -4  -1   5 2332.45 64.5247   1
  -4  -1   5 615.887 24.7102   2
  -4  -1   5 991.581 44.2417   1
  -3  -1   5 1550.85 34.5815   1
  -3  -1   5 898.591 20.4226   2
  -2  -1   5 145.509 10.7719   1
  -2  -1   5 62.6502 8.03845   2
  -1  -1   5 535.750 16.1265   1
  -1  -1   5 326.547 11.0999   2
   0  -1   5 1221.75 26.1269   1
   0  -1   5 686.980 18.2093   2
   1  -1   5 254.085 13.2019   2
   1  -1   5 404.032 12.7484   1
  -2   1   6 266.714 18.3996  -2
   2  -1   5 266.714 18.3996   1
   2  -1   5 28.9522 4.07079   1
  -3   1   6 838.904 20.8558  -2
   3  -1   5 838.904 20.8558   1
  -4   1   6 555.015 25.5939  -2
   4  -1   5 555.015 25.5939   1
   5  -1   5 300.384 34.4659   1
   5  -1   5 163.904 17.6099   2
  -5   1   6 321.663 30.0854  -2
   5  -1   5 321.663 30.0854   1
   6  -1   5 131.167 23.0250   2
   6  -1   5 125.457 24.1054   1
   7  -1   5 134.318 26.6404   1
   7  -1   5 50.4007 16.5662   2
  -7   0   5 273.118 32.0350   2
   7   0   4 470.737 40.3198  -2
  -7   0   5 470.737 40.3198   1
  -6   0   5 120.320 20.0043   2
  -6   0   5 176.341 27.1758   1
  -5   0   5 -1.7498 3.86816   2
  -5   0   5 6.92774 6.23790   1
  -4   0   5 69.1649 7.57918   2
  -4   0   5 100.940 11.4005   1
  -3   0   5 575.953 20.3559   1
  -3   0   5 394.720 13.8549   2
  -2   0   5 152.920 11.9854   2
  -2   0   5 253.646 14.6102   1
   1   0   5 4047.35 60.3449  -2
  -1   0   5 4047.35 60.3449   1
   0   0   5 335.475 11.8245  -2
   0   0   5 335.475 11.8245   1
  -1   0   5 4485.75 77.4152  -2
   1   0   5 4485.75 77.4152   1
   2   0   5 2333.94 52.0589   1
   2   0   5 1528.67 30.2224   2
   3   0   5 280.765 11.3277   1
   3   0   5 202.026 12.6094   2
   4   0   5 64.3380 7.77398   2
   4   0   5 86.4968 8.40176   1
   5   0   5 192.107 19.4089   1
   5   0   5 164.947 16.8972   2
   6   0   5 198.008 27.5416   2
   6   0   5 333.277 38.4598   1
   7   0   5 95.3163 23.9536   1
  -7   1   5 10.5659 9.72946   1
  -7   1   5 3.22873 9.06669   2
  -6   1   5 66.8723 13.7086   1
  -6   1   5 61.8271 15.0851   2
  -5   1   5 574.707 36.9811   1
  -5   1   5 322.930 22.7614   2
   4  -1   4 692.065 23.0601  -2
  -4   1   5 692.065 23.0601   1
   3  -1   4 469.883 17.3854  -2
  -3   1   5 469.883 17.3854   1
   2  -1   4 1672.45 33.4087  -2
  -2   1   5 1672.45 33.4087   1
  -2   1   5 268.799 13.8899   2
  -1   1   5 46.1856 4.40441   2
  -1   1   5 69.7294 7.33016   1
   0   1   5 11.2881 2.78058   1
   0   1   5 7.66037 2.21867   2
   1   1   5 82.9975 5.45916   1
   1   1   5 59.8719 5.44493   2
   2   1   5 289.896 10.1375   2
   2   1   5 428.318 19.1509   1
   3   1   5 222.103 10.2276   1
   3   1   5 148.873 9.66175   2
   4   1   5 1305.18 44.7274   2
   4   1   5 2091.90 53.5851   1
  -4  -1   5 2442.37 71.8746  -2
   4   1   5 2442.37 71.8746   1
  -5  -1   5 149.321 14.6032  -2
   5   1   5 149.321 14.6032   1
  -6  -1   5 157.769 15.4555  -2
   6   1   5 157.769 15.4555   1
   7   1   5 21.1463 18.7021   1
  -7  -1   5 77.8930 26.3173  -2
   7   1   5 77.8930 26.3173   1
   7  -2   3 20.1117 12.9417  -2
  -7   2   5 20.1117 12.9417   1
   6  -2   3 529.399 30.8346  -2
  -6   2   5 529.399 30.8346   1
   5  -2   3 818.382 36.3174  -2
  -5   2   5 818.382 36.3174   1
  -5   2   5 362.946 48.1448   2
  -4   2   5 103.663 14.6419   1
  -4   2   5 61.4720 7.54653   2
  -3   2   5 276.714 14.7430   1
  -3   2   5 175.180 11.5707   2
  -2   2   5 637.234 17.3219   2
  -2   2   5 1051.88 26.2435   1
  -1   2   5 501.657 14.4367   2
  -1   2   5 831.164 21.5830   1
   0   2   5 471.240 13.5527   2
   0   2   5 794.047 19.7191   1
   1   2   5 13.3505 2.54081   2
  -1  -2   4 127.891 10.8362  -2
   1   2   5 127.891 10.8362   1
   1   2   5 25.7677 6.13363   1
  -2  -2   4 4.55145 3.03751  -2
   2   2   5 4.55145 3.03751   1
  -3  -2   4 1046.40 24.1583  -2
   3   2   5 1046.40 24.1583   1
   4   2   5 193.855 25.7120   2
  -4  -2   4 562.389 22.2720  -2
   4   2   5 562.389 22.2720   1
   4   2   5 315.144 35.7388   1
   5   2   5 2.47691 3.99591   2
   5   2   5 4.30241 4.85063   1
   6   2   5 352.335 27.4011   1
   6   2   5 198.491 28.0533   2
   7   2   5 49.9998 15.0802   2
   7   2   5 134.469 25.3583   1
  -7   3   5 7.26917 8.70212   2
  -7   3   5 3.25907 8.88865   1
  -6   3   5 -0.0413 6.39376   2
  -6   3   5 7.44077 6.71427   1
  -5   3   5 1001.28 45.0027   1
  -5   3   5 614.685 31.7881   2
  -4   3   5 1.10771 2.82315   2
  -4   3   5 2.21457 4.66722   1
  -3   3   5 187.492 12.4082   2
  -3   3   5 319.389 13.4990   1
  -2   3   5 18.9176 5.07085   2
   2  -3   3 28.5064 5.76674  -2
  -2   3   5 28.5064 5.76674   1
  -2   3   5 12.5462 6.51267   1
   1  -3   3 1722.72 33.4264  -2
  -1   3   5 1722.72 33.4264   1
   0  -3   3 2620.86 43.2954  -2
   0   3   5 2620.86 43.2954   1
   1   3   5 321.863 12.6501   2
   1   3   5 445.561 19.2232   1
  -1  -3   3 442.574 21.0373  -2
   1   3   5 442.574 21.0373   1
   2   3   5 77.0663 7.29235   1
   2   3   5 67.6098 9.01637   2
   3   3   5 1569.13 33.3868   1
   3   3   5 986.992 32.9305   2
   4   3   5 334.420 16.8758   1
   4   3   5 232.650 19.7548   2
   5   3   5 801.337 26.7988   1
   5   3   5 507.356 28.9188   2
   6   3   5 4.56020 5.82509   1
   6   3   5 2.50277 5.20232   2
  -7  -3   4 100.353 20.7855  -2
   7   3   5 100.353 20.7855   1
  -7   4   5 49.4906 13.3132   1
  -7   4   5 17.9293 11.3814   2
  -6   4   5 324.139 31.7308   1
  -6   4   5 149.778 18.0651   2
  -5   4   5 5.35725 10.4409   2
   5  -4   2 31.8410 10.9693  -2
  -5   4   5 31.8410 10.9693   1
   4  -4   2 246.908 19.1165  -2
  -4   4   5 246.908 19.1165   1
   3  -4   2 1005.84 36.6441  -2
  -3   4   5 1005.84 36.6441   1
  -2   4   5 7.81117 4.09889   2
  -2   4   5 18.5554 3.92239   1
   2  -4   2 75.9531 20.6910  -2
  -2   4   5 75.9531 20.6910   1
  -1   4   5 30.8078 5.25340   2
  -1   4   5 49.2895 6.54033   1
   0   4   5 6.25110 3.20882   2
   0   4   5 13.8534 3.77322   1
   1   4   5 180.136 9.39667   1
   1   4   5 105.594 8.74593   2
   2   4   5 356.143 13.9694   1
   2   4   5 251.260 11.6447   2
   3   4   5 12.1581 2.98593   2
   3   4   5 14.9661 4.06570   1
   4   4   5 173.429 23.9670   1
   4   4   5 132.488 25.2519   2
  -4  -4   3 308.239 18.1577  -2
   4   4   5 308.239 18.1577   1
  -5  -4   3 1473.11 38.8650  -2
   5   4   5 1473.11 38.8650   1
  -6  -4   3 707.664 37.7830  -2
   6   4   5 707.664 37.7830   1
  -7  -4   3 40.8645 17.6676  -2
   7   4   5 40.8645 17.6676   1
   7   4   5 23.4797 16.7902   1
   7   4   5 -15.814 9.18103   2
   6  -5   1 97.4138 15.8413  -2
  -6   5   5 97.4138 15.8413   1
  -5   5   5 293.250 56.3494   1
  -5   5   5 172.726 24.1277   2
   5  -5   1 463.818 36.0132  -2
  -5   5   5 463.818 36.0132   1
  -4   5   5 240.895 21.6112   2
  -4   5   5 404.532 31.8089   1
  -3   5   5 58.8098 7.35207   2
  -3   5   5 77.8134 13.1560   1
  -2   5   5 780.317 23.3939   1
  -2   5   5 516.725 19.1579   2
  -1   5   5 188.433 12.9515   2
  -1   5   5 352.011 15.1514   1
   0   5   5 137.251 10.9653   2
   0   5   5 217.739 11.1492   1
  -1  -5   2 585.295 14.9803  -2
   1   5   5 585.295 14.9803   1
   1   5   5 101.427 20.2595   2
  -2  -5   2 262.114 11.1596  -2
   2   5   5 262.114 11.1596   1
  -3  -5   2 124.662 9.12740  -2
   3   5   5 124.662 9.12740   1
   3   5   5 35.2850 13.3671   2
   4   5   5 22.1724 5.05287   1
   4   5   5 16.3516 6.36295   2
   5   5   5 303.120 25.3967   2
   5   5   5 487.372 23.5705   1
   6   5   5 112.678 16.4364   2
   6   5   5 183.868 19.9305   1
   7   5   5 17.6017 8.38038   2
   7   5   5 31.0503 10.4642   1
  -6   6   5 83.5934 14.2430   2
  -6   6   5 183.816 24.4686   1
  -5   6   5 28.3329 9.62666   2
  -5   6   5 54.5639 12.9467   1
  -4   6   5 259.416 26.0441   1
  -4   6   5 155.172 17.2387   2
  -3   6   5 1677.67 61.1633   1
  -3   6   5 1070.65 38.1958   2
   2  -6   1 386.632 15.9734  -2
  -2   6   5 386.632 15.9734   1
   1  -6   1 649.950 20.5719  -2
  -1   6   5 649.950 20.5719   1
   0  -6   1 313.649 25.5788  -2
   0   6   5 313.649 25.5788   1
   0   6   5 180.927 26.4650   2
   0   6   5 289.371 32.0806   1
   1   6   5 451.818 18.6531   2
   1   6   5 660.392 27.9337   1
   2   6   5 4.82556 4.39783   1
   2   6   5 -0.6567 2.67269   2
   3   6   5 231.910 14.9787   2
   3   6   5 288.072 22.1571   1
   4   6   5 5.66579 4.45813   1
   4   6   5 4.53912 4.80981   2
   5   6   5 747.435 34.5358   1
   5   6   5 457.878 32.3791   2
  -6  -6   2 426.041 26.7294  -2
   6   6   5 426.041 26.7294   1
   6   6   5 -3.5860 7.54748   2
  -7  -6   2 466.773 54.3480  -2
   7   6   5 466.773 54.3480   1
  -5   7   0 235.697 27.8215  -2
  -5   7   5 235.697 27.8215   1
  -4   7   0 34.1381 9.51050  -2
  -4   7   5 34.1381 9.51050   1
  -3   7   0 327.567 31.4656  -2
  -3   7   5 327.567 31.4656   1
  -2   7   5 99.8040 10.6818   2
  -2   7   5 126.352 15.6995   1
  -1   7   5 1481.70 44.1372   1
  -1   7   5 873.009 27.0085   2
   0   7   5 121.272 14.3538   2
   0   7   5 180.980 17.5278   1
   1   7   5 95.2887 13.1894   1
   1   7   5 62.1159 7.97901   2
   2   7   5 8.36714 3.87060   2
   2   7   5 20.3756 6.46847   1
  -3  -7   1 455.353 24.5714  -2
   3   7   5 455.353 24.5714   1
   3   7   5 287.399 42.0677   2
  -4  -7   1 159.971 15.1229  -2
   4   7   5 159.971 15.1229   1
  -5  -7   1 159.285 15.9625  -2
   5   7   5 159.285 15.9625   1
  -6  -7   1 249.990 27.3573  -2
   6   7   5 249.990 27.3573   1
   6   7   5 77.6017 23.1868   2
   7   7   5 252.025 32.9070   1
   7   7   5 133.666 25.2561   2
  -5   8   5 10.8191 10.8278   1
  -5   8   5 7.46526 7.62226   2
  -4   8   5 99.0192 22.2831   1
  -4   8   5 78.4276 13.7831   2
  -3   8   5 149.605 17.6474   2
  -3   8   5 282.667 36.0728   1
  -2   8   5 14.0339 7.15133   2
  -2   8   5 28.9999 13.5272   1
  -1   8   5 237.629 21.0032   1
  -1   8   5 126.190 14.8634   2
   0   8   0 75.7108 16.5767  -2
   0   8   5 75.7108 16.5767   1
   0   8   5 40.8051 14.9232   2
   1   8   0 87.1208 11.7874  -2
   1   8   5 87.1208 11.7874   1
   2   8   0 221.809 17.7118  -2
   2   8   5 221.809 17.7118   1
   3   8   5 29.1928 14.6545   2
   3   8   5 56.2558 19.2601   1
   3   8   0 98.1676 18.1434  -2
   3   8   5 98.1676 18.1434   1
   4   8   5 82.4658 14.1114   1
   4   8   5 65.6846 16.4762   2
   5   8   5 15.9433 10.5004   2
   5   8   5 13.6076 7.03000   1
   6   8   5 291.870 37.9631   2
   6   8   5 349.343 30.5272   1
  -4   9   5 11.1411 8.83993   2
  -4   9   5 -4.4802 11.5962   1
  -3   9   1 48.3618 17.1246  -2
  -3   9   5 48.3618 17.1246   1
  -2   9   1 66.2191 16.4657  -2
  -2   9   5 66.2191 16.4657   1
  -1   9   1 1529.24 52.8212  -2
  -1   9   5 1529.24 52.8212   1
   0   9   5 2.86848 5.62572   2
   0   9   5 -7.4122 5.70675   1
   1   9   5 391.158 29.3810   2
   1   9   5 620.530 35.0811   1
   2   9   5 166.278 19.2712   2
   2   9   5 237.053 23.0277   1
   3   9   5 162.917 19.5798   2
   3   9   5 263.913 24.6853   1
   4   9   5 276.732 25.3042   1
   4   9   5 167.231 26.5679   2
   5   9   0 529.588 54.6827  -2
   5   9   5 529.588 54.6827   1
   5   9   5 257.480 36.0656   2
   5   9   5 385.008 37.8782   1
   6   9   0 135.088 20.9529  -2
   6   9   5 135.088 20.9529   1
  -3  10   5 78.4405 26.3907   2
  -3  10   2 134.598 36.9600  -2
  -3  10   5 134.598 36.9600   1
  -3  10   5 118.996 44.6018   1
  -2  10   5 5.91099 7.05854   2
  -2  10   5 10.2072 9.53992   1
  -1  10   5 39.7012 12.9770   1
  -1  10   5 6.33072 8.16523   2
   0  10   5 218.504 24.8959   1
   0  10   5 153.248 18.8655   2
   1  10   5 637.303 42.6922   1
   1  10   5 490.272 34.8827   2
   2  10   5 60.9337 16.2736   2
   2  10   1 108.751 28.1421  -2
   2  10   5 108.751 28.1421   1
   2  10   5 78.2531 22.9580   1
   3  10   1 53.0239 15.1742  -2
   3  10   5 53.0239 15.1742   1
   4  10   1 249.680 27.0401  -2
   4  10   5 249.680 27.0401   1
   5  10   1 321.690 31.4054  -2
   5  10   5 321.690 31.4054   1
  -2  11   5 123.631 23.6255   2
  -2  11   5 206.681 33.7978   1
  -1  11   5 156.695 36.3993   1
  -1  11   2 203.811 43.1738  -2
  -1  11   5 203.811 43.1738   1
  -1  11   5 91.1750 32.6885   2
   0  11   2 15.1012 11.3881  -2
   0  11   5 15.1012 11.3881   1
   1  11   2 272.155 23.6678  -2
   1  11   5 272.155 23.6678   1
   2  11   2 89.0710 15.6528  -2
   2  11   5 89.0710 15.6528   1
   3  11   5 75.9760 14.9245   1
   3  11   5 41.1993 13.1339   2
   4  11   5 75.8128 15.0001   1
   4  11   5 41.1327 15.1154   2
   0  12   5 77.1695 20.7769   2
   0  12   5 116.332 24.0543   1
   1  12   5 267.006 29.4720   1
   1  12   5 166.777 22.1148   2
   2  12   5 81.2440 17.1074   1
   2  12   5 47.0181 11.5796   2
  -4  -9   6 63.5278 19.5284   1
  -4  -9   6 20.4745 12.4659   2
  -3  -9   6 -1.2732 7.54979   1
  -3  -9   6 -5.8322 9.37778   2
  -2  -9   6 382.316 40.3849   2
  -2  -9   6 571.112 50.3998   1
  -1  -9   6 18.5837 8.35015   2
  -1  -9   6 42.3381 14.5747   1
   0   9  12 61.0844 18.3879  -2
   0  -9   6 61.0844 18.3879   1
   0  -9   6 28.2101 19.3517   2
  -1   9  12 -7.2320 14.1762  -2
   1  -9   6 -7.2320 14.1762   1
  -5  -8   6 149.718 26.4327   1
  -5  -8   6 79.2136 18.1445   2
  -4  -8   6 269.306 33.8579   2
  -4  -8   6 392.404 40.6756   1
  -3  -8   6 -26.361 10.1244   1
   3   8  11 9.62724 12.4718  -2
  -3  -8   6 9.62724 12.4718   1
   2   8  11 73.7845 13.0639  -2
  -2  -8   6 73.7845 13.0639   1
   1   8  11 150.436 16.3018  -2
  -1  -8   6 150.436 16.3018   1
   0   8  11 977.482 41.6125  -2
   0  -8   6 977.482 41.6125   1
   1  -8   6 81.2428 13.1300   2
   1  -8   6 115.931 15.8234   1
   2  -8   6 46.3658 16.1543   2
   2  -8   6 78.4381 15.8809   1
   3  -8   6 9.41253 11.2535   1
   3  -8   6 8.45028 10.1898   2
  -6  -7   6 300.574 30.6334   1
  -6  -7   6 176.889 28.7057   2
   5   7  10 188.358 20.2027  -2
  -5  -7   6 188.358 20.2027   1
   4   7  10 345.127 24.9929  -2
  -4  -7   6 345.127 24.9929   1
   3   7  10 304.677 26.9805  -2
  -3  -7   6 304.677 26.9805   1
  -3  -7   6 133.150 36.2266   1
  -2  -7   6 141.355 17.0439   1
  -2  -7   6 132.071 16.5593   2
  -1  -7   6 37.8206 9.73067   2
  -1  -7   6 65.6396 11.9394   1
   0  -7   6 89.1648 13.8820   2
   0  -7   6 138.738 17.3109   1
   1  -7   6 -0.1866 4.79725   1
   1  -7   6 -2.8742 5.23159   2
   2  -7   6 8.25549 8.34234   2
   2  -7   6 -0.4416 7.71332   1
  -3   7  11 30.2158 14.1512  -2
   3  -7   6 30.2158 14.1512   1
  -4   7  11 78.5542 17.5886  -2
   4  -7   6 78.5542 17.5886   1
  -6  -6   6 49.0886 12.1092   1
   6   6   9 99.7046 30.4923  -2
  -6  -6   6 99.7046 30.4923   1
  -5  -6   6 4.04569 7.56750   2
  -5  -6   6 -0.6223 6.16943   1
  -4  -6   6 402.105 38.1904   2
  -4  -6   6 620.288 40.0911   1
  -3  -6   6 317.431 26.8179   1
  -3  -6   6 191.946 25.3965   2
  -2  -6   6 8.29923 5.87043   1
  -2  -6   6 3.56437 4.65480   2
  -1  -6   6 0.59612 6.47199   2
  -1  -6   6 8.36311 5.03244   1
   0   6  10 678.172 25.3251  -2
   0  -6   6 678.172 25.3251   1
  -1   6  10 299.558 17.2787  -2
   1  -6   6 299.558 17.2787   1
  -2   6  10 426.635 25.8632  -2
   2  -6   6 426.635 25.8632   1
   3  -6   6 -4.9667 7.84342   1
  -3   6  10 -31.379 15.4987  -2
   3  -6   6 -31.379 15.4987   1
   3  -6   6 -8.5124 11.9632   2
   4  -6   6 20.0050 8.38073   2
   4  -6   6 13.7123 12.4745   1
   5  -6   6 14.5682 13.6063   1
   5  -6   6 -1.8151 7.42867   2
  -7  -5   6 171.410 26.5652   2
  -7  -5   6 261.433 52.9986   1
  -6  -5   6 83.6518 17.8928   2
  -6  -5   6 207.549 23.8029   1
  -5  -5   6 72.8958 13.3478   1
  -5  -5   6 41.9176 11.5739   2
  -4  -5   6 95.0688 14.4870   1
  -4  -5   6 50.8987 11.5920   2
   3   5   9 1058.71 41.1517  -2
  -3  -5   6 1058.71 41.1517   1
   2   5   9 972.630 37.5721  -2
  -2  -5   6 972.630 37.5721   1
   1   5   9 696.703 29.9948  -2
  -1  -5   6 696.703 29.9948   1
   0  -5   6 29.2343 8.54596   2
   0  -5   6 46.1223 7.67552   1
   1  -5   6 20.3528 5.65521   2
   1  -5   6 39.5870 7.43452   1
   2  -5   6 958.508 30.3432   2
   2  -5   6 1489.11 40.0003   1
   3  -5   6 47.1546 10.4670   2
   3  -5   6 60.7917 12.6674   1
   4  -5   6 31.4481 9.58771   2
   4  -5   6 35.7240 14.6980   1
   5  -5   6 19.8213 12.2293   2
   5  -5   6 31.8348 14.7356   1
  -7  -4   6 10.8852 10.0389   2
   7   4   8 245.080 45.0767  -2
  -7  -4   6 245.080 45.0767   1
  -7  -4   6 10.7138 15.9319   1
   6   4   8 254.501 22.5187  -2
  -6  -4   6 254.501 22.5187   1
   5   4   8 458.507 27.7831  -2
  -5  -4   6 458.507 27.7831   1
   4   4   8 174.168 17.5098  -2
  -4  -4   6 174.168 17.5098   1
  -3  -4   6 16.8211 8.41757   2
  -3  -4   6 18.8339 7.15921   1
  -2  -4   6 557.146 27.9445   1
  -2  -4   6 358.865 17.7425   2
  -1  -4   6 141.984 12.2303   2
  -1  -4   6 212.252 14.2326   1
   0  -4   6 184.623 14.2776   2
   0  -4   6 280.059 17.2934   1
   1  -4   6 17.1058 4.58612   2
   1  -4   6 6.58532 3.80559   1
   2  -4   6 0.73549 3.28579   1
  -2   4   9 47.0080 17.4671  -2
   2  -4   6 47.0080 17.4671   1
  -3   4   9 251.054 18.8264  -2
   3  -4   6 251.054 18.8264   1
  -4   4   9 530.309 27.3753  -2
   4  -4   6 530.309 27.3753   1
  -5   4   9 32.4822 14.1872  -2
   5  -4   6 32.4822 14.1872   1
   6  -4   6 8.65874 10.4476   1
   6  -4   6 13.9519 11.0232   2
   7   3   7 157.504 26.2872  -2
  -7  -3   6 157.504 26.2872   1
  -6  -3   6 85.1633 14.7855   1
  -6  -3   6 53.0901 11.5229   2
  -5  -3   6 79.1199 12.2507   2
  -5  -3   6 111.116 17.0925   1
  -4  -3   6 -3.5990 3.87625   1
  -4  -3   6 0.28152 3.84841   2
  -3  -3   6 93.1192 13.3325   1
  -3  -3   6 62.7064 10.1260   2
  -2  -3   6 1336.65 41.0663   1
  -2  -3   6 844.224 23.5975   2
   1   3   8 721.834 22.4860  -2
  -1  -3   6 721.834 22.4860   1
  -1  -3   6 179.521 35.8218   1
   0   3   8 116.398 8.64049  -2
   0  -3   6 116.398 8.64049   1
  -1   3   8 72.7104 7.01835  -2
   1  -3   6 72.7104 7.01835   1
  -2   3   8 -3.6129 9.56672  -2
   2  -3   6 -3.6129 9.56672   1
   2  -3   6 3.50321 2.95966   1
   3  -3   6 0.15316 5.09216   1
   3  -3   6 2.39087 3.71549   2
   4  -3   6 95.7129 13.1909   2
   4  -3   6 134.713 17.2829   1
   5  -3   6 0.32157 7.94893   1
   5  -3   6 -1.7734 4.91871   2
   6  -3   6 51.3755 15.8813   2
   6  -3   6 109.095 23.6230   1
  -7  -2   6 36.1176 13.8176   2
  -7  -2   6 36.4976 14.3633   1
  -6  -2   6 166.772 26.4702   1
  -6  -2   6 69.5609 11.8380   2
  -5  -2   6 131.099 15.5278   2
  -5  -2   6 173.127 20.2935   1
  -4  -2   6 1.21594 8.42373   2
   4   2   7 161.402 15.8053  -2
  -4  -2   6 161.402 15.8053   1
   3   2   7 1292.58 50.7993  -2
  -3  -2   6 1292.58 50.7993   1
   2   2   7 201.238 19.3066  -2
  -2  -2   6 201.238 19.3066   1
   1   2   7 1646.58 50.6734  -2
  -1  -2   6 1646.58 50.6734   1
  -1  -2   6 1389.00 80.1951   1
   0  -2   6 4097.74 64.9555   2
   0  -2   6 6521.42 93.6112   1
   1  -2   6 503.562 17.3709   1
   1  -2   6 312.822 16.8133   2
   2  -2   6 32.2066 4.90773   1
   2  -2   6 19.1777 4.66641   2
   3  -2   6 137.085 11.7389   2
   3  -2   6 188.356 18.9410   1
   4  -2   6 395.842 28.0573   1
   4  -2   6 229.088 20.4202   2
  -5   2   8 402.099 49.2107  -2
   5  -2   6 402.099 49.2107   1
   5  -2   6 272.892 42.0161   1
  -6   2   8 207.247 24.9943  -2
   6  -2   6 207.247 24.9943   1
  -7   2   8 172.803 25.9564  -2
   7  -2   6 172.803 25.9564   1
   7   1   6 435.785 38.8146  -2
  -7  -1   6 435.785 38.8146   1
  -7  -1   6 276.317 49.6361   2
   6   1   6 232.721 26.4680  -2
  -6  -1   6 232.721 26.4680   1
   5   1   6 133.754 13.8513  -2
  -5  -1   6 133.754 13.8513   1
   4   1   6 761.280 32.4891  -2
  -4  -1   6 761.280 32.4891   1
  -4  -1   6 472.282 48.1593   2
  -3  -1   6 553.053 22.8546   2
  -3  -1   6 818.186 24.0214   1
  -2  -1   6 -1.9162 2.61900   2
  -2  -1   6 0.40013 2.64595   1
  -1  -1   6 8.56847 2.85625   1
  -1  -1   6 5.85252 2.77367   2
   0  -1   6 -1.0019 2.52230   2
   0  -1   6 6.84702 2.42563   1
   1  -1   6 1486.34 30.1067   1
   1  -1   6 919.146 23.5806   2
  -2   1   7 861.243 36.3803  -2
   2  -1   6 861.243 36.3803   1
   2  -1   6 637.274 43.5447   1
  -3   1   7 121.043 11.8666  -2
   3  -1   6 121.043 11.8666   1
  -4   1   7 21.7688 8.65193  -2
   4  -1   6 21.7688 8.65193   1
   5  -1   6 55.4316 15.5444   1
  -5   1   7 65.6646 18.4501  -2
   5  -1   6 65.6646 18.4501   1
   5  -1   6 23.8628 16.1134   2
   6  -1   6 645.018 56.1324   1
   6  -1   6 341.924 38.4231   2
   7  -1   6 87.6557 20.6905   2
   7  -1   6 159.612 29.1752   1
   7   0   5 72.7757 18.5076  -2
  -7   0   6 72.7757 18.5076   1
  -7   0   6 11.4835 9.03520   2
  -6   0   6 32.1504 10.4404   2
  -6   0   6 56.8211 15.5831   1
  -5   0   6 8.87106 4.72486   2
  -5   0   6 17.7274 8.39766   1
  -4   0   6 512.844 26.7107   1
  -4   0   6 319.605 21.7451   2
  -3   0   6 132.625 12.3983   1
  -3   0   6 79.0578 10.0737   2
  -2   0   6 475.617 20.2457   2
  -2   0   6 747.399 22.6252   1
   1   0   6 618.149 19.0342  -2
  -1   0   6 618.149 19.0342   1
   0   0   6 2119.72 38.5569  -2
   0   0   6 2119.72 38.5569   1
  -1   0   6 542.634 14.4381  -2
   1   0   6 542.634 14.4381   1
   2   0   6 95.3587 8.42542   2
   2   0   6 125.742 13.5858   1
   3   0   6 82.0530 8.25618   2
   3   0   6 137.873 14.9542   1
   4   0   6 20.3006 4.59730   2
   4   0   6 47.9448 10.0226   1
   5   0   6 45.9035 10.2411   1
   5   0   6 30.0276 10.5879   2
   6   0   6 108.985 21.5558   2
   6   0   6 172.270 28.3296   1
   7   0   6 14.7947 11.6776   1
  -7   1   6 464.597 43.2811   2
  -7   1   6 856.539 65.8007   1
  -6   1   6 22.1814 9.82045   1
  -6   1   6 10.6152 8.04565   2
  -5   1   6 63.3255 13.1742   1
  -5   1   6 29.3105 9.39283   2
   4  -1   5 415.515 18.2550  -2
  -4   1   6 415.515 18.2550   1
   3  -1   5 1140.08 29.1345  -2
  -3   1   6 1140.08 29.1345   1
   2  -1   5 382.822 15.6403  -2
  -2   1   6 382.822 15.6403   1
  -2   1   6 227.345 11.1160   2
  -1   1   6 1218.31 28.9857   1
  -1   1   6 704.587 17.3913   2
   0   1   6 229.666 13.1066   1
   0   1   6 128.899 8.99462   2
   1   1   6 1054.39 23.6509   2
   1   1   6 1682.80 31.1053   1
   2   1   6 435.660 14.6800   2
   2   1   6 709.551 27.9610   1
   3   1   6 730.484 29.5252   1
   3   1   6 483.796 15.7229   2
   4   1   6 -1.8717 6.52483   1
  -4  -1   6 488.433 29.8877  -2
   4   1   6 488.433 29.8877   1
  -5  -1   6 109.584 12.6617  -2
   5   1   6 109.584 12.6617   1
  -6  -1   6 243.804 19.2691  -2
   6   1   6 243.804 19.2691   1
  -7  -1   6 428.463 57.1545  -2
   7   1   6 428.463 57.1545   1
   7   1   6 325.382 50.0759   1
   7  -2   4 125.204 22.6775  -2
  -7   2   6 125.204 22.6775   1
   6  -2   4 90.2629 13.8373  -2
  -6   2   6 90.2629 13.8373   1
   5  -2   4 611.727 31.7030  -2
  -5   2   6 611.727 31.7030   1
  -5   2   6 462.605 57.4226   2
  -4   2   6 25.3789 5.30644   2
  -4   2   6 33.2762 8.66762   1
  -3   2   6 -2.0664 3.25076   1
  -3   2   6 -1.0242 2.40317   2
  -2   2   6 75.4063 6.84779   2
  -2   2   6 141.851 11.9287   1
  -1   2   6 1648.56 31.3946   2
  -1   2   6 2681.42 47.9711   1
   0   2   6 614.787 18.2752   1
   0   2   6 392.905 13.4457   2
  -1  -2   5 111.000 7.90728  -2
   1   2   6 111.000 7.90728   1
   1   2   6 74.5884 11.2143   2
  -2  -2   5 220.019 9.88515  -2
   2   2   6 220.019 9.88515   1
  -3  -2   5 1573.13 42.4600  -2
   3   2   6 1573.13 42.4600   1
  -4  -2   5 1289.79 51.1688  -2
   4   2   6 1289.79 51.1688   1
   4   2   6 830.195 50.0331   1
   4   2   6 536.795 37.2730   2
   5   2   6 200.498 20.2698   1
   5   2   6 118.440 14.9419   2
   6   2   6 153.415 25.0729   2
   6   2   6 290.103 25.2344   1
   7   2   6 94.0595 21.6389   1
   7   2   6 90.8990 20.3163   2
  -7   3   6 105.045 21.0437   2
  -7   3   6 171.028 29.3574   1
  -6   3   6 574.861 42.3384   1
  -6   3   6 337.356 35.3974   2
  -5   3   6 8.12960 6.68247   1
  -5   3   6 10.3043 7.36068   2
  -4   3   6 100.366 15.4602   1
  -4   3   6 52.0661 7.63905   2
  -3   3   6 113.433 9.79168   2
  -3   3   6 188.131 13.5292   1
  -2   3   6 56.3832 15.1742   1
  -2   3   6 46.3164 7.24955   2
   2  -3   4 345.431 17.0659  -2
  -2   3   6 345.431 17.0659   1
   1  -3   4 476.096 16.6566  -2
  -1   3   6 476.096 16.6566   1
   0  -3   4 409.237 15.1226  -2
   0   3   6 409.237 15.1226   1
   1   3   6 217.028 9.94682   2
  -1  -3   4 410.690 17.0230  -2
   1   3   6 410.690 17.0230   1
   1   3   6 365.950 36.0725   1
   2   3   6 46.9168 8.26355   2
   2   3   6 62.2316 6.70381   1
   3   3   6 49.6178 6.75016   1
   3   3   6 17.2977 5.55142   2
   4   3   6 176.715 18.1837   2
   4   3   6 260.722 13.8543   1
   5   3   6 53.3612 10.9016   1
   5   3   6 37.0160 10.3367   2
   6   3   6 192.074 19.5613   2
   6   3   6 283.559 25.4611   1
  -7  -3   5 35.6639 19.4360  -2
   7   3   6 35.6639 19.4360   1
  -7   4   6 97.0066 18.5449   1
  -7   4   6 53.4138 15.4985   2
  -6   4   6 71.7996 14.5620   1
  -6   4   6 43.0109 13.2000   2
   5  -4   3 928.891 41.3577  -2
  -5   4   6 928.891 41.3577   1
   4  -4   3 415.096 25.0662  -2
  -4   4   6 415.096 25.0662   1
   3  -4   3 480.729 25.0635  -2
  -3   4   6 480.729 25.0635   1
  -2   4   6 133.452 13.0190   1
  -2   4   6 87.4755 10.8307   2
   2  -4   3 1572.95 81.4836  -2
  -2   4   6 1572.95 81.4836   1
  -1   4   6 248.195 14.5567   2
  -1   4   6 387.560 16.0952   1
   0   4   6 172.133 11.8243   2
   0   4   6 251.430 13.8540   1
   1   4   6 1553.96 32.0248   1
   1   4   6 936.090 23.2720   2
   2   4   6 101.343 5.98160   2
   2   4   6 166.706 11.5265   1
   3   4   6 786.245 22.6072   1
   3   4   6 505.492 26.8725   2
  -4  -4   4 484.880 19.0286  -2
   4   4   6 484.880 19.0286   1
   4   4   6 45.5058 15.0548   2
  -5  -4   4 987.476 37.0208  -2
   5   4   6 987.476 37.0208   1
  -6  -4   4 144.622 18.6236  -2
   6   4   6 144.622 18.6236   1
   7   4   6 -5.1395 9.96670   2
  -7  -4   4 14.8225 18.2675  -2
   7   4   6 14.8225 18.2675   1
   7   4   6 9.19986 11.4914   1
   6  -5   2 174.160 19.5605  -2
  -6   5   6 174.160 19.5605   1
   5  -5   2 -0.8187 12.8642  -2
  -5   5   6 -0.8187 12.8642   1
  -5   5   6 4.45085 6.29823   2
  -5   5   6 -10.701 15.1645   1
  -4   5   6 -0.9731 4.49929   2
  -4   5   6 -2.4838 5.77695   1
  -3   5   6 1127.33 29.8582   2
  -3   5   6 1845.09 63.9885   1
  -2   5   6 51.2025 6.77804   1
  -2   5   6 28.3153 5.64264   2
  -1   5   6 113.213 10.5021   1
  -1   5   6 62.5814 8.10190   2
   0   5   6 2.36082 3.09057   2
   0   5   6 6.56168 2.44079   1
  -1  -5   3 1165.48 26.7198  -2
   1   5   6 1165.48 26.7198   1
   1   5   6 770.187 29.1956   2
  -2  -5   3 411.517 15.6158  -2
   2   5   6 411.517 15.6158   1
  -3  -5   3 226.191 12.3878  -2
   3   5   6 226.191 12.3878   1
   3   5   6 122.059 24.5637   2
   4   5   6 216.956 15.2199   1
   4   5   6 135.046 16.1642   2
   5   5   6 1047.83 31.4009   1
   5   5   6 682.960 39.0253   2
   6   5   6 72.7744 13.6955   2
   6   5   6 119.789 15.8444   1
   7   5   6 203.868 22.2013   2
   7   5   6 337.657 36.6372   1
  -6   6   6 -4.1678 7.88612   1
  -6   6   6 17.6771 10.7077   2
  -5   6   6 58.7962 12.2537   1
  -5   6   6 27.7947 7.90518   2
  -4   6   6 241.683 25.6495   1
  -4   6   6 130.078 16.3211   2
  -3   6   6 38.0117 8.48164   1
  -3   6   6 15.2226 6.24712   2
   2  -6   2 315.667 15.3489  -2
  -2   6   6 315.667 15.3489   1
   1  -6   2 517.123 18.6121  -2
  -1   6   6 517.123 18.6121   1
   0  -6   2 694.466 20.2018  -2
   0   6   6 694.466 20.2018   1
   1   6   6 20.7323 4.84770   2
   1   6   6 29.2441 7.65806   1
   2   6   6 149.698 15.8015   1
   2   6   6 110.567 10.4604   2
   3   6   6 322.443 23.6565   1
   3   6   6 249.179 20.7031   2
   4   6   6 163.562 18.7255   2
   4   6   6 254.559 21.6429   1
   5   6   6 -4.7375 4.68498   1
   5   6   6 0.43881 5.46151   2
   6   6   6 -3.2969 7.29297   2
  -6  -6   3 299.550 29.1996  -2
   6   6   6 299.550 29.1996   1
  -7  -6   3 183.494 23.2128  -2
   7   6   6 183.494 23.2128   1
   5  -7   1 27.9761 18.1117  -2
  -5   7   6 27.9761 18.1117   1
   4  -7   1 446.424 28.1700  -2
  -4   7   6 446.424 28.1700   1
   3  -7   1 352.953 23.7239  -2
  -3   7   6 352.953 23.7239   1
  -2   7   6 126.082 22.3979   1
  -2   7   6 86.3954 10.4660   2
  -1   7   6 489.056 23.1118   2
  -1   7   6 776.850 32.7371   1
   0   7   6 479.788 27.1304   1
   0   7   6 286.209 18.3528   2
   1   7   6 165.148 13.8561   2
   1   7   6 257.654 21.7658   1
   2   7   6 25.6033 7.31452   1
   2   7   6 24.9768 5.69200   2
   3   7   6 676.251 67.2725   2
  -3  -7   2 897.454 35.8350  -2
   3   7   6 897.454 35.8350   1
  -4  -7   2 123.539 13.5629  -2
   4   7   6 123.539 13.5629   1
  -5  -7   2 438.955 26.5640  -2
   5   7   6 438.955 26.5640   1
   6   7   6 16.5595 13.2359   2
  -6  -7   2 128.973 19.6827  -2
   6   7   6 128.973 19.6827   1
   7   7   6 256.823 33.3222   1
   7   7   6 155.656 26.0465   2
  -5   8   6 347.033 30.2283   2
  -5   8   6 584.882 57.7268   1
  -4   8   6 47.9949 9.12496   2
  -4   8   6 93.5162 20.1717   1
  -3   8   6 4.18618 9.44406   1
  -3   8   6 10.0106 6.08743   2
  -2   8   6 167.845 27.4352   1
  -2   8   6 113.519 15.1053   2
  -1   8   6 722.886 27.2580   2
  -1   8   6 1083.77 41.3648   1
   0  -8   1 352.422 22.8846  -2
   0   8   6 352.422 22.8846   1
  -1  -8   1 99.1757 12.3558  -2
   1   8   6 99.1757 12.3558   1
  -2  -8   1 448.546 25.2962  -2
   2   8   6 448.546 25.2962   1
   3   8   6 491.396 55.6612   1
   3   8   6 322.301 47.7359   2
  -3  -8   1 645.358 39.6257  -2
   3   8   6 645.358 39.6257   1
   4   8   6 -4.7431 6.24514   2
   4   8   6 8.55710 5.80859   1
   5   8   6 218.978 32.7161   2
   5   8   6 330.854 28.3414   1
   6   8   6 -0.2130 7.93193   1
   6   8   6 4.85455 8.79301   2
  -4   9   6 11.5773 9.51495   2
  -4   9   6 20.8666 12.4457   1
  -3   9   0 235.908 31.1230  -2
  -3   9   6 235.908 31.1230   1
  -2   9   0 418.657 37.3451  -2
  -2   9   6 418.657 37.3451   1
  -1   9   0 275.258 30.1110  -2
  -1   9   6 275.258 30.1110   1
   0   9   6 10.7501 7.01482   2
   0   9   6 35.2605 10.8863   1
   0   9   0 33.0863 25.7972  -2
   0   9   6 33.0863 25.7972   1
   1   9   6 479.315 33.3357   1
   1   9   6 292.000 24.9389   2
   2   9   6 66.6367 12.2320   1
   2   9   6 34.4895 9.32936   2
   3   9   6 -6.4965 4.85492   1
   3   9   6 7.41863 7.92901   2
   4   9   6 16.3324 6.65781   1
   4   9   6 2.13384 7.69595   2
   5   9   6 58.8546 17.3519   2
  -5  -9   1 76.7005 29.8715  -2
   5   9   6 76.7005 29.8715   1
   5   9   6 68.2973 22.9676   1
  -6  -9   1 84.1703 27.4664  -2
   6   9   6 84.1703 27.4664   1
  -3  10   6 30.5461 24.6367   1
  -3  10   1 107.992 33.3974  -2
  -3  10   6 107.992 33.3974   1
  -3  10   6 10.2842 11.9038   2
  -2  10   6 45.1581 14.8595   1
  -2  10   6 19.1678 10.1898   2
  -1  10   6 121.007 23.7237   1
  -1  10   6 85.8046 11.7683   2
   0  10   6 6.85459 5.87916   2
   0  10   6 11.0695 10.0795   1
   1  10   6 338.897 28.6092   2
   1  10   6 461.425 33.8681   1
   2  10   6 19.0316 7.80800   2
   2  10   0 168.442 37.7356  -2
   2  10   6 168.442 37.7356   1
   2  10   6 24.0201 13.1936   1
   3  10   0 123.279 19.6310  -2
   3  10   6 123.279 19.6310   1
   4  10   0 154.022 17.1505  -2
   4  10   6 154.022 17.1505   1
   5  10   0 237.271 28.4643  -2
   5  10   6 237.271 28.4643   1
  -2  11   6 -4.1438 10.9509   1
  -2  11   6 3.09128 9.11050   2
  -1  11   1 121.792 37.9823  -2
  -1  11   6 121.792 37.9823   1
  -1  11   6 55.1050 22.0206   1
  -1  11   6 14.8651 15.8506   2
   0  11   1 176.492 18.8132  -2
   0  11   6 176.492 18.8132   1
   1  11   1 553.384 34.3390  -2
   1  11   6 553.384 34.3390   1
   2  11   1 36.3252 18.7341  -2
   2  11   6 36.3252 18.7341   1
   3  11   6 274.409 33.9429   1
   3  11   6 218.091 33.5520   2
   4  11   6 25.6962 13.6660   1
   4  11   6 9.46749 11.9523   2
   1  12   6 23.2175 8.76411   1
   1  12   6 25.6096 9.45735   2
   2  12   6 1.31132 9.65228   2
   2  12   6 7.82008 8.91209   1
  -3  -9   7 13.0161 9.86315   1
  -3  -9   7 -1.7189 9.24818   2
  -2  -9   7 651.117 55.2108   1
  -2  -9   7 396.140 41.7067   2
  -1  -9   7 4.63794 9.01062   2
  -1  -9   7 19.8657 9.54297   1
   0   9  13 113.195 32.5398  -2
   0  -9   7 113.195 32.5398   1
  -4  -8   7 22.5736 9.45340   2
  -4  -8   7 33.9661 10.1316   1
   3   8  12 50.3426 15.6741  -2
  -3  -8   7 50.3426 15.6741   1
  -3  -8   7 -0.0729 14.4545   1
   2   8  12 292.362 23.5631  -2
  -2  -8   7 292.362 23.5631   1
   1   8  12 188.934 18.5463  -2
  -1  -8   7 188.934 18.5463   1
   0   8  12 123.314 16.0815  -2
   0  -8   7 123.314 16.0815   1
   1  -8   7 52.2524 16.0023   1
   1  -8   7 10.4043 10.7862   2
   2  -8   7 12.8115 12.2512   2
   2  -8   7 36.0866 12.9269   1
   5   7  11 192.446 20.8896  -2
  -5  -7   7 192.446 20.8896   1
   4   7  11 522.824 32.3432  -2
  -4  -7   7 522.824 32.3432   1
   3   7  11 80.7475 16.4446  -2
  -3  -7   7 80.7475 16.4446   1
  -3  -7   7 28.5035 19.7100   1
  -2  -7   7 6.25841 6.28244   1
  -2  -7   7 5.36350 6.82660   2
  -1  -7   7 44.8099 10.1531   1
  -1  -7   7 21.1012 7.90631   2
   0  -7   7 558.337 35.0781   2
   0  -7   7 979.225 41.1844   1
   1  -7   7 17.2051 6.38085   2
   1  -7   7 2.37200 8.61745   1
   2  -7   7 54.4023 13.4962   1
   2  -7   7 70.1581 16.3513   2
  -3   7  12 148.299 22.7161  -2
   3  -7   7 148.299 22.7161   1
   6   6  10 243.409 27.7308  -2
  -6  -6   7 243.409 27.7308   1
  -6  -6   7 204.400 39.9342   1
  -5  -6   7 14.2035 7.35518   1
  -5  -6   7 11.1656 8.75904   2
  -4  -6   7 461.012 34.8480   1
  -4  -6   7 271.429 32.0151   2
  -3  -6   7 262.166 30.5236   2
  -3  -6   7 445.577 32.9659   1
  -2  -6   7 154.594 18.6704   1
  -2  -6   7 104.915 18.9985   2
  -1  -6   7 115.215 15.4397   1
  -1  -6   7 95.0936 17.4431   2
   0   6  11 132.456 14.4744  -2
   0  -6   7 132.456 14.4744   1
  -1   6  11 158.118 12.7585  -2
   1  -6   7 158.118 12.7585   1
  -2   6  11 611.545 32.2045  -2
   2  -6   7 611.545 32.2045   1
   3  -6   7 92.0988 28.2908   1
  -3   6  11 281.719 37.4107  -2
   3  -6   7 281.719 37.4107   1
   3  -6   7 -1.6635 10.7884   2
   4  -6   7 3.22757 7.71939   2
   4  -6   7 6.20885 9.57153   1
  -6  -5   7 65.5459 17.5702   1
  -6  -5   7 44.9517 13.5011   2
  -5  -5   7 -2.6491 6.21568   1
  -5  -5   7 -0.4048 6.46115   2
  -4  -5   7 294.888 47.8155   2
  -4  -5   7 581.745 38.6991   1
   3   5  10 52.6521 11.3750  -2
  -3  -5   7 52.6521 11.3750   1
   2   5  10 376.725 23.7586  -2
  -2  -5   7 376.725 23.7586   1
   1   5  10 840.237 34.0328  -2
  -1  -5   7 840.237 34.0328   1
   0  -5   7 27.1031 5.83174   1
   0  -5   7 16.3381 7.17316   2
   1  -5   7 101.400 11.4158   2
   1  -5   7 163.312 15.0407   1
   2  -5   7 0.41015 4.07773   2
   2  -5   7 3.55317 5.87500   1
   3  -5   7 181.555 22.2882   1
   3  -5   7 131.152 17.4483   2
   4  -5   7 2.13878 6.57795   2
   4  -5   7 6.24777 10.6194   1
   5  -5   7 11.4736 11.7478   1
  -7  -4   7 89.2704 17.6599   2
  -7  -4   7 108.000 34.2807   1
   6   4   9 31.4775 11.8274  -2
  -6  -4   7 31.4775 11.8274   1
   5   4   9 240.778 25.7082  -2
  -5  -4   7 240.778 25.7082   1
   4   4   9 479.916 34.8886  -2
  -4  -4   7 479.916 34.8886   1
  -3  -4   7 622.439 37.9836   2
  -3  -4   7 900.703 39.0666   1
  -2  -4   7 1176.17 39.9012   2
  -2  -4   7 1882.90 54.2231   1
  -1  -4   7 85.5262 12.2915   1
  -1  -4   7 46.3794 7.60138   2
   0  -4   7 14.6530 5.11186   2
   0  -4   7 21.6696 4.84060   1
   1  -4   7 11.2401 4.24340   2
   1  -4   7 2.72146 3.31820   1
   2  -4   7 494.096 54.0031   1
  -2   4  10 531.954 34.1081  -2
   2  -4   7 531.954 34.1081   1
  -3   4  10 324.111 21.9428  -2
   3  -4   7 324.111 21.9428   1
  -4   4  10 9.66018 7.65519  -2
   4  -4   7 9.66018 7.65519   1
  -5   4  10 553.038 42.3245  -2
   5  -4   7 553.038 42.3245   1
   7   3   8 10.4014 15.9595  -2
  -7  -3   7 10.4014 15.9595   1
  -6  -3   7 378.706 33.7246   1
  -6  -3   7 242.207 28.3810   2
  -5  -3   7 243.700 25.5013   1
  -5  -3   7 142.296 16.4087   2
  -4  -3   7 158.842 18.8363   1
  -4  -3   7 76.4019 11.5221   2
  -3  -3   7 39.1125 8.70553   2
  -3  -3   7 60.5021 11.3351   1
  -2  -3   7 203.336 18.4462   2
  -2  -3   7 380.935 26.3269   1
   1   3   9 1602.17 46.1338  -2
  -1  -3   7 1602.17 46.1338   1
   0   3   9 438.992 17.1950  -2
   0  -3   7 438.992 17.1950   1
  -1   3   9 994.351 30.4708  -2
   1  -3   7 994.351 30.4708   1
  -2   3   9 119.306 13.4297  -2
   2  -3   7 119.306 13.4297   1
   3  -3   7 149.749 18.6747   1
   3  -3   7 122.845 12.4895   2
   4  -3   7 868.670 41.9512   1
   4  -3   7 593.766 41.8915   2
   5  -3   7 56.9086 14.7548   1
   5  -3   7 30.2515 12.2648   2
   6  -3   7 43.9003 17.6271   1
   6  -3   7 19.2277 10.6812   2
  -7  -2   7 97.4903 19.3985   2
  -7  -2   7 103.680 24.6116   1
  -6  -2   7 31.2827 9.04594   2
  -6  -2   7 37.2709 13.5204   1
  -5  -2   7 3.09103 6.09374   1
  -5  -2   7 4.79659 4.83849   2
   4   2   8 114.140 14.8106  -2
  -4  -2   7 114.140 14.8106   1
  -4  -2   7 43.6586 17.0127   2
   3   2   8 455.507 30.7497  -2
  -3  -2   7 455.507 30.7497   1
   2   2   8 436.683 29.2515  -2
  -2  -2   7 436.683 29.2515   1
   1   2   8 100.594 8.83544  -2
  -1  -2   7 100.594 8.83544   1
   0  -2   7 335.220 16.3990   1
   0  -2   7 195.463 13.7417   2
   1  -2   7 101.213 10.2037   2
   1  -2   7 153.492 11.3093   1
   2  -2   7 37.1362 6.31968   2
   2  -2   7 71.1687 11.2582   1
   3  -2   7 106.903 10.8577   2
   3  -2   7 155.894 18.0930   1
   4  -2   7 5.99049 5.83280   1
   4  -2   7 -1.8827 4.84348   2
   5  -2   7 144.740 32.5758   1
  -5   2   9 92.7028 27.4153  -2
   5  -2   7 92.7028 27.4153   1
  -6   2   9 343.100 32.4469  -2
   6  -2   7 343.100 32.4469   1
   7   1   7 171.340 27.5806  -2
  -7  -1   7 171.340 27.5806   1
  -7  -1   7 99.7569 30.1542   2
   6   1   7 19.3505 12.1953  -2
  -6  -1   7 19.3505 12.1953   1
   5   1   7 374.445 23.9351  -2
  -5  -1   7 374.445 23.9351   1
  -4  -1   7 149.081 28.3862   2
   4   1   7 236.638 18.7049  -2
  -4  -1   7 236.638 18.7049   1
  -3  -1   7 193.459 16.7370   2
  -3  -1   7 310.851 24.8265   1
  -2  -1   7 0.86510 3.33359   1
  -2  -1   7 1.80865 3.28139   2
  -1  -1   7 153.904 9.30136   2
  -1  -1   7 276.435 16.5766   1
   0  -1   7 953.032 24.7215   2
   0  -1   7 1516.59 42.8256   1
   1  -1   7 718.202 29.0284   1
   1  -1   7 457.115 17.1743   2
  -2   1   8 579.260 25.4968  -2
   2  -1   7 579.260 25.4968   1
  -3   1   8 1199.53 39.4405  -2
   3  -1   7 1199.53 39.4405   1
  -4   1   8 17.7880 7.58385  -2
   4  -1   7 17.7880 7.58385   1
   5  -1   7 214.625 29.9792   1
  -5   1   8 366.177 34.3374  -2
   5  -1   7 366.177 34.3374   1
   5  -1   7 143.507 33.4935   2
   6  -1   7 409.735 44.9222   1
   6  -1   7 195.510 29.2552   2
   7  -1   7 62.5766 19.7121   2
   7  -1   7 95.6310 24.3324   1
  -7   0   7 406.877 40.8033   2
   7   0   6 597.705 47.8356  -2
  -7   0   7 597.705 47.8356   1
  -6   0   7 -5.5321 5.39282   2
  -6   0   7 1.52719 7.74188   1
  -5   0   7 70.9826 17.3945   1
  -5   0   7 36.1896 8.30367   2
  -4   0   7 214.032 21.0703   1
  -4   0   7 139.426 14.8928   2
  -3   0   7 1285.18 37.6473   2
  -3   0   7 2074.07 45.7773   1
  -2   0   7 240.835 21.6943   2
  -2   0   7 510.927 20.8661   1
   1   0   7 589.399 19.6607  -2
  -1   0   7 589.399 19.6607   1
   0   0   7 108.637 8.17351  -2
   0   0   7 108.637 8.17351   1
  -1   0   7 885.165 21.5801  -2
   1   0   7 885.165 21.5801   1
   2   0   7 1511.31 33.0232   2
  -2   0   7 2431.00 98.1187  -2
   2   0   7 2431.00 98.1187   1
   2   0   7 2164.80 67.4156   1
   3   0   7 175.933 12.7088   2
   3   0   7 329.861 24.6377   1
   4   0   7 247.806 22.5778   1
   4   0   7 140.991 15.2765   2
   5   0   7 153.262 18.6098   1
   5   0   7 129.345 21.8752   2
   6   0   7 236.182 32.3654   2
   6   0   7 431.994 45.0162   1
   7   0   7 352.066 43.6299   1
  -7   1   7 133.103 25.8076   1
  -7   1   7 56.8968 16.2084   2
  -6   1   7 63.1295 15.9075   1
  -6   1   7 26.3575 9.44527   2
   5  -1   6 29.3161 20.6396  -2
  -5   1   7 29.3161 20.6396   1
  -5   1   7 2.54779 5.75643   2
  -5   1   7 4.95969 9.65617   1
   4  -1   6 20.0556 6.08926  -2
  -4   1   7 20.0556 6.08926   1
   3  -1   6 134.720 10.6769  -2
  -3   1   7 134.720 10.6769   1
   2  -1   6 867.522 25.2497  -2
  -2   1   7 867.522 25.2497   1
  -2   1   7 274.350 35.9454   2
  -1   1   7 991.489 27.1760   1
  -1   1   7 622.839 17.6851   2
   0   1   7 17.7356 4.51360   1
   0   1   7 10.5641 3.05303   2
   1   1   7 178.001 9.15551   1
   1   1   7 96.9039 9.82150   2
   2   1   7 18.7089 6.44986   1
   2   1   7 9.42451 3.05766   2
   3   1   7 1005.57 36.0088   1
   3   1   7 656.167 18.4573   2
  -4  -1   7 215.329 21.2371  -2
   4   1   7 215.329 21.2371   1
   4   1   7 28.3326 13.9358   1
  -5  -1   7 265.609 19.7036  -2
   5   1   7 265.609 19.7036   1
  -6  -1   7 15.0619 8.00762  -2
   6   1   7 15.0619 8.00762   1
  -7  -1   7 115.274 32.8047  -2
   7   1   7 115.274 32.8047   1
   7   1   7 40.8335 19.4927   1
   7  -2   5 568.587 46.1173  -2
  -7   2   7 568.587 46.1173   1
   6  -2   5 257.701 28.2832  -2
  -6   2   7 257.701 28.2832   1
   5  -2   5 23.8664 9.86939  -2
  -5   2   7 23.8664 9.86939   1
  -5   2   7 8.90978 12.0950   2
  -4   2   7 5.74564 5.70638   1
  -4   2   7 8.53970 4.68135   2
  -3   2   7 37.9724 5.29764   2
  -3   2   7 68.5883 9.23742   1
  -2   2   7 798.048 25.2327   1
  -2   2   7 479.232 15.5397   2
  -1   2   7 1051.64 27.9255   1
  -1   2   7 645.157 18.0397   2
   0   2   7 91.7648 8.01837   2
   0   2   7 137.080 10.9214   1
  -1  -2   6 1229.44 27.9642  -2
   1   2   7 1229.44 27.9642   1
   1   2   7 237.576 29.2972   2
  -2  -2   6 271.059 10.4595  -2
   2   2   7 271.059 10.4595   1
  -3  -2   6 1354.71 47.0600  -2
   3   2   7 1354.71 47.0600   1
   4   2   7 261.883 33.7486   1
  -4  -2   6 265.878 24.0796  -2
   4   2   7 265.878 24.0796   1
   5   2   7 75.2571 12.2800   2
   5   2   7 161.177 19.0349   1
   6   2   7 3.30528 7.13257   2
   6   2   7 6.64345 5.80503   1
   7   2   7 129.495 26.2321   1
   7   2   7 76.0400 17.4664   2
  -7   3   7 -8.5396 6.91074   2
  -7   3   7 18.4759 11.8894   1
  -6   3   7 87.4130 16.3274   1
  -6   3   7 54.4870 13.0139   2
  -5   3   7 915.884 47.0729   1
  -5   3   7 561.233 43.9694   2
  -4   3   7 15.8653 6.59262   1
  -4   3   7 2.61971 4.47988   2
  -3   3   7 20.4117 4.35975   2
  -3   3   7 32.0610 6.24005   1
   2  -3   5 54.0445 7.30646  -2
  -2   3   7 54.0445 7.30646   1
  -2   3   7 20.8767 5.13016   2
   1  -3   5 2951.33 53.0048  -2
  -1   3   7 2951.33 53.0048   1
   0  -3   5 2631.35 47.8904  -2
   0   3   7 2631.35 47.8904   1
  -1  -3   5 1305.15 29.8769  -2
   1   3   7 1305.15 29.8769   1
   1   3   7 482.289 16.1046   2
   2   3   7 22.9377 4.49292   1
   2   3   7 18.5144 5.69548   2
   3   3   7 566.912 19.2625   1
   3   3   7 375.614 25.6272   2
   4   3   7 330.378 25.4452   1
   4   3   7 204.854 20.0131   2
   5   3   7 258.010 23.0913   2
   5   3   7 408.346 28.9024   1
   6   3   7 4.25494 5.35835   2
   6   3   7 3.27418 5.98527   1
  -7  -3   6 263.747 39.1813  -2
   7   3   7 263.747 39.1813   1
  -6   4   7 112.222 18.9272   1
  -6   4   7 50.8725 14.8122   2
   5  -4   4 74.2771 13.9446  -2
  -5   4   7 74.2771 13.9446   1
   4  -4   4 850.964 37.2297  -2
  -4   4   7 850.964 37.2297   1
   3  -4   4 116.758 12.8920  -2
  -3   4   7 116.758 12.8920   1
  -2   4   7 26.1792 6.09801   2
  -2   4   7 44.4933 11.0902   1
   2  -4   4 45.8502 9.12564  -2
  -2   4   7 45.8502 9.12564   1
  -1   4   7 81.6581 8.38288   2
  -1   4   7 118.195 11.0049   1
   0   4   7 10.7804 3.44011   2
   0   4   7 14.9731 4.50720   1
   1   4   7 2625.69 47.3951   1
   1   4   7 1683.70 34.1769   2
   2   4   7 119.844 10.0046   1
   2   4   7 77.5643 11.3093   2
   3   4   7 2.84835 4.53370   2
   3   4   7 -1.6270 3.03501   1
  -4  -4   5 46.1542 9.29255  -2
   4   4   7 46.1542 9.29255   1
  -5  -4   5 156.876 18.1525  -2
   5   4   7 156.876 18.1525   1
  -6  -4   5 59.9133 14.1080  -2
   6   4   7 59.9133 14.1080   1
   7   4   7 99.2958 21.6850   1
  -7  -4   5 124.957 27.0636  -2
   7   4   7 124.957 27.0636   1
   7   4   7 86.0432 28.5347   2
   6  -5   3 58.2023 13.7840  -2
  -6   5   7 58.2023 13.7840   1
  -5   5   7 70.9457 16.0595   2
  -5   5   7 88.5921 31.9367   1
   5  -5   3 124.811 21.6029  -2
  -5   5   7 124.811 21.6029   1
  -4   5   7 101.512 16.0082   1
  -4   5   7 50.0851 9.38576   2
  -3   5   7 114.212 15.9314   1
  -3   5   7 72.9519 8.96337   2
  -2   5   7 7.49190 4.45687   1
  -2   5   7 8.44233 3.86758   2
  -1   5   7 89.2439 10.0341   1
  -1   5   7 43.1612 6.82853   2
   0   5   7 3.51336 3.09330   2
   0   5   7 0.09933 3.00439   1
  -1  -5   4 1834.03 38.6158  -2
   1   5   7 1834.03 38.6158   1
  -2  -5   4 498.406 17.9208  -2
   2   5   7 498.406 17.9208   1
  -3  -5   4 392.503 16.8730  -2
   3   5   7 392.503 16.8730   1
   3   5   7 200.718 32.1832   2
   4   5   7 8.98529 4.14820   1
   4   5   7 12.5101 6.26883   2
   5   5   7 27.2891 8.95352   2
   5   5   7 37.8469 9.34625   1
   6   5   7 70.8109 16.7627   1
   6   5   7 38.4551 10.6320   2
   7   5   7 10.5039 9.85427   1
   7   5   7 14.1195 9.81834   2
  -6   6   7 -0.2199 8.05268   2
  -6   6   7 16.4495 9.66258   1
  -5   6   7 49.8868 12.9771   1
  -5   6   7 33.8168 11.9577   2
  -4   6   7 83.2220 14.6321   1
  -4   6   7 49.7205 9.93868   2
  -3   6   7 653.176 33.6456   2
  -3   6   7 970.660 42.0424   1
   2  -6   3 677.540 23.4330  -2
  -2   6   7 677.540 23.4330   1
   1  -6   3 122.908 9.10281  -2
  -1   6   7 122.908 9.10281   1
   0  -6   3 160.345 9.80704  -2
   0   6   7 160.345 9.80704   1
   1   6   7 641.984 22.8345   2
   1   6   7 1041.59 36.0550   1
   2   6   7 166.781 16.7242   1
   2   6   7 107.558 10.1651   2
   3   6   7 797.402 34.4960   2
   3   6   7 1168.33 39.3338   1
   4   6   7 4.78962 4.36883   1
   4   6   7 -3.8440 4.55963   2
   5   6   7 251.802 31.2550   1
   5   6   7 173.274 20.4430   2
  -6  -6   4 9.81095 13.3777  -2
   6   6   7 9.81095 13.3777   1
   6   6   7 -0.8215 8.05510   2
  -7  -6   4 373.040 34.0686  -2
   7   6   7 373.040 34.0686   1
   5  -7   2 364.150 27.5710  -2
  -5   7   7 364.150 27.5710   1
   4  -7   2 24.1006 8.37430  -2
  -4   7   7 24.1006 8.37430   1
   3  -7   2 99.0825 13.5648  -2
  -3   7   7 99.0825 13.5648   1
  -2   7   7 122.880 12.5645   2
  -2   7   7 179.548 27.2315   1
  -1   7   7 530.788 24.7265   2
  -1   7   7 877.724 35.1626   1
   0   7   7 61.3584 11.0333   1
   0   7   7 32.6763 6.88399   2
   1   7   7 157.015 17.5092   1
   1   7   7 121.198 11.7965   2
   2   7   7 16.3568 6.43031   2
   2   7   7 13.7343 6.07566   1
   3   7   7 232.429 38.5435   2
  -3  -7   3 506.052 27.1754  -2
   3   7   7 506.052 27.1754   1
  -4  -7   3 350.591 22.9711  -2
   4   7   7 350.591 22.9711   1
  -5  -7   3 90.3871 16.0254  -2
   5   7   7 90.3871 16.0254   1
  -6  -7   3 168.806 23.4743  -2
   6   7   7 168.806 23.4743   1
  -5   8   7 38.1951 21.5465   1
  -5   8   7 11.0126 14.9194   2
  -4   8   7 8.46634 6.66786   2
  -4   8   7 -6.7976 9.85543   1
  -3   8   7 5.98250 9.07735   1
  -3   8   7 6.62800 6.40619   2
  -2   8   7 11.9491 9.54448   1
  -2   8   7 4.20964 4.53850   2
  -1   8   7 222.195 17.8102   2
  -1   8   7 324.447 25.7392   1
   0  -8   2 227.871 18.9021  -2
   0   8   7 227.871 18.9021   1
  -1  -8   2 195.142 17.2694  -2
   1   8   7 195.142 17.2694   1
  -2  -8   2 62.1383 11.1935  -2
   2   8   7 62.1383 11.1935   1
   3   8   7 34.0136 16.4917   2
  -3  -8   2 61.3528 12.2340  -2
   3   8   7 61.3528 12.2340   1
   4   8   7 106.523 20.2718   2
   4   8   7 179.023 20.6628   1
   5   8   7 24.9677 12.5691   2
   5   8   7 82.3835 14.1105   1
   6   8   7 10.7834 10.9712   1
   6   8   7 6.14642 10.5609   2
  -4   9   7 20.3302 13.3598   1
  -4   9   7 1.84105 10.4466   2
   3  -9   1 119.721 24.1827  -2
  -3   9   7 119.721 24.1827   1
   2  -9   1 167.614 24.3185  -2
  -2   9   7 167.614 24.3185   1
   1  -9   1 362.180 34.4420  -2
  -1   9   7 362.180 34.4420   1
   0   9   7 11.9945 9.68521   1
   0  -9   1 447.584 39.9793  -2
   0   9   7 447.584 39.9793   1
   0   9   7 15.3247 6.17206   2
   1   9   7 257.775 23.3018   2
   1   9   7 375.317 29.7505   1
   2   9   7 111.051 16.3317   1
   2   9   7 98.3837 19.4795   2
   3   9   7 269.585 34.2922   2
   3   9   7 413.158 31.3863   1
   4   9   7 -1.0054 5.65144   1
   4   9   7 10.5187 9.27110   2
   5   9   7 424.799 46.9017   2
  -5  -9   2 546.099 55.9279  -2
   5   9   7 546.099 55.9279   1
   5   9   7 598.948 50.4213   1
  -3  10   7 365.298 54.5827   2
  -3  10   7 577.071 73.7544   1
  -2  10   7 28.7710 15.4704   1
  -2  10   7 0.13938 7.76651   2
  -1  10   7 88.1530 22.3580   1
  -1  10   7 74.5860 12.5052   2
   0  10   7 37.3857 9.49306   1
   0  10   7 19.6960 7.64893   2
   1  10   7 351.457 33.6658   1
   1  10   7 201.792 21.5544   2
   2  10   7 -3.0810 8.64297   1
   2  10   7 0.33949 7.99655   2
  -2 -10   1 77.3622 17.2846  -2
   2  10   7 77.3622 17.2846   1
  -3 -10   1 60.4057 10.2026  -2
   3  10   7 60.4057 10.2026   1
  -4 -10   1 82.2296 13.0500  -2
   4  10   7 82.2296 13.0500   1
  -5 -10   1 269.248 30.0217  -2
   5  10   7 269.248 30.0217   1
  -1  11   7 84.6279 29.0117   2
  -1  11   0 110.818 36.3825  -2
  -1  11   7 110.818 36.3825   1
  -1  11   7 57.3319 23.8085   1
   0  11   0 72.1364 13.8931  -2
   0  11   7 72.1364 13.8931   1
   1  11   0 89.7971 18.1485  -2
   1  11   7 89.7971 18.1485   1
   2  11   0 134.837 21.4717  -2
   2  11   7 134.837 21.4717   1
   3  11   7 81.6647 18.8957   1
   3  11   7 49.0010 16.9763   2
   4  11   7 13.1105 8.84731   1
   4  11   7 3.51506 10.5590   2
   3   8  13 210.662 21.8611  -2
  -3  -8   8 210.662 21.8611   1
   2   8  13 157.431 18.5755  -2
  -2  -8   8 157.431 18.5755   1
   1   8  13 239.015 20.8203  -2
  -1  -8   8 239.015 20.8203   1
   0   8  13 499.821 41.8298  -2
   0  -8   8 499.821 41.8298   1
   1  -8   8 21.9473 12.4194   2
   1  -8   8 24.8099 13.3717   1
   4   7  12 217.431 21.3611  -2
  -4  -7   8 217.431 21.3611   1
   3   7  12 35.3705 13.9814  -2
  -3  -7   8 35.3705 13.9814   1
  -3  -7   8 22.3580 23.3964   1
  -2  -7   8 55.1178 15.0306   2
  -2  -7   8 50.3616 11.1147   1
  -1  -7   8 310.322 33.2183   2
  -1  -7   8 518.090 34.8209   1
   0  -7   8 171.187 27.6042   1
   0  -7   8 150.090 18.7955   2
   1  -7   8 167.947 28.2716   1
   1  -7   8 97.0077 14.8118   2
   2  -7   8 16.5872 11.3180   1
   2  -7   8 13.6396 10.8250   2
  -3   7  13 35.2204 17.3444  -2
   3  -7   8 35.2204 17.3444   1
  -5  -6   8 401.461 35.4889   1
  -5  -6   8 253.266 33.1704   2
  -4  -6   8 210.855 24.2220   1
  -4  -6   8 107.137 20.5335   2
  -3  -6   8 23.4165 8.27522   1
  -3  -6   8 9.11368 7.21807   2
  -2  -6   8 -5.4825 6.14279   2
  -2  -6   8 -4.6351 5.35388   1
   1   6  12 9.29735 18.4909  -2
  -1  -6   8 9.29735 18.4909   1
  -1  -6   8 -1.4820 9.69999   2
  -1  -6   8 11.4251 8.16860   1
   0   6  12 457.738 27.0518  -2
   0  -6   8 457.738 27.0518   1
  -1   6  12 501.035 36.9002  -2
   1  -6   8 501.035 36.9002   1
  -2   6  12 482.250 29.0873  -2
   2  -6   8 482.250 29.0873   1
  -3   6  12 84.4461 20.3838  -2
   3  -6   8 84.4461 20.3838   1
   3  -6   8 93.1900 33.2400   1
   3  -6   8 34.4803 18.7267   2
   4  -6   8 6.54179 10.5156   2
   4  -6   8 22.5326 14.3756   1
  -6  -5   8 165.204 24.1290   1
  -6  -5   8 120.814 22.2884   2
  -5  -5   8 29.9591 11.7287   2
  -5  -5   8 59.4441 13.0020   1
   4   5  11 182.252 34.8321  -2
  -4  -5   8 182.252 34.8321   1
  -4  -5   8 182.070 26.6612   1
  -4  -5   8 102.828 29.7724   2
   3   5  11 517.828 30.4817  -2
  -3  -5   8 517.828 30.4817   1
   2   5  11 851.624 38.0438  -2
  -2  -5   8 851.624 38.0438   1
   1   5  11 155.929 15.4489  -2
  -1  -5   8 155.929 15.4489   1
   0  -5   8 57.2413 11.8744   1
   0  -5   8 37.7257 10.0105   2
   0   5  11 56.3120 23.5902  -2
   0  -5   8 56.3120 23.5902   1
   1  -5   8 200.290 21.8782   1
   1  -5   8 137.994 14.0780   2
   2  -5   8 1412.04 52.7469   1
   2  -5   8 1024.23 38.5123   2
   3  -5   8 -3.7535 5.83666   2
   3  -5   8 5.97912 7.25096   1
   4  -5   8 2.76172 6.59950   2
   4  -5   8 0.04744 9.55437   1
   6   4  10 94.1763 15.7149  -2
  -6  -4   8 94.1763 15.7149   1
   5   4  10 291.457 23.5116  -2
  -5  -4   8 291.457 23.5116   1
   4   4  10 229.561 24.7337  -2
  -4  -4   8 229.561 24.7337   1
  -3  -4   8 16.9838 7.10485   1
  -3  -4   8 -4.2313 7.00644   2
  -2  -4   8 924.835 37.7680   1
  -2  -4   8 548.912 33.5129   2
  -1  -4   8 258.631 17.4756   2
  -1  -4   8 377.072 26.9912   1
   0  -4   8 0.53096 3.27052   1
   0  -4   8 4.53348 5.01257   2
   1  -4   8 266.033 18.9496   2
   1  -4   8 352.733 28.6098   1
  -2   4  11 130.851 15.3553  -2
   2  -4   8 130.851 15.3553   1
  -3   4  11 781.630 35.2152  -2
   3  -4   8 781.630 35.2152   1
  -4   4  11 351.137 23.9097  -2
   4  -4   8 351.137 23.9097   1
  -5   4  11 11.4968 14.9299  -2
   5  -4   8 11.4968 14.9299   1
  -6  -3   8 30.3460 10.2988   2
  -6  -3   8 62.0056 18.5814   1
  -5  -3   8 7.51954 6.23815   2
  -5  -3   8 5.83956 7.13050   1
  -4  -3   8 226.461 24.7892   1
  -4  -3   8 117.120 18.4826   2
  -3  -3   8 19.6201 6.93225   2
  -3  -3   8 32.1518 9.02225   1
  -2  -3   8 357.940 25.8514   2
  -2  -3   8 523.455 29.4965   1
   1   3  10 917.294 35.1427  -2
  -1  -3   8 917.294 35.1427   1
   0   3  10 470.337 18.7662  -2
   0  -3   8 470.337 18.7662   1
  -1   3  10 573.877 27.3904  -2
   1  -3   8 573.877 27.3904   1
  -2   3  10 213.839 17.8456  -2
   2  -3   8 213.839 17.8456   1
   3  -3   8 443.268 31.7952   1
   3  -3   8 339.013 21.1510   2
   4  -3   8 178.666 21.6348   1
   4  -3   8 71.1354 17.1127   2
   5  -3   8 391.529 44.3927   1
   5  -3   8 256.391 34.2890   2
  -7  -2   8 24.0105 13.2041   2
  -7  -2   8 69.8677 19.4527   1
  -6  -2   8 159.088 18.4401   2
  -6  -2   8 259.033 36.1921   1
  -5  -2   8 498.773 32.4391   2
  -5  -2   8 933.268 52.1932   1
   4   2   9 501.025 28.9043  -2
  -4  -2   8 501.025 28.9043   1
   3   2   9 868.825 36.1544  -2
  -3  -2   8 868.825 36.1544   1
   2   2   9 61.0534 13.3946  -2
  -2  -2   8 61.0534 13.3946   1
   1   2   9 1484.90 41.2800  -2
  -1  -2   8 1484.90 41.2800   1
   0  -2   8 686.093 22.8859   1
   0  -2   8 437.223 20.4007   2
   1  -2   8 204.201 11.9820   1
   1  -2   8 116.705 11.4919   2
   2  -2   8 7.83467 3.80572   2
   2  -2   8 9.29651 6.18673   1
   3  -2   8 -4.9372 3.46926   2
   3  -2   8 6.74566 5.94988   1
   4  -2   8 876.484 43.1980   1
   4  -2   8 565.856 47.0437   2
  -5   2  10 508.901 38.9257  -2
   5  -2   8 508.901 38.9257   1
  -6   2  10 27.4643 14.5416  -2
   6  -2   8 27.4643 14.5416   1
   7   1   8 158.014 28.0811  -2
  -7  -1   8 158.014 28.0811   1
   6   1   8 66.6070 15.7550  -2
  -6  -1   8 66.6070 15.7550   1
   5   1   8 205.467 18.3575  -2
  -5  -1   8 205.467 18.3575   1
   4   1   8 87.5909 13.1969  -2
  -4  -1   8 87.5909 13.1969   1
  -4  -1   8 89.6088 23.5532   2
  -3  -1   8 367.448 28.1567   1
  -3  -1   8 210.611 18.6017   2
  -2  -1   8 39.4552 8.46957   2
  -2  -1   8 55.6066 8.12953   1
  -1  -1   8 203.200 11.0592   2
  -1  -1   8 369.241 18.6316   1
   0  -1   8 250.870 19.0193   1
   0  -1   8 141.786 11.5622   2
   1  -1   8 1354.74 31.8510   1
   1  -1   8 875.302 25.5493   2
  -2   1   9 233.752 17.2371  -2
   2  -1   8 233.752 17.2371   1
  -3   1   9 22.6455 7.03716  -2
   3  -1   8 22.6455 7.03716   1
  -4   1   9 121.002 13.1224  -2
   4  -1   8 121.002 13.1224   1
  -5   1   9 79.7310 18.8156  -2
   5  -1   8 79.7310 18.8156   1
   5  -1   8 21.5571 11.6202   1
   5  -1   8 26.1388 13.9904   2
   6  -1   8 104.797 22.6569   2
   6  -1   8 123.190 25.1325   1
   7   0   7 277.352 34.0575  -2
  -7   0   8 277.352 34.0575   1
  -7   0   8 50.8984 12.7148   2
  -6   0   8 4.24476 7.82444   1
  -6   0   8 -4.6921 5.53169   2
  -5   0   8 166.826 26.6626   1
  -5   0   8 85.7157 12.9525   2
  -4   0   8 105.038 13.3486   2
  -4   0   8 186.242 20.4697   1
  -3   0   8 2.58692 3.98277   1
  -3   0   8 4.54287 3.49358   2
  -2   0   8 107.168 11.3050   1
  -2   0   8 79.1568 13.9872   2
   1   0   8 1238.17 31.4204  -2
  -1   0   8 1238.17 31.4204   1
   0   0   8 71.9520 7.61438  -2
   0   0   8 71.9520 7.61438   1
  -1   0   8 1618.15 36.7403  -2
   1   0   8 1618.15 36.7403   1
   2   0   8 4.98669 3.53008   2
   2   0   8 -5.0164 4.31066   1
  -2   0   8 86.4542 18.5998  -2
   2   0   8 86.4542 18.5998   1
   3   0   8 235.849 20.0137   2
   3   0   8 332.110 26.5013   1
   4   0   8 -5.9181 4.65949   1
   4   0   8 1.83419 4.29398   2
   5   0   8 24.6432 8.27548   1
   5   0   8 28.4060 10.8096   2
   6   0   8 43.3526 13.7945   2
   6   0   8 76.4073 19.0313   1
  -7   1   8 327.375 36.2558   2
  -7   1   8 528.548 54.8449   1
  -6   1   8 1.63274 8.56006   1
  -6   1   8 -4.2655 7.00184   2
   5  -1   7 370.499 45.9851  -2
  -5   1   8 370.499 45.9851   1
  -5   1   8 352.241 55.7768   1
  -5   1   8 200.219 25.1670   2
   4  -1   7 17.3201 7.82708  -2
  -4   1   8 17.3201 7.82708   1
   3  -1   7 1314.08 34.4557  -2
  -3   1   8 1314.08 34.4557   1
   2  -1   7 891.515 27.2232  -2
  -2   1   8 891.515 27.2232   1
  -1   1   8 16.7093 4.38766   1
  -1   1   8 13.6009 3.88655   2
   0   1   8 38.2861 6.79834   2
   0   1   8 81.4534 8.54123   1
   1   1   8 168.871 12.1167   2
   1   1   8 251.734 11.7790   1
   2   1   8 822.305 32.4699   1
   2   1   8 549.528 17.7728   2
   3   1   8 384.503 25.6545   2
   3   1   8 675.148 33.8472   1
   4   1   8 10.0156 10.1816   1
  -4  -1   8 102.625 16.9149  -2
   4   1   8 102.625 16.9149   1
  -5  -1   8 256.518 20.1642  -2
   5   1   8 256.518 20.1642   1
  -6  -1   8 129.625 14.9829  -2
   6   1   8 129.625 14.9829   1
  -7  -1   8 244.476 45.0051  -2
   7   1   8 244.476 45.0051   1
   7   1   8 207.374 41.4570   1
   7  -2   6 193.125 28.6390  -2
  -7   2   8 193.125 28.6390   1
   6  -2   6 202.522 25.6042  -2
  -6   2   8 202.522 25.6042   1
   5  -2   6 399.458 33.9232  -2
  -5   2   8 399.458 33.9232   1
  -5   2   8 208.946 38.4792   2
  -4   2   8 33.3838 6.81625   2
  -4   2   8 66.2830 12.7367   1
  -3   2   8 68.2285 9.87578   2
  -3   2   8 109.647 12.0151   1
  -2   2   8 52.2337 8.11097   1
  -2   2   8 31.2881 4.38473   2
  -1   2   8 2989.04 55.7447   1
  -1   2   8 1873.58 36.8489   2
   0   2   8 45.6999 6.68449   1
   0   2   8 25.6243 4.64831   2
  -1  -2   7 84.4077 7.92211  -2
   1   2   8 84.4077 7.92211   1
  -2  -2   7 370.496 20.8048  -2
   2   2   8 370.496 20.8048   1
  -3  -2   7 482.288 28.4832  -2
   3   2   8 482.288 28.4832   1
  -4  -2   7 153.415 19.0570  -2
   4   2   8 153.415 19.0570   1
   4   2   8 81.3643 20.7308   1
   5   2   8 29.1530 8.20823   2
   5   2   8 70.6675 12.8001   1
   6   2   8 167.137 21.2875   1
   6   2   8 78.8029 18.3071   2
   7   2   8 46.3437 15.0321   2
   7   2   8 101.807 23.0051   1
  -6   3   8 44.1216 12.4897   1
  -6   3   8 6.14127 7.30923   2
  -5   3   8 5.44817 5.04391   2
  -5   3   8 5.86240 5.96831   1
  -4   3   8 5.54067 5.55699   1
  -4   3   8 0.16149 4.52218   2
  -3   3   8 4.96009 4.55818   2
  -3   3   8 18.1150 5.27823   1
  -2   3   8 2.81592 3.01081   2
   2  -3   6 3.25016 6.01415  -2
  -2   3   8 3.25016 6.01415   1
   1  -3   6 115.755 9.77793  -2
  -1   3   8 115.755 9.77793   1
   0  -3   6 95.4997 8.49563  -2
   0   3   8 95.4997 8.49563   1
  -1  -3   6 1063.15 27.6472  -2
   1   3   8 1063.15 27.6472   1
   1   3   8 610.333 42.2071   2
   2   3   8 7.36353 4.65755   2
   2   3   8 11.7119 3.67082   1
   3   3   8 71.4392 11.4323   2
   3   3   8 104.296 14.0780   1
   4   3   8 7.95154 6.19305   2
   4   3   8 25.8258 7.25955   1
   5   3   8 299.311 25.8079   1
   5   3   8 164.968 18.9381   2
   6   3   8 47.2917 14.9835   1
   6   3   8 33.4466 8.47204   2
  -6  -3   7 320.669 39.4073  -2
   6   3   8 320.669 39.4073   1
  -7  -3   7 17.4131 20.4666  -2
   7   3   8 17.4131 20.4666   1
  -6   4   8 -4.4778 7.30568   1
  -6   4   8 4.72020 8.35283   2
   5  -4   5 1315.14 51.1701  -2
  -5   4   8 1315.14 51.1701   1
   4  -4   5 114.437 14.0915  -2
  -4   4   8 114.437 14.0915   1
   3  -4   5 70.4919 10.8304  -2
  -3   4   8 70.4919 10.8304   1
  -2   4   8 4.99547 3.90248   2
   2  -4   5 559.587 21.2940  -2
  -2   4   8 559.587 21.2940   1
  -1   4   8 413.496 21.9393   1
  -1   4   8 279.254 16.3902   2
   0   4   8 549.348 20.2553   1
   0   4   8 353.017 16.5143   2
   1   4   8 1541.04 34.8587   1
   1   4   8 954.614 24.0951   2
   2   4   8 5.87376 4.92948   2
   2   4   8 4.16090 3.05305   1
  -3  -4   6 748.551 53.9774  -2
   3   4   8 748.551 53.9774   1
   3   4   8 452.942 29.0603   2
   3   4   8 625.590 34.8572   1
  -4  -4   6 130.514 14.4593  -2
   4   4   8 130.514 14.4593   1
  -5  -4   6 647.707 32.5429  -2
   5   4   8 647.707 32.5429   1
  -6  -4   6 204.524 21.9504  -2
   6   4   8 204.524 21.9504   1
  -7  -4   6 410.218 47.2661  -2
   7   4   8 410.218 47.2661   1
   7   4   8 176.809 41.3737   2
   7   4   8 275.552 35.8905   1
   6  -5   4 231.969 22.3862  -2
  -6   5   8 231.969 22.3862   1
   5  -5   4 6.71544 14.0904  -2
  -5   5   8 6.71544 14.0904   1
  -5   5   8 11.0336 7.27046   2
  -5   5   8 11.3937 17.3876   1
  -4   5   8 3.25475 6.50149   1
  -4   5   8 6.87483 6.27497   2
  -3   5   8 962.286 28.7197   2
  -3   5   8 1587.42 53.0893   1
  -2   5   8 12.0457 4.52823   2
  -2   5   8 20.0036 4.95793   1
  -1   5   8 139.710 12.4942   2
  -1   5   8 232.596 16.5507   1
   0   5   8 78.4483 8.98557   2
   0   5   8 130.620 11.8406   1
  -1  -5   5 1493.26 35.6601  -2
   1   5   8 1493.26 35.6601   1
  -2  -5   5 491.603 18.8948  -2
   2   5   8 491.603 18.8948   1
  -3  -5   5 81.7506 9.13766  -2
   3   5   8 81.7506 9.13766   1
   4   5   8 13.0689 5.35201   1
   4   5   8 10.5244 5.78927   2
   5   5   8 140.810 16.4450   1
   5   5   8 104.662 15.6970   2
   6   5   8 24.2391 10.7200   1
   6   5   8 3.13878 6.19389   2
   7   5   8 215.738 32.5993   2
   7   5   8 389.599 41.2428   1
  -5   6   8 19.7711 9.18416   1
  -5   6   8 0.75259 7.22610   2
  -4   6   8 -2.8138 5.36404   2
  -4   6   8 3.69842 6.99544   1
  -3   6   8 59.4474 13.2848   1
  -3   6   8 42.0590 8.95425   2
   3  -6   4 262.827 43.5314  -2
  -3   6   8 262.827 43.5314   1
   2  -6   4 6.81609 5.43101  -2
  -2   6   8 6.81609 5.43101   1
   1  -6   4 386.128 17.2572  -2
  -1   6   8 386.128 17.2572   1
   0  -6   4 676.903 29.3089  -2
   0   6   8 676.903 29.3089   1
   1   6   8 537.214 28.3579   1
   1   6   8 351.771 18.2163   2
   2   6   8 0.39547 4.36678   2
   2   6   8 -2.5731 3.57195   1
   3   6   8 945.078 36.6708   1
   3   6   8 625.335 33.2859   2
   4   6   8 133.575 21.2975   1
   4   6   8 67.9609 12.7502   2
   5   6   8 7.03249 6.43097   2
   5   6   8 -4.2537 6.05128   1
  -6  -6   5 101.669 19.1527  -2
   6   6   8 101.669 19.1527   1
   6   6   8 4.84532 8.19512   2
   5  -7   3 -9.6057 11.3849  -2
  -5   7   8 -9.6057 11.3849   1
   4  -7   3 308.150 23.2649  -2
  -4   7   8 308.150 23.2649   1
   3  -7   3 371.953 34.6965  -2
  -3   7   8 371.953 34.6965   1
  -2   7   8 -6.2183 7.97822   1
  -2   7   8 0.11821 4.12609   2
  -1   7   8 80.1376 10.6133   2
  -1   7   8 127.793 16.2877   1
   0   7   8 5.05523 4.66507   1
   0   7   8 2.75972 3.93893   2
   1   7   8 84.0228 10.2138   2
   1   7   8 124.850 15.2627   1
   2   7   8 0.64928 4.20613   2
   2   7   8 10.0449 4.92095   1
   3   7   8 835.520 62.7970   2
  -3  -7   4 1434.33 48.1213  -2
   3   7   8 1434.33 48.1213   1
  -4  -7   4 281.224 27.3841  -2
   4   7   8 281.224 27.3841   1
  -5  -7   4 405.824 34.2079  -2
   5   7   8 405.824 34.2079   1
  -6  -7   4 172.176 25.0623  -2
   6   7   8 172.176 25.0623   1
   6   7   8 -2.4125 11.9911   2
  -4   8   8 10.9463 9.76865   1
  -4   8   8 1.22777 6.58345   2
  -3   8   8 6.10874 9.78718   1
  -3   8   8 -1.8388 5.48343   2
  -2   8   8 2.44643 4.60516   2
  -2   8   8 3.01554 9.80683   1
  -1   8   8 1178.16 44.8548   1
  -1   8   8 784.313 29.8003   2
   0  -8   3 23.6596 9.95637  -2
   0   8   8 23.6596 9.95637   1
   0   8   8 15.4792 9.97895   2
  -1  -8   3 371.666 24.9978  -2
   1   8   8 371.666 24.9978   1
  -2  -8   3 302.320 21.2822  -2
   2   8   8 302.320 21.2822   1
   3   8   8 227.686 39.3616   2
  -3  -8   3 413.641 26.2136  -2
   3   8   8 413.641 26.2136   1
   4   8   8 7.27890 5.63406   1
   4   8   8 4.92134 7.72505   2
   5   8   8 595.605 51.4348   1
   5   8   8 297.546 37.7420   2
   6   8   8 13.3028 10.8465   1
   6   8   8 8.56326 12.0726   2
  -4   9   8 16.4699 16.4426   1
   3  -9   2 152.193 25.5815  -2
  -3   9   8 152.193 25.5815   1
   2  -9   2 332.768 32.9032  -2
  -2   9   8 332.768 32.9032   1
   1  -9   2 128.549 22.1575  -2
  -1   9   8 128.549 22.1575   1
   0   9   8 7.73342 7.09917   1
   0   9   8 16.4543 8.52035   2
   0  -9   2 74.0241 18.4503  -2
   0   9   8 74.0241 18.4503   1
   1   9   8 202.547 27.3401   2
   1   9   8 334.184 28.2661   1
   2   9   8 98.8584 20.1419   2
   2   9   8 161.395 19.9660   1
   3   9   8 7.54184 6.54367   1
   3   9   8 6.74286 7.68311   2
   4   9   8 0.90766 8.28861   2
   4   9   8 -5.9903 5.64103   1
   5   9   8 -0.4906 9.32157   2
   5   9   8 -9.5106 14.8405   1
  -5  -9   3 26.8909 21.5785  -2
   5   9   8 26.8909 21.5785   1
  -3  10   8 99.4164 30.4457   1
  -2  10   8 14.0475 8.76993   2
  -2  10   8 13.5027 10.9727   1
  -1  10   8 12.7833 6.58931   2
  -1  10   8 20.2554 11.1705   1
   0  10   8 10.6219 6.35588   2
   0  10   8 8.97501 7.08149   1
   1  10   8 670.814 47.3603   1
   1  10   8 441.894 41.3655   2
   2  10   8 10.1055 7.66005   2
   2  10   8 -5.7081 7.96954   1
  -2 -10   2 83.8323 19.5772  -2
   2  10   8 83.8323 19.5772   1
  -3 -10   2 507.349 30.5423  -2
   3  10   8 507.349 30.5423   1
  -4 -10   2 30.7911 9.93321  -2
   4  10   8 30.7911 9.93321   1
   1 -11   1 321.260 58.6756  -2
  -1  11   8 321.260 58.6756   1
  -1  11   8 44.6670 19.3767   1
   0 -11   1 138.248 23.8259  -2
   0  11   8 138.248 23.8259   1
  -1 -11   1 370.308 34.3622  -2
   1  11   8 370.308 34.3622   1
  -2 -11   1 54.5754 17.8419  -2
   2  11   8 54.5754 17.8419   1
   3  11   8 135.060 26.0295   1
   3  11   8 113.017 24.2312   2
   2   8  14 38.6861 12.5204  -2
  -2  -8   9 38.6861 12.5204   1
   1   8  14 186.503 25.7243  -2
  -1  -8   9 186.503 25.7243   1
   0   8  14 207.867 27.8510  -2
   0  -8   9 207.867 27.8510   1
   4   7  13 500.150 33.0314  -2
  -4  -7   9 500.150 33.0314   1
   3   7  13 76.3152 15.8487  -2
  -3  -7   9 76.3152 15.8487   1
  -2  -7   9 13.6609 8.59122   2
  -2  -7   9 15.0141 7.94483   1
  -1  -7   9 108.668 21.2236   2
  -1  -7   9 156.939 19.6115   1
   0  -7   9 542.882 47.1143   2
   0  -7   9 630.667 54.1166   1
   1  -7   9 5.00176 7.56717   2
   1  -7   9 18.3384 11.2537   1
   2  -7   9 17.5277 11.6086   2
   2  -7   9 -5.6470 11.1422   1
  -5  -6   9 53.4096 13.1715   1
  -5  -6   9 60.0132 15.7937   2
  -4  -6   9 186.061 23.2754   1
  -4  -6   9 128.771 23.3279   2
  -3  -6   9 4.16945 6.03037   1
  -3  -6   9 -1.3199 6.54012   2
  -2  -6   9 6.47514 7.22245   2
  -2  -6   9 11.8652 6.11834   1
  -1  -6   9 176.197 37.8164   2
  -1  -6   9 343.003 34.9530   1
   1   6  13 430.611 52.5065  -2
  -1  -6   9 430.611 52.5065   1
   0   6  13 238.159 28.5500  -2
   0  -6   9 238.159 28.5500   1
  -1   6  13 479.455 38.6210  -2
   1  -6   9 479.455 38.6210   1
  -2   6  13 262.653 29.5670  -2
   2  -6   9 262.653 29.5670   1
  -3   6  13 23.6747 16.5536  -2
   3  -6   9 23.6747 16.5536   1
   3  -6   9 16.7674 15.8137   1
   3  -6   9 7.63453 14.6956   2
  -5  -5   9 350.556 42.6156   1
  -5  -5   9 239.494 32.3612   2
  -4  -5   9 4.00607 11.2622   2
   4   5  12 -1.3821 19.7854  -2
  -4  -5   9 -1.3821 19.7854   1
  -4  -5   9 -8.0481 15.0430   1
   3   5  12 131.141 16.1356  -2
  -3  -5   9 131.141 16.1356   1
   2   5  12 210.553 18.7091  -2
  -2  -5   9 210.553 18.7091   1
   1   5  12 16.6607 8.91466  -2
  -1  -5   9 16.6607 8.91466   1
   0   5  12 232.729 28.2749  -2
   0  -5   9 232.729 28.2749   1
   0  -5   9 81.9481 19.5473   2
   1  -5   9 467.617 44.8506   1
   1  -5   9 303.186 21.3900   2
   2  -5   9 6.13747 7.55413   1
   2  -5   9 7.20487 5.19141   2
   3  -5   9 465.729 36.0378   1
   3  -5   9 300.685 27.2568   2
   4  -5   9 7.79398 10.2234   2
   4  -5   9 34.3127 14.5074   1
   6   4  11 338.188 28.1807  -2
  -6  -4   9 338.188 28.1807   1
   5   4  11 297.074 24.7222  -2
  -5  -4   9 297.074 24.7222   1
   4   4  11 18.7095 12.6214  -2
  -4  -4   9 18.7095 12.6214   1
  -3  -4   9 486.679 34.9708   1
  -3  -4   9 280.745 30.8651   2
  -2  -4   9 147.648 17.7496   2
  -2  -4   9 188.404 20.2439   1
  -1  -4   9 3.44794 4.32723   1
  -1  -4   9 -1.7084 4.89655   2
   0  -4   9 5.93446 7.91145   1
   0  -4   9 0.28840 4.29193   2
   1  -4   9 62.6953 12.3732   1
   1  -4   9 42.8217 8.19871   2
  -2   4  12 524.284 29.8211  -2
   2  -4   9 524.284 29.8211   1
  -3   4  12 34.7976 10.8784  -2
   3  -4   9 34.7976 10.8784   1
  -4   4  12 202.133 19.4791  -2
   4  -4   9 202.133 19.4791   1
  -5   4  12 389.884 37.8515  -2
   5  -4   9 389.884 37.8515   1
  -6  -3   9 151.845 23.2212   2
  -6  -3   9 293.526 38.8983   1
  -5  -3   9 161.116 21.4982   1
  -5  -3   9 115.453 19.8967   2
  -4  -3   9 74.7093 15.1452   1
  -4  -3   9 46.3647 10.0565   2
  -3  -3   9 171.799 27.0500   1
  -3  -3   9 94.6345 14.1953   2
  -2  -3   9 158.304 16.9694   1
  -2  -3   9 86.9335 13.2714   2
   1   3  11 700.380 31.3384  -2
  -1  -3   9 700.380 31.3384   1
   0   3  11 535.703 25.9704  -2
   0  -3   9 535.703 25.9704   1
  -1   3  11 361.381 22.6226  -2
   1  -3   9 361.381 22.6226   1
  -2   3  11 406.978 24.8906  -2
   2  -3   9 406.978 24.8906   1
   3  -3   9 45.8160 11.6838   1
   3  -3   9 42.7975 8.00845   2
   4  -3   9 233.490 24.9869   1
   4  -3   9 157.097 25.4930   2
   5  -3   9 52.7394 15.9354   2
   5  -3   9 44.9711 17.1010   1
  -6  -2   9 67.7287 12.7104   2
  -6  -2   9 87.4756 20.0407   1
  -5  -2   9 113.242 18.4556   1
  -5  -2   9 82.7529 13.4340   2
   4   2  10 5.87850 9.08065  -2
  -4  -2   9 5.87850 9.08065   1
   3   2  10 233.838 19.2445  -2
  -3  -2   9 233.838 19.2445   1
   2   2  10 446.238 25.5329  -2
  -2  -2   9 446.238 25.5329   1
   1   2  10 487.513 34.8837  -2
  -1  -2   9 487.513 34.8837   1
   0  -2   9 37.2006 7.54704   2
   0  -2   9 68.9697 8.73526   1
   1  -2   9 573.269 22.9189   2
   1  -2   9 802.654 36.8422   1
   2  -2   9 2.28715 4.37685   2
   2  -2   9 3.59467 5.73680   1
   3  -2   9 160.824 19.9841   1
   3  -2   9 122.529 14.9505   2
   4  -2   9 -3.4134 6.02282   1
   4  -2   9 -0.0033 7.53809   2
  -5   2  11 650.004 46.6327  -2
   5  -2   9 650.004 46.6327   1
   6   1   9 3.27609 11.6838  -2
  -6  -1   9 3.27609 11.6838   1
   5   1   9 869.921 40.1459  -2
  -5  -1   9 869.921 40.1459   1
   4   1   9 336.516 24.1294  -2
  -4  -1   9 336.516 24.1294   1
  -4  -1   9 200.988 35.7107   2
  -3  -1   9 99.8516 16.9926   1
  -3  -1   9 57.9369 10.3952   2
  -2  -1   9 77.7151 12.8943   1
  -2  -1   9 40.9691 8.46454   2
  -1  -1   9 243.535 20.2732   2
  -1  -1   9 369.921 20.1412   1
   0  -1   9 237.810 15.5484   2
   0  -1   9 371.728 19.4173   1
   1  -1   9 205.376 14.5198   2
   1  -1   9 289.959 24.9689   1
  -2   1  10 229.124 18.0477  -2
   2  -1   9 229.124 18.0477   1
  -3   1  10 946.972 37.2858  -2
   3  -1   9 946.972 37.2858   1
  -4   1  10 146.330 15.5525  -2
   4  -1   9 146.330 15.5525   1
   5  -1   9 380.989 41.7534   1
  -5   1  10 420.054 42.6664  -2
   5  -1   9 420.054 42.6664   1
   5  -1   9 189.995 39.7993   2
   6  -1   9 117.906 24.7373   2
   6  -1   9 188.014 31.6620   1
  -6   0   9 -2.7464 6.67895   2
  -6   0   9 35.2613 11.6834   1
  -5   0   9 30.9656 8.17194   2
  -5   0   9 46.6578 15.4323   1
  -4   0   9 81.4269 14.0057   1
  -4   0   9 62.1163 10.7597   2
  -3   0   9 990.828 35.2991   2
  -3   0   9 1651.67 52.4254   1
  -2   0   9 298.073 21.7587   1
  -2   0   9 153.619 19.5477   2
   2   0   9 464.475 43.3047  -2
  -2   0   9 464.475 43.3047   1
   1   0   9 765.221 25.0325  -2
  -1   0   9 765.221 25.0325   1
   0   0   9 609.010 21.2611  -2
   0   0   9 609.010 21.2611   1
  -1   0   9 1073.17 46.6242  -2
   1   0   9 1073.17 46.6242   1
  -2   0   9 324.016 35.0471  -2
   2   0   9 324.016 35.0471   1
   2   0   9 181.533 15.5165   2
   2   0   9 267.338 29.2985   1
   3   0   9 96.4752 14.7442   2
   3   0   9 118.826 15.8597   1
   4   0   9 26.8009 8.21891   2
   4   0   9 46.6112 9.82622   1
   5   0   9 16.8287 8.31892   2
   5   0   9 4.55264 7.06532   1
   6   0   9 240.345 33.8239   1
   6   0   9 136.549 25.9884   2
  -6   1   9 -0.6296 7.79262   1
  -6   1   9 3.56461 7.95682   2
   5  -1   8 101.166 28.6103  -2
  -5   1   9 101.166 28.6103   1
  -5   1   9 52.4725 13.7235   2
  -5   1   9 70.4873 23.5602   1
   4  -1   8 80.5601 12.6084  -2
  -4   1   9 80.5601 12.6084   1
   3  -1   8 34.1101 6.85160  -2
  -3   1   9 34.1101 6.85160   1
   2  -1   8 170.501 12.7243  -2
  -2   1   9 170.501 12.7243   1
  -1   1   9 1046.24 30.9555   1
  -1   1   9 718.504 20.8142   2
   0   1   9 33.6500 6.50683   1
   0   1   9 14.6042 5.15324   2
   1   1   9 309.076 16.1546   2
   1   1   9 491.972 17.0503   1
   2   1   9 227.983 21.6611   1
   2   1   9 183.811 17.9533   2
   3   1   9 405.942 27.4217   2
   3   1   9 600.819 36.4283   1
  -4  -1   9 220.352 23.4024  -2
   4   1   9 220.352 23.4024   1
   4   1   9 61.3055 19.9061   1
  -5  -1   9 738.797 35.1530  -2
   5   1   9 738.797 35.1530   1
  -6  -1   9 -0.8976 8.10719  -2
   6   1   9 -0.8976 8.10719   1
   6  -2   7 222.441 26.3447  -2
  -6   2   9 222.441 26.3447   1
   5  -2   7 96.9838 17.7178  -2
  -5   2   9 96.9838 17.7178   1
  -5   2   9 67.4794 22.9207   2
  -4   2   9 52.7031 9.63083   2
  -4   2   9 108.958 16.3404   1
  -3   2   9 511.441 27.7612   1
  -3   2   9 257.720 19.7321   2
  -2   2   9 33.8669 7.85445   1
  -2   2   9 13.0794 5.65186   2
  -1   2   9 117.529 12.2062   1
  -1   2   9 84.9274 8.51190   2
   0   2   9 238.309 13.5763   2
   0   2   9 407.752 19.5205   1
  -1  -2   8 1167.79 29.3487  -2
   1   2   9 1167.79 29.3487   1
  -2  -2   8 78.2668 11.1013  -2
   2   2   9 78.2668 11.1013   1
  -3  -2   8 1234.04 50.1179  -2
   3   2   9 1234.04 50.1179   1
  -4  -2   8 394.937 27.9593  -2
   4   2   9 394.937 27.9593   1
   5   2   9 362.926 28.6520   2
   5   2   9 596.047 38.9550   1
   6   2   9 24.4153 11.6078   2
   6   2   9 12.1851 8.56615   1
  -6   3   9 12.9357 8.83314   2
  -6   3   9 27.2268 12.8730   1
  -5   3   9 1043.82 62.0087   1
  -5   3   9 611.536 46.6374   2
  -4   3   9 93.1387 12.5228   2
  -4   3   9 157.161 19.6248   1
  -3   3   9 43.5411 8.57131   2
  -3   3   9 65.4374 10.0097   1
   2  -3   7 139.203 11.5921  -2
  -2   3   9 139.203 11.5921   1
   1  -3   7 1529.74 38.0918  -2
  -1   3   9 1529.74 38.0918   1
   0  -3   7 290.963 15.1728  -2
   0   3   9 290.963 15.1728   1
  -1  -3   7 1022.92 28.0194  -2
   1   3   9 1022.92 28.0194   1
   2   3   9 76.7085 12.5435   2
   2   3   9 105.175 13.5400   1
   3   3   9 57.8053 10.4684   2
   3   3   9 87.6699 13.1086   1
   4   3   9 164.150 22.1452   2
   4   3   9 289.765 28.6340   1
   5   3   9 366.786 29.5878   2
   5   3   9 595.247 39.1036   1
  -6  -3   8 32.4659 20.4650  -2
   6   3   9 32.4659 20.4650   1
   6   3   9 5.56619 9.31286   2
   6   3   9 1.53748 8.68747   1
  -6   4   9 155.282 25.4149   1
  -6   4   9 79.4140 17.8884   2
   5  -4   6 24.3410 12.5560  -2
  -5   4   9 24.3410 12.5560   1
   4  -4   6 431.873 27.1308  -2
  -4   4   9 431.873 27.1308   1
   3  -4   6 349.165 22.6537  -2
  -3   4   9 349.165 22.6537   1
   2  -4   6 82.0786 9.59988  -2
  -2   4   9 82.0786 9.59988   1
  -2   4   9 45.3661 7.82330   2
  -1   4   9 142.616 12.0379   2
  -1   4   9 239.634 17.6131   1
   0   4   9 28.5763 4.87636   2
   0   4   9 35.3407 6.86053   1
   1   4   9 1392.42 34.0762   1
   1   4   9 889.687 35.6557   2
   2   4   9 14.3149 5.50484   2
   2   4   9 22.5354 5.05652   1
   3   4   9 48.8696 11.8634   1
   3   4   9 33.2402 8.14705   2
  -3  -4   7 675.908 53.4473  -2
   3   4   9 675.908 53.4473   1
  -4  -4   7 671.806 31.4775  -2
   4   4   9 671.806 31.4775   1
  -5  -4   7 220.428 19.5076  -2
   5   4   9 220.428 19.5076   1
  -6  -4   7 21.2077 11.5627  -2
   6   4   9 21.2077 11.5627   1
   6  -5   5 36.5737 23.0255  -2
  -6   5   9 36.5737 23.0255   1
   5  -5   5 224.280 27.9924  -2
  -5   5   9 224.280 27.9924   1
  -5   5   9 142.558 23.7634   2
  -5   5   9 154.332 42.4283   1
  -4   5   9 8.22604 7.35035   2
  -4   5   9 1.44371 5.91632   1
  -3   5   9 41.7338 10.1502   1
  -3   5   9 11.2614 5.64802   2
  -2   5   9 78.6670 11.2257   1
  -2   5   9 55.7830 8.23158   2
  -1   5   9 -2.3217 3.02121   2
  -1   5   9 7.75102 4.47490   1
   0   5   9 29.9325 6.04219   2
   0   5   9 52.5578 10.6918   1
   0  -5   6 105.498 15.8756  -2
   0   5   9 105.498 15.8756   1
  -1  -5   6 917.864 27.9424  -2
   1   5   9 917.864 27.9424   1
  -2  -5   6 837.071 26.4290  -2
   2   5   9 837.071 26.4290   1
  -3  -5   6 1127.74 39.7551  -2
   3   5   9 1127.74 39.7551   1
   4   5   9 12.1595 6.43214   2
   4   5   9 10.4108 8.38739   1
  -4  -5   6 55.9567 19.9522  -2
   4   5   9 55.9567 19.9522   1
   5   5   9 57.1082 15.2657   1
   5   5   9 37.4389 10.5140   2
   6   5   9 14.9685 8.93031   2
   6   5   9 69.4285 17.9900   1
  -5   6   9 3.99983 7.07415   2
  -5   6   9 -1.4532 8.50184   1
  -4   6   9 28.2637 9.66758   1
  -4   6   9 25.9947 9.99596   2
  -3   6   9 1149.73 79.3815   1
  -3   6   9 694.781 42.8493   2
   3  -6   5 1142.65 55.3816  -2
  -3   6   9 1142.65 55.3816   1
   2  -6   5 549.066 22.2793  -2
  -2   6   9 549.066 22.2793   1
   1  -6   5 25.9033 6.03507  -2
  -1   6   9 25.9033 6.03507   1
   0  -6   5 98.9020 12.4887  -2
   0   6   9 98.9020 12.4887   1
   1   6   9 284.675 23.0818   1
   1   6   9 169.674 18.1699   2
   2   6   9 35.2690 8.73347   2
   2   6   9 70.3317 11.7544   1
   3   6   9 716.307 52.0545   1
   3   6   9 378.977 28.8387   2
   4   6   9 26.1558 7.33146   2
   4   6   9 33.5016 12.0344   1
   5   6   9 187.792 21.9616   2
   5   6   9 330.549 36.8202   1
  -6  -6   6 184.499 25.9681  -2
   6   6   9 184.499 25.9681   1
   6   6   9 118.860 22.1136   2
   5  -7   4 29.5580 17.0184  -2
  -5   7   9 29.5580 17.0184   1
   4  -7   4 184.012 25.8222  -2
  -4   7   9 184.012 25.8222   1
   3  -7   4 23.9695 15.2111  -2
  -3   7   9 23.9695 15.2111   1
  -2   7   9 35.8985 7.62267   2
  -2   7   9 62.0029 17.0983   1
  -1   7   9 494.096 32.6107   1
  -1   7   9 360.181 22.1698   2
   0   7   9 22.1707 5.70180   2
   0   7   9 34.1541 8.83241   1
   1   7   9 10.7260 5.53078   2
   1   7   9 6.31891 5.34107   1
   2   7   9 -0.8134 4.84968   2
   2   7   9 6.44799 4.84396   1
  -3  -7   5 796.923 34.8516  -2
   3   7   9 796.923 34.8516   1
   3   7   9 274.499 42.4901   2
  -4  -7   5 288.461 29.0842  -2
   4   7   9 288.461 29.0842   1
  -5  -7   5 13.1411 11.1874  -2
   5   7   9 13.1411 11.1874   1
  -6  -7   5 72.9516 17.9038  -2
   6   7   9 72.9516 17.9038   1
  -4   8   9 116.089 24.5525   1
  -4   8   9 56.4165 14.7488   2
  -3   8   9 2.46081 6.10268   2
  -3   8   9 -1.5927 10.0512   1
  -2   8   9 41.8007 13.8484   1
  -2   8   9 40.1668 6.84899   2
  -1   8   9 193.924 20.3135   1
  -1   8   9 103.573 12.5756   2
   0  -8   4 1165.85 44.4898  -2
   0   8   9 1165.85 44.4898   1
   0   8   9 312.843 37.0984   2
  -1  -8   4 267.486 21.5351  -2
   1   8   9 267.486 21.5351   1
  -2  -8   4 21.0833 7.57432  -2
   2   8   9 21.0833 7.57432   1
  -3  -8   4 276.687 21.2116  -2
   3   8   9 276.687 21.2116   1
   3   8   9 135.496 31.8471   2
   4   8   9 -9.3162 6.61934   1
   4   8   9 12.4614 7.27231   2
   5   8   9 115.461 22.9066   1
   5   8   9 90.6528 19.7503   2
   3  -9   3 32.1488 18.4117  -2
  -3   9   9 32.1488 18.4117   1
   2  -9   3 -8.0452 11.6376  -2
  -2   9   9 -8.0452 11.6376   1
   1  -9   3 151.620 23.9276  -2
  -1   9   9 151.620 23.9276   1
   0   9   9 8.41302 15.7921   1
   0  -9   3 450.136 32.9308  -2
   0   9   9 450.136 32.9308   1
   0   9   9 37.3776 9.13088   2
   1   9   9 142.336 17.7806   1
   1   9   9 109.122 19.8287   2
   2   9   9 117.535 21.6243   2
   2   9   9 180.991 20.8705   1
   3   9   9 322.194 28.3439   1
   3   9   9 213.424 30.1245   2
   4   9   9 22.1166 10.9504   1
   4   9   9 6.77346 8.17502   2
   5   9   9 213.598 33.9856   2
  -5  -9   4 427.095 50.6178  -2
   5   9   9 427.095 50.6178   1
   5   9   9 349.469 64.5828   1
  -2  10   9 21.5782 10.1488   2
  -2  10   9 23.2404 13.4013   1
  -1  10   9 67.6656 11.8685   2
  -1  10   9 109.187 24.0476   1
   0  10   9 41.3890 10.3871   1
   0  10   9 20.5844 9.54723   2
   1  10   9 276.269 27.7245   1
   1  10   9 168.518 25.4110   2
   2  10   9 269.893 42.1369   1
  -2 -10   3 392.675 34.4725  -2
   2  10   9 392.675 34.4725   1
   2  10   9 194.578 29.1728   2
  -3 -10   3 78.6512 13.2838  -2
   3  10   9 78.6512 13.2838   1
  -4 -10   3 -10.111 9.57615  -2
   4  10   9 -10.111 9.57615   1
  -1  11   9 5.69977 15.2024   1
  -1  11   9 0.94564 14.5069   2
   0 -11   2 58.0216 16.2106  -2
   0  11   9 58.0216 16.2106   1
  -1 -11   2 37.6674 10.2879  -2
   1  11   9 37.6674 10.2879   1
  -2 -11   2 361.442 27.9743  -2
   2  11   9 361.442 27.9743   1
   3  11   9 69.7933 19.0545   1
   3  11   9 101.153 21.9206   2
  -3 -11   2 115.066 30.8565  -2
   3  11   9 115.066 30.8565   1
   3   7  14 208.695 42.8740  -2
  -3  -7  10 208.695 42.8740   1
  -2  -7  10 1.70599 6.89481   1
  -2  -7  10 -6.2525 8.22388   2
  -1  -7  10 100.176 21.0929   2
  -1  -7  10 200.423 32.9246   1
   0  -7  10 21.6512 12.8269   2
   0  -7  10 26.5934 11.2213   1
   1  -7  10 163.040 24.9883   2
   1  -7  10 331.224 38.3429   1
  -4  -6  10 136.565 20.2608   1
  -4  -6  10 76.3016 17.9455   2
  -3  -6  10 58.7820 13.4286   1
  -3  -6  10 33.5706 11.9904   2
  -2  -6  10 6.52136 7.68988   1
  -2  -6  10 11.7851 8.42857   2
  -1  -6  10 256.241 58.0008   1
  -1  -6  10 163.710 38.3673   2
   1   6  14 319.926 48.4732  -2
  -1  -6  10 319.926 48.4732   1
   0   6  14 270.369 32.3244  -2
   0  -6  10 270.369 32.3244   1
  -1   6  14 500.454 40.4422  -2
   1  -6  10 500.454 40.4422   1
  -2   6  14 136.756 22.7971  -2
   2  -6  10 136.756 22.7971   1
  -5  -5  10 36.1039 13.4887   2
  -5  -5  10 95.8424 18.6035   1
  -4  -5  10 171.989 43.8235   1
   4   5  13 132.816 32.6553  -2
  -4  -5  10 132.816 32.6553   1
  -4  -5  10 35.6481 19.0154   2
   3   5  13 500.460 40.8593  -2
  -3  -5  10 500.460 40.8593   1
   2   5  13 463.260 29.7757  -2
  -2  -5  10 463.260 29.7757   1
   1   5  13 73.0549 16.9706  -2
  -1  -5  10 73.0549 16.9706   1
   0   5  13 241.513 28.8734  -2
   0  -5  10 241.513 28.8734   1
   0  -5  10 109.438 24.0335   2
   1  -5  10 112.785 15.8369   2
   1  -5  10 92.7730 20.7535   1
   2  -5  10 119.948 14.1681   2
   2  -5  10 175.758 28.9539   1
   3  -5  10 19.8693 10.8429   1
   3  -5  10 11.0132 10.6086   2
   5   4  12 169.416 19.9723  -2
  -5  -4  10 169.416 19.9723   1
   4   4  12 61.4810 13.1116  -2
  -4  -4  10 61.4810 13.1116   1
  -3  -4  10 145.332 17.5726   1
  -3  -4  10 97.4003 27.6652   2
  -2  -4  10 9.80545 5.57805   1
  -2  -4  10 2.40950 5.89006   2
  -1  -4  10 227.973 22.0786   1
  -1  -4  10 139.642 17.3580   2
   0  -4  10 62.8456 14.6491   1
   0  -4  10 33.4325 8.99985   2
   1  -4  10 373.655 24.0739   2
   1  -4  10 550.450 49.6427   1
  -2   4  13 358.819 24.8711  -2
   2  -4  10 358.819 24.8711   1
  -3   4  13 986.537 43.0035  -2
   3  -4  10 986.537 43.0035   1
  -4   4  13 181.919 18.7189  -2
   4  -4  10 181.919 18.7189   1
  -6  -3  10 31.5329 16.5239   2
  -6  -3  10 25.4831 19.0295   1
  -5  -3  10 23.2375 6.50667   2
  -5  -3  10 3.09868 7.78686   1
  -4  -3  10 1.00349 6.45782   1
  -4  -3  10 7.89697 6.87376   2
  -3  -3  10 444.677 34.8907   1
  -3  -3  10 261.436 23.5900   2
  -2  -3  10 0.99590 5.06409   2
  -2  -3  10 0.65930 8.27163   1
   1   3  12 252.311 27.5221  -2
  -1  -3  10 252.311 27.5221   1
   0   3  12 449.179 35.6006  -2
   0  -3  10 449.179 35.6006   1
  -1   3  12 177.995 16.5732  -2
   1  -3  10 177.995 16.5732   1
  -2   3  12 535.028 29.2222  -2
   2  -3  10 535.028 29.2222   1
   3  -3  10 572.568 32.9461   2
   3  -3  10 804.332 59.6218   1
   4  -3  10 27.7385 9.74703   1
   4  -3  10 12.6193 9.76747   2
   5  -3  10 421.766 45.6588   2
   5  -3  10 548.318 86.4959   1
  -6  -2  10 8.99349 10.6117   1
  -6  -2  10 6.75590 6.84340   2
  -5  -2  10 760.265 49.5870   1
  -5  -2  10 447.706 32.3616   2
   4   2  11 481.225 30.1817  -2
  -4  -2  10 481.225 30.1817   1
   3   2  11 73.6377 12.0372  -2
  -3  -2  10 73.6377 12.0372   1
   2   2  11 151.440 15.9229  -2
  -2  -2  10 151.440 15.9229   1
   1   2  11 314.783 21.9653  -2
  -1  -2  10 314.783 21.9653   1
   0  -2  10 159.093 18.0683   2
   0  -2  10 229.352 28.0857   1
   1  -2  10 33.0849 9.39517   1
   1  -2  10 12.0085 5.22690   2
   2  -2  10 6.21948 5.02983   2
   2  -2  10 24.5939 8.69175   1
   3  -2  10 41.4153 9.42850   2
   3  -2  10 78.5082 15.0236   1
   4  -2  10 145.519 24.3649   2
   4  -2  10 270.279 26.8806   1
  -5   2  12 381.987 36.0519  -2
   5  -2  10 381.987 36.0519   1
   6   1  10 361.220 37.0408  -2
  -6  -1  10 361.220 37.0408   1
   5   1  10 147.679 22.6924  -2
  -5  -1  10 147.679 22.6924   1
   4   1  10 189.734 18.8993  -2
  -4  -1  10 189.734 18.8993   1
  -4  -1  10 68.0526 23.0428   2
  -3  -1  10 325.986 28.8079   1
  -3  -1  10 194.889 19.0356   2
  -2  -1  10 15.0969 5.93992   1
  -2  -1  10 6.36025 5.35102   2
  -1  -1  10 267.148 22.0655   2
  -1  -1  10 406.612 28.0721   1
   0  -1  10 330.361 19.8808   1
   0  -1  10 186.656 14.4944   2
   1  -1  10 705.877 48.1797   1
  -1   1  11 964.017 66.0439  -2
   1  -1  10 964.017 66.0439   1
   1  -1  10 483.761 36.4881   2
  -2   1  11 273.588 19.9426  -2
   2  -1  10 273.588 19.9426   1
  -3   1  11 412.810 25.2191  -2
   3  -1  10 412.810 25.2191   1
  -4   1  11 554.905 30.4788  -2
   4  -1  10 554.905 30.4788   1
  -5   1  11 571.375 39.7366  -2
   5  -1  10 571.375 39.7366   1
   5  -1  10 96.5319 30.4988   2
  -6   0  10 23.8257 11.1219   2
  -6   0  10 20.1016 12.3634   1
  -5   0  10 822.035 63.5563   1
  -5   0  10 509.284 33.0254   2
  -4   0  10 56.9968 10.4140   2
  -4   0  10 119.963 18.3218   1
  -3   0  10 8.18518 5.03350   2
  -3   0  10 14.1134 7.29507   1
  -2   0  10 172.674 22.0113   2
  -2   0  10 251.685 27.1629   1
   2   0  10 273.773 35.7783  -2
  -2   0  10 273.773 35.7783   1
   1   0  10 167.906 12.7107  -2
  -1   0  10 167.906 12.7107   1
   0   0  10 9.09370 5.49408  -2
   0   0  10 9.09370 5.49408   1
  -1   0  10 190.790 16.9788  -2
   1   0  10 190.790 16.9788   1
   2   0  10 105.679 18.8100   1
  -2   0  10 259.062 33.1359  -2
   2   0  10 259.062 33.1359   1
   2   0  10 83.0965 16.0362   2
   3   0  10 645.854 34.0299   2
   3   0  10 1043.51 42.5826   1
   4   0  10 79.1313 13.9618   1
   4   0  10 52.6429 10.7313   2
   5   0  10 196.523 23.3567   1
   5   0  10 140.710 25.3096   2
   6   0  10 13.5727 11.9473   1
   6   0  10 3.13433 9.88301   2
  -6   1  10 63.5373 15.4016   2
  -6   1  10 87.7308 21.6718   1
  -5   1  10 18.1872 13.8188   1
  -5   1  10 15.5774 7.78999   2
   5  -1   9 277.300 43.7376  -2
  -5   1  10 277.300 43.7376   1
   4  -1   9 157.176 16.2451  -2
  -4   1  10 157.176 16.2451   1
   3  -1   9 1118.68 41.1708  -2
  -3   1  10 1118.68 41.1708   1
   2  -1   9 322.951 17.3569  -2
  -2   1  10 322.951 17.3569   1
  -1   1  10 35.6209 6.87045   1
  -1   1  10 27.4521 5.57099   2
   0   1  10 17.5236 4.54390   2
   0   1  10 40.1416 7.34176   1
   1   1  10 92.2843 10.2682   2
   1   1  10 134.413 16.4234   1
   2   1  10 100.995 17.4519   1
   2   1  10 61.3270 10.7473   2
   3   1  10 201.203 20.0766   2
   3   1  10 303.196 26.6935   1
  -4  -1  10 321.637 28.9509  -2
   4   1  10 321.637 28.9509   1
   4   1  10 225.374 38.0858   1
  -5  -1  10 249.558 20.9774  -2
   5   1  10 249.558 20.9774   1
  -6  -1  10 327.029 25.4245  -2
   6   1  10 327.029 25.4245   1
   6  -2   8 19.9104 12.6842  -2
  -6   2  10 19.9104 12.6842   1
   5  -2   8 519.298 41.3996  -2
  -5   2  10 519.298 41.3996   1
  -4   2  10 56.9384 14.1700   2
  -4   2  10 118.793 21.8474   1
  -3   2  10 21.6877 6.31430   2
  -3   2  10 56.5188 9.59131   1
  -2   2  10 -6.9951 3.76752   1
  -2   2  10 -4.2689 3.33272   2
  -1   2  10 679.190 27.8212   2
  -1   2  10 1135.72 33.6359   1
   0   2  10 6.33015 3.02332   2
   0   2  10 9.63156 4.98763   1
  -1  -2   9 364.455 22.6497  -2
   1   2  10 364.455 22.6497   1
  -2  -2   9 616.592 29.5725  -2
   2   2  10 616.592 29.5725   1
  -3  -2   9 231.485 22.2948  -2
   3   2  10 231.485 22.2948   1
  -4  -2   9 -6.3704 10.0984  -2
   4   2  10 -6.3704 10.0984   1
   5   2  10 134.871 17.8055   2
   5   2  10 233.973 25.2533   1
   6   2  10 6.35199 8.39058   2
   6   2  10 13.1834 10.1307   1
  -6   3  10 147.953 27.6464   1
  -6   3  10 60.5659 15.8823   2
  -5   3  10 131.960 24.2943   1
  -5   3  10 80.1000 17.3902   2
  -4   3  10 98.4900 15.6000   1
  -4   3  10 50.6388 9.20535   2
  -3   3  10 112.936 13.4288   2
  -3   3  10 181.464 17.0385   1
   2  -3   8 177.422 14.0532  -2
  -2   3  10 177.422 14.0532   1
   1  -3   8 688.851 25.4652  -2
  -1   3  10 688.851 25.4652   1
   0  -3   8 663.239 24.2585  -2
   0   3  10 663.239 24.2585   1
  -1  -3   8 1117.18 30.2949  -2
   1   3  10 1117.18 30.2949   1
   2   3  10 1.68560 4.85075   1
   2   3  10 -2.1692 4.78834   2
   3   3  10 212.388 21.5222   2
   3   3  10 286.965 24.0821   1
   4   3  10 9.89589 5.76564   2
   4   3  10 14.6996 7.27826   1
   5   3  10 263.124 25.3945   2
   5   3  10 418.305 32.4542   1
   6   3  10 139.259 25.8504   1
  -6  -3   9 246.234 40.2895  -2
   6   3  10 246.234 40.2895   1
   6   3  10 106.433 21.6674   2
  -6   4  10 -1.6068 13.8303   2
  -6   4  10 7.48804 13.8297   1
   5  -4   7 778.351 50.3340  -2
  -5   4  10 778.351 50.3340   1
   4  -4   7 -5.1129 7.49835  -2
  -4   4  10 -5.1129 7.49835   1
   3  -4   7 301.376 21.9956  -2
  -3   4  10 301.376 21.9956   1
   2  -4   7 427.061 20.5115  -2
  -2   4  10 427.061 20.5115   1
  -1   4  10 836.820 29.7689   1
  -1   4  10 469.415 19.5746   2
   0   4  10 18.8133 6.02534   1
   0   4  10 17.5066 4.43258   2
   1   4  10 25.3153 5.57880   1
   1   4  10 12.0303 5.63572   2
   2   4  10 150.628 18.0899   2
   2   4  10 203.170 19.9077   1
   3   4  10 18.3313 7.07438   2
   3   4  10 39.1487 11.1603   1
  -3  -4   8 22.4448 15.2969  -2
   3   4  10 22.4448 15.2969   1
  -4  -4   8 249.395 20.0086  -2
   4   4  10 249.395 20.0086   1
  -5  -4   8 331.070 25.1414  -2
   5   4  10 331.070 25.1414   1
  -6  -4   8 72.4876 12.2610  -2
   6   4  10 72.4876 12.2610   1
   5  -5   6 -2.5297 15.2687  -2
  -5   5  10 -2.5297 15.2687   1
  -5   5  10 -6.3003 7.17450   2
  -5   5  10 23.6559 16.0815   1
  -4   5  10 -7.4070 6.17819   1
  -4   5  10 -3.6417 6.01423   2
  -3   5  10 382.424 26.1646   2
  -3   5  10 642.301 41.2488   1
  -2   5  10 -0.2188 4.73805   2
  -2   5  10 12.8789 5.14211   1
  -1   5  10 57.9915 7.79709   2
  -1   5  10 92.3753 11.3742   1
   0  -5   7 93.5979 16.1950  -2
   0   5  10 93.5979 16.1950   1
   0   5  10 26.7638 5.57630   2
   0   5  10 68.8648 12.3651   1
  -1  -5   7 1267.83 34.6168  -2
   1   5  10 1267.83 34.6168   1
  -2  -5   7 326.885 20.9660  -2
   2   5  10 326.885 20.9660   1
  -3  -5   7 59.4707 11.1624  -2
   3   5  10 59.4707 11.1624   1
   4   5  10 142.068 18.6019   2
   4   5  10 173.335 42.4249   1
  -4  -5   7 590.660 55.0871  -2
   4   5  10 590.660 55.0871   1
   5   5  10 18.3146 9.93228   1
   5   5  10 0.72778 6.56114   2
   6   5  10 8.15583 10.2815   1
   6   5  10 12.9952 6.88096   2
  -5   6  10 73.3235 16.0629   1
  -5   6  10 54.3769 13.2073   2
  -4   6  10 548.069 41.1149   1
  -4   6  10 310.244 33.8642   2
  -3   6  10 1.79512 12.1463   1
  -3   6  10 -3.0493 6.79083   2
   3  -6   6 22.8136 13.8537  -2
  -3   6  10 22.8136 13.8537   1
   2  -6   6 539.400 23.7138  -2
  -2   6  10 539.400 23.7138   1
   1  -6   6 375.195 18.8260  -2
  -1   6  10 375.195 18.8260   1
   0  -6   6 506.587 26.6417  -2
   0   6  10 506.587 26.6417   1
   1   6  10 11.2992 8.50375   1
  -1  -6   6 20.0906 17.2224  -2
   1   6  10 20.0906 17.2224   1
   1   6  10 17.1191 6.47824   2
   2   6  10 0.01390 4.83234   1
   2   6  10 -0.1396 4.56232   2
   3   6  10 291.980 34.5482   1
   3   6  10 177.365 20.4680   2
   4   6  10 172.574 20.4633   2
   4   6  10 253.518 33.0924   1
   5   6  10 50.9770 12.1119   2
   5   6  10 103.055 21.0921   1
   6   6  10 10.9262 16.4176   2
  -6  -6   7 185.051 27.3202  -2
   6   6  10 185.051 27.3202   1
   4  -7   5 161.725 25.4365  -2
  -4   7  10 161.725 25.4365   1
   3  -7   5 237.752 30.1100  -2
  -3   7  10 237.752 30.1100   1
  -2   7  10 61.7628 9.77693   2
  -2   7  10 120.244 23.2808   1
  -1   7  10 42.7958 7.92337   2
  -1   7  10 77.9156 13.6748   1
   0   7  10 373.155 27.9611   2
   0   7  10 618.667 37.5616   1
   1   7  10 248.904 23.0566   1
   1   7  10 185.487 20.1743   2
   2   7  10 5.30325 6.39623   2
   2   7  10 21.2700 6.31415   1
   3   7  10 185.750 35.4738   2
  -3  -7   6 340.843 31.7250  -2
   3   7  10 340.843 31.7250   1
  -4  -7   6 252.260 28.5710  -2
   4   7  10 252.260 28.5710   1
  -5  -7   6 226.553 27.5579  -2
   5   7  10 226.553 27.5579   1
  -4   8  10 2.57709 8.96071   2
  -4   8  10 29.0720 14.6511   1
  -3   8  10 -1.3117 8.60453   2
  -3   8  10 17.0295 12.6253   1
  -2   8  10 90.6976 11.7230   2
  -2   8  10 146.496 27.8073   1
  -1   8  10 462.364 44.6802   1
   1  -8   5 498.713 42.2302  -2
  -1   8  10 498.713 42.2302   1
  -1   8  10 261.741 19.9614   2
   0  -8   5 274.334 22.0081  -2
   0   8  10 274.334 22.0081   1
  -1  -8   5 114.701 14.6204  -2
   1   8  10 114.701 14.6204   1
  -2  -8   5 327.051 23.0007  -2
   2   8  10 327.051 23.0007   1
   3   8  10 135.637 31.1835   2
  -3  -8   5 186.078 24.4768  -2
   3   8  10 186.078 24.4768   1
   4   8  10 20.3316 10.0279   2
   4   8  10 25.2908 12.3187   1
   5   8  10 99.8648 22.6541   2
   5   8  10 175.054 29.0645   1
   3  -9   4 177.973 27.5715  -2
  -3   9  10 177.973 27.5715   1
   2  -9   4 206.128 27.8309  -2
  -2   9  10 206.128 27.8309   1
   1  -9   4 18.6690 12.8234  -2
  -1   9  10 18.6690 12.8234   1
   0  -9   4 50.9135 15.7700  -2
   0   9  10 50.9135 15.7700   1
   0   9  10 47.0957 29.8394   1
   1   9  10 134.889 22.2579   2
   1   9  10 185.346 21.9440   1
   2   9  10 139.477 18.7726   1
   2   9  10 73.4595 17.2340   2
   3   9  10 9.27580 8.80437   2
   3   9  10 0.20304 8.38350   1
   4   9  10 20.9001 11.9605   2
   4   9  10 47.3422 14.6228   1
  -2  10  10 28.9890 11.8030   2
  -2  10  10 17.6836 12.4745   1
  -1  10  10 34.1256 14.1872   1
  -1  10  10 8.93574 8.61920   2
   0  10  10 35.9262 12.4502   2
   0  10  10 53.5977 12.2852   1
   1  10  10 228.516 24.8897   1
   1  10  10 144.246 23.8265   2
   2  10  10 176.662 25.7983   2
  -2 -10   4 347.261 35.0384  -2
   2  10  10 347.261 35.0384   1
   2  10  10 365.862 49.7746   1
  -3 -10   4 274.827 30.1286  -2
   3  10  10 274.827 30.1286   1
  -4 -10   4 122.141 27.8969  -2
   4  10  10 122.141 27.8969   1
  -1 -11   3 94.9163 16.0541  -2
   1  11  10 94.9163 16.0541   1
  -2 -11   3 64.5077 16.6635  -2
   2  11  10 64.5077 16.6635   1
  -3  -6  11 2.75714 8.15399   1
  -3  -6  11 2.51907 10.1718   2
  -2  -6  11 135.896 24.5617   2
  -2  -6  11 131.548 26.8297   1
  -1  -6  11 221.122 56.3536   1
  -1  -6  11 137.581 35.6178   2
   1   6  15 300.535 47.8831  -2
  -1  -6  11 300.535 47.8831   1
   0   6  15 140.424 23.7563  -2
   0  -6  11 140.424 23.7563   1
  -1   6  15 175.916 25.7874  -2
   1  -6  11 175.916 25.7874   1
   4   5  14 165.762 21.2162  -2
  -4  -5  11 165.762 21.2162   1
  -4  -5  11 27.3905 18.1558   2
   3   5  14 388.839 37.5921  -2
  -3  -5  11 388.839 37.5921   1
   2   5  14 84.3811 17.8002  -2
  -2  -5  11 84.3811 17.8002   1
   1   5  14 396.239 37.6309  -2
  -1  -5  11 396.239 37.6309   1
   0   5  14 10.7912 18.0924  -2
   0  -5  11 10.7912 18.0924   1
   1  -5  11 207.495 22.0351   2
   1  -5  11 356.932 43.5473   1
   2  -5  11 54.4483 15.8989   1
   2  -5  11 30.0455 9.46232   2
   4   4  13 57.7358 14.0487  -2
  -4  -4  11 57.7358 14.0487   1
  -3  -4  11 133.817 24.6780   1
  -3  -4  11 108.826 29.2095   2
   3   4  13 345.196 48.7919  -2
  -3  -4  11 345.196 48.7919   1
  -2  -4  11 113.342 16.8100   2
  -2  -4  11 148.477 17.7383   1
  -1  -4  11 49.2211 10.6909   2
  -1  -4  11 129.772 24.9123   1
   0  -4  11 -6.3994 5.42789   2
   0  -4  11 10.3962 9.16093   1
   1  -4  11 207.586 21.8554   2
   1  -4  11 338.712 38.9150   1
  -2   4  14 42.2164 17.5979  -2
   2  -4  11 42.2164 17.5979   1
  -3   4  14 15.5090 10.3613  -2
   3  -4  11 15.5090 10.3613   1
  -5  -3  11 114.350 17.4111   2
  -5  -3  11 170.020 23.5694   1
  -4  -3  11 0.58563 7.37287   1
  -4  -3  11 -1.1894 5.52523   2
  -3  -3  11 193.295 23.7315   1
  -3  -3  11 108.839 15.6360   2
  -2  -3  11 32.1890 9.50334   2
  -2  -3  11 49.1253 12.3105   1
   1   3  13 463.525 37.6285  -2
  -1  -3  11 463.525 37.6285   1
   0   3  13 248.756 27.6619  -2
   0  -3  11 248.756 27.6619   1
  -1   3  13 257.079 27.3305  -2
   1  -3  11 257.079 27.3305   1
  -2   3  13 98.4643 14.6356  -2
   2  -3  11 98.4643 14.6356   1
   3  -3  11 122.505 19.1897   1
   3  -3  11 63.3052 12.2393   2
   4  -3  11 37.2260 12.3879   1
   4  -3  11 35.8056 14.4189   2
  -5  -2  11 25.4602 10.3905   1
  -5  -2  11 16.1463 7.88624   2
   4   2  12 46.9698 12.5076  -2
  -4  -2  11 46.9698 12.5076   1
   3   2  12 531.191 31.1566  -2
  -3  -2  11 531.191 31.1566   1
   2   2  12 319.724 23.1378  -2
  -2  -2  11 319.724 23.1378   1
   1   2  12 326.860 23.3251  -2
  -1  -2  11 326.860 23.3251   1
   0  -2  11 230.188 29.3860   1
   0  -2  11 200.000 20.3046   2
   1  -2  11 940.916 43.5517   1
   1  -2  11 560.915 33.6589   2
   2  -2  11 91.1924 15.9244   1
   2  -2  11 63.7950 11.1548   2
   3  -2  11 427.636 35.1541   1
   3  -2  11 281.047 23.8013   2
   4  -2  11 31.8537 11.2322   1
   4  -2  11 52.2020 20.7501   2
   5   1  11 969.623 58.7294  -2
  -5  -1  11 969.623 58.7294   1
   4   1  11 126.761 16.5710  -2
  -4  -1  11 126.761 16.5710   1
  -3  -1  11 27.6476 8.65805   1
  -3  -1  11 8.85994 5.30092   2
  -2  -1  11 3.52103 4.70783   2
  -2  -1  11 2.45658 5.00541   1
  -1  -1  11 249.022 23.1564   1
  -1  -1  11 152.807 17.0789   2
   0  -1  11 42.5640 10.0769   1
   0  -1  11 21.8993 7.33957   2
   1  -1  11 -7.1662 6.90816   2
  -1   1  12 -2.3261 14.5730  -2
   1  -1  11 -2.3261 14.5730   1
   1  -1  11 -3.5393 7.79492   1
  -2   1  12 278.367 24.9878  -2
   2  -1  11 278.367 24.9878   1
  -3   1  12 575.299 31.2188  -2
   3  -1  11 575.299 31.2188   1
  -4   1  12 320.173 24.2204  -2
   4  -1  11 320.173 24.2204   1
   5  -1  11 55.0853 22.5383   2
  -5   1  12 80.9598 20.3846  -2
   5  -1  11 80.9598 20.3846   1
   5  -1  11 73.0347 26.0038   1
  -6   0  11 1.08402 11.2809   1
  -6   0  11 -11.725 8.18543   2
  -5   0  11 28.9491 8.05229   2
  -5   0  11 66.5310 17.2082   1
  -4   0  11 26.0316 8.35302   1
  -4   0  11 9.73268 5.80878   2
  -3   0  11 335.268 25.3639   2
  -3   0  11 601.258 38.9696   1
   2   0  11 92.1101 24.7159  -2
  -2   0  11 92.1101 24.7159   1
  -2   0  11 40.1045 10.9063   2
  -2   0  11 65.2426 13.8728   1
   1   0  11 147.054 14.3496  -2
  -1   0  11 147.054 14.3496   1
   0   0  11 476.870 26.1495  -2
   0   0  11 476.870 26.1495   1
  -1   0  11 184.897 16.8116  -2
   1   0  11 184.897 16.8116   1
   2   0  11 68.1899 15.5851   1
   2   0  11 44.6518 12.6865   2
  -2   0  11 83.7898 20.8734  -2
   2   0  11 83.7898 20.8734   1
   3   0  11 70.5930 11.7116   2
   3   0  11 112.031 17.1450   1
   4   0  11 16.3473 7.89460   1
   4   0  11 4.58589 5.84867   2
   5   0  11 24.0350 10.0043   1
   5   0  11 18.7210 10.3001   2
  -6   1  11 12.5534 10.2667   2
  -6   1  11 8.79829 11.5620   1
  -5   1  11 667.544 79.7749   1
  -5   1  11 320.346 50.2407   2
   5  -1  10 767.580 75.7117  -2
  -5   1  11 767.580 75.7117   1
   4  -1  10 706.028 34.5802  -2
  -4   1  11 706.028 34.5802   1
   3  -1  10 347.710 23.1120  -2
  -3   1  11 347.710 23.1120   1
   2  -1  10 349.615 22.4613  -2
  -2   1  11 349.615 22.4613   1
  -1   1  11 321.108 28.8956   2
  -1   1  11 585.982 43.2549   1
   1  -1  10 977.073 43.0645  -2
  -1   1  11 977.073 43.0645   1
   0   1  11 10.8632 5.39389   1
   0   1  11 16.9882 6.20208   2
   1   1  11 223.387 22.3744   1
   1   1  11 150.142 16.7898   2
   2   1  11 56.2394 11.4292   1
   2   1  11 38.7477 9.10373   2
   3   1  11 498.076 33.7355   2
   3   1  11 855.042 61.8790   1
  -4  -1  11 89.2833 17.8935  -2
   4   1  11 89.2833 17.8935   1
  -5  -1  11 819.355 47.5455  -2
   5   1  11 819.355 47.5455   1
   5  -2   9 377.702 36.0189  -2
  -5   2  11 377.702 36.0189   1
  -4   2  11 2.80246 4.63949   2
  -4   2  11 1.97382 8.24137   1
  -3   2  11 478.339 29.1607   2
  -3   2  11 820.314 38.1319   1
  -2   2  11 108.959 13.2879   1
  -2   2  11 70.3672 11.1871   2
  -1   2  11 13.8406 5.68927   2
  -1   2  11 16.9688 6.46636   1
   0   2  11 184.814 18.5739   2
   0   2  11 318.326 19.9688   1
  -1  -2  10 372.525 24.0586  -2
   1   2  11 372.525 24.0586   1
  -2  -2  10 124.049 14.2670  -2
   2   2  11 124.049 14.2670   1
  -3  -2  10 86.9913 12.8419  -2
   3   2  11 86.9913 12.8419   1
  -4  -2  10 490.867 34.7957  -2
   4   2  11 490.867 34.7957   1
   5   2  11 743.676 45.6704   1
   5   2  11 405.238 32.2743   2
   6   2  11 58.1907 13.5941   1
   6   2  11 27.7500 13.1607   2
  -5   3  11 569.903 51.2835   1
  -5   3  11 297.126 33.2995   2
  -4   3  11 7.34496 8.49229   1
  -4   3  11 1.37463 4.28275   2
  -3   3  11 5.44878 4.65962   2
  -3   3  11 12.9937 5.31575   1
   2  -3   9 346.710 19.0186  -2
  -2   3  11 346.710 19.0186   1
   1  -3   9 490.827 22.2364  -2
  -1   3  11 490.827 22.2364   1
   0  -3   9 389.376 18.9756  -2
   0   3  11 389.376 18.9756   1
  -1  -3   9 425.238 27.1614  -2
   1   3  11 425.238 27.1614   1
   2   3  11 111.348 16.1201   1
   2   3  11 68.2569 12.5494   2
   3   3  11 99.2387 15.0182   2
   3   3  11 163.015 19.1299   1
   4   3  11 15.2011 7.25972   2
   4   3  11 7.97588 6.37161   1
   5   3  11 144.330 18.3847   2
   5   3  11 257.803 29.7011   1
  -6  -3  10 38.6119 24.1308  -2
   6   3  11 38.6119 24.1308   1
   6   3  11 -4.8696 8.61299   2
   6   3  11 -0.5752 13.4828   1
   5  -4   8 11.4340 14.7096  -2
  -5   4  11 11.4340 14.7096   1
   4  -4   8 316.032 29.9884  -2
  -4   4  11 316.032 29.9884   1
   3  -4   8 837.055 38.4612  -2
  -3   4  11 837.055 38.4612   1
   2  -4   8 198.574 15.4940  -2
  -2   4  11 198.574 15.4940   1
  -1   4  11 39.4612 8.06077   1
  -1   4  11 28.7857 7.03065   2
   0   4  11 32.7615 7.40401   2
   0   4  11 37.3475 8.16315   1
   1   4  11 336.422 26.2509   1
   1   4  11 266.982 23.7736   2
   2   4  11 111.067 15.7528   2
   2   4  11 199.841 20.2856   1
   3   4  11 110.978 15.8717   2
   3   4  11 134.906 21.0894   1
  -3  -4   9 418.497 45.7559  -2
   3   4  11 418.497 45.7559   1
  -4  -4   9 31.5743 10.2295  -2
   4   4  11 31.5743 10.2295   1
  -5  -4   9 437.926 29.9591  -2
   5   4  11 437.926 29.9591   1
  -6  -4   9 385.394 35.5129  -2
   6   4  11 385.394 35.5129   1
   5  -5   7 241.354 31.2408  -2
  -5   5  11 241.354 31.2408   1
  -5   5  11 138.146 22.7469   2
  -4   5  11 69.1580 16.0470   2
  -4   5  11 165.070 21.8496   1
  -3   5  11 8.59931 4.76818   2
  -3   5  11 6.78424 6.78693   1
  -2   5  11 463.712 27.8011   1
  -2   5  11 222.882 20.3184   2
  -1   5  11 638.703 28.0861   1
  -1   5  11 371.618 23.0972   2
   0   5  11 -8.7713 4.79078   2
   0  -5   8 36.4556 13.3776  -2
   0   5  11 36.4556 13.3776   1
   0   5  11 1.74227 5.52435   1
  -1  -5   8 143.484 14.1691  -2
   1   5  11 143.484 14.1691   1
  -2  -5   8 783.571 34.7593  -2
   2   5  11 783.571 34.7593   1
  -3  -5   8 478.031 36.7408  -2
   3   5  11 478.031 36.7408   1
  -4  -5   8 128.034 28.6779  -2
   4   5  11 128.034 28.6779   1
   4   5  11 9.96738 8.11925   2
   4   5  11 -3.2754 11.1653   1
   5   5  11 220.084 30.4688   1
   5   5  11 147.105 19.8868   2
   6   5  11 9.37020 7.76418   2
   6   5  11 4.22268 10.5789   1
  -4   6  11 2.62028 8.87869   1
  -4   6  11 12.6618 8.73359   2
  -3   6  11 339.405 35.2164   2
   3  -6   7 429.186 34.9927  -2
  -3   6  11 429.186 34.9927   1
  -3   6  11 459.288 60.5698   1
   2  -6   7 385.427 25.1069  -2
  -2   6  11 385.427 25.1069   1
   1  -6   7 148.249 15.1426  -2
  -1   6  11 148.249 15.1426   1
   0  -6   7 133.939 15.0209  -2
   0   6  11 133.939 15.0209   1
  -1  -6   7 279.571 35.5962  -2
   1   6  11 279.571 35.5962   1
   1   6  11 131.647 16.2051   2
   1   6  11 197.527 24.4380   1
   2   6  11 69.3082 12.6147   2
   2   6  11 86.0914 19.7676   1
   3   6  11 46.6590 15.0322   1
   3   6  11 32.4307 8.32000   2
   4   6  11 100.735 16.2732   2
   4   6  11 183.562 29.1522   1
   5   6  11 73.9829 14.3052   2
   5   6  11 129.847 24.5543   1
   4  -7   6 96.4187 21.7024  -2
  -4   7  11 96.4187 21.7024   1
   3  -7   6 -8.8758 14.8691  -2
  -3   7  11 -8.8758 14.8691   1
  -2   7  11 68.5258 18.9008   1
  -2   7  11 56.2751 11.0495   2
  -1   7  11 460.850 25.8961   2
  -1   7  11 693.075 41.1254   1
   0   7  11 106.443 15.9296   1
   0   7  11 72.2260 12.3262   2
   1   7  11 45.2863 10.2491   2
   1   7  11 84.2368 14.1009   1
   2   7  11 128.776 17.7548   2
   2   7  11 181.077 27.2204   1
   3   7  11 57.9687 21.0062   2
  -3  -7   7 89.9224 17.9223  -2
   3   7  11 89.9224 17.9223   1
  -4  -7   7 604.442 44.8960  -2
   4   7  11 604.442 44.8960   1
  -5  -7   7 258.228 30.0068  -2
   5   7  11 258.228 30.0068   1
  -3   8  11 18.7135 10.7787   2
  -3   8  11 57.6735 17.9865   1
  -2   8  11 174.850 19.0612   2
  -2   8  11 344.961 43.4562   1
  -1   8  11 54.4767 11.1872   2
  -1   8  11 105.476 15.7283   1
   0  -8   6 1171.53 46.5970  -2
   0   8  11 1171.53 46.5970   1
  -1  -8   6 186.485 18.2105  -2
   1   8  11 186.485 18.2105   1
  -2  -8   6 67.4212 16.9546  -2
   2   8  11 67.4212 16.9546   1
   3   8  11 -5.4422 10.3557   2
  -3  -8   6 30.8997 14.1228  -2
   3   8  11 30.8997 14.1228   1
   4   8  11 -5.2394 8.55621   1
   4   8  11 3.60648 6.21428   2
   5   8  11 129.646 26.4540   1
   5   8  11 99.3574 22.5114   2
   2  -9   5 39.8764 15.6178  -2
  -2   9  11 39.8764 15.6178   1
   1  -9   5 375.017 37.2756  -2
  -1   9  11 375.017 37.2756   1
   0   9  11 170.320 46.8618   1
   0  -9   5 224.475 24.8060  -2
   0   9  11 224.475 24.8060   1
   1   9  11 31.7855 12.0537   2
   1   9  11 65.4265 13.7273   1
   2   9  11 111.670 21.2823   2
   2   9  11 207.629 31.0630   1
   3   9  11 24.1392 13.4839   1
   3   9  11 19.9998 10.5194   2
   4   9  11 14.8892 12.1180   1
   4   9  11 17.7684 13.6012   2
  -1  10  11 19.5447 11.2573   1
  -1  10  11 3.75165 8.13613   2
   0  10  11 0.10339 7.14441   2
   0  10  11 -1.4749 7.12747   1
   1  10  11 67.8062 17.7207   2
   1  10  11 110.123 17.6017   1
   2  10  11 249.279 32.3298   2
   2  10  11 368.274 47.1560   1
  -2 -10   5 598.331 45.0910  -2
   2  10  11 598.331 45.0910   1
  -3 -10   5 23.4371 14.1837  -2
   3  10  11 23.4371 14.1837   1
   2   5  15 167.307 25.8032  -2
  -2  -5  12 167.307 25.8032   1
   1   5  15 58.1336 20.0327  -2
  -1  -5  12 58.1336 20.0327   1
   0   5  15 167.937 26.0861  -2
   0  -5  12 167.937 26.0861   1
   1  -5  12 5.16685 10.5712   1
   1  -5  12 15.5810 10.1534   2
   4   4  14 456.444 31.9954  -2
  -4  -4  12 456.444 31.9954   1
  -3  -4  12 184.103 29.2431   1
   3   4  14 321.588 49.0637  -2
  -3  -4  12 321.588 49.0637   1
  -3  -4  12 119.064 32.9122   2
  -2  -4  12 13.2585 8.81494   2
  -2  -4  12 18.0364 11.3049   1
  -1  -4  12 286.081 26.9182   2
  -1  -4  12 432.671 46.2609   1
   0  -4  12 197.055 30.9670   1
   0  -4  12 128.022 17.5297   2
   1  -4  12 246.611 34.9804   1
   1  -4  12 135.099 20.4467   2
  -2   4  15 104.709 22.0525  -2
   2  -4  12 104.709 22.0525   1
  -4  -3  12 9.17308 7.52844   2
  -4  -3  12 24.2959 9.68481   1
  -3  -3  12 353.068 29.9017   2
  -3  -3  12 637.123 44.0491   1
  -2  -3  12 127.681 22.9702   1
  -2  -3  12 67.2998 12.4545   2
   1   3  14 594.509 45.2797  -2
  -1  -3  12 594.509 45.2797   1
   0   3  14 142.949 22.5906  -2
   0  -3  12 142.949 22.5906   1
  -1   3  14 790.819 48.9674  -2
   1  -3  12 790.819 48.9674   1
  -2   3  14 66.5609 17.9505  -2
   2  -3  12 66.5609 17.9505   1
   3  -3  12 35.0173 10.1448   1
  -3   3  14 328.399 43.8657  -2
   3  -3  12 328.399 43.8657   1
   3  -3  12 11.0910 9.42824   2
  -5  -2  12 33.9682 11.3488   1
  -5  -2  12 1.07773 8.01373   2
   4   2  13 165.363 19.4387  -2
  -4  -2  12 165.363 19.4387   1
   3   2  13 51.6568 11.8255  -2
  -3  -2  12 51.6568 11.8255   1
   2   2  13 186.303 18.7094  -2
  -2  -2  12 186.303 18.7094   1
   1   2  13 996.999 55.4803  -2
  -1  -2  12 996.999 55.4803   1
   0  -2  12 63.5652 15.6131   1
   0  -2  12 53.7094 10.2841   2
   1  -2  12 83.8166 18.7450   1
   1  -2  12 33.6921 12.1777   2
   2  -2  12 -3.1726 7.08442   1
   2  -2  12 -3.9472 5.93885   2
   3  -2  12 55.3285 10.6411   2
   3  -2  12 90.2722 16.2843   1
   4  -2  12 24.8547 13.2241   1
  -4   2  14 93.6385 28.4254  -2
   4  -2  12 93.6385 28.4254   1
   5   1  12 23.2204 14.6712  -2
  -5  -1  12 23.2204 14.6712   1
   4   1  12 50.6911 13.9167  -2
  -4  -1  12 50.6911 13.9167   1
  -3  -1  12 383.050 29.2767   2
  -3  -1  12 649.835 43.1100   1
  -2  -1  12 19.3740 8.01475   2
  -2  -1  12 42.5958 10.7820   1
  -1  -1  12 70.4364 12.4226   2
  -1  -1  12 128.082 24.1477   1
   0  -1  12 1.80118 4.89740   2
   0  -1  12 3.82076 8.21164   1
  -1   1  13 1159.33 77.9047  -2
   1  -1  12 1159.33 77.9047   1
   1  -1  12 325.670 55.3458   2
   1  -1  12 418.264 37.6727   1
  -2   1  13 82.2732 15.3500  -2
   2  -1  12 82.2732 15.3500   1
  -3   1  13 397.871 26.8754  -2
   3  -1  12 397.871 26.8754   1
  -4   1  13 482.544 30.3363  -2
   4  -1  12 482.544 30.3363   1
  -5   0  12 129.666 16.5507   2
  -5   0  12 209.194 33.2423   1
  -4   0  12 37.0074 11.0423   1
  -4   0  12 18.1670 6.63263   2
  -3   0  12 -2.3977 5.15953   2
  -3   0  12 4.98719 6.85634   1
  -2   0  12 11.2550 7.41798   1
   2   0  12 243.523 36.6540  -2
  -2   0  12 243.523 36.6540   1
  -2   0  12 19.7615 15.9968   2
   1   0  12 1335.51 60.9310  -2
  -1   0  12 1335.51 60.9310   1
   0   0  12 72.2741 11.4358  -2
   0   0  12 72.2741 11.4358   1
  -1   0  12 906.145 38.7747  -2
   1   0  12 906.145 38.7747   1
   2   0  12 320.115 33.7731   2
  -2   0  12 487.733 50.5683  -2
   2   0  12 487.733 50.5683   1
   2   0  12 431.742 55.6293   1
   3   0  12 487.295 33.0004   2
   3   0  12 756.781 46.4125   1
   4   0  12 24.1688 8.46442   2
   4   0  12 30.7111 11.4459   1
   5   0  12 152.323 21.9890   1
   5   0  12 116.898 23.9772   2
   5  -1  11 82.8252 31.0603  -2
  -5   1  12 82.8252 31.0603   1
  -5   1  12 -6.8264 13.1462   2
  -5   1  12 -4.5217 16.1037   1
   4  -1  11 224.920 20.5048  -2
  -4   1  12 224.920 20.5048   1
   3  -1  11 528.889 29.7394  -2
  -3   1  12 528.889 29.7394   1
   2  -1  11 211.529 18.6182  -2
  -2   1  12 211.529 18.6182   1
   1  -1  11 -1.6640 11.4369  -2
  -1   1  12 -1.6640 11.4369   1
  -1   1  12 13.8436 14.0618   2
  -1   1  12 -2.0657 7.71721   1
   0   1  12 22.6910 8.12221   2
   0   1  12 43.1000 10.8443   1
   1   1  12 199.951 21.4256   1
   1   1  12 109.077 18.7160   2
   2   1  12 73.2436 14.1870   1
   2   1  12 68.0214 12.5639   2
   3   1  12 59.2525 11.4773   2
   3   1  12 47.1823 13.8631   1
  -4  -1  12 108.978 19.4787  -2
   4   1  12 108.978 19.4787   1
  -5  -1  12 17.7333 13.6387  -2
   5   1  12 17.7333 13.6387   1
   5  -2  10 394.044 37.8985  -2
  -5   2  12 394.044 37.8985   1
  -4   2  12 28.7062 8.08467   2
  -4   2  12 22.5055 11.6445   1
  -3   2  12 49.2914 10.9958   1
  -3   2  12 19.9208 7.06591   2
  -2   2  12 12.4856 5.28397   2
  -2   2  12 6.84757 6.54486   1
  -1   2  12 141.586 14.9925   2
  -1   2  12 239.502 19.3993   1
   0   2  12 -1.4315 5.38093   2
   0   2  12 9.55420 6.49099   1
  -1  -2  11 398.455 25.5239  -2
   1   2  12 398.455 25.5239   1
  -2  -2  11 216.244 19.4003  -2
   2   2  12 216.244 19.4003   1
  -3  -2  11 512.173 29.8206  -2
   3   2  12 512.173 29.8206   1
  -4  -2  11 103.713 18.1860  -2
   4   2  12 103.713 18.1860   1
   5   2  12 497.378 39.1138   1
   5   2  12 296.830 28.1764   2
  -5   3  12 4.29043 10.3804   1
  -5   3  12 6.80006 8.44853   2
  -4   3  12 114.798 15.6121   2
  -4   3  12 216.290 30.3957   1
  -3   3  12 533.436 30.4980   2
  -3   3  12 968.021 42.6398   1
   2  -3  10 764.059 29.8153  -2
  -2   3  12 764.059 29.8153   1
   1  -3  10 117.847 11.7212  -2
  -1   3  12 117.847 11.7212   1
   0  -3  10 475.891 27.3776  -2
   0   3  12 475.891 27.3776   1
  -1  -3  10 326.171 23.3849  -2
   1   3  12 326.171 23.3849   1
   2   3  12 13.5039 7.45317   1
   2   3  12 11.7377 8.64660   2
   3   3  12 50.5056 11.1098   2
   3   3  12 93.5887 15.5685   1
   4   3  12 -8.2929 5.47111   2
   4   3  12 -1.2610 6.02094   1
   5   3  12 376.429 32.6449   1
   5   3  12 276.048 27.4066   2
   5  -4   9 265.503 31.4710  -2
  -5   4  12 265.503 31.4710   1
   4  -4   9 215.742 26.4074  -2
  -4   4  12 215.742 26.4074   1
   3  -4   9 37.1228 10.2324  -2
  -3   4  12 37.1228 10.2324   1
   2  -4   9 331.532 20.3378  -2
  -2   4  12 331.532 20.3378   1
  -1   4  12 63.9437 10.3203   2
  -1   4  12 103.677 13.1707   1
   0   4  12 156.947 18.8338   1
   0   4  12 55.6739 14.4800   2
   1   4  12 -2.2071 5.10374   2
   1   4  12 -0.2948 5.27144   1
   2   4  12 236.745 23.9837   2
   2   4  12 361.626 28.9624   1
   3   4  12 354.259 34.9998   1
  -3  -4  10 495.998 51.5497  -2
   3   4  12 495.998 51.5497   1
   3   4  12 257.889 25.6459   2
  -4  -4  10 52.8934 12.3149  -2
   4   4  12 52.8934 12.3149   1
  -5  -4  10 108.386 14.7486  -2
   5   4  12 108.386 14.7486   1
  -4   5  12 26.3141 11.6395   2
  -4   5  12 43.5574 14.6981   1
  -3   5  12 254.642 22.3740   2
  -3   5  12 433.765 35.4001   1
  -2   5  12 34.5341 8.89275   2
  -2   5  12 63.8619 10.9140   1
  -1   5  12 49.9172 9.70149   1
  -1   5  12 20.6305 8.97675   2
   0  -5   9 244.212 26.0735  -2
   0   5  12 244.212 26.0735   1
   0   5  12 214.094 22.8763   1
  -1  -5   9 40.6571 11.4627  -2
   1   5  12 40.6571 11.4627   1
  -2  -5   9 237.087 25.4899  -2
   2   5  12 237.087 25.4899   1
  -3  -5   9 159.889 23.0947  -2
   3   5  12 159.889 23.0947   1
   4   5  12 -6.7691 7.50709   2
   4   5  12 7.60823 14.5396   1
  -4  -5   9 25.5763 21.0689  -2
   4   5  12 25.5763 21.0689   1
   5   5  12 260.085 34.8839   1
   5   5  12 129.378 22.6814   2
  -4   6  12 477.753 39.7702   1
  -4   6  12 273.343 32.9838   2
  -3   6  12 -0.2829 8.38862   2
  -3   6  12 14.5875 13.8498   1
   3  -6   8 28.0748 29.5489  -2
  -3   6  12 28.0748 29.5489   1
   2  -6   8 605.278 43.3782  -2
  -2   6  12 605.278 43.3782   1
   1  -6   8 539.715 29.4032  -2
  -1   6  12 539.715 29.4032   1
   0  -6   8 290.600 22.0590  -2
   0   6  12 290.600 22.0590   1
   1   6  12 -3.5534 14.7305   1
   1   6  12 3.32919 6.37608   2
  -1  -6   8 -15.870 16.9313  -2
   1   6  12 -15.870 16.9313   1
   2   6  12 59.9497 12.0647   2
   2   6  12 124.442 23.1681   1
   3   6  12 211.307 31.1194   1
   3   6  12 98.1846 16.2178   2
   4   6  12 102.326 22.6102   1
   4   6  12 91.4020 15.7303   2
   5   6  12 92.6048 15.7229   2
   5   6  12 120.133 23.6616   1
   3  -7   7 151.173 23.5599  -2
  -3   7  12 151.173 23.5599   1
  -2   7  12 61.9403 11.0337   2
  -2   7  12 120.791 23.3524   1
  -1   7  12 14.7678 9.80717   2
  -1   7  12 46.5949 10.3993   1
   0   7  12 113.235 16.0033   2
   0   7  12 195.865 21.6901   1
   1   7  12 185.588 20.7137   2
   1   7  12 273.244 34.8841   1
   2   7  12 28.6410 11.4944   1
   2   7  12 24.0766 7.87104   2
  -3  -7   8 50.2376 16.8687  -2
   3   7  12 50.2376 16.8687   1
   3   7  12 28.7742 17.3839   2
  -4  -7   8 237.231 29.2537  -2
   4   7  12 237.231 29.2537   1
  -3   8  12 16.6019 10.2598   2
  -3   8  12 20.4661 10.7662   1
  -2   8  12 -2.0892 11.1816   1
  -2   8  12 1.44251 8.56338   2
  -1   8  12 119.233 18.2262   1
  -1   8  12 122.729 21.4070   2
   0  -8   7 139.869 16.2797  -2
   0   8  12 139.869 16.2797   1
  -1  -8   7 185.362 22.8788  -2
   1   8  12 185.362 22.8788   1
  -2  -8   7 177.079 24.9204  -2
   2   8  12 177.079 24.9204   1
  -3  -8   7 53.5947 19.1773  -2
   3   8  12 53.5947 19.1773   1
   3   8  12 67.1100 23.0917   2
   4   8  12 103.507 16.8523   2
   4   8  12 133.015 27.1634   1
  -2   9  12 345.756 55.4957   1
   1  -9   6 8.38706 14.7974  -2
  -1   9  12 8.38706 14.7974   1
   0  -9   6 84.4422 18.7057  -2
   0   9  12 84.4422 18.7057   1
   0   9  12 82.2508 37.2272   1
   1   9  12 106.625 20.5737   2
   1   9  12 142.465 26.4812   1
   2   9  12 296.378 37.9444   1
   2   9  12 196.558 29.6696   2
   3   9  12 71.9260 20.2351   1
   3   9  12 33.4856 13.2159   2
   1  10  12 25.4445 10.9853   2
   1  10  12 14.1924 8.89875   1
  -2  -4  13 83.7616 18.8755   1
  -2  -4  13 36.6745 10.8050   2
  -1  -4  13 -1.3411 9.73788   1
  -1  -4  13 -2.6020 7.04932   2
   0  -4  13 6.36402 7.46539   2
   0  -4  13 12.0822 9.98233   1
   1  -4  13 33.8456 10.9586   2
   1  -4  13 43.7741 16.2389   1
  -3  -3  13 30.6747 12.2347   1
  -3  -3  13 5.64341 7.51364   2
  -2  -3  13 2.97025 9.51057   1
  -2  -3  13 -4.2176 6.75410   2
   1   3  15 175.970 26.4530  -2
  -1  -3  13 175.970 26.4530   1
   0   3  15 183.960 25.7657  -2
   0  -3  13 183.960 25.7657   1
  -1   3  15 215.175 26.1902  -2
   1  -3  13 215.175 26.1902   1
  -2   3  15 47.5618 19.9810  -2
   2  -3  13 47.5618 19.9810   1
   4   2  14 91.9203 16.3141  -2
  -4  -2  13 91.9203 16.3141   1
   3   2  14 984.527 45.3092  -2
  -3  -2  13 984.527 45.3092   1
   2   2  14 42.3514 15.2398  -2
  -2  -2  13 42.3514 15.2398   1
   1   2  14 315.572 31.1585  -2
  -1  -2  13 315.572 31.1585   1
   0  -2  13 117.981 21.2462   2
   0  -2  13 141.323 24.3472   1
   1  -2  13 553.176 51.0427   1
   1  -2  13 384.149 36.7870   2
   2  -2  13 18.2231 10.0697   2
   2  -2  13 39.9525 14.1217   1
   3  -2  13 53.1310 12.7845   2
   3  -2  13 93.5911 16.7784   1
   4   1  13 42.9521 16.6721  -2
  -4  -1  13 42.9521 16.6721   1
  -3  -1  13 17.7087 8.05711   1
  -3  -1  13 16.1889 7.79839   2
  -2  -1  13 37.0524 10.3531   2
  -2  -1  13 92.2611 19.4706   1
  -1  -1  13 318.868 37.9962   1
  -1  -1  13 235.404 23.2422   2
   0  -1  13 31.2818 10.9620   2
   0  -1  13 61.3955 16.1390   1
  -1   1  14 43.5846 21.7221  -2
   1  -1  13 43.5846 21.7221   1
   1  -1  13 2.59811 10.7210   1
  -2   1  14 180.599 23.5927  -2
   2  -1  13 180.599 23.5927   1
  -3   1  14 444.153 29.0096  -2
   3  -1  13 444.153 29.0096   1
  -4   0  13 12.3517 7.01316   2
  -4   0  13 48.7632 11.7852   1
  -3   0  13 64.2364 13.6597   1
  -3   0  13 18.6539 6.30063   2
   2   0  13 18.5546 13.8868  -2
  -2   0  13 18.5546 13.8868   1
  -2   0  13 -0.0506 13.8067   2
   1   0  13 112.990 18.9160  -2
  -1   0  13 112.990 18.9160   1
   0   0  13 79.1052 14.6518  -2
   0   0  13 79.1052 14.6518   1
  -1   0  13 85.8709 13.4723  -2
   1   0  13 85.8709 13.4723   1
  -2   0  13 7.77117 12.8448  -2
   2   0  13 7.77117 12.8448   1
   2   0  13 -6.7232 10.2307   1
   3   0  13 147.214 18.3108   2
   3   0  13 252.002 32.1344   1
   4   0  13 3.56655 7.07113   1
   4   0  13 -0.9970 5.83014   2
   4  -1  12 569.087 43.7048  -2
  -4   1  13 569.087 43.7048   1
   3  -1  12 268.942 21.8862  -2
  -3   1  13 268.942 21.8862   1
   2  -1  12 99.9971 14.7886  -2
  -2   1  13 99.9971 14.7886   1
  -1   1  13 1314.20 86.7042   1
  -1   1  13 814.440 48.0679   2
   1  -1  12 1384.58 86.2522  -2
  -1   1  13 1384.58 86.2522   1
   0   1  13 70.0127 12.6170   1
   0   1  13 65.8773 15.1875   2
   1   1  13 45.2756 13.8733   2
   1   1  13 27.4323 8.94034   1
   2   1  13 43.6515 11.9229   2
   2   1  13 57.8419 13.1082   1
   3   1  13 176.551 20.6792   2
   3   1  13 343.594 31.1024   1
  -4  -1  13 20.3959 13.9758  -2
   4   1  13 20.3959 13.9758   1
   4  -2  11 18.6148 21.8144  -2
  -4   2  13 18.6148 21.8144   1
  -4   2  13 17.8759 18.1344   1
  -4   2  13 17.0684 7.46205   2
  -3   2  13 139.721 19.0360   1
  -3   2  13 58.5491 11.1141   2
  -2   2  13 47.3195 9.32744   2
  -2   2  13 130.929 16.8182   1
  -1   2  13 4.22916 7.45759   1
  -1   2  13 -1.5836 6.35224   2
   0   2  13 149.586 18.9335   1
   0   2  13 84.1144 18.1044   2
  -1  -2  12 1391.02 50.8921  -2
   1   2  13 1391.02 50.8921   1
  -2  -2  12 171.945 17.3033  -2
   2   2  13 171.945 17.3033   1
  -3  -2  12 65.6332 11.8200  -2
   3   2  13 65.6332 11.8200   1
  -4  -2  12 128.604 17.6181  -2
   4   2  13 128.604 17.6181   1
  -4   3  13 0.97336 8.87348   1
  -4   3  13 8.31635 6.05083   2
  -3   3  13 3.23599 6.72080   1
  -3   3  13 5.25745 5.74218   2
   2  -3  11 66.1547 12.7167  -2
  -2   3  13 66.1547 12.7167   1
   1  -3  11 220.797 19.0777  -2
  -1   3  13 220.797 19.0777   1
   0  -3  11 330.610 23.6672  -2
   0   3  13 330.610 23.6672   1
  -1  -3  11 470.680 29.1424  -2
   1   3  13 470.680 29.1424   1
   2   3  13 1.86145 6.35788   1
   2   3  13 -0.9173 5.47993   2
   3   3  13 59.9110 12.1289   2
   3   3  13 124.237 17.6355   1
   4   3  13 73.9573 13.3150   2
   4   3  13 112.948 17.5138   1
   4  -4  10 215.675 27.8656  -2
  -4   4  13 215.675 27.8656   1
   3  -4  10 1087.34 57.4388  -2
  -3   4  13 1087.34 57.4388   1
   2  -4  10 352.754 21.3789  -2
  -2   4  13 352.754 21.3789   1
  -1   4  13 14.9479 7.04363   1
  -1   4  13 -0.7399 6.72035   2
   0   4  13 23.1772 9.78780   2
   0   4  13 59.5929 11.7202   1
   1   4  13 466.726 34.8056   1
   1   4  13 296.989 34.8445   2
   2   4  13 153.869 19.5847   1
   2   4  13 90.3217 14.5772   2
  -3  -4  11 498.052 36.0192  -2
   3   4  13 498.052 36.0192   1
   3   4  13 188.072 37.3649   2
   3   4  13 331.836 57.7260   1
  -4  -4  11 67.3251 13.5120  -2
   4   4  13 67.3251 13.5120   1
  -4   5  13 16.1157 10.6284   2
  -4   5  13 21.7257 12.8279   1
  -3   5  13 13.2898 6.71728   2
  -3   5  13 52.5132 14.4882   1
  -2   5  13 320.504 24.3944   1
  -2   5  13 158.666 17.3938   2
  -1   5  13 455.323 41.1194   2
  -1   5  13 766.991 33.4964   1
   0  -5  10 376.263 32.3573  -2
   0   5  13 376.263 32.3573   1
   0   5  13 401.926 48.4689   1
  -1  -5  10 67.7385 16.2104  -2
   1   5  13 67.7385 16.2104   1
  -2  -5  10 454.247 36.7200  -2
   2   5  13 454.247 36.7200   1
  -3  -5  10 434.261 37.3798  -2
   3   5  13 434.261 37.3798   1
  -4  -5  10 52.9538 23.5409  -2
   4   5  13 52.9538 23.5409   1
   4   5  13 13.2250 13.2789   2
   4   5  13 37.4671 23.2831   1
  -3   6  13 12.3137 15.2369   1
  -3   6  13 -1.6439 9.28132   2
   3  -6   9 25.4107 29.6387  -2
  -3   6  13 25.4107 29.6387   1
   2  -6   9 158.138 23.2958  -2
  -2   6  13 158.138 23.2958   1
   1  -6   9 319.364 22.8713  -2
  -1   6  13 319.364 22.8713   1
   0  -6   9 186.108 24.2336  -2
   0   6  13 186.108 24.2336   1
   1   6  13 105.052 35.8005   1
  -1  -6   9 404.431 45.7205  -2
   1   6  13 404.431 45.7205   1
   1   6  13 98.8204 17.1373   2
   2   6  13 83.9927 14.1501   2
   2   6  13 149.829 26.6565   1
   3   6  13 26.5971 8.69424   2
   3   6  13 15.7919 9.41498   1
   4   6  13 42.3242 11.3725   2
   4   6  13 41.6139 14.6477   1
   3  -7   8 20.2696 17.0487  -2
  -3   7  13 20.2696 17.0487   1
  -2   7  13 99.0387 19.1333   2
  -2   7  13 144.553 27.4172   1
  -1   7  13 66.5193 13.9606   1
  -1   7  13 17.2192 10.9647   2
   0   7  13 327.704 40.0198   1
   0   7  13 175.761 26.9420   2
   1   7  13 22.1048 7.50843   2
   1   7  13 31.0952 14.2177   1
   2   7  13 36.4035 10.9756   2
   2   7  13 38.5510 14.3824   1
  -3  -7   9 167.639 25.6951  -2
   3   7  13 167.639 25.6951   1
  -4  -7   9 453.133 40.1429  -2
   4   7  13 453.133 40.1429   1
  -2   8  13 108.943 25.1698   1
  -2   8  13 95.2683 20.1278   2
  -1   8  13 18.6070 11.8120   2
  -1   8  13 34.1100 14.6687   1
   0  -8   8 535.199 40.6917  -2
   0   8  13 535.199 40.6917   1
  -1  -8   8 228.127 27.2073  -2
   1   8  13 228.127 27.2073   1
  -2  -8   8 137.873 23.6216  -2
   2   8  13 137.873 23.6216   1
  -3  -8   8 127.812 23.2352  -2
   3   8  13 127.812 23.2352   1
   0  -9   7 123.531 16.8910  -2
   0   9  13 123.531 16.8910   1
   1   9  13 37.6211 11.5178   2
   1   9  13 44.6225 17.2627   1
   2   9  13 7.30337 10.5507   1
   2   9  13 17.7532 10.9724   2
  -2  -3  14 16.9049 14.2481   2
  -2  -3  14 48.3231 26.9840   1
   1   3  16 329.845 36.5838  -2
  -1  -3  14 329.845 36.5838   1
   0   3  16 -14.607 11.9260  -2
   0  -3  14 -14.607 11.9260   1
  -3  -2  14 66.1521 13.0562   2
  -3  -2  14 86.4392 21.0407   1
   2   2  15 137.453 23.2885  -2
  -2  -2  14 137.453 23.2885   1
   1   2  15 324.289 33.8277  -2
  -1  -2  14 324.289 33.8277   1
   0  -2  14 84.5111 17.2192   2
   0  -2  14 145.093 26.1520   1
   1  -2  14 51.0153 14.2406   2
   1  -2  14 100.879 22.2244   1
   2  -2  14 6.90558 9.78132   2
   2  -2  14 -3.5773 8.89831   1
  -3  -1  14 828.281 66.3970   1
  -3  -1  14 479.626 45.3341   2
  -2  -1  14 26.4053 9.19418   2
  -2  -1  14 32.6220 11.4187   1
  -1  -1  14 27.6038 12.8400   1
  -1  -1  14 13.5067 8.99297   2
   0  -1  14 8.72189 9.47031   2
   0  -1  14 32.1079 11.8755   1
  -1   1  15 668.852 47.7798  -2
   1  -1  14 668.852 47.7798   1
  -2   1  15 13.7607 12.6339  -2
   2  -1  14 13.7607 12.6339   1
  -3   0  14 11.3319 7.01306   2
  -3   0  14 14.6731 12.4150   1
   2   0  14 89.7907 19.8560  -2
  -2   0  14 89.7907 19.8560   1
   1   0  14 1437.85 67.3121  -2
  -1   0  14 1437.85 67.3121   1
   0   0  14 255.089 27.0154  -2
   0   0  14 255.089 27.0154   1
  -1   0  14 835.984 51.5582  -2
   1   0  14 835.984 51.5582   1
  -2   0  14 68.2581 14.0300  -2
   2   0  14 68.2581 14.0300   1
   3   0  14 194.390 27.7284   2
   3   0  14 294.968 29.8636   1
  -4   1  14 14.5279 7.95409   2
  -4   1  14 19.7008 12.4520   1
   3  -1  13 327.757 24.5717  -2
  -3   1  14 327.757 24.5717   1
   2  -1  13 124.166 19.6543  -2
  -2   1  14 124.166 19.6543   1
  -1   1  14 38.2352 21.8714   2
   1  -1  13 35.4152 15.2039  -2
  -1   1  14 35.4152 15.2039   1
   0   1  14 13.8918 9.07914   1
   0   1  14 -0.1047 7.15957   2
   1   1  14 135.400 18.4592   1
   1   1  14 80.4790 17.1206   2
   2   1  14 99.6966 16.2843   1
   2   1  14 40.5269 12.1452   2
   3   1  14 22.5204 9.76799   2
   3   1  14 1.96839 7.05934   1
  -4   2  14 50.8026 14.1289   2
   4  -2  12 119.611 25.6031  -2
  -4   2  14 119.611 25.6031   1
  -3   2  14 7.08580 6.68971   1
  -3   2  14 -0.5239 5.09706   2
  -2   2  14 -3.4661 6.55520   2
  -2   2  14 17.0041 9.05984   1
  -1   2  14 248.236 31.7281   1
  -1   2  14 125.581 21.9021   2
   0   2  14 75.2405 12.9197   1
   0   2  14 31.0571 10.9623   2
  -1  -2  13 398.232 26.2538  -2
   1   2  14 398.232 26.2538   1
  -2  -2  13 49.4113 10.9692  -2
   2   2  14 49.4113 10.9692   1
  -3  -2  13 728.956 38.4158  -2
   3   2  14 728.956 38.4158   1
  -4  -2  13 99.0122 17.6554  -2
   4   2  14 99.0122 17.6554   1
  -3   3  14 250.263 28.8264   2
  -3   3  14 479.301 44.9971   1
   2  -3  12 116.243 18.2965  -2
  -2   3  14 116.243 18.2965   1
   1  -3  12 625.150 41.2395  -2
  -1   3  14 625.150 41.2395   1
   0  -3  12 113.031 15.4752  -2
   0   3  14 113.031 15.4752   1
  -1  -3  12 951.061 43.0732  -2
   1   3  14 951.061 43.0732   1
   2   3  14 47.2455 13.6807   2
   2   3  14 78.1650 14.2994   1
   3   3  14 2.99679 7.61727   1
   3   3  14 3.58891 6.23315   2
   4   3  14 38.0980 10.3697   2
   4   3  14 60.4254 13.9212   1
   3  -4  11 25.1009 12.4584  -2
  -3   4  14 25.1009 12.4584   1
   2  -4  11 20.4957 11.3246  -2
  -2   4  14 20.4957 11.3246   1
  -1   4  14 38.5976 11.4779   2
  -1   4  14 64.7044 13.7358   1
   0   4  14 72.3507 14.4317   1
   0   4  14 25.8786 13.2414   2
   1   4  14 123.528 18.1147   1
   1   4  14 53.0626 14.1987   2
   2   4  14 28.3256 12.1338   2
   2   4  14 40.5122 10.8002   1
   3   4  14 170.599 25.1587   2
   3   4  14 233.276 50.2518   1
  -3  -4  12 411.004 33.5129  -2
   3   4  14 411.004 33.5129   1
  -4  -4  12 429.837 38.6827  -2
   4   4  14 429.837 38.6827   1
  -3   5  14 41.7790 14.8924   1
  -3   5  14 24.0621 8.33182   2
  -2   5  14 101.248 13.9776   1
  -2   5  14 39.1770 12.6847   2
  -1   5  14 -11.303 7.92480   2
  -1   5  14 -2.4872 7.10844   1
   0  -5  11 12.5002 14.1283  -2
   0   5  14 12.5002 14.1283   1
  -1  -5  11 320.625 31.8110  -2
   1   5  14 320.625 31.8110   1
  -2  -5  11 112.126 19.8141  -2
   2   5  14 112.126 19.8141   1
  -3  -5  11 619.963 46.5063  -2
   3   5  14 619.963 46.5063   1
   4   5  14 123.340 37.5950   1
  -4  -5  11 180.473 34.8289  -2
   4   5  14 180.473 34.8289   1
   2  -6  10 151.568 23.2812  -2
  -2   6  14 151.568 23.2812   1
   1  -6  10 609.280 42.8552  -2
  -1   6  14 609.280 42.8552   1
   0  -6  10 385.780 35.1058  -2
   0   6  14 385.780 35.1058   1
  -1  -6  10 165.955 32.9342  -2
   1   6  14 165.955 32.9342   1
   1   6  14 -13.744 14.4336   1
   1   6  14 -7.3590 9.09115   2
   2   6  14 13.9168 7.86990   2
   2   6  14 34.4887 15.3240   1
   3   6  14 89.7210 15.4819   2
   3   6  14 143.334 27.9955   1
  -2   7  14 14.1640 10.5973   2
  -2   7  14 23.1622 13.0964   1
  -1   7  14 12.9821 10.9967   1
  -1   7  14 9.74268 8.97356   2
   0   7  14 57.3947 17.4086   2
   0   7  14 112.655 24.2224   1
   1   7  14 177.234 30.5867   1
   1   7  14 107.089 21.5883   2
   2   7  14 42.3580 11.9153   2
   2   7  14 73.9388 21.3306   1
   3   7  14 71.7034 18.3519   2
   3   7  14 67.3848 29.4727   1
  -3  -7  10 143.128 31.3340  -2
   3   7  14 143.128 31.3340   1
   0  -8   9 292.550 33.3871  -2
   0   8  14 292.550 33.3871   1
  -1  -8   9 284.001 31.3955  -2
   1   8  14 284.001 31.3955   1
  -2  -8   9 8.69200 14.5636  -2
   2   8  14 8.69200 14.5636   1
  -1  -1  15 193.899 31.4897   1
  -1  -1  15 109.101 20.6563   2
   0  -1  15 58.2924 14.0322   2
   0  -1  15 83.4795 21.0567   1
   1  -1  15 4.67023 9.81557   1
   1  -1  15 -1.7705 7.98549   2
   2   0  15 88.4935 20.7946  -2
  -2   0  15 88.4935 20.7946   1
   1   0  15 24.2239 14.3133  -2
  -1   0  15 24.2239 14.3133   1
   0   0  15 191.112 24.9273  -2
   0   0  15 191.112 24.9273   1
  -1   0  15 28.4260 15.3268  -2
   1   0  15 28.4260 15.3268   1
  -2   0  15 117.610 21.1875  -2
   2   0  15 117.610 21.1875   1
   2  -1  14 6.03011 13.7135  -2
  -2   1  15 6.03011 13.7135   1
   1  -1  14 1021.09 58.0303  -2
  -1   1  15 1021.09 58.0303   1
   0   1  15 97.8092 21.1252   1
   0   1  15 88.7297 18.0601   2
   1   1  15 -4.4686 6.88357   2
   1   1  15 -9.6593 6.86252   1
   2   1  15 29.1315 8.35211   1
   2   1  15 11.5796 9.12463   2
  -3   2  15 -7.1316 13.1719   1
  -3   2  15 -18.067 8.69402   2
  -2   2  15 83.6020 18.2618   1
  -2   2  15 75.0847 15.6155   2
  -1   2  15 24.0004 10.5499   1
  -1   2  15 2.60692 7.13465   2
   0   2  15 134.703 24.7453   1
   0   2  15 79.0753 16.2286   2
  -1  -2  14 593.190 42.6132  -2
   1   2  15 593.190 42.6132   1
  -2  -2  14 152.607 18.0326  -2
   2   2  15 152.607 18.0326   1
   2  -3  13 100.746 18.0512  -2
  -2   3  15 100.746 18.0512   1
   1  -3  13 173.656 22.8094  -2
  -1   3  15 173.656 22.8094   1
   0  -3  13 269.734 28.0538  -2
   0   3  15 269.734 28.0538   1
  -1  -3  13 265.186 23.0653  -2
   1   3  15 265.186 23.0653   1
   2   3  15 99.3978 20.7014   2
   2   3  15 179.728 22.0529   1
   3   3  15 71.8628 14.2429   1
   3   3  15 59.9553 16.3000   2
   2  -4  12 125.663 20.7334  -2
  -2   4  15 125.663 20.7334   1
  -1   4  15 7.12890 7.25954   2
  -1   4  15 -4.3225 8.26390   1
   0   4  15 91.1765 15.8868   1
   0   4  15 44.3778 13.6761   2
   1   4  15 177.183 21.7806   1
   1   4  15 117.648 23.8231   2
   2   4  15 120.909 24.1103   2
   2   4  15 183.921 22.1806   1
   3   4  15 151.984 27.6307   1
   3   4  15 72.7691 18.5016   2
  -2   5  15 51.0422 15.3801   2
  -2   5  15 96.1281 20.1528   1
  -1   5  15 200.653 28.3914   1
  -1   5  15 77.1009 17.7909   2
   0  -5  12 158.098 23.6225  -2
   0   5  15 158.098 23.6225   1
  -1  -5  12 100.016 20.8034  -2
   1   5  15 100.016 20.8034   1
  -2  -5  12 164.449 23.7708  -2
   2   5  15 164.449 23.7708   1
   1  -6  11 168.636 23.2473  -2
  -1   6  15 168.636 23.2473   1
   0  -6  11 162.414 25.1216  -2
   0   6  15 162.414 25.1216   1
   1   6  15 10.3212 17.9592   1
  -1  -6  11 183.633 36.0729  -2
   1   6  15 183.633 36.0729   1
   1   6  15 17.6737 14.5712   2
   2   6  15 32.1674 16.2873   2
   2   6  15 66.5721 21.5742   1
   0   7  15 276.831 48.3911   1
   0   7  15 139.601 31.6136   2
   1   7  15 42.0455 21.2907   1
   1   7  15 -13.776 9.85907   2
   0   2  16 271.199 35.5641   1
   0   2  16 111.731 21.8161   2
   0  -3  14 8.22377 12.0164  -2
   0   3  16 8.22377 12.0164   1
  -1  -3  14 692.589 48.3172  -2
   1   3  16 692.589 48.3172   1
   0   4  16 77.0814 18.5870   2
   0   4  16 150.506 23.9729   1
   1   4  16 -10.661 8.54070   2
   0   0   0    0.00    0.00   0
;
_shelx_hkl_checksum              54562
_shelx_res_file
;
TITL 1 in P-1
CELL  0.71073   6.6312    9.7171   12.8375   76.1365   89.5208   81.1622
ZERR  2  0.0014    0.0021    0.0028    0.0037    0.0039    0.0038
LATT 1
SFAC  C   H   N   O   CU  CL
UNIT  20 36 4 8 4 8
TEMP -173
L.S. 8
ACTA
SIZE 0.14 0.12 0.06
OMIT 0 0 1
REM ^^ affected by beamstop
BOND
BOND $H
FMAP 2
PLAN -20
DFIX 0.92 N1 H1A N1 H1B N2 H2A N2 H2B
BIND CU2 CL4
WGHT    0.030000
BASF   0.38956
FVAR       0.60910
CU1   5    0.632854    0.261309    0.266603    11.00000    0.00986    0.01305 =
         0.00882   -0.00270   -0.00142   -0.00007
CU2   5    0.140148    0.234394    0.221497    11.00000    0.00904    0.01165 =
         0.00930   -0.00100    0.00086   -0.00136
CL1   6   -0.043436    0.443323    0.137558    11.00000    0.01191    0.01167 =
         0.01468   -0.00123   -0.00109   -0.00093
CL2   6    0.373567    0.053817    0.320517    11.00000    0.01077    0.01420 =
         0.01477    0.00029   -0.00108   -0.00143
CL3   6    0.852238    0.082941    0.212683    11.00000    0.01103    0.01224 =
         0.01239   -0.00338    0.00036   -0.00211
CL4   6    0.459269    0.456942    0.309744    11.00000    0.01693    0.01477 =
         0.01317   -0.00420    0.00151   -0.00023
O1    4    0.521419    0.335326    0.118696    11.00000    0.01234    0.01247 =
         0.00964   -0.00090   -0.00030   -0.00156
O2    4    0.275703    0.216417    0.084636    11.00000    0.01214    0.01115 =
         0.01194   -0.00177    0.00016   -0.00333
C1    1    0.424495    0.279822    0.058739    11.00000    0.00451    0.00731 =
         0.01157   -0.00129   -0.00123    0.00161
C2    1    0.490128    0.306460   -0.057409    11.00000    0.00613    0.01153 =
         0.01202   -0.00243   -0.00219   -0.00208
AFIX  13
H2    2    0.385886    0.381115   -0.103386    11.00000   -1.20000
AFIX   0
C3    1    0.526759    0.174508   -0.104277    11.00000    0.01136    0.01479 =
         0.01089   -0.00694    0.00042   -0.00245
AFIX  23
H3A   2    0.434361    0.105385   -0.073128    11.00000   -1.20000
H3B   2    0.506628    0.201875   -0.183314    11.00000   -1.20000
AFIX   0
C4    1    0.748367    0.111861   -0.072137    11.00000    0.01461    0.01165 =
         0.01591   -0.00595    0.00260    0.00093
AFIX  23
H4A   2    0.761279    0.057349    0.003886    11.00000   -1.20000
H4B   2    0.806111    0.047751   -0.118003    11.00000   -1.20000
AFIX   0
C5    1    0.853886    0.242990   -0.089319    11.00000    0.01222    0.01480 =
         0.01580   -0.00642    0.00352   -0.00040
AFIX  23
H5A   2    0.973296    0.225104   -0.039439    11.00000   -1.20000
H5B   2    0.900061    0.269928   -0.163966    11.00000   -1.20000
AFIX   0
N1    3    0.692887    0.358953   -0.066631    11.00000    0.01475    0.01085 =
         0.00976   -0.00199    0.00290   -0.00322
H1A   2    0.729974    0.378817   -0.003894    11.00000   -1.20000
H1B   2    0.680005    0.437619   -0.125490    11.00000   -1.20000
O3    4    0.046043    0.267001    0.362345    11.00000    0.01419    0.01214 =
         0.01181   -0.00069    0.00238   -0.00421
O4    4   -0.250321    0.188410    0.412160    11.00000    0.01073    0.01661 =
         0.01096   -0.00274   -0.00217   -0.00265
C6    1   -0.073822    0.211605    0.430042    11.00000    0.01623    0.00605 =
         0.00922   -0.00394   -0.00187    0.00624
C7    1    0.000463    0.174376    0.546280    11.00000    0.00702    0.01719 =
         0.00919    0.00066   -0.00096   -0.00185
AFIX  13
H7    2   -0.051923    0.086442    0.587225    11.00000   -1.20000
AFIX   0
C8    1   -0.064512    0.300374    0.599824    11.00000    0.01796    0.02991 =
         0.01321   -0.01159   -0.00230    0.00555
AFIX  23
H8A   2   -0.120895    0.388786    0.545710    11.00000   -1.20000
H8B   2   -0.168449    0.276977    0.654326    11.00000   -1.20000
AFIX   0
C9    1    0.132525    0.318872    0.652070    11.00000    0.02169    0.02255 =
         0.01778   -0.01129   -0.00087   -0.00424
AFIX  23
H9A   2    0.128384    0.419222    0.657414    11.00000   -1.20000
H9B   2    0.155428    0.254352    0.724781    11.00000   -1.20000
AFIX   0
C10   1    0.296297    0.279446    0.577941    11.00000    0.01519    0.01288 =
         0.01961   -0.00338   -0.00029   -0.00554
AFIX  23
H10A  2    0.298736    0.357854    0.512692    11.00000   -1.20000
H10B  2    0.432716    0.255222    0.614254    11.00000   -1.20000
AFIX   0
N2    3    0.230039    0.150767    0.551943    11.00000    0.01380    0.01190 =
         0.00905   -0.00120   -0.00202   -0.00150
H2A   2    0.280232    0.073225    0.602276    11.00000   -1.20000
H2B   2    0.282411    0.147767    0.487598    11.00000   -1.20000
HKLF 5
REM  1 in P-1
REM R1 =  0.0432 for    4741 Fo > 4sig(Fo)  and  0.0575 for all    5870 data
REM    212 parameters refined using      4 restraints
END
WGHT      0.0327      0.0000
REM Highest difference peak  0.587,  deepest hole -0.454,  1-sigma level  0.130
Q1    1   0.8785  0.1014  0.1420  11.00000  0.05    0.59
Q2    1   0.6419  0.2810  0.1811  11.00000  0.05    0.53
Q3    1   0.0956  0.2806  0.2815  11.00000  0.05    0.52
Q4    1   0.4913  0.2329 -0.0769  11.00000  0.05    0.52
Q5    1   0.7360  0.1942  0.3550  11.00000  0.05    0.50
Q6    1  -0.1186  0.5003  0.1826  11.00000  0.05    0.48
Q7    1  -0.3142  0.2443  0.6481  11.00000  0.05    0.48
Q8    1   0.3960  0.5201  0.2328  11.00000  0.05    0.47
Q9    1   0.4870  0.2434  0.0013  11.00000  0.05    0.45
Q10   1   0.3575  0.4077  0.3247  11.00000  0.05    0.45
Q11   1   0.1032  0.1675  0.5468  11.00000  0.05    0.45
Q12   1   0.5293  0.4218  0.0406  11.00000  0.05    0.45
Q13   1   0.2274  0.2594  0.1388  11.00000  0.05    0.45
Q14   1   0.6487  0.2389  0.1241  11.00000  0.05    0.44
Q15   1   0.6262  0.0461  0.0191  11.00000  0.05    0.44
Q16   1  -0.0455  0.2373  0.4930  11.00000  0.05    0.43
Q17   1   0.2063  0.0361  0.3237  11.00000  0.05    0.43
Q18   1   0.2293  0.3337  0.6056  11.00000  0.05    0.43
Q19   1   0.8712  0.1819  0.2162  11.00000  0.05    0.42
Q20   1   0.7110  0.1256  0.1547  11.00000  0.05    0.41
;
_shelx_res_checksum              43339
_shelxl_version_number           20.13
#END Tags that were not found in dictionaries
loop_
_space_group_symop_operation_xyz
'x, y, z'
'-x, -y, -z'
loop_
_atom_site_type_symbol
_atom_site_label
_atom_site_fract_x
_atom_site_fract_y
_atom_site_fract_z
_atom_site_U_iso_or_equiv
_atom_site_adp_type
_atom_site_calc_flag
_atom_site_occupancy
Cu Cu1 0.63285(9) 0.26131(6) 0.26660(5) 0.01074(16) Uani d 1
Cu Cu2 0.14015(9) 0.23439(6) 0.22150(5) 0.01029(16) Uani d 1
Cl Cl1 -0.04344(18) 0.44332(13) 0.13756(10) 0.0132(3) Uani d 1
Cl Cl2 0.37357(19) 0.05382(13) 0.32052(10) 0.0139(3) Uani d 1
Cl Cl3 0.85224(18) 0.08294(13) 0.21268(10) 0.0118(3) Uani d 1
Cl Cl4 0.45927(19) 0.45694(13) 0.30974(10) 0.0151(3) Uani d 1
O O1 0.5214(5) 0.3353(3) 0.1187(3) 0.0118(8) Uani d 1
O O2 0.2757(5) 0.2164(3) 0.0846(3) 0.0118(8) Uani d 1
C C1 0.4245(7) 0.2798(5) 0.0587(4) 0.0082(10) Uani d 1
C C2 0.4901(7) 0.3065(5) -0.0574(4) 0.0099(11) Uani d 1
H H2 0.3859 0.3811 -0.1034 0.012 Uiso calc 1
C C3 0.5268(7) 0.1745(5) -0.1043(4) 0.0116(11) Uani d 1
H H3A 0.4344 0.1054 -0.0731 0.014 Uiso calc 1
H H3B 0.5066 0.2019 -0.1833 0.014 Uiso calc 1
C C4 0.7484(7) 0.1119(5) -0.0721(4) 0.0139(11) Uani d 1
H H4A 0.7613 0.0573 0.0039 0.017 Uiso calc 1
H H4B 0.8061 0.0478 -0.1180 0.017 Uiso calc 1
C C5 0.8539(7) 0.2430(5) -0.0893(4) 0.0140(11) Uani d 1
H H5A 0.9733 0.2251 -0.0394 0.017 Uiso calc 1
H H5B 0.9001 0.2699 -0.1640 0.017 Uiso calc 1
N N1 0.6929(6) 0.3590(5) -0.0666(3) 0.0118(9) Uani d 1
H H1A 0.730(7) 0.379(5) -0.004(3) 0.014 Uiso d 1
H H1B 0.680(7) 0.438(4) -0.125(3) 0.014 Uiso d 1
O O3 0.0460(5) 0.2670(4) 0.3623(3) 0.0129(8) Uani d 1
O O4 -0.2503(5) 0.1884(4) 0.4122(3) 0.0128(8) Uani d 1
C C6 -0.0738(8) 0.2116(5) 0.4300(4) 0.0110(11) Uani d 1
C C7 0.0005(7) 0.1744(5) 0.5463(4) 0.0118(11) Uani d 1
H H7 -0.0519 0.0864 0.5872 0.014 Uiso calc 1
C C8 -0.0645(8) 0.3004(6) 0.5998(4) 0.0203(13) Uani d 1
H H8A -0.1209 0.3888 0.5457 0.024 Uiso calc 1
H H8B -0.1684 0.2770 0.6543 0.024 Uiso calc 1
C C9 0.1325(8) 0.3189(6) 0.6521(4) 0.0195(13) Uani d 1
H H9A 0.1284 0.4192 0.6574 0.023 Uiso calc 1
H H9B 0.1554 0.2544 0.7248 0.023 Uiso calc 1
C C10 0.2963(8) 0.2794(5) 0.5779(4) 0.0156(12) Uani d 1
H H10A 0.2987 0.3579 0.5127 0.019 Uiso calc 1
H H10B 0.4327 0.2552 0.6143 0.019 Uiso calc 1
N N2 0.2300(7) 0.1508(5) 0.5519(3) 0.0119(9) Uani d 1
H H2A 0.280(7) 0.073(4) 0.602(3) 0.014 Uiso d 1
H H2B 0.282(7) 0.148(5) 0.488(3) 0.014 Uiso d 1
loop_
_atom_site_aniso_label
_atom_site_aniso_U_11
_atom_site_aniso_U_22
_atom_site_aniso_U_33
_atom_site_aniso_U_12
_atom_site_aniso_U_13
_atom_site_aniso_U_23
Cu1 0.0099(3) 0.0130(3) 0.0088(3) -0.0001(3) -0.0014(3) -0.0027(3)
Cu2 0.0090(3) 0.0116(3) 0.0093(3) -0.0014(3) 0.0009(3) -0.0010(3)
Cl1 0.0119(6) 0.0117(6) 0.0147(6) -0.0009(5) -0.0011(5) -0.0012(5)
Cl2 0.0108(6) 0.0142(6) 0.0148(6) -0.0014(5) -0.0011(5) 0.0003(5)
Cl3 0.0110(6) 0.0122(6) 0.0124(6) -0.0021(5) 0.0004(5) -0.0034(5)
Cl4 0.0169(7) 0.0148(7) 0.0132(6) -0.0002(5) 0.0015(5) -0.0042(5)
O1 0.0123(18) 0.0125(18) 0.0096(18) -0.0016(15) -0.0003(15) -0.0009(15)
O2 0.0121(19) 0.0111(18) 0.0119(19) -0.0033(15) 0.0002(15) -0.0018(15)
C1 0.005(2) 0.007(2) 0.012(3) 0.0016(19) -0.001(2) -0.001(2)
C2 0.006(2) 0.012(3) 0.012(3) -0.002(2) -0.002(2) -0.002(2)
C3 0.011(3) 0.015(3) 0.011(3) -0.002(2) 0.000(2) -0.007(2)
C4 0.015(3) 0.012(3) 0.016(3) 0.001(2) 0.003(2) -0.006(2)
C5 0.012(3) 0.015(3) 0.016(3) 0.000(2) 0.004(2) -0.006(2)
N1 0.015(2) 0.011(2) 0.010(2) -0.0032(19) 0.0029(18) -0.0020(18)
O3 0.0142(19) 0.0121(19) 0.0118(19) -0.0042(15) 0.0024(15) -0.0007(15)
O4 0.0107(19) 0.017(2) 0.0110(19) -0.0027(15) -0.0022(15) -0.0027(15)
C6 0.016(3) 0.006(3) 0.009(3) 0.006(2) -0.002(2) -0.004(2)
C7 0.007(3) 0.017(3) 0.009(3) -0.002(2) -0.001(2) 0.001(2)
C8 0.018(3) 0.030(3) 0.013(3) 0.006(3) -0.002(2) -0.012(3)
C9 0.022(3) 0.023(3) 0.018(3) -0.004(3) -0.001(2) -0.011(2)
C10 0.015(3) 0.013(3) 0.020(3) -0.006(2) 0.000(2) -0.003(2)
N2 0.014(2) 0.012(2) 0.009(2) -0.0015(19) -0.0020(18) -0.0012(19)
loop_
_atom_type_symbol
_atom_type_description
_atom_type_scat_dispersion_real
_atom_type_scat_dispersion_imag
_atom_type_scat_source
C C 0.0033 0.0016 'International Tables Vol C Tables 4.2.6.8 and 6.1.1.4'
H H 0.0000 0.0000 'International Tables Vol C Tables 4.2.6.8 and 6.1.1.4'
N N 0.0061 0.0033 'International Tables Vol C Tables 4.2.6.8 and 6.1.1.4'
O O 0.0106 0.0060 'International Tables Vol C Tables 4.2.6.8 and 6.1.1.4'
Cu Cu 0.3201 1.2651 'International Tables Vol C Tables 4.2.6.8 and 6.1.1.4'
Cl Cl 0.1484 0.1585 'International Tables Vol C Tables 4.2.6.8 and 6.1.1.4'
loop_
_geom_angle_atom_site_label_1
_geom_angle_atom_site_label_2
_geom_angle_atom_site_label_3
_geom_angle_site_symmetry_1
_geom_angle_site_symmetry_3
_geom_angle
O4 Cu1 O1 1_655 . 178.69(14)
O4 Cu1 Cl4 1_655 . 91.42(11)
O1 Cu1 Cl4 . . 89.11(10)
O4 Cu1 Cl3 1_655 . 89.29(11)
O1 Cu1 Cl3 . . 89.99(10)
Cl4 Cu1 Cl3 . . 170.66(5)
O3 Cu2 O2 . . 170.29(14)
O3 Cu2 Cl1 . . 90.19(11)
O2 Cu2 Cl1 . . 90.55(10)
O3 Cu2 Cl2 . . 85.29(10)
O2 Cu2 Cl2 . . 91.85(10)
Cl1 Cu2 Cl2 . . 166.68(5)
O3 Cu2 Cl3 . 1_455 91.17(10)
O2 Cu2 Cl3 . 1_455 98.41(10)
Cl1 Cu2 Cl3 . 1_455 95.12(5)
Cl2 Cu2 Cl3 . 1_455 97.48(5)
O3 Cu2 Cl4 . . 70.85(10)
O2 Cu2 Cl4 . . 99.60(10)
Cl1 Cu2 Cl4 . . 84.23(4)
Cl2 Cu2 Cl4 . . 82.45(4)
Cl3 Cu2 Cl4 1_455 . 161.99(4)
Cu1 Cl3 Cu2 . 1_655 86.85(5)
Cu1 Cl4 Cu2 . . 65.76(4)
C1 O1 Cu1 . . 131.9(3)
C1 O2 Cu2 . . 117.8(3)
O2 C1 O1 . . 126.0(5)
O2 C1 C2 . . 118.7(4)
O1 C1 C2 . . 115.0(4)
N1 C2 C1 . . 109.8(4)
N1 C2 C3 . . 103.7(4)
C1 C2 C3 . . 115.7(4)
N1 C2 H2 . . 109.1
C1 C2 H2 . . 109.1
C3 C2 H2 . . 109.1
C4 C3 C2 . . 103.2(4)
C4 C3 H3A . . 111.1
C2 C3 H3A . . 111.1
C4 C3 H3B . . 111.1
C2 C3 H3B . . 111.1
H3A C3 H3B . . 109.1
C5 C4 C3 . . 103.6(4)
C5 C4 H4A . . 111.0
C3 C4 H4A . . 111.0
C5 C4 H4B . . 111.0
C3 C4 H4B . . 111.0
H4A C4 H4B . . 109.0
N1 C5 C4 . . 104.4(4)
N1 C5 H5A . . 110.9
C4 C5 H5A . . 110.9
N1 C5 H5B . . 110.9
C4 C5 H5B . . 110.9
H5A C5 H5B . . 108.9
C2 N1 C5 . . 109.0(4)
C2 N1 H1A . . 111(3)
C5 N1 H1A . . 108(3)
C2 N1 H1B . . 106(3)
C5 N1 H1B . . 109(3)
H1A N1 H1B . . 114(4)
C6 O3 Cu2 . . 133.8(3)
C6 O4 Cu1 . 1_455 118.1(3)
O3 C6 O4 . . 127.1(5)
O3 C6 C7 . . 115.9(4)
O4 C6 C7 . . 117.0(4)
N2 C7 C6 . . 109.7(4)
N2 C7 C8 . . 104.8(4)
C6 C7 C8 . . 111.6(4)
N2 C7 H7 . . 110.2
C6 C7 H7 . . 110.2
C8 C7 H7 . . 110.2
C9 C8 C7 . . 104.3(4)
C9 C8 H8A . . 110.9
C7 C8 H8A . . 110.9
C9 C8 H8B . . 110.9
C7 C8 H8B . . 110.9
H8A C8 H8B . . 108.9
C10 C9 C8 . . 104.1(4)
C10 C9 H9A . . 110.9
C8 C9 H9A . . 110.9
C10 C9 H9B . . 110.9
C8 C9 H9B . . 110.9
H9A C9 H9B . . 109.0
N2 C10 C9 . . 101.6(4)
N2 C10 H10A . . 111.4
C9 C10 H10A . . 111.4
N2 C10 H10B . . 111.4
C9 C10 H10B . . 111.4
H10A C10 H10B . . 109.3
C10 N2 C7 . . 107.9(4)
C10 N2 H2A . . 109(3)
C7 N2 H2A . . 112(3)
C10 N2 H2B . . 105(3)
C7 N2 H2B . . 111(3)
H2A N2 H2B . . 112(4)
loop_
_geom_bond_atom_site_label_1
_geom_bond_atom_site_label_2
_geom_bond_site_symmetry_2
_geom_bond_distance
_geom_bond_publ_flag
Cu1 O1 . 1.968(3) n
Cu1 O4 1_655 1.953(3) n
Cu1 Cl4 . 2.2510(14) n
Cu1 Cl3 . 2.3201(14) n
Cu2 O3 . 1.988(3) ?
Cu2 O2 . 1.999(3) ?
Cu2 Cl1 . 2.2314(14) ?
Cu2 Cl2 . 2.2847(14) ?
Cu2 Cl3 1_455 2.6020(14) ?
Cu2 Cl4 . 3.6136(15) ?
Cl3 Cu2 1_655 2.6020(14) ?
O1 C1 . 1.269(5) ?
O2 C1 . 1.244(5) ?
C1 C2 . 1.523(7) ?
C2 N1 . 1.504(6) ?
C2 C3 . 1.529(6) ?
C2 H2 . 1.0000 ?
C3 C4 . 1.522(6) ?
C3 H3A . 0.9900 ?
C3 H3B . 0.9900 ?
C4 C5 . 1.516(7) ?
C4 H4A . 0.9900 ?
C4 H4B . 0.9900 ?
C5 N1 . 1.509(6) ?
C5 H5A . 0.9900 ?
C5 H5B . 0.9900 ?
N1 H1A . 0.92(2) ?
N1 H1B . 0.93(2) ?
O3 C6 . 1.254(6) ?
O4 C6 . 1.258(6) ?
O4 Cu1 1_455 1.953(3) ?
C6 C7 . 1.516(6) ?
C7 N2 . 1.504(6) ?
C7 C8 . 1.547(7) ?
C7 H7 . 1.0000 ?
C8 C9 . 1.528(7) ?
C8 H8A . 0.9900 ?
C8 H8B . 0.9900 ?
C9 C10 . 1.504(7) ?
C9 H9A . 0.9900 ?
C9 H9B . 0.9900 ?
C10 N2 . 1.496(6) ?
C10 H10A . 0.9900 ?
C10 H10B . 0.9900 ?
N2 H2A . 0.89(2) ?
N2 H2B . 0.90(2) ?
