#------------------------------------------------------------------------------
#$Date: 2016-02-20 00:18:51 +0200 (Sat, 20 Feb 2016) $
#$Revision: 176760 $
#$URL: svn://www.crystallography.net/cod/cif/2/01/95/2019592.cif $
#------------------------------------------------------------------------------
#
# This file is available in the Crystallography Open Database (COD),
# http://www.crystallography.net/. The original data for this entry
# were provided by IUCr Journals, http://journals.iucr.org/.
#
# The file may be used within the scientific community so long as
# proper attribution is given to the journal article from which the
# data were obtained.
#
data_2019592
loop_
_publ_author_name
'Geiger, David K.'
'Parsons, Dylan E.'
_publ_section_title
;
 Hydrogen bonding in 4-nitrobenzene-1,2-diamine and two hydrohalide salts
;
_journal_coeditor_code           SK3544
_journal_issue                   7
_journal_name_full               'Acta Crystallographica Section C'
_journal_page_first              681
_journal_page_last               688
_journal_paper_doi               10.1107/S2053229614013485
_journal_volume                  70
_journal_year                    2014
_chemical_formula_iupac          'C6 H8 N3 O2 +, Cl -'
_chemical_formula_moiety         'C6 H8 N3 O2 +, Cl -'
_chemical_formula_sum            'C6 H8 Cl N3 O2'
_chemical_formula_weight         189.60
_chemical_name_common
;
4-nitro-o-phenylenediamine hydrochloride
;
_chemical_name_systematic
;
2-Amino-5-nitroanilinium chloride
;
_space_group_crystal_system      monoclinic
_space_group_IT_number           4
_space_group_name_Hall           'P 2yb'
_space_group_name_H-M_alt        'P 1 21 1'
_symmetry_space_group_name_Hall  'P 2yb'
_symmetry_space_group_name_H-M   'P 1 21 1'
_atom_sites_solution_hydrogens   mixed
_atom_sites_solution_primary     direct
_atom_sites_solution_secondary   difmap
_cell_angle_alpha                90
_cell_angle_beta                 97.774(8)
_cell_angle_gamma                90
_cell_formula_units_Z            4
_cell_length_a                   4.4743(11)
_cell_length_b                   29.757(7)
_cell_length_c                   6.1706(15)
_cell_measurement_reflns_used    123
_cell_measurement_temperature    200.(2)
_cell_measurement_theta_max      20.7144
_cell_measurement_theta_min      0.1744
_cell_volume                     814.0(3)
_computing_cell_refinement       'APEX2 (Bruker, 2013)'
_computing_data_collection       '<i>APEX2</i> (Bruker, 2013)'
_computing_data_reduction        'SAINT (Bruker, 2013)'
_computing_molecular_graphics    'PLATON (Spek, 2009)'
_computing_publication_material  'publCIF (Westrip, 2010)'
_computing_structure_refinement  'SHELXL2013 (Sheldrick, 2008)'
_computing_structure_solution    'SHELXS97 (Sheldrick, 2008)'
_diffrn_ambient_temperature      200.(2)
_diffrn_detector_area_resol_mean 8.3330
_diffrn_measured_fraction_theta_full 0.985
_diffrn_measured_fraction_theta_max 0.985
_diffrn_measurement_device_type  'Bruker SMART X2S benchtop'
_diffrn_measurement_method       '\w scans'
_diffrn_radiation_monochromator  'doubly curved silicon crystal'
_diffrn_radiation_type           'Mo Ka'
_diffrn_radiation_wavelength     0.71073
_diffrn_reflns_av_R_equivalents  0.0727
_diffrn_reflns_limit_h_max       4
_diffrn_reflns_limit_h_min       -5
_diffrn_reflns_limit_k_max       35
_diffrn_reflns_limit_k_min       -34
_diffrn_reflns_limit_l_max       7
_diffrn_reflns_limit_l_min       -7
_diffrn_reflns_number            5088
_diffrn_reflns_theta_full        25.05
_diffrn_reflns_theta_max         25.05
_diffrn_reflns_theta_min         2.74
_exptl_absorpt_coefficient_mu    0.430
_exptl_absorpt_correction_T_max  0.98
_exptl_absorpt_correction_T_min  0.58
_exptl_absorpt_correction_type   multi-scan
_exptl_absorpt_process_details   '(SADABS; Bruker, 2013)'
_exptl_crystal_colour            colourless
_exptl_crystal_density_diffrn    1.547
_exptl_crystal_density_method    'not measured'
_exptl_crystal_description       plate
_exptl_crystal_F_000             392
_exptl_crystal_size_max          0.500
_exptl_crystal_size_mid          0.200
_exptl_crystal_size_min          0.050
_refine_diff_density_max         0.439
_refine_diff_density_min         -0.294
_refine_ls_abs_structure_details
;
Flack <i>x</i> determined using 460 quotients [(I+)-(I-)]/[(I+)+(I-)]
(Parsons <i>et al.</i>, 2013)
;
_refine_ls_abs_structure_Flack   0.50(12)
_refine_ls_extinction_method     none
_refine_ls_goodness_of_fit_ref   0.940
_refine_ls_hydrogen_treatment    mixed
_refine_ls_matrix_type           full
_refine_ls_number_parameters     251
_refine_ls_number_reflns         2353
_refine_ls_number_restraints     1
_refine_ls_restrained_S_all      0.940
_refine_ls_R_factor_all          0.0733
_refine_ls_R_factor_gt           0.0493
_refine_ls_shift/su_max          0.000
_refine_ls_shift/su_mean         0.000
_refine_ls_structure_factor_coef Fsqd
_refine_ls_weighting_details
'w=1/[\s^2^(Fo^2^)+(0.0358P)^2^] where P=(Fo^2^+2Fc^2^)/3'
_refine_ls_weighting_scheme      calc
_refine_ls_wR_factor_gt          0.0945
_refine_ls_wR_factor_ref         0.1016
_reflns_number_gt                1707
_reflns_number_total             2353
_reflns_threshold_expression     I>2\s(I)
_cod_data_source_file            sk3544sup1.cif
_cod_data_source_block           II
_cod_depositor_comments
'Adding full bibliography for 2019591--2019593.cif.'
_cod_database_code               2019592
_cod_database_fobs_code          2019592
#BEGIN Tags that were not found in dictionaries:
_shelx_hkl_checksum              86080
_shelx_hkl_file
;
  -1   0   0 1047.60   48.00
  -1   0   0 1081.49   57.99
   1   0   0 1048.90   58.09
  -2   0   0  577.44   41.50
  -2   0   0  538.65   29.60
   2   0   0  597.84   42.50
  -3   0   0   56.79   18.90
  -3   0   0  114.79   22.30
  -3   0   0   82.99   10.80
  -4   0   0   34.20   18.30
  -5   0   0   17.80   21.10
  -5   1   0   68.59   26.10
  -4   1   0   33.70   18.60
  -3   1   0   51.59    9.00
  -3   1   0   40.10   17.10
  -3   1   0   24.80   16.00
   2  -1   0 1914.41  103.29
  -2   1   0 1760.32   83.49
  -2   1   0 1850.41  101.89
   1  -1   0 1189.08   54.79
   1  -1   0 1260.07   66.09
  -1   1   0 1217.78   54.89
  -1   1   0 1186.88   65.39
   0  -1   0   -0.10    1.30
   0   1   0    0.30    0.80
  -1  -1   0  523.65   28.70
  -2  -1   0 2056.69   89.99
  -2  -1   0 1886.31  107.99
   2   1   0 1977.20  108.99
  -3  -1   0   40.90   16.60
  -3  -1   0   25.00   14.70
  -3  -1   0   25.80    7.70
  -4  -1   0   58.29   22.00
  -5  -1   0   73.89   26.30
  -5   2   0   13.20   19.30
  -4   2   0    4.20   16.20
  -3   2   0  606.94   48.00
  -3   2   0  550.54   31.90
   2  -2   0  198.28   25.20
   2  -2   0  224.28   15.00
  -2   2   0  227.48   24.80
  -2   2   0  186.78   15.40
   1  -2   0 1519.85   70.99
   1  -2   0 1651.73   83.99
  -1   2   0 1632.54   83.69
  -1   2   0 1531.65   71.09
   0  -2   0   -1.30    0.50
   0  -2   0   -1.10    0.80
   0   2   0   -0.10    0.90
   0   2   0   -1.10    0.70
  -1  -2   0 1575.14   73.59
  -1  -2   0 1725.63   85.09
   1   2   0 1586.64   84.49
  -2  -2   0  229.68   23.40
  -2  -2   0  180.38   19.80
  -2  -2   0  183.28   14.00
   2   2   0  221.88   24.60
  -3  -2   0  567.54   35.50
  -3  -2   0  521.05   29.60
  -3  -2   0  574.74   45.70
  -4  -2   0   18.90   15.50
  -5  -2   0   29.30   21.70
  -5   3   0   73.19   28.60
  -4   3   0   87.09   25.80
  -3   3   0    4.40   13.70
  -3   3   0   -0.70   16.20
   2  -3   0  303.27   19.30
  -2   3   0  311.77   29.00
  -2   3   0  291.67   19.50
   1  -3   0 2485.25  126.99
   1  -3   0 2477.35  110.29
  -1   3   0 2430.66  110.29
  -1   3   0 2554.64  127.09
   0  -3   0   -3.40    1.80
   0  -3   0   -4.90    1.20
   0   3   0   -4.60    1.00
   0   3   0   -4.20    1.50
  -1  -3   0 2622.64  131.89
  -1  -3   0 2611.14  114.79
   1   3   0 2657.63  132.39
  -2  -3   0  331.77   20.90
  -2  -3   0  318.67   28.70
   2   3   0  322.47   28.90
  -3  -3   0   17.60   13.60
  -3  -3   0   11.70    6.80
  -3  -3   0   12.20    8.40
  -4  -3   0  126.29   27.00
  -5  -3   0   58.99   23.90
  -5   4   0   24.90   22.50
  -4   4   0  109.19   27.60
  -3   4   0  706.73   39.50
  -3   4   0  736.23   56.79
   2  -4   0   30.30    7.20
  -2   4   0   31.00   14.10
  -2   4   0   25.90    7.60
   1  -4   0  528.35   34.20
   1  -4   0  505.95   26.70
  -1   4   0  461.25   32.60
  -1   4   0  502.35   26.60
   0  -4   0  810.02   41.30
   0  -4   0  849.61   37.10
   0   4   0  734.03   40.90
   0   4   0  786.02   36.80
  -1  -4   0  528.55   25.10
  -1  -4   0  537.55   32.50
   1   4   0  519.15   33.70
   1   4   0  482.55   26.70
  -2  -4   0   30.30   12.10
  -2  -4   0   30.60    6.10
   2   4   0   28.50   12.00
   2   4   0   16.30    9.50
  -3  -4   0  778.82   37.20
  -3  -4   0  712.03   37.40
  -3  -4   0  685.43   52.69
  -4  -4   0  132.59   27.00
  -5  -4   0   34.50   21.30
  -5   5   0   24.30   20.30
  -4   5   0   53.29   22.20
  -4   5   0   48.50   11.50
   3  -5   0   88.99   12.50
  -3   5   0   65.59   11.80
  -3   5   0   58.79   19.70
   2  -5   0  183.78   15.20
  -2   5   0  194.48   15.60
  -2   5   0  190.48   24.20
   1  -5   0  866.01   41.80
   1  -5   0  799.02   49.50
  -1   5   0  858.71   50.29
  -1   5   0  843.32   41.60
   0  -5   0   14.20    5.00
   0  -5   0   -3.20    2.90
   0   5   0   -2.80    2.80
   0   5   0   -0.20    4.00
  -1  -5   0 1004.90   53.49
  -1  -5   0  966.40   43.90
   1   5   0  895.71   44.30
   1   5   0  927.41   56.19
  -2  -5   0  199.28   12.80
  -2  -5   0  197.58   22.00
   2   5   0  179.68   22.40
  -3  -5   0   82.39    9.40
  -3  -5   0   65.29   10.30
  -4  -5   0   72.59   22.60
  -5  -5   0   32.10   20.90
  -5   6   0   38.10   23.30
  -4   6   0   25.30   10.00
  -4   6   0   30.20   18.90
   3  -6   0  252.47   19.90
  -3   6   0  237.88   34.10
  -3   6   0  223.58   19.30
   2  -6   0   73.09   10.90
  -2   6   0   67.99   10.50
  -2   6   0   69.39   17.50
   1  -6   0 4083.39  208.88
   1  -6   0 4112.49  184.58
  -1   6   0 4273.67  184.68
  -1   6   0 4247.38  209.38
   0  -6   0 3154.18  158.18
   0  -6   0 3366.06  142.79
   0   6   0 3285.67  158.48
   0   6   0 3120.99  142.19
  -1  -6   0 4485.35  195.78
  -1  -6   0 4566.44  222.08
   1   6   0 4435.16  195.98
   1   6   0 4511.85  229.48
  -2  -6   0   65.79   15.20
  -2  -6   0   90.39    8.90
   2   6   0   64.89   13.40
   2   6   0   84.69   17.50
  -3  -6   0  226.18   16.70
  -3  -6   0  252.37   15.70
  -3  -6   0  242.38   28.00
  -4  -6   0   23.20   16.00
  -5   7   0    2.00   19.40
  -4   7   0   14.90   19.40
  -4   7   0   58.79   12.30
  -3   7   0   95.79   23.90
  -3   7   0  107.29   14.80
   2  -7   0  354.56   22.90
  -2   7   0  297.87   30.10
  -2   7   0  306.37   22.10
   1  -7   0 2026.40   93.39
   1  -7   0 2065.49  107.69
  -1   7   0 1991.20   93.09
  -1   7   0 1991.70  107.49
   0  -7   0   -5.00    4.90
   0  -7   0   -7.40    5.50
   0   7   0   -2.40    5.00
   0   7   0   -5.00    5.80
  -1  -7   0 2062.09  105.99
  -1  -7   0 2034.60   90.19
   1   7   0 1943.61   90.09
  -2  -7   0  352.16   30.40
  -2  -7   0  390.56   21.50
   2   7   0  367.26   34.30
  -3  -7   0  118.89   21.50
  -3  -7   0   94.59    9.90
  -4  -7   0   82.29   22.20
  -5   8   0   23.30   23.20
  -4   8   0   85.49   14.90
  -4   8   0   92.59   26.20
  -3   8   0   70.79   21.30
  -3   8   0   54.09   11.70
   2  -8   0  965.20   50.79
  -2   8   0  924.61   62.99
  -2   8   0  996.80   50.89
   1  -8   0 1895.31   87.79
   1  -8   0 1873.31  101.09
  -1   8   0 1856.41  101.09
  -1   8   0 1858.81   87.49
   0  -8   0  420.76   24.40
   0  -8   0  433.06   27.40
   0   8   0  411.26   24.00
   0   8   0  420.46   27.10
  -1  -8   0 2005.90   89.99
  -1  -8   0 1921.61  106.49
  -1  -8   0 2134.69  101.49
   1   8   0 1868.51   89.49
  -2  -8   0 1042.40   61.29
  -2  -8   0 1034.50   48.10
   2   8   0  864.71   53.19
   2   8   0 1035.30   67.89
  -3  -8   0   64.99   17.90
  -3  -8   0   56.09    8.10
  -4  -8   0   68.19   21.50
  -5   9   0   20.10   23.50
  -4   9   0   59.09   24.00
  -4   9   0   54.69   13.80
  -3   9   0  117.99   25.90
  -3   9   0  108.29   15.70
  -2   9   0   20.70   12.60
  -2   9   0   23.90    8.60
   1  -9   0 1356.36   75.89
   1  -9   0 1290.97   64.59
  -1   9   0 1325.77   75.59
  -1   9   0 1260.27   64.19
   0  -9   0   -3.80    5.70
   0  -9   0    3.40    5.20
   0   9   0   -0.50    5.80
   0   9   0    4.60    4.60
  -1  -9   0 1339.37   68.39
  -1  -9   0 1299.07   60.89
  -1  -9   0 1256.47   77.09
   1   9   0 1240.08   60.39
  -2  -9   0   27.30    6.40
  -2  -9   0   39.70   12.50
   2   9   0   50.59   19.60
   2   9   0   24.60    9.80
  -3  -9   0   87.59   10.00
  -3  -9   0   80.69   18.90
   3   9   0   26.00   14.10
  -4  -9   0   79.79   22.10
  -5  10   0   11.50   20.30
  -4  10   0   66.89   24.30
  -4  10   0   83.29   15.90
  -3  10   0   28.30   16.80
  -3  10   0   34.20   10.90
  -2  10   0   58.79   17.50
  -2  10   0   56.79   11.40
   1 -10   0 1694.83   92.09
   1 -10   0 1667.23   79.39
  -1  10   0 1626.34   91.19
  -1  10   0 1534.05   78.29
   0 -10   0  529.15   33.30
   0 -10   0  484.55   29.20
   0  10   0  504.55   32.50
   0  10   0  468.85   28.40
  -1 -10   0 1711.83   77.99
  -1 -10   0 1743.23   86.69
  -1 -10   0 1583.44   98.69
   1  10   0 1592.74   77.09
  -2 -10   0   51.99   13.50
  -2 -10   0   51.69    8.30
   2  10   0   59.89   24.90
   2  10   0   66.39   12.10
  -3 -10   0   40.10    8.00
  -3 -10   0   44.20   15.40
   3  10   0   14.20   12.60
  -4 -10   0   57.59   19.60
  -5  11   0    7.30   22.50
  -4  11   0   82.49   26.40
  -4  11   0   74.49   16.10
  -3  11   0  533.35   36.50
  -3  11   0  602.54   51.69
  -2  11   0   34.60   15.80
  -2  11   0   31.40    9.80
  -1  11   0  273.77   20.30
  -1  11   0  261.47   25.30
   0 -11   0   -1.30    6.10
   0 -11   0   -2.80    5.40
   0  11   0   -2.80    4.40
   0  11   0   -2.60    6.10
  -1 -11   0  297.17   21.70
  -1 -11   0  290.57   19.70
  -1 -11   0  237.78   35.00
   1  11   0  273.47   18.30
  -2 -11   0   29.90    7.40
  -2 -11   0   41.70   12.60
   2  11   0   38.50   24.50
   2  11   0   44.40   10.00
  -3 -11   0  598.94   45.40
  -3 -11   0  564.94   32.20
  -4 -11   0   79.19   22.10
  -4  12   0   61.69   24.70
  -4  12   0   60.09   14.60
  -3  12   0    8.00   15.40
  -3  12   0    8.70    8.90
  -2  12   0 1022.50   66.09
  -2  12   0  860.51   50.79
  -1  12   0  280.57   21.70
  -1  12   0  278.57   27.20
   0 -12   0    8.30    6.80
   0 -12   0   15.90    8.30
   0  12   0    6.10    6.00
   0  12   0   -3.70    5.70
  -1 -12   0  215.48   36.60
  -1 -12   0  291.17   19.80
  -1 -12   0  282.87   21.20
   1  12   0  257.07   18.20
  -2 -12   0  981.70   49.80
  -2 -12   0 1008.90   61.79
   2  12   0  961.40   52.29
  -3 -12   0   12.50   12.60
  -3 -12   0   11.40    7.30
   3  12   0   19.00   13.70
  -4 -12   0   51.99   18.80
  -4  13   0  235.28   24.30
  -4  13   0  202.38   38.40
  -3  13   0  124.09   18.90
  -3  13   0  126.29   26.20
  -2  13   0  344.77   34.90
  -2  13   0  382.66   27.80
  -1  13   0  132.99   20.90
  -1  13   0  128.39   15.10
   0 -13   0   -1.40    7.40
   0  13   0   -0.30    5.10
   0  13   0   -1.60    6.90
  -1 -13   0  116.99   14.90
  -1 -13   0   78.19   26.20
   1  13   0  101.49   11.80
  -2 -13   0  420.66   32.00
  -2 -13   0  402.06   33.80
  -2 -13   0  407.26   25.90
   2  13   0  398.36   27.30
  -3 -13   0  133.09   22.60
   3  13   0   81.19   20.40
  -4  14   0  755.12   48.30
  -4  14   0  682.23   64.99
  -3  14   0   42.30   20.20
  -3  14   0   33.80   11.70
  -2  14   0  312.17   25.20
  -2  14   0  286.57   32.90
  -1  14   0   91.99   13.90
  -1  14   0   87.19   17.90
   0 -14   0 7180.38  342.27
   0  14   0 6791.02  306.67
   0  14   0 6877.11  340.87
  -1 -14   0   51.69   24.90
  -1 -14   0  106.89   15.60
   1  14   0  105.79   12.10
  -2 -14   0  324.07   27.00
  -2 -14   0  276.77   29.40
   2  14   0  303.17   22.80
  -3 -14   0   25.80   14.40
   3  14   0   38.60   16.80
  -4  15   0  330.37   49.50
  -4  15   0  323.87   30.50
  -3  15   0  167.38   22.20
  -3  15   0  160.78   32.00
  -2  15   0  145.79   19.30
  -2  15   0  146.79   26.30
  -1  15   0    4.90    7.80
  -1  15   0   11.20    9.80
   0 -15   0    6.50    9.40
   0  15   0   -3.00    5.00
   0  15   0    0.60    6.50
  -1 -15   0    8.40    8.50
   1  15   0   16.90    6.70
  -2 -15   0  166.28   19.60
  -2 -15   0  177.28   25.80
   2  15   0  141.99   16.50
  -3 -15   0  172.78   25.30
   3  15   0  159.38   26.10
  -4  16   0   32.10   14.20
  -4  16   0   43.00   23.00
  -3  16   0  257.17   25.40
  -3  16   0  242.58   37.60
  -2  16   0  176.98   29.70
  -2  16   0  184.48   20.60
  -1  16   0   47.90   15.10
  -1  16   0   31.10   10.20
   0  16   0  955.00   58.79
   0  16   0 1000.40   53.29
  -1 -16   0   46.10   11.80
   1  16   0   41.50   11.90
   1  16   0   32.20    9.00
  -2 -16   0  240.68   28.20
  -2 -16   0  198.18   21.60
   2  16   0  202.68   19.30
  -3 -16   0  207.28   26.70
   3  16   0  251.37   29.10
  -4  17   0   34.50   21.60
  -4  17   0   50.79   16.40
  -3  17   0  785.72   66.69
  -3  17   0  890.71   53.99
  -2  17   0  151.68   27.50
  -2  17   0  133.79   19.80
  -1  17   0  386.46   29.00
  -1  17   0  378.16   35.00
   0  17   0    1.30    6.40
   0  17   0    7.10    8.30
  -1 -17   0  359.76   29.40
   1  17   0  397.36   31.10
   1  17   0  366.16   26.00
  -2 -17   0  185.68   28.70
  -2 -17   0  156.98   21.10
   2  17   0  152.08   19.00
  -3 -17   0  938.11   60.69
   3  17   0  860.71   59.49
  -4  18   0   84.59   19.40
  -4  18   0   51.39   23.50
  -3  18   0  703.23   62.09
  -3  18   0  753.12   49.10
  -2  18   0  152.78   28.10
  -2  18   0  157.78   21.40
  -1  18   0  430.86   37.30
  -1  18   0  427.36   31.80
   0  18   0  222.68   23.40
   0  18   0  243.38   20.80
  -1 -18   0  443.56   33.60
   1  18   0  426.96   33.60
   1  18   0  387.76   28.70
  -2 -18   0  183.58   29.30
  -2 -18   0  167.98   22.50
   2  18   0  172.88   18.70
  -3 -18   0  781.02   53.49
   3  18   0  719.73   53.19
  -4  19   0   37.80   16.10
  -4  19   0   10.90   20.70
  -3  19   0   28.40   13.50
  -3  19   0   24.80   17.10
  -2  19   0  129.89   25.90
  -2  19   0  128.99   19.60
  -1  19   0  147.79   20.20
  -1  19   0  115.09   22.40
   0  19   0    7.20    7.60
   0  19   0    6.50    9.40
   1  19   0  122.79   17.20
   1  19   0  150.88   21.40
  -2 -19   0  121.19   26.40
   2  19   0  157.38   19.60
  -3 -19   0   22.70   14.90
   3  19   0   17.00   16.50
  -4  20   0   23.80   23.00
  -4  20   0   30.60   14.90
  -3  20   0  231.18   38.20
  -3  20   0  220.68   28.40
  -2  20   0   20.00   14.40
  -2  20   0   27.70   12.40
  -1  20   0   39.70   12.30
  -1  20   0   39.40   15.50
   0  20   0 1290.87   75.99
   0  20   0 1232.48   67.69
   1  20   0   44.40   14.10
   1  20   0   34.80   10.20
  -2 -20   0   18.30   16.90
   2  20   0   16.70    9.40
   3  20   0  286.77   35.70
  -4  21   0   70.49   27.10
  -4  21   0   54.89   19.80
  -3  21   0    6.70   15.80
  -3  21   0   35.00   14.80
  -2  21   0   45.70   18.50
  -2  21   0   66.69   16.20
  -1  21   0  190.08   22.10
  -1  21   0  232.08   28.30
   0  21   0   -3.20    7.10
   0  21   0   -0.10    8.60
   1  21   0  204.78   24.30
   1  21   0  210.78   20.90
  -2 -21   0   38.80   19.20
   2  21   0   44.40   12.60
   3  21   0   19.70   17.80
  -4  22   0    3.10   20.00
  -4  22   0    9.10   15.00
  -3  22   0  198.58   36.20
  -3  22   0  197.38   28.20
  -2  22   0  143.09   22.20
  -2  22   0  170.78   31.10
  -1  22   0   62.69   14.60
  -1  22   0   54.59   17.90
   0  22   0   85.39   18.20
   0  22   0   72.29   14.60
   1  22   0   85.89   15.60
   1  22   0   77.39   17.80
  -2 -22   0  163.18   31.80
   2  22   0  154.48   21.30
   3  22   0  264.17   36.10
  -4  23   0   23.20   21.90
  -4  23   0    7.90   15.70
  -3  23   0   16.90   13.20
  -3  23   0   17.60   18.00
  -2  23   0  215.58   34.90
  -2  23   0  220.88   25.80
  -1  23   0    9.50   10.40
  -1  23   0   30.80   15.50
   0  23   0   -0.20    8.90
   0  23   0    5.20    8.40
   1  23   0   31.70   13.40
   1  23   0   14.70    9.80
  -2 -23   0  186.18   34.90
   2  23   0  200.78   22.00
   3  23   0   20.80   18.00
  -3  24   0  228.88   31.60
  -3  24   0  198.68   37.70
  -2  24   0  160.28   31.50
  -2  24   0  163.68   25.60
  -1  24   0    8.40   13.70
  -1  24   0   10.30   10.10
   0  24   0  337.87   32.80
   0  24   0  333.57   29.60
   1  24   0   13.00   13.20
   1  24   0   16.70   10.50
  -2 -24   0  180.58   35.60
   2  24   0  216.08   24.20
   3  24   0  295.87   39.60
  -3  25   0  210.58   30.40
  -3  25   0  180.18   36.20
  -2  25   0   36.50   19.70
  -2  25   0   30.70   13.70
  -1  25   0   50.39   18.00
  -1  25   0   71.49   15.90
   0  25   0   -9.70    7.60
   0  25   0   -5.00   10.30
   1  25   0   74.79   18.60
   1  25   0   84.19   17.10
  -2 -25   0   39.00   24.10
   2  25   0   39.50   14.10
   3  25   0  318.17   41.40
  -3  26   0   97.09   22.70
  -3  26   0   93.49   29.00
  -2  26   0   72.69   23.90
  -2  26   0  120.19   22.00
  -1  26   0   85.89   23.10
  -1  26   0   92.69   19.80
   0  26   0  154.48   23.50
   0  26   0  164.98   26.40
   1  26   0  123.49   23.20
   1  26   0   83.79   17.70
   2  26   0  127.79   21.50
   3  26   0  130.09   29.80
  -3  27   0   45.70   23.60
  -3  27   0   45.00   18.60
  -2  27   0  152.58   25.00
  -2  27   0  150.08   31.80
  -1  27   0   34.10   14.50
  -1  27   0   21.00   14.80
   0  27   0   10.40   13.10
   0  27   0  -11.40    6.70
   1  27   0   26.90   14.60
   1  27   0    8.40   10.10
   2  27   0  159.78   24.30
   3  27   0   46.40   23.60
  -3  28   0   31.10   17.10
  -3  28   0   29.20   21.00
  -2  28   0  117.69   28.80
  -2  28   0  104.59   22.60
  -1  28   0   16.20   16.10
  -1  28   0   42.20   15.40
   0  28   0  677.73   54.49
   0  28   0  795.72   52.39
   1  28   0   35.00   15.90
   1  28   0   37.00   14.10
   2  28   0  164.18   25.70
   3  28   0   42.50   22.90
  -3  29   0   58.49   25.70
  -3  29   0   81.49   22.70
  -2  29   0   40.80   17.40
  -2  29   0   42.00   21.80
  -1  29   0  141.09   24.20
  -1  29   0  141.99   28.50
   0  29   0    1.30    9.80
   0  29   0    4.40   13.50
   1  29   0  188.48   30.30
   1  29   0  191.38   26.90
   2  29   0   72.49   19.30
  -2  30   0   46.20   18.70
  -2  30   0   49.99   22.70
  -1  30   0  225.28   35.00
  -1  30   0  238.38   32.40
   0  30   0   -0.90   12.80
   0  30   0   -4.00   10.50
   1  30   0  206.48   32.50
   1  30   0  249.28   28.10
   2  30   0   57.09   17.90
  -2  31   0   30.20   20.50
  -2  31   0   33.90   17.50
  -1  31   0   64.39   22.30
  -1  31   0  111.19   23.60
   0  31   0   -4.40    9.70
   0  31   0   -2.80   12.30
   1  31   0   62.99   21.60
   1  31   0   84.59   20.40
   2  31   0   23.80   16.50
  -2  32   0  106.19   24.10
  -2  32   0  104.89   29.20
  -1  32   0  130.39   28.60
  -1  32   0  105.19   23.00
   0  32   0  117.79   26.40
   0  32   0  152.38   26.40
   1  32   0  113.49   26.50
   1  32   0  164.78   26.90
   2  32   0  158.28   28.70
  -1  33   0   86.99   26.00
  -1  33   0   98.49   23.30
   0  33   0   -7.60   13.40
   0  33   0   -5.10   10.80
   1  33   0   92.09   22.00
  -1  34   0  271.17   36.70
  -1  34   0  193.88   35.10
   0  34   0    3.10   13.50
   0  34   0    0.90   15.20
   1  34   0  224.68   33.00
   0  35   0   -4.50   12.40
   0  35   0    0.90   16.80
   0  35  -1   21.00   15.70
   0  35  -1   35.50   20.90
   1  34  -1   32.70   18.20
  -1 -34   1   27.80   47.40
   0  34  -1  236.88   37.60
   0  34  -1  221.18   33.30
  -1  34  -1   15.30   15.00
  -1  34  -1   14.30   17.80
   1  33  -1   18.40   15.90
  -1 -33   1   53.59   49.90
   0  33  -1   20.80   17.10
   0  33  -1   20.10   15.40
  -1  33  -1    8.00   12.90
  -1  33  -1   11.90   16.00
   2  32  -1   62.99   23.40
   1  32  -1    6.70   13.30
  -1 -32   1   42.60   43.30
   0  32  -1   47.90   17.80
   0  32  -1   51.49   20.10
  -1  32  -1   35.20   16.90
  -1  32  -1   19.50   17.10
  -2  32  -1   18.00   15.00
  -2  32  -1   25.00   20.10
   2  31  -1   68.59   22.70
   1  31  -1   48.40   16.80
   0  31  -1   12.80   16.30
   0  31  -1   29.60   15.20
  -1  31  -1  140.69   25.70
  -1  31  -1   98.19   26.30
  -2  31  -1   84.09   26.80
  -2  31  -1  110.69   24.60
   2  30  -1   92.59   24.00
   1  30  -1    5.20   12.30
   0  30  -1  215.48   29.50
   0  30  -1  191.08   31.80
  -1  30  -1   74.89   23.50
  -1  30  -1   76.19   19.30
  -2  30  -1    9.00   16.30
  -2  30  -1    8.50   14.20
   3  29  -1   38.70   25.90
   2  29  -1  118.29   25.30
  -2 -29   1   65.49   39.50
   1  29  -1    5.70   11.30
   0  29  -1   65.59   21.10
   0  29  -1   43.80   16.20
  -1  29  -1   84.79   23.70
  -1  29  -1   73.99   19.20
  -2  29  -1  202.68   29.70
  -2  29  -1  183.38   35.40
   3  28  -1  314.17   50.09
   2  28  -1   14.60   15.40
  -2 -28   1   12.80   29.00
   1  28  -1   31.70   14.20
   0  28  -1  242.58   34.20
   0  28  -1  192.68   26.80
  -1  28  -1  149.79   23.90
  -1  28  -1  159.08   30.30
  -2  28  -1    0.80   14.70
  -2  28  -1    5.30   12.20
  -3  28  -1   43.50   22.90
  -3  28  -1   69.39   21.20
   3  27  -1   45.10   28.00
   2  27  -1  323.27   34.60
  -2 -27   1  284.67   56.39
   1  27  -1  158.88   30.10
   1  27  -1  232.18   24.90
   0  27  -1   81.49   17.30
   0  27  -1   89.09   21.60
  -1  27  -1   23.40   12.30
  -1  27  -1   31.50   17.20
  -2  27  -1   17.80   16.90
  -2  27  -1   39.10   15.70
  -3  27  -1   42.00   18.40
  -3  27  -1   27.90   21.20
   3  26  -1   15.60   22.10
   2  26  -1  866.71   59.19
  -2 -26   1  866.01   86.89
   1  26  -1    1.70    9.30
   1  26  -1    2.90   13.60
   0  26  -1  661.43   52.99
   0  26  -1  657.23   46.10
  -1  26  -1   42.80   18.00
  -1  26  -1   21.20   12.10
  -2  26  -1  192.78   27.50
  -2  26  -1  187.68   33.90
  -3  26  -1   21.20   19.00
  -3  26  -1   16.00   14.40
   3  25  -1  174.68   37.30
   2  25  -1  568.64   45.30
  -2 -25   1  637.94   71.59
   1  25  -1   -2.10    8.80
   1  25  -1    1.90   12.40
   0  25  -1  121.39   20.10
   0  25  -1   73.19   19.80
  -1  25  -1   96.29   22.90
  -1  25  -1   74.19   16.50
  -2  25  -1  118.19   27.50
  -2  25  -1  124.69   22.00
  -3  25  -1   28.60   20.20
  -3  25  -1   18.40   13.20
   3  24  -1   49.70   25.40
   2  24  -1   88.09   19.80
  -2 -24   1   75.69   34.60
   1  24  -1  320.37   34.50
   1  24  -1  349.17   30.10
   0  24  -1  177.38   27.60
   0  24  -1  141.29   20.70
  -1  24  -1  131.39   25.40
  -1  24  -1  110.29   19.00
  -2  24  -1    1.30   12.80
  -2  24  -1   10.80   11.10
  -3  24  -1   -0.80   15.40
  -3  24  -1    8.90   12.10
   3  23  -1  190.08   36.30
  -3 -23   1  166.78   34.90
   2  23  -1   70.79   18.20
  -2 -23   1   37.40   28.80
   1  23  -1   82.49   16.70
   1  23  -1   81.49   20.70
   0  23  -1    3.70   11.20
   0  23  -1   14.40    9.80
  -1  23  -1  286.37   26.80
  -1  23  -1  306.27   33.30
  -2  23  -1   32.90   17.60
  -2  23  -1   32.20   12.50
  -3  23  -1   25.40   20.30
  -3  23  -1   46.90   16.20
   3  22  -1  173.78   34.60
  -3 -22   1  185.18   36.40
   2  22  -1  109.69   20.40
  -2 -22   1   85.49   32.70
   1  22  -1  464.05   42.00
   1  22  -1  548.85   37.20
   0  22  -1  118.19   22.30
   0  22  -1   96.89   16.60
  -1  22  -1   67.19   18.80
  -1  22  -1   63.89   14.10
  -2  22  -1  205.18   33.40
  -2  22  -1  202.48   23.30
  -3  22  -1    5.00   11.50
  -3  22  -1   25.80   18.60
   3  21  -1  111.09   29.80
  -3 -21   1  135.49   31.30
   2  21  -1    1.50   11.10
  -2 -21   1   -9.60   16.90
   1  21  -1   26.90   14.90
   1  21  -1   48.10   12.50
   0  21  -1   25.80   13.70
   0  21  -1   31.20   11.30
  -1  21  -1  677.83   51.79
  -1  21  -1  635.04   42.20
  -2  21  -1    1.60    8.60
  -2  21  -1   13.40   14.70
  -3  21  -1   -4.30   13.50
  -3  21  -1   11.30   10.90
  -4  21  -1  164.38   37.90
   3  20  -1  342.37   45.60
  -3 -20   1  381.36   44.90
   2  20  -1  293.67   28.80
  -2 -20   1  307.37   49.60
   1  20  -1 1651.63  101.39
   1  20  -1 1817.92   89.39
   0  20  -1   26.30   12.90
   0  20  -1   23.10    9.30
  -1  20  -1  873.71   63.59
  -1  20  -1  986.60   55.19
  -2  20  -1   78.49   15.70
  -2  20  -1   48.60   18.40
  -3  20  -1    8.50   10.50
  -3  20  -1   10.20   15.70
  -4  20  -1   26.30   21.40
   3  19  -1   12.20   19.70
  -3 -19   1   14.40   18.10
   2  19  -1   92.39   18.80
  -2 -19   1   90.49   28.90
   1  19  -1   79.49   14.40
   0  19  -1   61.69   12.60
   0  19  -1   95.49   18.50
  -1  19  -1  925.31   53.49
  -1  19  -1  926.01   63.69
  -2  19  -1   46.50   18.40
  -2  19  -1   30.60   11.30
  -3  19  -1   15.10   11.40
  -3  19  -1   26.10   18.10
  -4  19  -1  153.48   34.60
   3  18  -1   35.00   19.20
  -3 -18   1   27.70   19.10
   2  18  -1  218.48   25.20
  -2 -18   1  233.88   42.50
   1  18  -1  479.75   32.60
   0  18  -1  824.42   54.39
   0  18  -1  759.52   45.60
  -1  18  -1   32.40   13.20
  -1  18  -1   32.00    9.70
  -2  18  -1   86.09   21.70
  -2  18  -1   70.29   14.00
  -3  18  -1   11.60   16.60
  -3  18  -1    4.00    9.40
  -4  18  -1   34.30   21.60
  -4 -17   1   18.50   19.90
   3  17  -1  410.56   44.40
  -3 -17   1  535.65   49.90
   2  17  -1 1100.79   64.79
  -2 -17   1 1111.69   84.39
   1  17  -1   56.79   11.80
  -1 -17   1   27.20   28.10
   0  17  -1  278.07   22.00
   0  17  -1  245.98   26.20
  -1  17  -1  104.19   15.60
  -1  17  -1  110.39   20.90
  -2  17  -1   85.89   21.10
  -2  17  -1  114.39   17.00
  -3  17  -1   71.99   23.50
  -3  17  -1   66.79   14.50
  -4  17  -1   42.40   21.80
  -4 -16   1   50.39   22.20
   3  16  -1    2.40   16.00
  -3 -16   1    2.50   15.80
   2  16  -1 1160.88   68.19
  -2 -16   1 1233.18   87.59
   1  16  -1  402.16   27.90
  -1 -16   1  405.56   67.39
   0  16  -1  690.43   41.30
   0  16  -1  759.22   49.80
  -1  16  -1  416.56   29.20
  -1  16  -1  469.95   38.20
  -2  16  -1   43.50   16.20
  -2  16  -1   31.70   10.00
  -3  16  -1   32.30   18.20
  -3  16  -1   17.80    9.90
  -4  16  -1   26.60   19.90
  -4 -15   1   13.80   18.80
   3  15  -1   16.50   18.50
  -3 -15   1   25.80   17.40
   2  15  -1  551.94   40.40
  -2 -15   1  583.24   53.39
   1  15  -1   35.40    9.40
  -1 -15   1   36.90   29.40
   0  15  -1  307.97   27.70
   0  15  -1  297.07   22.70
  -1  15  -1  981.10   64.79
  -1  15  -1 1037.50   54.59
  -2  15  -1   28.30   15.40
  -2  15  -1   42.90   10.70
  -3  15  -1   24.40   10.40
  -3  15  -1   11.30   14.70
  -4  15  -1   50.59   22.70
  -4 -14   1   68.29   22.80
   3  14  -1  183.78   31.80
   2  14  -1  217.38   24.80
  -2 -14   1  186.68   32.30
   1  14  -1  204.08   17.90
  -1 -14   1  113.99   36.80
   0  14  -1 2846.92  145.79
   0  14  -1 2683.13  127.89
  -1  14  -1  496.95   31.20
  -1  14  -1  488.85   39.40
  -2  14  -1  150.48   26.10
  -2  14  -1  164.68   17.10
  -3  14  -1   41.00   11.40
  -3  14  -1   40.40   17.60
  -4  14  -1   33.70   20.80
  -4 -13   1   19.60   19.30
   3  13  -1   16.40   15.90
  -3 -13   1   16.90   16.90
   2  13  -1  173.98   24.30
  -2 -13   1  195.18   32.20
   1  13  -1  376.56   25.50
  -1 -13   1  299.27   53.09
   0  13  -1  401.46   26.30
   0  13  -1  405.26   31.90
  -1  13  -1  766.92   42.60
  -1  13  -1  780.42   52.69
  -2  13  -1  909.01   51.09
  -2  13  -1 1038.00   67.19
  -3  13  -1   49.30   11.30
  -3  13  -1   41.00   16.70
  -4  13  -1  113.99   28.20
  -4 -12   1   79.69   24.50
   3  12  -1   27.50   17.80
   2  12  -1  818.72   54.29
  -2 -12   1  980.40   67.19
   1  12  -1   26.60    8.80
  -1 -12   1   39.00   13.00
  -1 -12   1   26.20   23.00
   0  12  -1  512.05   35.40
   0  12  -1  446.86   28.20
  -1  12  -1 1563.44   77.99
  -1  12  -1 1676.63   92.99
  -2  12  -1  200.38   17.80
  -2  12  -1  226.78   27.10
  -3  12  -1  373.66   25.90
  -3  12  -1  309.27   35.90
  -4  12  -1  136.69   30.50
   4  11  -1   -4.20   18.30
  -4 -11   1    5.20   17.90
   3  11  -1   82.99   22.90
  -3 -11   1  138.79   27.00
   2  11  -1  923.31   60.39
  -2 -11   1 1166.48   73.59
   1  11  -1   22.80    7.90
  -1 -11   1   27.70   11.60
  -1 -11   1   22.00   21.80
   0  11  -1  151.88   17.50
   0  11  -1  141.49   13.60
   0 -11   1  150.28   18.60
   0 -11   1  175.08   15.90
  -1  11  -1  664.53   45.70
  -1  11  -1  646.24   36.20
  -2  11  -1  916.41   62.69
  -2  11  -1  957.30   49.50
  -3  11  -1  101.59   14.10
  -3  11  -1   88.69   22.00
  -4  11  -1  188.88   34.90
  -4 -10   1   11.50   17.90
  -3 -10   1  409.26   41.20
   2  10  -1  190.58   26.30
  -2 -10   1  244.28   29.90
   1  10  -1  246.48   19.70
  -1 -10   1  269.17   19.30
  -1 -10   1  255.07   23.80
  -1 -10   1  228.68   39.60
   0  10  -1 1517.35   84.59
   0  10  -1 1435.96   73.29
   0 -10   1 1705.53   75.29
   0 -10   1 1558.94   85.29
  -1  10  -1  104.49   11.80
  -1  10  -1  115.89   19.00
   1 -10   1  119.89   14.00
  -2  10  -1  228.58   25.40
  -2  10  -1  207.08   16.90
  -3  10  -1   81.89   21.90
  -3  10  -1   81.39   12.20
  -4  10  -1   24.00   18.40
  -5  -9   1  128.89   32.40
  -4  -9   1    5.10    7.60
  -4  -9   1   10.00   18.00
  -3  -9   1  151.28   28.20
   2   9  -1  290.27   31.30
  -2  -9   1  393.86   25.40
  -2  -9   1  405.26   36.60
   1   9  -1  271.77   21.30
  -1  -9   1  290.67   25.30
  -1  -9   1  274.77   40.90
  -1  -9   1  277.47   19.70
   0   9  -1  268.37   22.30
   0   9  -1  237.28   17.10
   0  -9   1  260.47   18.10
   0  -9   1  245.48   22.60
  -1   9  -1   43.80   12.90
  -1   9  -1   38.70    7.60
   1  -9   1   33.90    8.10
  -2   9  -1  189.78   23.90
  -2   9  -1  184.78   15.10
   2  -9   1  202.38   18.10
  -3   9  -1   70.89   20.10
  -3   9  -1   76.69   11.40
  -4   9  -1   33.60   20.00
  -5  -8   1  151.68   34.30
  -4  -8   1   28.30   10.00
  -4  -8   1   26.20   19.50
   2   8  -1   90.49   19.20
  -2  -8   1   67.39   18.40
  -2  -8   1  103.59   13.80
   1   8  -1  475.55   30.40
  -1  -8   1  464.85   34.90
  -1  -8   1  536.95   28.60
  -1  -8   1  456.55   44.80
   0   8  -1  905.71   47.20
   0   8  -1  958.20   55.29
   0  -8   1 1004.70   55.99
   0  -8   1  963.60   47.90
  -1   8  -1  221.98   21.00
  -1   8  -1  194.48   14.60
   1  -8   1  223.98   16.40
   1  -8   1  184.78   21.20
  -2   8  -1   19.40   11.80
  -2   8  -1   11.50    5.50
   2  -8   1   13.10    7.40
  -3   8  -1  412.86   40.10
  -3   8  -1  431.06   26.10
   3  -8   1  441.36   28.40
  -4   8  -1   35.30   19.20
  -5  -7   1  150.78   35.00
  -4  -7   1   13.50    9.20
  -4  -7   1    5.30   17.80
   3   7  -1   -0.40   15.50
  -2  -7   1  161.88   17.90
  -2  -7   1  173.68   26.30
   1   7  -1 3438.46  165.28
   1   7  -1 2949.80  200.28
  -1  -7   1 4220.28  163.58
  -1  -7   1 3836.82  195.78
   0   7  -1  478.55   30.90
   0   7  -1  418.86   25.00
   0  -7   1  459.35   25.60
   0  -7   1  439.06   30.70
  -1   7  -1  757.52   38.70
  -1   7  -1  780.42   48.50
   1  -7   1  795.02   49.60
   1  -7   1  747.53   39.70
  -2   7  -1   80.79   17.20
  -2   7  -1   96.89   10.00
   2  -7   1  119.49   12.20
  -3   7  -1  108.19   23.20
  -3   7  -1  115.09   11.70
   3  -7   1  152.18   14.90
  -4   7  -1   22.30   17.80
  -5   7  -1   67.39   27.40
  -5  -6   1   23.80   22.30
  -4  -6   1   22.80    9.80
  -4  -6   1   32.50   19.30
  -3  -6   1  198.08   24.60
  -3  -6   1  155.38   28.90
  -2  -6   1  673.03   51.69
  -2  -6   1  765.32   44.10
   1   6  -1 1949.41   99.79
   1   6  -1 1882.71  125.79
  -1  -6   1 2260.47   97.39
  -1  -6   1 2223.58  119.09
   0   6  -1 4756.02  220.58
   0   6  -1 5134.89  247.78
   0  -6   1 5201.78  220.98
   0  -6   1 5084.39  247.68
  -1   6  -1 3368.46  165.88
  -1   6  -1 3276.67  143.99
   1  -6   1 3256.77  166.28
   1  -6   1 3109.79  144.49
  -2   6  -1  210.18   14.30
  -2   6  -1  206.78   23.60
   2  -6   1  184.88   15.60
  -3   6  -1  172.38   13.60
  -3   6  -1  156.68   26.50
   3  -6   1  168.28   15.40
  -4   6  -1   13.40   17.00
  -5   6  -1   26.30   22.10
  -5  -5   1   39.60   24.30
  -4  -5   1   29.70   10.60
  -4  -5   1   28.50   19.50
   3   5  -1    4.60   14.30
  -3  -5   1   16.10   15.70
  -3  -5   1   31.30   16.60
  -2  -5   1  460.55   34.60
  -2  -5   1  421.66   37.90
   1   5  -1   67.29   14.10
   1   5  -1   74.79   22.00
  -1  -5   1  103.69   18.50
  -1  -5   1  113.09   13.70
   0   5  -1 1143.09   53.99
   0   5  -1 1087.69   61.09
   0  -5   1 1078.59   53.09
   0  -5   1 1198.88   61.89
  -1   5  -1 5390.66  229.28
  -1   5  -1 5177.88  259.87
   1  -5   1 5037.30  229.58
   1  -5   1 5466.85  261.17
  -2   5  -1   47.50   13.80
  -2   5  -1   39.20    6.60
   2  -5   1   55.19    8.50
  -3   5  -1   83.69    9.30
  -3   5  -1   91.79   21.10
   3  -5   1   98.99   11.90
  -4   5  -1   78.79   23.40
  -5   5  -1   90.49   27.70
  -5  -4   1   14.70   21.40
  -4  -4   1  233.28   37.10
  -4  -4   1  216.98   21.10
  -3  -4   1  469.05   30.70
  -3  -4   1  487.55   45.90
  -3  -4   1  455.35   42.20
  -2  -4   1   97.59   19.80
  -2  -4   1   91.29   20.20
   1   4  -1 1450.35   87.29
  -1  -4   1 1427.46   71.09
  -1  -4   1 1361.06   81.49
   0   4  -1 1241.78   57.99
   0   4  -1 1230.38   65.19
   0  -4   1 1290.27   57.29
   0  -4   1 1141.69   64.69
  -1   4  -1  685.03   42.90
  -1   4  -1  686.93   34.10
   1  -4   1  775.72   35.20
   1  -4   1  681.23   43.70
  -2   4  -1  265.77   26.00
  -2   4  -1  272.17   16.20
   2  -4   1  284.47   17.70
  -3   4  -1  195.68   13.50
  -3   4  -1  219.08   28.10
   3  -4   1  206.88   15.40
  -4   4  -1   75.89   21.90
  -5   4  -1   10.20   20.70
  -5  -3   1   15.90   22.70
  -4  -3   1   88.69   14.90
  -4  -3   1   55.29   22.60
  -3  -3   1  549.65   48.50
  -3  -3   1  539.55   48.60
  -3  -3   1  524.55   33.50
  -2  -3   1 1185.58   71.79
  -2  -3   1 1009.50   64.69
   1   3  -1   43.20   12.40
   1   3  -1  103.79   19.00
  -1  -3   1   95.19   16.70
  -1  -3   1   87.19   15.30
   0   3  -1 1194.68   65.99
   0   3  -1 1297.27   60.29
   0  -3   1 1360.86   59.39
   0  -3   1 1206.28   65.79
  -1   3  -1 4367.56  227.48
  -1   3  -1 4794.82  200.68
   1  -3   1 4678.83  228.78
   1  -3   1 4662.73  200.88
  -2   3  -1  580.54   41.70
  -2   3  -1  567.34   28.60
   2  -3   1  616.94   30.10
  -3   3  -1  172.78   26.80
  -3   3  -1  159.68   10.90
  -4   3  -1  325.67   38.00
  -5   3  -1    6.90   17.80
  -5  -2   1   11.40   22.50
  -4  -2   1  457.35   47.80
  -4  -2   1  417.36   30.80
  -3  -2   1  315.17   35.90
  -3  -2   1  211.98   38.20
  -3  -2   1  252.27   22.10
  -2  -2   1 1086.29   66.59
   1   2  -1    6.90    9.20
   1   2  -1    4.80    9.40
  -1  -2   1    9.20    8.20
  -1  -2   1   15.10   10.90
   0   2  -1  357.56   24.10
   0   2  -1  407.26   25.70
   0  -2   1  413.46   24.30
   0  -2   1  399.76   25.00
  -1   2  -1 8692.93  431.26
  -1   2  -1 9122.49  384.46
   1  -2   1 8875.41  384.16
   1  -2   1 9087.29  432.26
  -2   2  -1 1953.60   86.69
  -2   2  -1 1999.80  107.09
   2  -2   1 1984.20  108.29
   2  -2   1 1954.60   87.59
  -3   2  -1  356.36   34.50
  -3   2  -1  361.86   18.10
  -4   2  -1  175.08   30.20
  -5   2  -1    7.10   17.70
  -5  -1   1    1.10   20.50
  -4  -1   1  106.29   16.60
  -4  -1   1  103.59   28.60
  -3  -1   1   18.30   16.30
  -3  -1   1   -8.90   20.30
  -3  -1   1    3.40    8.30
  -2  -1   1 1127.69   70.79
  -2  -1   1 1034.90   54.09
   1   1  -1  112.39   18.50
  -1  -1   1  159.38   19.40
   0   1  -1   20.90    7.70
   0  -1   1   18.40    7.10
   0  -1   1   23.20   12.80
   0  -1   1   30.40    6.50
  -1   1  -1 5096.79  245.88
  -1   1  -1 5079.29  218.38
   1  -1   1 4961.70  246.38
   1  -1   1 5022.10  217.08
  -2   1  -1  902.11   40.80
  -2   1  -1  881.51   55.39
   2  -1   1  908.41   41.50
   2  -1   1  970.10   58.19
  -3   1  -1  131.19   22.80
  -4   1  -1  136.59   26.80
  -5   1  -1   12.60   19.50
  -5   0   1    7.80   22.40
  -4   0   1  290.87   25.00
  -4   0   1  309.87   40.10
  -3   0   1   67.79   12.30
  -3   0   1   26.00   22.40
  -3   0   1   56.99   21.20
  -2   0   1  879.61   57.59
  -2   0   1  715.43   41.70
  -1   0   1 1603.74   82.99
   0   0  -1   10.40    7.90
   0   0  -1   19.60   12.00
   0   0   1   51.69   13.80
   0   0   1   32.10    9.50
  -1   0  -1 8969.00  450.45
   1   0   1 9999.00  401.96
   1   0   1 9163.98  451.25
  -2   0  -1  200.08   20.30
   2   0   1  209.28   23.20
  -3   0  -1   30.00   13.80
  -4   0  -1   18.20   15.20
  -5   0  -1   36.60   21.10
  -5   1   1   -5.40   19.70
  -4   1   1  124.09   29.40
  -4   1   1  104.89   16.90
  -3   1   1   16.60    8.70
  -3   1   1   22.20   15.80
  -2   1   1 1021.50   54.99
  -2   1   1 1139.89   71.09
   1  -1  -1   97.89   16.60
  -1   1   1  101.59   16.40
  -1   1   1  125.29   11.30
   0  -1  -1   25.10    9.60
   0  -1  -1    3.40    6.70
   0   1   1    4.10    7.10
   0   1   1   21.60    7.40
  -1  -1  -1 4993.30  240.98
   1   1   1 4779.62  241.58
   1   1   1 5154.28  213.78
  -2  -1  -1  927.51   56.29
   2   1   1  979.50   58.69
  -3  -1  -1  124.49   21.50
  -4  -1  -1  165.38   28.70
  -5   2   1    2.80   21.00
  -4   2   1  436.36   47.60
  -4   2   1  390.66   30.40
  -3   2   1  266.37   23.40
  -3   2   1  289.57   35.20
  -2   2   1 1730.03  104.39
  -2   2   1 1868.11   87.19
   1  -2  -1   18.00    9.40
  -1   2   1    3.70    9.40
  -1   2   1   19.60   10.10
  -1   2   1    9.00    5.30
   0  -2  -1  370.26   25.60
   0   2   1  396.86   20.70
   0   2   1  366.86   24.10
  -1  -2  -1 9888.91  447.26
   1   2   1 9378.46  447.76
   1   2   1 8771.02  399.96
  -2  -2  -1 1955.30  104.99
   2   2   1 2039.60  107.19
  -3  -2  -1  396.06   34.30
  -4  -2  -1  174.38   28.70
  -5   3   1    2.20   21.00
  -4   3   1   57.39   23.90
  -4   3   1   66.79   14.90
  -3   3   1  515.95   48.40
  -3   3   1  529.85   34.80
  -2   3   1 1192.18   60.09
  -2   3   1 1117.69   73.29
   1  -3  -1   95.09   10.60
   1  -3  -1  113.69   16.60
  -1   3   1  104.59   10.90
  -1   3   1   86.29   15.40
   0  -3  -1 1429.46   63.19
   0  -3  -1 1323.47   70.79
   0   3   1 1348.07   70.29
   0   3   1 1395.96   63.29
  -1  -3  -1 4906.01  222.58
   1   3   1 4449.65  198.88
   1   3   1 4515.75  222.98
  -2  -3  -1  630.84   39.30
   2   3   1  593.74   40.80
  -3  -3  -1  183.98   23.40
  -4  -3  -1  343.97   35.80
  -5   4   1   22.70   21.90
  -4   4   1  193.08   21.40
  -4   4   1  241.38   39.90
  -3   4   1  466.95   45.10
  -3   4   1  429.96   30.90
   2  -4  -1  104.09   13.30
  -2   4   1  114.39   21.60
  -2   4   1   93.39   15.00
   1  -4  -1 1340.87   68.19
   1  -4  -1 1552.44   81.19
  -1   4   1 1408.46   80.59
  -1   4   1 1462.95   69.39
   0  -4  -1 1393.26   59.49
   0  -4  -1 1253.37   65.39
   0   4   1 1184.48   64.69
   0   4   1 1248.18   58.99
  -1  -4  -1  629.04   31.80
  -1  -4  -1  763.72   35.30
   1   4   1  638.74   35.80
   1   4   1  690.63   31.70
  -2  -4  -1  278.47   22.70
   2   4   1  293.47   25.30
  -3  -4  -1  207.58   24.40
  -4  -4  -1   63.59   19.70
  -5   5   1   36.50   26.30
  -4   5   1   26.40   13.00
  -4   5   1   31.40   20.10
  -3   5   1   12.60    9.40
  -3   5   1   11.70   16.10
   2  -5  -1  389.16   26.20
  -2   5   1  402.96   27.80
  -2   5   1  432.16   38.30
   1  -5  -1  112.19   11.80
   1  -5  -1  129.29   18.10
  -1   5   1  107.49   13.20
  -1   5   1   98.29   16.30
   0  -5  -1 1204.38   53.29
   0  -5  -1 1103.59   57.99
   0   5   1 1125.79   52.99
   0   5   1 1021.50   57.29
  -1  -5  -1 5281.67  232.48
   1   5   1 5412.86  257.17
   1   5   1 5425.56  232.28
  -2  -5  -1   46.10   10.30
   2   5   1   47.10   11.70
  -3  -5  -1  129.69   20.10
  -4  -5  -1  115.79   23.30
  -5   6   1   41.50   25.80
  -4   6   1   13.80   18.00
  -4   6   1    7.20   11.00
  -3   6   1  121.89   26.20
  -3   6   1  140.29   18.70
  -2   6   1  682.03   50.69
  -2   6   1  666.83   39.40
   1  -6  -1 2244.88  119.09
   1  -6  -1 2302.97  104.09
  -1   6   1 2266.37  104.19
  -1   6   1 2152.48  118.39
   0  -6  -1 5159.68  211.98
   0  -6  -1 4738.33  233.78
   0   6   1 4833.32  211.68
   0   6   1 4562.44  233.08
  -1  -6  -1 3212.68  144.79
   1   6   1 3387.46  144.79
  -2  -6  -1  217.58   18.20
   2   6   1  223.08   21.00
  -3  -6  -1  180.58   22.10
  -4  -6  -1   14.30   14.90
  -5   7   1  134.09   36.60
  -4   7   1  -10.00   15.90
  -4   7   1   19.00   11.60
  -3   7   1   67.59   22.90
  -3   7   1   60.19   14.00
  -2   7   1  151.08   16.60
  -2   7   1  145.29   25.60
   1  -7  -1 4278.57  208.48
   1  -7  -1 3860.71  183.98
  -1   7   1 4107.29  207.88
  -1   7   1 4206.28  184.98
   0  -7  -1  461.95   25.20
   0  -7  -1  426.16   27.00
   0   7   1  459.75   25.60
   0   7   1  410.76   26.60
  -1  -7  -1  787.92   38.30
   1   7   1  767.02   37.80
  -2  -7  -1  125.09   13.70
  -2  -7  -1  107.49    8.40
   2   7   1  111.89   16.00
   2   7   1  108.99   10.40
  -3  -7  -1  164.48   21.10
   3   7   1  144.79   25.10
  -4  -7  -1   23.90   14.70
  -5   8   1  131.59   37.20
  -4   8   1   23.20   20.30
  -4   8   1   18.70   11.90
  -3   8   1 1637.24  105.59
  -3   8   1 1649.44   85.09
  -2   8   1   81.59   20.10
  -2   8   1   85.29   14.10
   1  -8  -1  529.85   38.80
   1  -8  -1  509.35   31.80
  -1   8   1  578.34   39.10
  -1   8   1  515.15   32.40
   0  -8  -1 1035.90   49.00
   0  -8  -1  914.21   52.39
   0   8   1  985.10   52.79
   0   8   1  977.50   49.00
  -1  -8  -1  250.87   16.20
   1   8   1  222.68   15.20
  -2  -8  -1    5.30    6.10
  -2  -8  -1    4.00    3.70
   2   8   1   12.40    8.90
   2   8   1    6.90    4.40
  -3  -8  -1  482.05   36.50
   3   8   1  525.15   43.80
  -4  -8  -1   48.00   16.80
  -5   9   1  158.98   40.50
  -4   9   1   -2.00   17.00
  -4   9   1    7.00   11.20
  -3   9   1  191.18   21.40
  -3   9   1  148.89   30.30
  -2   9   1  357.16   35.30
  -2   9   1  357.56   26.90
   1  -9  -1  266.17   20.60
   1  -9  -1  276.27   26.00
  -1   9   1  259.77   25.10
  -1   9   1  260.37   20.70
   0  -9  -1  253.37   18.30
   0  -9  -1  243.18   19.00
   0   9   1  250.17   18.90
   0   9   1  263.87   18.50
  -1  -9  -1   54.69    8.30
   1   9   1   26.80    6.60
  -2  -9  -1  197.88   13.80
  -2  -9  -1  208.98   16.70
   2   9   1  187.38   23.10
   2   9   1  216.48   13.70
  -3  -9  -1  109.09   17.60
   3   9   1   93.59   21.80
  -5  10   1   44.70   27.00
  -4  10   1    9.90   11.80
  -4  10   1    5.00   18.20
  -3  10   1  424.06   32.80
  -3  10   1  376.96   43.10
  -2  10   1  207.18   30.10
  -2  10   1  197.48   20.40
   1 -10  -1  258.17   25.50
  -1  10   1  240.48   24.70
  -1  10   1  229.48   20.70
   0 -10  -1 1810.42   93.09
   0 -10  -1 1946.31   86.09
   0  10   1 1730.73   85.59
   0  10   1 1729.93   92.99
  -1 -10  -1  118.09   12.30
   1  10   1  120.39   11.60
  -2 -10  -1  232.48   18.00
  -2 -10  -1  235.08   16.30
   2  10   1  236.18   29.90
   2  10   1  246.28   15.70
  -3 -10  -1   86.89   16.40
   3  10   1  116.49   25.60
  -5  11   1   42.10   27.80
  -4  11   1   -0.10   10.50
  -4  11   1   -2.10   15.40
  -3  11   1  155.98   29.80
  -3  11   1  135.99   20.20
  -2  11   1 1048.30   71.09
  -2  11   1 1079.29   59.49
  -1  11   1   17.80   12.20
  -1  11   1   21.30    8.60
   0 -11  -1  161.88   15.90
   0 -11  -1  150.88   15.40
   0  11   1  145.09   15.00
   0  11   1  124.39   14.70
  -1 -11  -1  670.13   39.70
  -1 -11  -1  682.13   35.90
  -1 -11  -1  703.23   37.30
   1  11   1  688.63   36.60
  -2 -11  -1 1025.70   51.79
  -2 -11  -1 1060.59   56.29
  -2 -11  -1 1093.79   56.69
   2  11   1 1053.09   51.19
  -3 -11  -1  112.69   16.90
   3  11   1   54.99   12.50
  -5  12   1   29.10   26.40
  -4  12   1   62.29   26.00
  -4  12   1   76.79   18.80
  -3  12   1   44.80   13.80
  -3  12   1   89.19   25.50
  -2  12   1  973.90   66.99
  -2  12   1  925.91   54.59
  -1  12   1   29.30   13.60
  -1  12   1   43.10   10.90
   0 -12  -1  515.25   33.80
   0  12   1  556.34   32.40
   0  12   1  481.65   32.80
  -1 -12  -1 1686.43   94.29
  -1 -12  -1 1775.62   86.79
  -1 -12  -1 1818.82   83.39
   1  12   1 1688.53   82.39
  -2 -12  -1  239.18   17.80
  -2 -12  -1  216.48   16.40
  -2 -12  -1  241.58   18.00
   2  12   1  229.68   16.40
   3  12   1  206.38   21.10
  -4  13   1   10.60   13.80
  -4  13   1   15.40   20.70
  -3  13   1   22.30   12.70
  -3  13   1   23.20   18.50
  -2  13   1  143.49   20.30
  -2  13   1  164.68   27.50
  -1  13   1  380.66   33.00
  -1  13   1  380.46   28.10
   0 -13  -1  447.96   30.80
   0  13   1  436.06   29.40
   0  13   1  428.76   30.20
  -1 -13  -1  851.41   43.60
  -1 -13  -1  692.33   53.09
  -1 -13  -1  859.31   44.10
   1  13   1  809.32   42.90
  -2 -13  -1 1054.49   55.59
  -2 -13  -1 1000.80   53.79
  -2 -13  -1 1102.89   57.39
   2  13   1 1142.19   53.59
  -3 -13  -1   83.49   14.90
   3  13   1   71.59   15.00
  -4  14   1    9.80   13.40
  -4  14   1   41.40   24.20
  -3  14   1  289.97   28.40
  -3  14   1  244.68   39.50
  -2  14   1  204.78   31.80
  -2  14   1  221.68   23.00
  -1  14   1  184.28   19.30
  -1  14   1  204.18   24.70
   0 -14  -1 2995.50  150.38
   0  14   1 2992.30  137.99
   0  14   1 2855.61  149.88
  -1 -14  -1  515.15   28.80
  -1 -14  -1  380.46   39.60
   1  14   1  487.95   29.40
  -2 -14  -1  167.88   16.40
  -2 -14  -1  161.28   13.00
  -2 -14  -1  145.49   14.50
   2  14   1  150.88   13.80
  -3 -14  -1   58.39   13.10
   3  14   1   57.79   15.50
  -4  15   1    5.10   13.80
  -4  15   1   14.20   20.30
  -3  15   1   32.00   19.30
  -3  15   1   45.90   15.00
  -2  15   1  609.94   50.79
  -2  15   1  639.94   42.80
  -1  15   1   33.10   10.90
  -1  15   1   48.60   15.00
   0 -15  -1  327.47   27.30
   0  15   1  327.17   25.20
   0  15   1  345.07   26.70
  -1 -15  -1 1107.79   59.29
   1  15   1 1113.19   60.29
   1  15   1 1116.29   57.49
  -2 -15  -1   23.60    6.30
  -2 -15  -1   26.40    8.20
   2  15   1   37.40    8.60
   3  15   1   27.50   13.10
  -4  16   1   72.39   19.90
  -4  16   1   52.79   26.60
  -3  16   1    4.80   16.90
  -3  16   1    5.70   11.60
  -2  16   1 1265.97   71.19
  -2  16   1 1263.77   84.19
  -1  16   1  432.96   37.90
  -1  16   1  482.25   33.70
   0 -16  -1  727.63   47.60
   0  16   1  768.62   45.00
   0  16   1  762.82   47.60
  -1 -16  -1  509.95   31.70
   1  16   1  510.15   32.50
   1  16   1  490.95   31.60
  -2 -16  -1   45.60    9.50
   2  16   1   56.69   10.60
   3  16   1   31.00   13.50
  -4  17   1   22.90   22.80
  -4  17   1   37.80   16.60
  -3  17   1  462.25   49.30
  -3  17   1  481.65   39.10
  -2  17   1 1068.79   63.29
  -2  17   1 1063.49   74.89
  -1  17   1   68.09   14.80
  -1  17   1   62.69   16.80
   0 -17  -1  282.77   25.90
   0  17   1  263.97   24.30
   0  17   1  316.87   26.30
  -1 -17  -1  113.49   14.30
   1  17   1  101.19   14.80
   1  17   1  114.49   15.40
  -2 -17  -1   94.79   13.10
   2  17   1  123.19   15.40
   3  17   1   85.29   17.50
  -4  18   1   97.29   22.90
  -4  18   1   93.69   30.80
  -3  18   1   49.70   16.50
  -3  18   1   26.40   17.40
  -2  18   1  205.28   32.90
  -2  18   1  223.68   24.20
  -1  18   1  524.05   42.00
  -1  18   1  486.35   36.00
   0  18   1  824.82   51.99
   0  18   1  823.12   49.10
  -1 -18  -1   48.40   10.80
   1  18   1   43.90   10.70
   1  18   1   55.39   11.50
  -2 -18  -1   79.19   12.30
   2  18   1   87.19   13.60
   3  18   1   16.30   13.00
  -4  19   1   28.10   22.80
  -4  19   1   12.20   14.20
  -3  19   1   22.60   15.50
  -3  19   1   33.40   19.30
  -2  19   1   80.49   17.60
  -2  19   1   73.59   20.80
  -1  19   1   81.59   16.10
  -1  19   1   67.79   17.70
   0  19   1   71.49   15.30
   0  19   1   71.09   14.20
  -1 -19  -1  978.20   56.29
   1  19   1 1011.70   54.49
   1  19   1  937.41   56.09
  -2 -19  -1   55.19   11.50
   2  19   1   36.90   10.40
   3  19   1   23.80   13.90
  -4  20   1   81.69   29.50
  -4  20   1   79.29   22.60
  -3  20   1  342.77   43.50
  -3  20   1  365.46   35.00
  -2  20   1  259.47   27.80
  -2  20   1  262.27   34.00
  -1  20   1 1752.82  102.89
  -1  20   1 1709.33   91.59
   0  20   1   40.40   12.50
   0  20   1   39.70   11.70
  -1 -20  -1  942.01   55.69
   1  20   1  936.91   53.49
   1  20   1  946.31   55.89
  -2 -20  -1   70.69   13.90
   2  20   1   72.49   13.70
  -4  21   1   33.40   23.80
  -4  21   1   42.20   18.90
  -3  21   1  107.79   21.40
  -3  21   1   99.99   28.20
  -2  21   1   11.10   12.30
  -2  21   1   17.30   15.40
  -1  21   1   39.00   15.30
  -1  21   1   33.20   12.30
   0  21   1   42.10   12.90
   0  21   1   40.70   12.90
  -1 -21  -1  667.53   44.00
   1  21   1  696.13   42.80
   1  21   1  676.63   43.90
   2  21   1   12.00    8.80
  -4  22   1   37.30   23.40
  -4  22   1   48.20   20.70
  -3  22   1  154.78   26.60
  -3  22   1  153.18   32.30
  -2  22   1  103.89   25.30
  -2  22   1  104.59   20.00
  -1  22   1  503.75   43.40
  -1  22   1  479.85   38.30
   0  22   1  109.19   19.40
   0  22   1  132.89   19.80
   1  22   1   85.69   16.20
   1  22   1   66.49   14.50
   2  22   1  252.67   23.00
  -4  23   1   15.90   18.00
  -4  23   1   17.50   21.60
  -3  23   1  135.79   31.80
  -3  23   1  123.89   24.60
  -2  23   1   76.59   23.00
  -2  23   1   40.40   16.00
  -1  23   1   90.79   19.20
  -1  23   1   64.39   20.00
   0  23   1   -1.20    9.30
   0  23   1   13.80   10.20
   1  23   1  338.87   28.00
   1  23   1  293.97   27.20
   2  23   1   48.50   13.30
  -3  24   1  102.59   29.50
  -3  24   1   54.19   20.40
  -2  24   1   77.59   19.50
  -2  24   1   85.99   23.90
  -1  24   1  380.06   33.10
  -1  24   1  345.07   36.70
   0  24   1  150.38   22.90
   0  24   1  129.09   21.70
   1  24   1  140.29   20.60
   1  24   1  141.09   21.50
   2  24   1   12.40    9.90
  -3  25   1  171.18   35.30
  -3  25   1  168.88   29.70
  -2  25   1  575.24   53.59
  -2  25   1  566.84   45.50
  -1  25   1   -2.60   12.80
  -1  25   1   -4.10    8.80
   0  25   1  129.19   21.30
   0  25   1  112.19   20.80
   1  25   1  120.09   20.00
   1  25   1   95.69   18.70
   2  25   1   99.09   18.30
  -3  26   1   21.00   17.40
  -3  26   1   14.00   20.60
  -2  26   1  852.11   59.09
  -2  26   1  803.12   66.19
  -1  26   1    2.80   10.00
  -1  26   1   -5.50   12.10
   0  26   1  602.84   47.00
   0  26   1  637.74   45.10
   1  26   1   46.60   14.50
   1  26   1   52.89   15.80
   2  26   1  187.18   25.10
  -3  27   1   25.00   22.10
  -3  27   1   26.60   16.90
  -2  27   1  293.67   32.90
  -2  27   1  322.57   40.20
  -1  27   1  187.58   31.00
  -1  27   1  133.79   24.50
   0  27   1  118.39   21.70
   0  27   1   86.79   20.80
   1  27   1   31.60   13.90
   1  27   1   19.60   14.00
   2  27   1   24.20   13.10
  -3  28   1  321.27   41.40
  -3  28   1  201.88   39.80
  -2  28   1    9.00   17.10
  -2  28   1    6.30   13.70
  -1  28   1   42.90   19.10
  -1  28   1   33.30   15.80
   0  28   1  218.08   27.70
   0  28   1  215.78   28.90
   1  28   1  172.08   25.60
   2  28   1    9.40   11.50
  -3  29   1   31.00   20.00
  -3  29   1   15.20   21.30
  -2  29   1  102.49   27.70
  -2  29   1  114.29   24.70
  -1  29   1    9.70   11.60
  -1  29   1   11.00   14.70
   0  29   1   57.19   17.50
   0  29   1   61.89   20.00
   1  29   1   99.99   20.80
   2  29   1  250.47   27.80
  -2  30   1   67.09   20.30
  -2  30   1   43.90   22.70
  -1  30   1   -8.00   10.90
  -1  30   1    3.40   15.90
   0  30   1  168.78   27.10
   0  30   1  222.08   28.10
   1  30   1   98.99   21.00
   2  30   1   10.20   13.40
  -2  31   1   52.69   24.30
  -2  31   1   36.40   18.50
  -1  31   1   21.00   17.70
  -1  31   1   25.50   15.60
   0  31   1   26.90   15.20
   0  31   1   36.40   16.70
   1  31   1  140.39   25.00
   2  31   1  135.19   24.40
  -2  32   1   80.29   25.00
  -2  32   1   66.49   26.50
  -1  32   1   13.10   15.20
  -1  32   1   28.10   19.10
   0  32   1   49.90   20.10
   0  32   1   65.39   19.50
   1  32   1   55.79   18.10
   2  32   1    6.60   14.30
  -1  33   1   48.90   19.20
  -1  33   1   56.49   22.80
   0  33   1   20.30   17.10
   0  33   1   17.60   14.60
   1  33   1   -5.70   12.50
  -1  34   1   43.20   18.50
  -1  34   1   31.50   20.70
   0  34   1  224.28   34.00
   1  34   1   -6.10   13.20
   0  35   1    4.20   14.90
   0  34  -2    8.80   18.00
   0  34  -2  -12.00   12.20
   1  33  -2   14.50   17.90
  -1 -33   2   23.10   51.29
   0  33  -2    0.30   13.90
   0  33  -2    8.00   15.70
  -1  33  -2  185.68   35.60
  -1  33  -2  181.28   30.60
   1  32  -2   75.59   23.80
  -1 -32   2   36.50   51.09
   0  32  -2    4.70   15.30
   0  32  -2   -3.60   12.90
  -1  32  -2   11.20   17.20
  -1  32  -2    8.70   14.90
   2  31  -2   25.00   22.30
  -2 -31   2   49.90   45.30
   1  31  -2   16.20   16.00
  -1 -31   2    0.40   46.80
   0  31  -2   -1.60   13.10
   0  31  -2   -5.60   11.50
  -1  31  -2  106.89   27.30
  -1  31  -2  111.39   24.10
   2  30  -2   39.60   23.20
  -2 -30   2   32.20   39.90
   1  30  -2  339.27   36.90
  -1 -30   2  211.48   72.49
   0  30  -2   -3.40   10.30
   0  30  -2    2.00   13.70
  -1  30  -2   36.40   16.30
  -1  30  -2   26.00   17.50
  -2  30  -2   74.69   22.00
  -2  30  -2   65.69   24.70
   2  29  -2  116.49   31.10
  -2 -29   2  103.99   48.10
   1  29  -2   59.49   19.60
  -1 -29   2   35.40   49.99
   0  29  -2   13.50   15.00
   0  29  -2   45.80   16.40
  -1  29  -2  221.48   36.60
  -1  29  -2  237.28   31.70
  -2  29  -2   22.20   18.50
  -2  29  -2   50.29   18.50
   3  28  -2   17.60   29.30
   2  28  -2   81.99   26.50
  -2 -28   2   46.20   43.00
   1  28  -2  137.59   26.20
  -1 -28   2   38.90   48.20
   0  28  -2   73.79   19.40
   0  28  -2   79.99   22.30
  -1  28  -2    6.30   15.00
  -1  28  -2   10.90   12.90
  -2  28  -2  132.39   29.80
  -2  28  -2  158.58   27.20
   3  27  -2   -6.30   26.40
  -3 -27   2    3.50   28.80
   2  27  -2   84.99   26.10
  -2 -27   2   75.09   43.50
   1  27  -2  327.27   33.90
  -1 -27   2  201.48   68.29
   0  27  -2   56.69   17.30
   0  27  -2   49.99   19.00
  -1  27  -2  181.68   26.60
  -1  27  -2  160.78   30.80
  -2  27  -2   -8.30   13.20
  -2  27  -2   -1.10   11.70
   3  26  -2   54.09   32.60
  -3 -26   2   20.30   30.50
   2  26  -2   26.90   19.30
  -2 -26   2   37.10   35.20
   1  26  -2  771.32   53.29
  -1 -26   2  452.95   97.49
   0  26  -2   63.89   20.70
   0  26  -2   55.89   15.80
  -1  26  -2   24.20   12.70
  -1  26  -2   25.20   16.30
  -2  26  -2    7.40   14.90
  -2  26  -2   -6.50   10.60
  -3  26  -2   48.10   23.10
  -3  26  -2   32.40   18.10
   3  25  -2   23.70   27.00
  -3 -25   2   54.69   33.50
   2  25  -2    6.60   16.20
  -2 -25   2   14.30   31.00
   1  25  -2   11.40   11.20
  -1 -25   2   13.90   41.50
   0  25  -2  155.18   23.10
   0  25  -2  145.99   27.40
  -1  25  -2   61.79   19.90
  -1  25  -2   51.99   15.40
  -2  25  -2  109.09   26.50
  -2  25  -2  112.59   22.10
  -3  25  -2   29.70   19.50
  -3  25  -2   33.20   16.10
   3  24  -2   58.19   29.00
  -3 -24   2   95.29   38.20
   2  24  -2  100.09   26.00
  -2 -24   2   90.09   40.80
   1  24  -2  236.48   27.50
  -1 -24   2  150.58   59.69
   0  24  -2  380.46   38.00
   0  24  -2  358.66   31.70
  -1  24  -2   30.60   16.00
  -1  24  -2   46.90   14.50
  -2  24  -2  221.28   25.60
  -2  24  -2  177.68   31.50
  -3  24  -2   14.50   18.00
  -3  24  -2   34.40   15.50
   3  23  -2   84.39   31.20
  -3 -23   2   66.89   34.60
   2  23  -2 1619.24  101.29
  -2 -23   2 1883.91  141.99
   1  23  -2   27.70   12.40
  -1 -23   2   -1.80   32.50
   0  23  -2  101.19   23.30
   0  23  -2  144.99   21.40
  -1  23  -2   48.70   14.00
  -1  23  -2   77.09   21.40
  -2  23  -2  213.88   34.40
  -2  23  -2  189.38   25.20
  -3  23  -2   66.39   18.30
  -3  23  -2   58.49   23.40
   3  22  -2  187.58   41.70
  -3 -22   2  248.58   50.89
   2  22  -2  434.76   43.30
  -2 -22   2  506.15   76.99
   1  22  -2  613.54   43.10
  -1 -22   2  351.06   80.39
   0  22  -2   52.09   14.20
   0  22  -2   17.00   13.20
  -1  22  -2   53.69   14.00
  -1  22  -2   59.89   19.10
  -2  22  -2  265.07   26.40
  -2  22  -2  221.78   35.20
  -3  22  -2  151.38   23.80
  -3  22  -2  122.49   29.50
  -4 -21   2   17.20   26.10
   3  21  -2  101.09   32.20
  -3 -21   2   84.79   32.60
   2  21  -2   15.30   16.00
  -2 -21   2   36.90   31.00
   1  21  -2 1136.09   65.09
  -1 -21   2  805.02  106.59
   0  21  -2  126.09   19.60
   0  21  -2  145.99   25.70
  -1  21  -2   12.40    9.30
  -1  21  -2   26.20   14.60
  -2  21  -2   40.50   17.90
  -2  21  -2   48.80   13.80
  -3  21  -2  181.58   34.30
  -3  21  -2  201.38   26.00
   4  20  -2   37.70   34.20
  -4 -20   2   29.70   26.40
   3  20  -2  247.18   44.60
  -3 -20   2  413.66   58.89
   2  20  -2  152.88   28.10
  -2 -20   2  159.68   44.20
   1  20  -2  738.73   49.10
  -1 -20   2  689.03  105.29
   0  20  -2  429.46   32.90
   0  20  -2  416.56   38.40
  -1  20  -2  125.69   18.80
  -1  20  -2  134.49   25.10
  -2  20  -2   71.99   21.10
  -2  20  -2   74.79   15.50
  -3  20  -2   60.69   22.10
  -3  20  -2   95.69   18.50
   4  19  -2    1.90   29.00
  -4 -19   2  -13.40   20.10
   3  19  -2  170.68   37.00
  -3 -19   2  165.08   40.20
   2  19  -2  635.54   51.99
  -2 -19   2  676.73   74.19
   1  19  -2   23.70   11.60
  -1 -19   2    9.10   30.20
   0  19  -2  182.58   23.90
   0  19  -2  196.38   20.90
  -1  19  -2   19.60    9.70
  -1  19  -2    6.50   12.10
  -2  19  -2  499.85   45.70
  -2  19  -2  507.85   35.90
  -3  19  -2  118.19   19.40
  -3  19  -2   73.49   22.90
  -4  19  -2   -1.90   17.80
   4  18  -2   65.19   34.90
  -4 -18   2   83.59   31.40
   3  18  -2  333.27   50.99
  -3 -18   2  508.85   56.39
   2  18  -2   65.19   20.70
  -2 -18   2   46.30   28.00
   1  18  -2   25.10   12.10
  -1 -18   2    7.40   30.80
   0  18  -2   33.30   13.40
   0  18  -2   47.30   12.30
  -1  18  -2  358.76   35.50
  -1  18  -2  375.76   28.60
  -2  18  -2  185.88   19.90
  -2  18  -2  165.48   29.00
  -3  18  -2   43.10   20.30
  -3  18  -2   72.19   15.70
  -4  18  -2    0.10   16.60
   4  17  -2   22.60   31.10
  -4 -17   2   15.70   23.90
   3  17  -2  114.99   32.40
  -3 -17   2  147.09   35.50
   2  17  -2   56.99   20.30
  -2 -17   2   37.90   26.20
   1  17  -2   61.29   15.30
  -1 -17   2   65.39   40.30
   0  17  -2   45.40   13.90
   0  17  -2   26.80   10.60
  -1  17  -2   12.20   12.00
  -1  17  -2    3.30    6.40
  -2  17  -2   46.40   11.60
  -2  17  -2   53.89   17.90
  -3  17  -2  118.49   26.40
  -3  17  -2  143.69   19.80
  -4  17  -2   21.40   19.40
   4  16  -2   47.10   30.60
  -4 -16   2  104.69   31.80
   3  16  -2  129.19   32.40
  -3 -16   2  232.88   41.50
   2  16  -2   35.70   17.90
  -2 -16   2   21.50   22.00
   1  16  -2  210.18   23.70
  -1 -16   2  193.58   53.39
   0  16  -2  292.37   24.00
   0  16  -2  271.17   28.80
  -1  16  -2   -6.30    8.60
  -1  16  -2    9.90    6.70
  -2  16  -2    3.00    7.30
  -2  16  -2    3.20   10.50
  -3  16  -2   81.39   23.60
  -3  16  -2   66.19   14.20
  -4  16  -2   -5.70   15.10
   4  15  -2   40.30   29.30
  -4 -15   2   73.89   27.10
   3  15  -2   25.20   23.20
  -3 -15   2   31.70   21.00
   2  15  -2  116.19   25.10
  -2 -15   2  135.79   33.50
   1  15  -2  365.96   30.80
  -1 -15   2  400.06   72.09
   0  15  -2  387.66   34.70
   0  15  -2  420.46   29.90
  -1  15  -2  323.27   24.70
  -1  15  -2  330.87   32.00
  -2  15  -2   48.10   11.00
  -2  15  -2   30.00   14.90
  -3  15  -2   93.99   24.50
  -3  15  -2  119.29   16.80
  -4  15  -2  135.39   30.70
   4  14  -2   48.70   28.90
  -4 -14   2  170.28   37.10
   3  14  -2   15.70   20.60
  -3 -14   2   54.49   23.20
   2  14  -2   72.99   22.10
  -2 -14   2   73.69   26.90
   1  14  -2  511.55   38.00
  -1 -14   2  493.85   77.49
   0  14  -2  343.97   26.60
   0  14  -2  363.86   32.30
  -1  14  -2  106.39   20.20
  -1  14  -2   94.79   14.40
  -2  14  -2  281.37   31.70
  -2  14  -2  309.07   23.30
  -3  14  -2  122.19   16.60
  -3  14  -2   91.29   22.90
  -4  14  -2   21.20   17.60
   4  13  -2  -18.60   21.50
  -4 -13   2    1.30   20.80
   3  13  -2   -0.50   17.70
  -3 -13   2    7.40   17.10
   2  13  -2  423.26   41.80
  -2 -13   2  528.55   53.49
   1  13  -2   15.20   10.10
  -1 -13   2    1.40   23.90
   0  13  -2  137.39   21.80
   0  13  -2  148.39   16.40
  -1  13  -2  868.01   47.90
  -1  13  -2  876.71   58.49
  -2  13  -2   35.20    9.70
  -2  13  -2   27.40   13.80
  -3  13  -2  133.59   16.70
  -3  13  -2  104.59   23.80
  -4  13  -2  207.18   36.40
   4  12  -2   26.60   27.60
  -4 -12   2  154.98   35.60
   3  12  -2    6.20   17.80
  -3 -12   2   44.80   23.30
   2  12  -2  185.98   30.80
  -2 -12   2  239.28   39.40
   1  12  -2 1852.71   97.49
  -1 -12   2 1860.51  138.19
   0  12  -2  125.19   16.80
   0  12  -2  113.19   19.50
  -1  12  -2  112.19   20.30
  -1  12  -2  145.79   14.90
  -2  12  -2  773.92   55.79
  -2  12  -2  760.32   42.60
  -3  12  -2   47.40   18.60
  -3  12  -2   54.69   11.20
  -4  12  -2   28.50   17.90
   4  11  -2    1.20   21.80
  -4 -11   2   23.00   20.70
   3  11  -2   40.00   21.30
  -3 -11   2   67.99   23.70
   2  11  -2  110.19   24.70
  -2 -11   2  172.58   33.70
   1  11  -2  188.18   25.30
  -1 -11   2  163.58   42.30
   0  11  -2  141.59   16.70
   0  11  -2  143.59   21.40
  -1  11  -2  628.14   44.50
  -1  11  -2  582.14   35.10
  -2  11  -2   43.20   15.60
  -2  11  -2   42.60    9.40
  -3  11  -2   21.80   14.50
  -3  11  -2   10.70    7.60
  -4  11  -2  149.19   30.90
  -5 -10   2   91.89   33.50
   3  10  -2   26.30   20.00
  -3 -10   2   27.00   19.40
   2  10  -2  222.48   33.70
  -2 -10   2  320.87   39.40
   1  10  -2  334.97   30.20
  -1 -10   2  356.56   56.29
   0  10  -2  222.28   21.10
   0  10  -2  226.68   24.40
  -1  10  -2  137.49   20.30
  -1  10  -2   91.49   12.90
  -2  10  -2  132.49   22.30
  -2  10  -2  105.79   12.60
  -3  10  -2   43.90    9.90
  -3  10  -2   32.90   16.40
  -4  10  -2   15.90   15.90
  -5  -9   2   77.49   32.90
   4   9  -2   24.70   25.30
  -4  -9   2  151.58   33.60
   3   9  -2    9.40   17.30
  -3  -9   2   28.60   18.10
   2   9  -2 1428.56   85.89
   1   9  -2  528.05   40.40
  -1  -9   2  575.24   60.69
   0   9  -2  164.18   17.40
   0   9  -2  167.68   20.90
  -1   9  -2  560.54   39.40
  -1   9  -2  493.45   31.00
  -2   9  -2  931.61   61.19
  -2   9  -2  893.31   47.10
  -3   9  -2  188.98   16.60
  -3   9  -2  184.28   28.30
  -4   9  -2   96.39   25.60
  -5  -8   2  287.57   49.00
  -4  -8   2  143.39   35.80
   3   8  -2   26.40   20.60
  -3  -8   2  133.59   30.00
   2   8  -2  282.77   36.90
   1   8  -2   46.80   14.70
  -1  -8   2   37.50   21.90
   0   8  -2  154.98   18.70
   0   8  -2  170.68   18.80
  -1   8  -2  157.58   16.00
  -1   8  -2  185.08   20.30
   1  -8   2  211.58   17.60
  -2   8  -2 1455.45   88.19
  -2   8  -2 1474.85   72.09
   2  -8   2 1564.44   73.69
  -3   8  -2  160.48   26.60
  -3   8  -2  183.78   16.40
  -4   8  -2   10.30   16.00
  -5  -7   2  102.89   34.90
  -4  -7   2   31.30   12.00
  -4  -7   2   47.10   24.70
   3   7  -2   44.50   23.40
  -3  -7   2  108.79   26.10
   2   7  -2  294.17   34.20
   1   7  -2 2286.57  120.59
  -1  -7   2 2524.25  147.19
   0   7  -2  101.39   16.80
   0   7  -2  107.49   16.60
   0  -7   2  108.69   13.30
   0  -7   2  103.09   16.30
  -1   7  -2 1079.59   57.29
  -1   7  -2 1107.89   66.39
   1  -7   2 1171.68   56.29
  -2   7  -2   25.30    7.90
  -2   7  -2   17.80   10.90
   2  -7   2   34.10    9.00
  -3   7  -2  201.38   17.10
  -3   7  -2  178.88   28.10
  -4   7  -2   94.89   24.80
  -5  -6   2  116.19   35.70
  -4  -6   2    6.50   18.50
  -4  -6   2   13.00    9.50
   3   6  -2   35.40   23.00
  -3  -6   2  150.28   30.10
  -2  -6   2  206.78   33.40
   1   6  -2 5906.91  296.47
  -1  -6   2 7228.78  342.57
   0   6  -2 1040.90   65.59
   0   6  -2 1051.29   61.09
   0  -6   2 1271.27   58.99
   0  -6   2 1171.28   65.89
  -1   6  -2 1382.46   72.29
  -1   6  -2 1382.26   81.69
   1  -6   2 1635.24   70.99
  -2   6  -2   81.09   12.20
   2  -6   2  133.59   14.20
  -3   6  -2   43.90    9.70
  -3   6  -2   24.30   13.60
  -4   6  -2    4.60   15.10
  -5  -5   2   78.39   32.20
  -4  -5   2   60.39   27.90
  -4  -5   2   98.59   17.20
   3   5  -2   20.50   19.10
  -3  -5   2  119.89   28.00
   1   5  -2   99.19   30.70
   1   5  -2   77.79   18.60
  -1  -5   2  153.38   22.70
  -1  -5   2  124.59   26.30
   0   5  -2 2436.76  125.69
   0   5  -2 2503.05  137.19
   0  -5   2 2949.60  123.99
   0  -5   2 2654.13  136.49
  -1   5  -2 2180.58  118.09
  -1   5  -2 2085.79  105.39
   1  -5   2 2119.19  119.59
   1  -5   2 2586.54  103.59
  -2   5  -2 3580.84  189.98
  -2   5  -2 3870.71  166.38
   2  -5   2 3607.64  163.88
  -3   5  -2   17.80   13.00
  -3   5  -2   20.20    9.60
  -4   5  -2   18.70   14.90
  -5  -4   2   11.40   24.00
  -4  -4   2  137.59   20.50
  -4  -4   2  132.79   32.80
  -3  -4   2  339.47   40.80
  -2  -4   2  346.17   37.60
   1   4  -2 2191.78  143.99
  -1  -4   2 2334.57  134.59
  -1  -4   2 2428.66  118.99
   0  -4   2 3338.17  176.98
   0  -4   2 3702.93  162.48
  -1   4  -2  279.97   24.00
  -1   4  -2  304.47   25.30
   1  -4   2  310.77   27.80
   1  -4   2  331.77   20.30
  -2   4  -2  730.63   49.30
  -2   4  -2  739.93   41.30
   2  -4   2  751.72   38.00
  -3   4  -2    2.80    9.10
  -3   4  -2    8.40   12.50
  -4   4  -2   12.40   15.10
  -5  -3   2   19.80   25.40
  -4  -3   2   11.10   20.30
  -4  -3   2   11.70   11.00
  -3  -3   2  262.37   24.30
  -3  -3   2  226.78   37.20
   1   3  -2    7.10   16.30
   1   3  -2    4.30   11.10
  -1  -3   2   41.20   16.10
  -1  -3   2   23.50   14.10
   0   3  -2  345.57   31.10
   0  -3   2  590.64   34.90
   0  -3   2  491.25   32.00
   0  -3   2  409.76   48.60
  -1   3  -2  464.95   32.10
  -1   3  -2  388.76   31.20
   1  -3   2  510.15   26.70
   1  -3   2  469.85   34.40
  -2   3  -2   78.19   15.70
  -2   3  -2  108.09   17.80
   2  -3   2  109.69   11.10
  -3   3  -2   52.79   15.80
  -4   3  -2   23.30   15.30
  -5  -2   2  237.28   45.30
  -4  -2   2    6.60   21.00
  -4  -2   2   20.40   11.60
  -3  -2   2  356.76   41.90
  -3  -2   2  365.66   29.00
   1   2  -2  913.71   69.79
  -1  -2   2  936.71   63.89
  -1  -2   2  895.11   62.69
   0  -2   2  243.28   21.20
   0  -2   2  190.48   35.00
   0  -2   2  230.08   27.00
  -1   2  -2  101.29   18.50
  -1   2  -2  146.69   16.30
   1  -2   2  185.48   13.90
   1  -2   2  153.68   17.60
  -2   2  -2  701.23   47.00
   2  -2   2  742.63   35.70
  -3   2  -2  217.28   25.20
  -4   2  -2    9.90   14.70
  -5  -1   2   36.60   27.00
  -4  -1   2   81.49   17.40
  -4  -1   2   64.89   27.90
  -3  -1   2  118.99   29.30
  -3  -1   2   98.39   17.00
   2   1  -2   -9.10   15.60
  -2  -1   2  114.49   24.20
   1   1  -2  963.90   67.69
  -1  -1   2  879.51   63.79
  -1  -1   2  885.21   61.69
   0  -1   2 2775.92  133.39
   0  -1   2 2367.86  148.79
  -1   1  -2  644.24   38.40
   1  -1   2  615.64   39.20
   1  -1   2  585.04   33.10
  -2   1  -2   79.49   14.40
   2  -1   2   80.69    7.70
   2  -1   2   71.49   16.40
  -3   1  -2  293.27   29.00
  -4   1  -2   19.50   14.50
  -5   0   2    3.60   24.40
  -4   0   2    0.30   18.30
  -4   0   2   -6.50    9.80
  -3   0   2  136.59   30.00
  -3   0   2  100.19   17.80
  -2   0   2  164.08   28.10
  -2   0   2  131.39   17.40
   1   0  -2    7.80   13.20
   1   0  -2   12.20   14.10
  -1   0   2    1.90   13.30
  -1   0   2    6.60   10.60
   0   0   2 7850.71  395.46
   0   0   2 7832.12  380.76
  -1   0  -2   61.69   11.10
   1   0   2   45.90   10.30
   1   0   2   51.09   11.70
  -2   0  -2   15.30    8.50
   2   0   2   17.40   11.70
  -3   0  -2  113.99   19.20
  -4   0  -2   40.40   17.40
  -5   1   2   45.10   28.30
  -4   1   2   81.89   18.30
  -4   1   2   76.89   27.80
  -3   1   2   71.49   23.80
  -3   1   2  121.89   19.00
  -2   1   2  140.09   25.60
  -2   1   2   89.89   15.00
  -1   1   2  361.26   37.10
   0  -1  -2 1789.72  122.19
   0   1   2 2435.46  121.59
   1   1   2  486.75   33.00
   1   1   2  618.54   35.40
  -2  -1  -2   85.59   13.70
   2   1   2   86.29   16.50
  -3  -1  -2  272.67   26.60
  -4  -1  -2   10.50   12.50
  -5   2   2  212.98   44.10
  -4   2   2    5.70   18.90
  -4   2   2    5.90   11.10
  -3   2   2  380.16   30.70
  -3   2   2  380.46   44.50
  -2   2   2  928.41   65.69
  -2   2   2  871.61   50.69
   1  -2  -2  909.01   65.09
  -1   2   2 1000.50   64.99
  -1   2   2 1067.09   53.99
   0  -2  -2  217.98   31.50
   0   2   2  190.88   23.00
  -1  -2  -2  169.78   15.10
   1   2   2  171.98   15.60
   1   2   2  165.58   12.80
  -2  -2  -2  736.03   44.10
   2   2   2  728.83   46.80
  -3  -2  -2  253.67   25.10
  -4  -2  -2    8.70   12.40
  -5   3   2   24.90   26.10
  -4   3   2   12.40   22.00
  -4   3   2   13.30   12.00
  -3   3   2  285.27   27.00
  -3   3   2  233.58   39.50
  -2   3   2  688.43   54.89
  -2   3   2  639.74   41.00
   1  -3  -2   31.50   13.90
  -1   3   2   29.50   12.80
  -1   3   2   23.50    8.60
  -1   3   2    4.00   13.60
   0  -3  -2  612.24   48.90
   0   3   2  654.23   35.70
   0   3   2  603.64   42.50
  -1  -3  -2  465.15   28.60
   1   3   2  435.86   25.20
   1   3   2  470.95   28.40
  -2  -3  -2  167.18   15.80
   2   3   2  103.19   16.50
  -3  -3  -2   59.29   13.80
  -4  -3  -2   19.20   12.60
  -5   4   2   33.60   26.60
  -4   4   2  115.99   33.30
  -4   4   2  148.49   23.00
  -3   4   2  389.66   44.10
  -3   4   2  316.67   29.50
  -2   4   2  330.37   26.90
  -2   4   2  341.57   37.40
   1  -4  -2 2177.88  123.29
  -1   4   2 2216.88  106.09
  -1   4   2 2303.67  123.39
   0  -4  -2 3167.68  169.38
   0   4   2 3313.07  146.49
   0   4   2 3205.38  164.58
   1   4   2  349.37   19.70
   1   4   2  269.17   19.70
  -2  -4  -2  761.02   44.10
   2   4   2  775.12   47.00
  -3  -4  -2    4.50    9.20
  -5   5   2   61.99   31.00
  -4   5   2  113.99   32.60
  -4   5   2   88.29   19.40
  -3   5   2  101.19   18.40
  -3   5   2  102.99   28.00
  -2   5   2  695.93   41.80
  -2   5   2  588.24   50.89
   1  -5  -2  118.69   20.40
  -1   5   2  142.99   22.20
  -1   5   2  125.29   16.10
   0  -5  -2 3030.90  126.99
   0  -5  -2 2667.53  144.99
   0   5   2 2726.13  126.99
   0   5   2 2686.93  141.89
   1   5   2 2326.27  112.79
   1   5   2 2193.58  121.39
   1   5   2 2338.37  103.89
  -2  -5  -2 3979.20  194.98
   2   5   2 3974.20  197.58
  -3  -5  -2   18.90    9.90
   3   5   2   11.00   13.90
  -5   6   2  159.68   40.40
  -4   6   2    9.90   22.20
  -4   6   2    6.20   11.10
  -3   6   2  204.48   23.20
  -3   6   2  186.88   34.50
  -2   6   2  247.68   35.60
  -2   6   2  252.17   23.70
   1  -6  -2 7170.08  358.76
  -1   6   2 7402.86  359.06
  -1   6   2 7043.10  318.87
   0  -6  -2 1277.17   59.89
   0  -6  -2 1167.98   68.69
   0   6   2 1208.38   59.99
   0   6   2 1137.39   66.09
   1   6   2 1470.15   73.29
   1   6   2 1544.25   77.09
   1   6   2 1416.66   69.19
   2   6   2   87.89   13.20
  -3  -6  -2   31.90   10.70
  -5   7   2  176.18   42.90
  -4   7   2   42.50   25.30
  -4   7   2   25.80   14.30
  -3   7   2  102.29   27.90
  -3   7   2  114.79   19.40
  -2   7   2  699.53   44.20
  -2   7   2  714.73   56.29
   1  -7  -2 2605.74  139.29
  -1   7   2 2679.43  122.19
  -1   7   2 2429.06  138.09
   0  -7  -2  120.89   13.30
   0  -7  -2  119.79   16.90
   0   7   2  110.39   14.40
   0   7   2  109.09   13.90
  -1  -7  -2 1051.49   51.39
   1   7   2 1037.10   51.29
  -2  -7  -2   23.80    6.00
   2   7   2   13.30    7.20
   2   7   2   23.60    4.00
   2   7   2   18.10    8.40
  -3  -7  -2  200.38   18.90
  -5   8   2  319.77   55.09
  -4   8   2  195.78   27.00
  -4   8   2  181.28   39.00
  -3   8   2  104.19   18.90
  -3   8   2  115.89   28.20
  -2   8   2  516.95   46.40
  -2   8   2  527.25   36.40
   1  -8  -2   53.19   15.80
  -1   8   2   56.89   11.80
  -1   8   2   46.60   15.10
   0  -8  -2  178.98   16.00
   0  -8  -2  144.89   17.90
   0   8   2  162.08   15.50
   0   8   2  166.78   16.80
  -1  -8  -2  164.98   14.90
   1   8   2  182.88   14.60
  -3  -8  -2  210.78   18.90
  -5   9   2   67.19   33.20
  -4   9   2  149.79   36.40
  -4   9   2  159.48   25.10
  -3   9   2   27.40   20.30
  -3   9   2   23.80   12.20
  -2   9   2 2248.38  133.59
  -2   9   2 2382.66  115.09
  -1   9   2  585.24   43.50
  -1   9   2  565.74   36.40
   0  -9  -2  189.48   18.90
   0  -9  -2  208.88   17.70
   0   9   2  178.08   16.80
   0   9   2  166.38   17.50
  -1  -9  -2  614.04   34.00
   1   9   2  597.44   33.60
   2   9   2  956.80   45.10
  -3  -9  -2  171.78   16.00
  -5  10   2   32.20   28.80
  -4  10   2  823.72   74.39
  -4  10   2  797.02   55.09
  -3  10   2   21.80   11.80
  -3  10   2   38.80   20.00
  -2  10   2  276.57   33.80
  -2  10   2  318.07   27.20
  -1  10   2  301.87   24.80
  -1  10   2  353.96   31.40
   0 -10  -2  277.17   23.50
   0  10   2  235.38   20.70
   0  10   2  264.57   22.00
  -1 -10  -2  106.99   13.40
   1  10   2  130.89   13.70
  -2 -10  -2  140.49   12.00
   2  10   2  130.09   10.90
  -4  11   2   13.50   14.60
  -4  11   2   -1.70   19.00
  -3  11   2   53.89   15.80
  -3  11   2   49.90   22.40
  -2  11   2  125.59   25.60
  -2  11   2  103.69   17.80
  -1  11   2  195.78   19.60
  -1  11   2  178.48   25.30
   0 -11  -2  146.39   18.80
   0  11   2  157.68   16.80
   0  11   2  198.68   17.90
  -1 -11  -2  708.43   39.30
   1  11   2  695.83   38.90
  -2 -11  -2   46.90    8.80
   2  11   2   47.10    7.70
  -4  12   2  210.08   42.30
  -4  12   2  144.09   26.30
  -3  12   2   41.00   21.20
  -3  12   2   41.40   15.00
  -2  12   2  277.97   33.20
  -2  12   2  211.58   22.90
  -1  12   2 1690.83   86.99
  -1  12   2 1726.73   98.09
   0 -12  -2  117.39   16.80
   0  12   2  116.99   16.30
   0  12   2   99.69   14.90
  -1 -12  -2  154.28   15.90
   1  12   2  130.39   14.60
  -2 -12  -2  871.81   43.90
   2  12   2  817.52   42.40
  -4  13   2    8.80   13.60
  -4  13   2    6.60   21.70
  -3  13   2    5.40   11.10
  -3  13   2   25.20   19.10
  -2  13   2  483.05   36.60
  -2  13   2  488.45   45.00
  -1  13   2   24.20   12.40
  -1  13   2   17.50    9.90
   0 -13  -2  174.58   19.20
   0  13   2  177.68   18.50
   0  13   2  152.38   17.90
   1  13   2  955.80   51.19
   2  13   2   29.70    7.60
  -4  14   2  151.08   27.50
  -4  14   2  188.08   40.30
  -3  14   2   47.50   16.60
  -3  14   2   38.10   19.80
  -2  14   2   87.69   17.40
  -2  14   2   50.79   19.80
  -1  14   2  584.54   44.10
  -1  14   2  531.75   37.90
   0 -14  -2  356.46   28.30
   0  14   2  331.67   26.90
   0  14   2  325.57   26.50
   1  14   2  119.19   15.50
  -2 -14  -2  303.77   22.30
   2  14   2  307.57   20.90
  -4  15   2   41.30   18.20
  -4  15   2   86.19   32.00
  -3  15   2   28.90   14.60
  -3  15   2    9.30   18.00
  -2  15   2  118.19   25.40
  -2  15   2  111.59   19.40
  -1  15   2  429.86   32.80
  -1  15   2  410.16   36.10
   0 -15  -2  431.36   33.10
   0  15   2  442.66   32.50
   0  15   2  480.75   32.80
   1  15   2  317.37   24.70
   2  15   2   41.10    9.10
  -4  16   2  167.98   29.20
  -4  16   2  114.49   33.50
  -3  16   2  239.68   27.90
  -3  16   2  249.58   41.10
  -2  16   2   37.40   13.50
  -2  16   2   42.80   19.10
  -1  16   2  236.88   28.10
  -1  16   2  220.08   23.10
   0 -16  -2  296.87   27.10
   0  16   2  303.77   26.00
   0  16   2  307.17   25.70
   1  16   2    3.10    6.80
   2  16   2   19.90    8.00
  -4  17   2   13.30   15.10
  -4  17   2   27.70   22.60
  -3  17   2  187.58   28.40
  -3  17   2  187.98   36.60
  -2  17   2   45.90   14.90
  -2  17   2   36.30   18.30
  -1  17   2   95.69   20.30
  -1  17   2   68.09   16.10
   0 -17  -2   31.10   12.90
   0  17   2   31.30   11.10
   0  17   2   17.20   10.00
   1  17   2   13.90    9.00
   2  17   2   60.49   11.80
  -4  18   2   57.99   21.80
  -4  18   2   68.59   29.20
  -3  18   2  419.16   39.40
  -3  18   2  510.05   52.69
  -2  18   2   47.40   19.60
  -2  18   2   49.50   14.90
  -1  18   2   37.00   15.60
  -1  18   2   43.70   14.50
   0 -18  -2   53.29   15.10
   0  18   2   34.80   11.20
   0  18   2   38.80   12.30
   1  18   2  360.16   23.10
   1  18   2  400.96   29.00
   2  18   2  192.58   18.60
  -4  19   2    4.90   16.80
  -4  19   2   17.50   24.40
  -3  19   2  151.88   33.70
  -3  19   2  188.08   29.40
  -2  19   2  607.04   46.40
  -2  19   2  659.23   55.39
  -1  19   2    0.40   10.00
  -1  19   2    7.00   12.30
   0 -19  -2  214.38   25.80
   0  19   2  195.68   22.70
   0  19   2  220.98   22.80
   1  19   2   24.40    7.80
   1  19   2   28.80   10.70
   2  19   2  583.14   36.60
  -4  20   2   50.79   27.80
  -4  20   2   80.09   23.90
  -3  20   2  338.07   35.30
  -3  20   2  255.17   43.00
  -2  20   2  132.99   29.30
  -2  20   2  171.08   26.50
  -1  20   2  830.12   58.49
  -1  20   2  743.73   51.59
   0  20   2  461.25   35.80
   0  20   2  511.55   37.40
   1  20   2  134.19   19.20
   1  20   2  130.19   13.90
   2  20   2   94.39   15.20
  -4  21   2   -2.10   15.00
  -4  21   2   -9.80   20.90
  -3  21   2   99.29   29.30
  -3  21   2   92.39   22.80
  -2  21   2   18.00   17.30
  -2  21   2   14.50   12.10
  -1  21   2 1207.58   77.39
  -1  21   2 1115.59   68.69
   0  21   2  132.39   20.50
   0  21   2  123.19   20.60
   1  21   2   18.40   10.80
   1  21   2   19.10    9.00
   2  21   2   53.79   12.90
  -4  22   2  127.89   36.60
  -4  22   2  119.19   28.70
  -3  22   2  175.28   29.00
  -3  22   2  167.28   36.10
  -2  22   2  408.86   44.40
  -2  22   2  444.56   39.40
  -1  22   2  609.74   46.30
  -1  22   2  684.23   52.09
   0  22   2   20.60   12.50
   0  22   2   42.90   14.50
   1  22   2   69.29   12.40
   1  22   2   54.99   14.40
   2  22   2  306.07   26.10
  -3  23   2   49.50   23.50
  -3  23   2   70.69   21.20
  -2  23   2 1617.14  106.89
  -2  23   2 1668.03   95.19
  -1  23   2   36.50   17.30
  -1  23   2   21.70   13.40
   0  23   2  145.39   22.30
   0  23   2  135.49   22.80
   1  23   2   73.19   16.50
   2  23   2  225.58   22.90
  -3  24   2   73.09   22.60
  -3  24   2   60.69   25.50
  -2  24   2  104.99   27.70
  -2  24   2  115.29   23.80
  -1  24   2  193.78   30.40
  -1  24   2  212.18   29.40
   0  24   2  405.26   34.70
   0  24   2  362.76   33.70
   1  24   2   43.60   14.10
   2  24   2  244.48   24.90
  -3  25   2   16.70   20.00
  -3  25   2   19.10   16.70
  -2  25   2   14.50   16.90
  -2  25   2    7.80   13.60
  -1  25   2   18.80   15.60
  -1  25   2    7.00   12.20
   0  25   2  198.78   27.40
   0  25   2  193.38   24.50
   1  25   2   50.59   15.10
   2  25   2  122.49   20.10
  -3  26   2   28.20   18.70
  -3  26   2   32.60   22.50
  -2  26   2   45.50   18.50
  -2  26   2   37.50   19.70
  -1  26   2  758.02   58.99
  -1  26   2  740.93   54.39
   0  26   2   68.69   18.40
   0  26   2   84.19   19.40
   1  26   2   28.80   13.70
   2  26   2    8.90   11.10
  -3  27   2   22.00   23.40
  -3  27   2   10.70   17.70
  -2  27   2   76.89   25.50
  -2  27   2   66.49   21.30
  -1  27   2  329.77   34.60
  -1  27   2  332.77   38.10
   0  27   2   59.39   17.50
   0  27   2   58.19   17.90
   1  27   2  163.08   24.70
   2  27   2   -2.20   10.10
  -3  28   2   11.10   20.50
  -3  28   2    7.80   16.50
  -2  28   2   50.49   18.60
  -2  28   2   65.79   24.10
  -1  28   2  129.19   27.80
  -1  28   2  112.19   23.50
   0  28   2   89.49   20.70
   0  28   2   59.19   18.40
   1  28   2   18.50   13.00
   2  28   2  170.18   25.30
  -2  29   2   95.89   27.90
  -2  29   2  113.59   26.60
  -1  29   2   47.60   21.40
  -1  29   2   41.60   16.60
   0  29   2   38.10   16.40
   0  29   2   43.80   17.40
   1  29   2  242.18   28.10
   2  29   2   40.40   16.50
  -2  30   2   34.30   19.50
  -2  30   2   38.60   23.50
  -1  30   2  343.77   40.50
  -1  30   2  334.67   35.70
   0  30   2    1.50   12.30
   1  30   2   19.60   14.40
   2  30   2   99.19   22.50
  -2  31   2   19.20   19.70
  -2  31   2   29.50   18.80
  -1  31   2   43.30   18.60
  -1  31   2   21.50   18.80
   0  31   2   18.80   14.20
   1  31   2   97.79   22.10
  -1  32   2   98.09   27.20
  -1  32   2   71.69   21.10
   0  32   2   -1.50   12.80
   1  32   2   15.00   14.70
  -1  33   2   -8.20   18.20
  -1  33   2    1.00   15.10
   0  33   2   -2.50   13.50
   1  33   2  226.98   33.10
   0  34   2    4.50   15.60
   0  32  -3   27.40   20.20
   0  32  -3   30.80   21.30
   1  31  -3  -12.40   17.90
  -1 -31   3   40.90   54.49
   0  31  -3  213.18   38.20
   0  31  -3  270.07   40.70
  -1  31  -3   39.60   20.80
  -1  31  -3   58.09   22.60
   2  30  -3   62.59   31.50
  -2 -30   3   66.99   53.09
   1  30  -3   21.40   20.50
  -1 -30   3   34.40   55.29
   0  30  -3   81.99   25.40
   0  30  -3   94.79   27.00
  -1  30  -3   19.00   17.80
  -1  30  -3   -2.40   15.30
   2  29  -3   12.20   25.30
  -2 -29   3   -6.50   41.60
   1  29  -3  140.09   32.90
  -1 -29   3   59.49   57.59
   0  29  -3   92.19   26.30
   0  29  -3   63.79   23.60
  -1  29  -3  -13.00   13.30
  -1  29  -3    5.80   15.10
   2  28  -3   46.40   28.30
  -2 -28   3   16.80   40.20
   1  28  -3  185.88   36.00
  -1 -28   3  135.99   67.79
   0  28  -3   -1.30   14.60
   0  28  -3    1.80   15.80
  -1  28  -3   54.39   21.70
  -1  28  -3   30.10   17.60
  -2  28  -3   45.20   20.40
  -2  28  -3   24.60   19.90
   2  27  -3   94.99   32.60
  -2 -27   3  129.49   55.49
   1  27  -3  207.38   36.40
  -1 -27   3  142.29   67.09
   0  27  -3  157.38   28.90
   0  27  -3  181.68   33.40
  -1  27  -3   20.20   16.30
  -1  27  -3   43.30   20.00
  -2  27  -3   57.59   20.00
  -2  27  -3   32.40   19.60
   3  26  -3    4.00   28.90
  -3 -26   3   -6.40   34.10
   2  26  -3   93.59   31.90
  -2 -26   3   89.59   49.30
   1  26  -3   10.40   16.50
  -1 -26   3  -11.80   36.10
   0  26  -3  123.29   27.90
   0  26  -3   80.69   22.50
  -1  26  -3    9.30   14.50
  -1  26  -3    3.10   13.10
  -2  26  -3   86.19   22.30
  -2  26  -3   82.09   25.00
   3  25  -3   18.20   30.20
  -3 -25   3   17.70   34.20
   2  25  -3   54.79   27.20
  -2 -25   3  155.98   54.59
   1  25  -3  154.58   30.00
  -1 -25   3   92.69   58.39
   0  25  -3  460.55   42.40
   0  25  -3  466.55   45.90
  -1  25  -3  292.17   32.30
  -1  25  -3  291.67   35.50
  -2  25  -3   77.29   21.30
   3  24  -3   -3.60   27.10
  -3 -24   3   17.90   31.80
   2  24  -3   42.90   26.30
  -2 -24   3   56.29   41.70
   1  24  -3   10.40   15.80
  -1 -24   3   -3.10   38.20
   0  24  -3  510.75   43.20
   0  24  -3  386.66   41.80
  -1  24  -3   16.20   14.90
  -1  24  -3    7.40   11.20
  -2  24  -3   62.49   22.00
  -2  24  -3   77.99   20.00
   3  23  -3   16.30   27.20
  -3 -23   3   10.80   29.80
   2  23  -3   99.59   31.70
  -2 -23   3  186.38   58.99
   1  23  -3  229.48   36.40
  -1 -23   3  172.48   64.89
   0  23  -3   22.00   15.70
   0  23  -3    7.80   11.30
  -1  23  -3  288.77   30.60
  -1  23  -3  255.47   37.90
  -2  23  -3   -1.00   13.80
  -2  23  -3   14.70   13.00
  -3  23  -3   20.00   19.20
  -3  23  -3   35.50   18.50
   3  22  -3   56.29   33.70
  -3 -22   3  134.19   44.40
   2  22  -3   30.70   23.40
  -2 -22   3   40.50   35.50
   1  22  -3  960.30   68.29
  -1 -22   3  823.62  126.49
   0  22  -3  519.05   43.50
   0  22  -3  563.84   49.60
  -1  22  -3   18.50   14.30
  -1  22  -3   30.20   14.40
  -2  22  -3    4.80   14.30
  -2  22  -3   21.20   13.40
  -3  22  -3    4.80   14.00
  -3  22  -3   10.70   18.00
   3  21  -3   31.20   29.90
  -3 -21   3   47.10   36.00
   2  21  -3  245.98   43.30
  -2 -21   3  268.57   62.29
   1  21  -3  593.54   50.49
  -1 -21   3  594.74  106.99
   0  21  -3  629.64   53.09
   0  21  -3  625.04   47.80
  -1  21  -3  177.08   25.20
  -1  21  -3  161.58   29.20
  -2  21  -3   -1.40   13.30
  -2  21  -3    1.50   10.70
  -3  21  -3   21.90   16.20
  -3  21  -3   25.00   18.30
   4  20  -3    1.90   35.20
  -4 -20   3   20.10   30.10
   3  20  -3    3.80   23.30
  -3 -20   3    6.20   26.90
   2  20  -3   27.00   19.80
  -2 -20   3   22.40   33.10
   1  20  -3 1426.86   87.99
  -1 -20   3 1260.77  135.99
   0  20  -3  584.84   50.79
   0  20  -3  615.84   46.80
  -1  20  -3    5.70   11.90
  -1  20  -3   -5.80    9.00
  -2  20  -3   11.10   11.90
  -2  20  -3    0.90   12.20
  -3  20  -3    9.40   13.20
  -3  20  -3    9.00   15.70
   4  19  -3   -7.60   28.90
  -4 -19   3    5.10   26.90
   3  19  -3   -7.30   23.10
  -3 -19   3    0.20   23.60
   2  19  -3  111.19   29.50
  -2 -19   3   98.39   40.70
   1  19  -3  164.18   29.90
  -1 -19   3   91.89   49.20
   0  19  -3  132.99   25.80
   0  19  -3  178.38   27.10
  -1  19  -3  694.73   47.80
  -1  19  -3  669.73   54.69
  -2  19  -3   19.00   12.50
  -2  19  -3   21.00   15.20
  -3  19  -3   18.00   17.80
  -3  19  -3   42.50   16.50
   4  18  -3   79.89   41.40
  -4 -18   3  191.88   45.90
   3  18  -3   39.20   27.80
  -3 -18   3    6.20   23.40
   2  18  -3   33.70   21.00
  -2 -18   3   56.19   33.80
   1  18  -3   55.29   19.40
  -1 -18   3   85.89   45.00
   0  18  -3  501.45   45.00
   0  18  -3  512.85   41.50
  -1  18  -3   32.70   15.00
  -1  18  -3   11.00   10.70
  -2  18  -3  137.99   21.90
  -2  18  -3  134.69   27.00
  -3  18  -3  107.09   21.50
  -3  18  -3   98.19   25.20
   4  17  -3   14.20   33.70
  -4 -17   3   33.40   28.90
   3  17  -3   -2.00   22.20
  -3 -17   3    6.10   25.30
   2  17  -3  131.19   32.60
  -2 -17   3  201.18   49.80
   1  17  -3   85.09   23.00
  -1 -17   3   76.19   45.30
   0  17  -3  479.35   40.10
   0  17  -3  507.55   44.40
  -1  17  -3  303.47   28.40
  -1  17  -3  258.77   30.60
  -2  17  -3   71.09   16.60
  -2  17  -3   66.99   20.20
  -3  17  -3   25.10   13.70
  -3  17  -3    5.10   14.20
   4  16  -3    4.20   31.20
  -4 -16   3   93.49   36.60
   3  16  -3    2.80   22.60
  -3 -16   3   58.59   29.40
   2  16  -3  411.16   48.10
  -2 -16   3  564.84   67.29
   1  16  -3  183.88   31.30
  -1 -16   3  198.08   58.59
   0  16  -3   28.70   13.80
   0  16  -3   60.99   18.00
  -1  16  -3    7.00   10.60
  -1  16  -3   12.10   11.00
  -2  16  -3   31.90   12.60
  -2  16  -3   20.80   15.10
  -3  16  -3   21.80   13.60
  -3  16  -3   20.60   15.00
   4  15  -3   10.80   31.20
  -4 -15   3   -7.80   20.90
   3  15  -3   56.59   28.80
  -3 -15   3   72.09   28.80
   2  15  -3   47.30   23.10
  -2 -15   3   82.69   33.10
   1  15  -3  233.98   34.70
  -1 -15   3  168.88   53.29
   0  15  -3  300.67   30.90
   0  15  -3  274.27   31.60
  -1  15  -3  546.65   45.80
  -1  15  -3  594.14   41.70
  -2  15  -3  107.79   19.10
  -2  15  -3  109.99   23.90
  -3  15  -3   37.10   17.10
  -3  15  -3   49.40   15.70
   4  14  -3  -15.00   27.00
  -4 -14   3   13.20   25.20
   3  14  -3   34.90   27.80
  -3 -14   3  116.89   34.30
   2  14  -3   98.29   28.00
  -2 -14   3  111.09   35.50
   1  14  -3  182.68   30.60
  -1 -14   3  236.28   58.49
   0  14  -3  129.19   23.00
   0  14  -3  165.78   26.90
  -1  14  -3    6.00   10.10
  -1  14  -3    8.30   11.20
  -2  14  -3  263.97   30.00
  -2  14  -3  260.57   25.50
  -3  14  -3   41.40   15.10
  -3  14  -3   43.20   18.40
  -4  14  -3   13.90   16.80
   4  13  -3    9.20   26.70
  -4 -13   3   -8.40   19.70
   3  13  -3   74.69   31.20
  -3 -13   3  188.88   40.30
   2  13  -3  238.18   39.90
  -2 -13   3  333.97   53.49
   1  13  -3  714.13   57.29
  -1 -13   3  923.11   93.19
   0  13  -3  748.33   52.59
   0  13  -3  794.62   56.99
  -1  13  -3   16.10   12.70
  -1  13  -3    8.90   10.70
  -2  13  -3  191.98   22.60
  -2  13  -3  215.48   27.60
  -3  13  -3   96.19   23.60
  -3  13  -3  153.68   23.40
  -4  13  -3   15.60   16.30
   4  12  -3   28.40   30.80
  -4 -12   3  173.78   41.00
  -3 -12   3  190.08   40.00
   2  12  -3  289.37   43.60
  -2 -12   3  433.56   52.09
   1  12  -3  123.89   25.70
  -1 -12   3  102.49   40.40
   0  12  -3  159.78   26.00
   0  12  -3  197.08   24.90
  -1  12  -3    8.30   10.20
  -1  12  -3    7.10    9.90
  -2  12  -3  172.48   27.70
  -2  12  -3  195.58   24.70
  -3  12  -3   27.10   15.40
  -3  12  -3   19.50   14.40
  -4  12  -3   16.20   17.10
   4  11  -3   11.80   29.30
  -4 -11   3  128.29   36.40
   3  11  -3   88.99   32.60
  -3 -11   3  340.67   50.59
   2  11  -3   21.80   19.00
  -2 -11   3    5.60   15.60
   1  11  -3   25.90   15.30
  -1 -11   3   62.09   33.30
   0  11  -3 1264.97   77.19
   0  11  -3 1372.66   83.49
  -1  11  -3   96.49   19.70
  -1  11  -3   83.29   18.10
  -2  11  -3  365.06   30.70
  -2  11  -3  298.17   32.10
  -3  11  -3   50.59   17.20
  -3  11  -3   32.10   16.70
  -4  11  -3   -0.70   13.80
   4  10  -3   10.20   28.50
  -4 -10   3   31.00   24.80
  -3 -10   3  301.47   47.60
   2  10  -3  243.88   40.10
  -2 -10   3  389.16   48.30
   1  10  -3   55.79   19.00
  -1 -10   3   98.79   35.40
   0  10  -3  935.11   62.79
   0  10  -3  871.01   59.69
  -1  10  -3    1.40    9.40
  -1  10  -3   -3.10    9.40
  -2  10  -3  166.68   23.60
  -2  10  -3  165.58   26.20
  -3  10  -3   67.19   18.90
  -4  10  -3   13.50   16.90
   4   9  -3    3.40   27.40
  -4  -9   3   25.70   25.60
   3   9  -3  119.49   36.50
  -3  -9   3  429.16   48.00
  -2  -9   3  188.88   38.60
   1   9  -3  299.07   35.40
  -1  -9   3  379.96   59.99
   0   9  -3  399.26   36.40
   0   9  -3  429.46   37.10
  -1   9  -3   46.50   14.50
  -1   9  -3   33.70   13.50
  -2   9  -3  163.28   23.90
  -2   9  -3  139.09   23.70
  -3   9  -3  120.49   23.80
  -4   9  -3   -3.80   13.10
   4   8  -3    3.20   27.30
  -4  -8   3  106.79   34.50
   3   8  -3   26.50   24.60
  -3  -8   3   86.09   27.70
   2   8  -3   19.20   19.10
  -2  -8   3   68.29   23.50
   1   8  -3  791.82   58.79
  -1   8  -3  476.65   39.10
  -1   8  -3  520.45   40.10
  -2   8  -3  207.68   27.40
  -2   8  -3  215.48   25.60
  -3   8  -3  271.77   30.20
  -4   8  -3   83.49   22.20
  -4  -7   3  362.76   32.90
  -4  -7   3  336.37   53.59
   3   7  -3    3.10   20.80
  -3  -7   3   45.90   23.20
   2   7  -3  165.88   32.00
   1   7  -3  302.57   33.90
   0   7  -3 1323.77   76.59
   0  -7   3 1148.99  104.29
  -1   7  -3   44.10   14.10
  -1   7  -3   32.40   14.50
  -2   7  -3   30.60   12.80
  -2   7  -3   22.20   13.20
  -3   7  -3 1311.67   81.99
  -4   7  -3   33.40   18.10
  -5  -6   3  152.48   43.80
  -4  -6   3  133.69   22.10
  -4  -6   3  110.59   34.80
   3   6  -3   26.30   24.10
  -3  -6   3  127.39   31.10
   2   6  -3    2.40   14.90
  -2  -6   3   73.39   24.70
   1   6  -3  571.34   47.90
   0  -6   3 1462.45  115.79
  -1   6  -3  176.48   26.40
  -1   6  -3  242.88   24.50
  -2   6  -3   87.19   20.50
  -2   6  -3  122.79   20.90
   2  -6   3  126.69   15.40
  -3   6  -3  117.39   21.50
  -4   6  -3   52.99   18.80
  -5  -5   3   -0.30   25.50
  -4  -5   3   19.10   21.60
   2   5  -3   62.69   23.00
  -2  -5   3  167.38   32.40
   1   5  -3   96.09   23.30
  -1  -5   3  230.08   40.20
   0   5  -3   83.99   20.20
   0  -5   3  149.59   41.30
  -1   5  -3 1085.19   70.89
  -1   5  -3 1356.26   74.59
  -2   5  -3  191.28   22.70
  -2   5  -3  131.59   25.30
   2  -5   3  177.58   17.70
  -3   5  -3   89.79   19.40
  -4   5  -3   47.00   17.20
  -5  -4   3    6.40   26.00
  -4  -4   3  810.02   76.59
  -4  -4   3  821.12   54.09
  -2  -4   3  190.88   35.00
  -1  -4   3  346.77   42.10
   0  -4   3  368.06   58.19
  -1   4  -3  108.59   18.50
  -1   4  -3   46.70   17.50
   1  -4   3  121.69   16.10
  -2   4  -3  136.89   21.90
   2  -4   3  181.78   16.40
  -3   4  -3  122.69   21.50
  -4   4  -3   20.40   15.40
  -5  -3   3   21.10   26.80
  -4  -3   3  620.54   66.19
  -4  -3   3  620.14   46.10
  -3  -3   3  871.11   73.59
   1   3  -3  576.74   48.00
   0  -3   3  222.68   44.10
  -1   3  -3  105.19   18.00
   1  -3   3  133.59   17.30
  -2   3  -3  215.68   23.00
   2  -3   3  227.18   17.70
  -3   3  -3   27.70   12.90
  -4   3  -3   95.29   20.80
  -5  -2   3   23.50   27.20
  -4  -2   3  730.73   51.39
  -4  -2   3  751.62   73.39
  -3  -2   3   60.49   23.30
  -3  -2   3  149.39   22.00
   2   2  -3    2.30   17.40
  -2  -2   3   44.20   20.60
  -1  -2   3  288.47   37.40
   0  -2   3  213.28   41.80
  -1   2  -3  128.19   19.10
   1  -2   3  121.29   18.40
  -2   2  -3  312.27   29.00
   2  -2   3  380.56   22.70
  -3   2  -3   80.39   17.40
  -4   2  -3   17.20   13.60
  -5  -1   3   45.60   32.40
  -4  -1   3   10.70   22.80
  -4  -1   3   -0.90   13.50
  -3  -1   3   26.10   21.10
  -3  -1   3    5.50   10.60
  -1  -1   3  131.49   27.60
   0  -1   3  584.54   58.19
  -1   1  -3 1246.98   74.69
   1  -1   3 1305.37   69.79
   1  -1   3 1352.46   75.59
  -2   1  -3  358.76   30.00
   2  -1   3  379.36   22.80
  -3   1  -3   45.30   14.00
  -5   0   3    5.70   26.70
  -4   0   3   19.00   21.00
  -4   0   3   30.50   15.50
  -3   0   3  -12.10   14.60
  -3   0   3    5.70   10.20
  -2   0   3    3.30   12.50
  -1   0   3 1012.20   72.69
   0   0  -3   -6.70   14.30
   0   0   3   54.39   13.50
   0   0   3   66.29   22.90
  -1   0  -3   18.80   10.80
  -1   0  -3  -12.10   14.20
   1   0   3    6.10   12.20
   1   0   3   22.30   11.30
  -2   0  -3  467.55   35.50
   2   0   3  517.35   27.50
  -3   0  -3   76.39   16.20
  -5   1   3   33.80   30.20
  -4   1   3   -6.60   19.50
  -4   1   3   33.70   15.60
  -3   1   3   20.20   19.40
  -3   1   3   15.20   12.00
  -2   1   3  964.40   55.99
  -2   1   3  922.91   71.29
   1  -1  -3    8.20   15.40
  -1   1   3  144.99   26.60
   0   1   3  612.54   52.99
   0   1   3  559.74   40.00
   1   1   3  958.60   62.79
   1   1   3 1219.58   64.89
  -2  -1  -3  329.07   27.00
   2   1   3  306.77   21.00
   2   1   3  355.76   20.20
  -3  -1  -3   41.30   13.10
  -5   2   3   -3.50   24.20
  -4   2   3  803.02   55.39
  -4   2   3  794.62   75.89
  -3   2   3  108.89   29.90
  -3   2   3  149.39   23.10
  -2   2   3   63.69   14.60
  -2   2   3   58.19   21.00
  -1   2   3  241.38   31.80
  -1   2   3  290.17   24.00
   0   2   3  179.38   29.10
   1   2   3   93.99   27.30
   1   2   3  124.99   15.80
   1   2   3   78.29   21.00
   1   2   3  110.99   12.50
  -2  -2  -3  361.96   26.60
   2   2   3  268.57   20.10
   2   2   3  314.47   29.60
   2   2   3  346.57   19.90
  -3  -2  -3  101.79   17.40
  -5   3   3   18.60   28.30
  -4   3   3  560.74   45.60
  -4   3   3  547.45   62.19
  -3   3   3 1079.79   83.69
  -3   3   3  968.20   61.99
  -2   3   3  897.11   52.99
  -2   3   3  791.82   65.69
  -1   3   3 1793.22  111.09
  -1   3   3 1900.71   93.09
   0  -3  -3  138.39   33.90
   0   3   3  214.98   27.40
   0   3   3  240.58   19.70
   1   3   3   41.70   19.00
   1   3   3  109.99   15.40
   1   3   3  108.39   26.60
   1   3   3  104.29   13.40
  -2  -3  -3  252.47   22.10
   2   3   3  237.68   17.90
   2   3   3  206.48   17.40
   2   3   3  273.77   26.00
  -3  -3  -3   34.80   11.90
  -5   4   3   19.10   27.70
  -4   4   3  790.82   74.59
  -4   4   3  720.53   53.39
  -3   4   3  704.93   64.19
  -3   4   3  575.64   44.40
  -2   4   3  242.78   37.30
  -2   4   3  199.48   23.00
  -1   4   3  334.17   26.90
  -1   4   3  336.77   36.80
   0  -4  -3  385.36   53.39
   0   4   3  453.95   30.20
   0   4   3  473.95   39.50
   1   4   3  131.39   15.00
   1   4   3  139.09   26.90
   1   4   3  132.29   15.70
  -2  -4  -3  153.38   17.50
   2   4   3  190.18   21.50
   2   4   3  146.69   17.20
   2   4   3  126.99   14.20
  -3  -4  -3  163.38   19.20
  -5   5   3   47.10   31.00
  -5   5   3   17.70   17.80
  -4   5   3   21.10   22.40
  -4   5   3    0.30   14.40
  -3   5   3  413.26   50.09
  -3   5   3  424.06   36.20
  -2   5   3  197.88   22.80
  -2   5   3  213.58   35.30
  -1   5   3  262.67   31.40
  -1   5   3  235.88   22.50
   0  -5  -3  125.39   31.10
   0   5   3  195.68   18.20
   0   5   3  167.08   24.10
   1   5   3 1628.04   98.39
   1   5   3 1752.92   89.39
   1   5   3 1681.13   83.39
  -2  -5  -3  173.48   17.20
   2   5   3  163.68   18.40
   2   5   3  175.88   19.90
   2   5   3  129.69   13.20
  -3  -5  -3   93.59   15.40
  -5   6   3  173.38   45.60
  -5   6   3  149.19   28.50
  -4   6   3   87.89   21.60
  -4   6   3   92.09   31.10
  -3   6   3  119.39   21.90
  -3   6   3  129.09   33.00
  -2   6   3   60.29   15.10
  -2   6   3   37.00   17.50
  -1   6   3 1085.89   74.19
  -1   6   3 1172.18   63.29
   0  -6  -3 1838.22  121.19
   0   6   3 2055.79  110.89
   0   6   3 2032.90   97.79
   1   6   3  281.97   20.60
   1   6   3  269.37   26.30
   1   6   3  251.17   20.90
   2   6   3  108.19   16.90
   2   6   3  104.69   11.30
   2   6   3  123.29   16.10
  -4   7   3  315.87   52.29
  -4   7   3  334.77   34.50
  -3   7   3   54.29   25.10
  -3   7   3   56.09   17.20
  -2   7   3  434.86   34.60
  -2   7   3  438.26   45.80
  -1   7   3  759.12   45.80
  -1   7   3  691.03   53.79
   0  -7  -3 1574.44  102.59
   0   7   3 1730.53   83.89
   0   7   3 1636.54   93.19
   1   7   3   53.79    9.50
   1   7   3   56.39   11.80
   1   7   3    4.20   14.60
   1   7   3   48.00   10.40
   2   7   3    9.20   11.30
   2   7   3   18.00    6.30
   2   7   3   14.70    8.80
   2   7   3   24.50   15.40
  -4   8   3   87.19   21.50
  -4   8   3   55.59   29.70
  -3   8   3  126.59   31.40
  -3   8   3   96.29   20.20
  -2   8   3   69.19   16.20
  -2   8   3   86.69   24.80
  -1   8   3 1254.77   70.09
  -1   8   3 1341.77   83.09
   0  -8  -3  323.17   36.30
   0   8   3  290.97   24.50
   0   8   3  295.37   27.50
   1   8   3  590.24   33.40
   1   8   3  586.14   35.80
   1   8   3  557.74   34.60
   2   8   3  215.08   15.80
  -4   9   3   27.40   16.20
  -4   9   3   31.30   25.40
  -3   9   3  551.34   55.59
  -3   9   3  435.86   38.50
  -2   9   3  153.38   23.00
  -2   9   3  213.68   35.20
  -1   9   3  377.76   30.60
  -1   9   3  388.26   36.90
   0  -9  -3  509.15   43.30
   0   9   3  534.75   34.50
   0   9   3  460.25   35.80
   1   9   3    5.10   15.20
   1   9   3   43.80    8.40
   1   9   3   45.80   10.20
   1   9   3   50.69    7.60
   2   9   3  139.59   12.70
   2   9   3   69.39   18.80
  -4  10   3   51.69   28.90
  -4  10   3   23.30   16.80
  -3  10   3  263.37   29.40
  -3  10   3  265.57   43.40
  -2  10   3  334.67   31.00
  -2  10   3  457.65   44.50
  -1  10   3   50.19   17.00
  -1  10   3   56.19   13.90
   0 -10  -3  910.81   63.89
   0  10   3 1045.80   55.99
   0  10   3  989.20   59.79
   1  10   3    1.90    6.90
   2  10   3  163.88   14.70
  -4  11   3   93.39   22.90
  -4  11   3  107.19   35.60
  -3  11   3  326.97   48.40
  -3  11   3  344.47   33.70
  -2  11   3    6.10    9.50
  -2  11   3   14.40   16.70
  -1  11   3   49.20   13.50
  -1  11   3   49.30   16.20
   0 -11  -3 1460.15   85.59
   0  11   3 1366.96   80.29
   0  11   3 1482.85   75.69
   1  11   3   98.19   14.40
   2  11   3  365.96   23.60
  -4  12   3  185.88   30.10
  -4  12   3  184.38   41.60
  -3  12   3  163.78   35.90
  -3  12   3  150.78   25.40
  -2  12   3  407.46   34.80
  -2  12   3  423.16   44.10
  -1  12   3  146.99   24.50
  -1  12   3  144.19   20.50
   0 -12  -3  209.78   26.90
   0  12   3  209.68   21.00
   0  12   3  190.38   21.10
   1  12   3   18.20    9.10
   2  12   3  204.78   17.30
  -4  13   3  -12.10   19.80
  -4  13   3    1.40   14.30
  -3  13   3  196.58   38.10
  -3  13   3  153.38   25.30
  -2  13   3  333.47   38.50
  -2  13   3  286.27   28.60
  -1  13   3  778.82   56.99
  -1  13   3  846.72   51.59
   0 -13  -3  774.02   53.89
   0  13   3  804.62   50.69
   0  13   3  844.42   49.40
   1  13   3   16.00    9.10
   2  13   3  234.58   18.90
  -4  14   3   -1.80   14.90
  -4  14   3   -6.00   20.00
  -3  14   3   88.99   27.00
  -3  14   3   61.89   19.20
  -2  14   3  105.19   25.90
  -2  14   3  113.99   20.40
  -1  14   3  210.58   27.10
  -1  14   3  224.08   23.40
   0 -14  -3  191.18   24.80
   0  14   3  168.08   20.10
   0  14   3  168.38   21.90
   1  14   3    4.40    8.30
   2  14   3  275.67   21.20
  -4  15   3   17.30   17.30
  -4  15   3   19.50   24.30
  -3  15   3  109.59   30.00
  -3  15   3   66.09   19.00
  -2  15   3  114.19   26.10
  -2  15   3  116.19   21.40
  -1  15   3  188.78   27.90
  -1  15   3  188.28   21.90
   0 -15  -3  328.27   31.40
   0  15   3  340.27   28.60
   0  15   3  348.27   29.10
   1  15   3  741.53   45.30
   2  15   3  113.69   15.20
  -4  16   3   91.89   25.30
  -4  16   3   50.09   26.60
  -3  16   3   28.50   15.40
  -3  16   3   46.10   23.60
  -2  16   3  516.45   40.60
  -2  16   3  444.26   45.80
  -1  16   3  186.78   25.40
  -1  16   3  190.58   28.50
   0 -16  -3   65.09   16.10
   0  16   3   46.40   13.40
   0  16   3   60.09   14.90
   1  16   3   10.00    9.50
   2  16   3   38.30   10.80
  -4  17   3   41.60   27.50
  -4  17   3   64.69   22.30
  -3  17   3    1.80   18.50
  -3  17   3    5.50   13.20
  -2  17   3  135.49   28.90
  -2  17   3  162.58   25.00
  -1  17   3   66.79   19.20
  -1  17   3   81.69   17.20
   0 -17  -3  477.95   39.50
   0  17   3  486.65   37.80
   0  17   3  582.34   39.40
   1  17   3  343.97   29.00
   2  17   3   72.09   13.10
  -4  18   3  205.38   44.60
  -4  18   3  229.08   36.50
  -3  18   3   19.60   15.60
  -3  18   3   12.40   19.30
  -2  18   3   32.20   14.00
  -2  18   3   34.90   19.10
  -1  18   3   51.09   15.30
  -1  18   3   51.99   18.60
   0 -18  -3  530.15   42.80
   0  18   3  588.94   41.30
   0  18   3  570.44   40.70
   1  18   3   24.40   11.60
   2  18   3  138.19   17.90
  -4  19   3   18.10   24.00
  -4  19   3    1.00   17.60
  -3  19   3    2.70   14.00
  -3  19   3    9.80   19.40
  -2  19   3   86.39   25.00
  -2  19   3   70.99   18.60
  -1  19   3  151.38   27.00
  -1  19   3  146.09   23.60
   0  19   3  139.29   21.50
   0  19   3  153.28   22.70
   1  19   3  760.12   48.30
   2  19   3   20.70   10.40
  -4  20   3   18.90   20.20
  -4  20   3   35.00   27.90
  -3  20   3   22.20   16.80
  -3  20   3   23.10   20.70
  -2  20   3   18.60   18.30
  -2  20   3   10.50   13.50
  -1  20   3 1371.06   83.09
  -1  20   3 1553.04   92.99
   0  20   3  707.23   48.50
   0  20   3  708.73   48.80
   1  20   3   -7.00    9.30
   2  20   3    3.50    9.10
  -3  21   3   29.90   21.90
  -3  21   3   21.50   15.60
  -2  21   3  249.68   33.10
  -2  21   3  226.78   38.00
  -1  21   3  659.93   49.30
  -1  21   3  672.73   53.89
   0  21   3  781.52   51.99
   0  21   3  743.83   50.99
   1  21   3  202.48   23.30
   2  21   3   -1.10    8.70
  -3  22   3   64.99   21.80
  -3  22   3  105.09   30.80
  -2  22   3    6.70   16.00
  -2  22   3   14.50   13.20
  -1  22   3 1038.70   71.39
  -1  22   3  986.90   65.19
   0  22   3  655.13   46.70
   0  22   3  587.34   43.80
   1  22   3   17.60   12.00
   2  22   3    1.80    9.90
  -3  23   3   15.00   20.50
  -3  23   3   21.70   18.00
  -2  23   3  166.68   33.00
  -2  23   3  175.58   29.40
  -1  23   3  213.78   33.50
  -1  23   3  247.48   28.70
   0  23   3   -3.20   10.90
   0  23   3   14.40   13.40
   1  23   3  324.97   30.40
   2  23   3   12.90   11.20
  -3  24   3   -1.80   17.10
  -3  24   3   -3.50   15.10
  -2  24   3   34.90   21.40
  -2  24   3   48.20   18.20
  -1  24   3    4.00   15.40
  -1  24   3   -0.40   12.70
   0  24   3  504.05   40.30
   0  24   3  491.35   41.20
   1  24   3   14.40   12.40
   2  24   3   71.99   16.90
  -3  25   3   22.70   22.40
  -3  25   3    4.90   17.20
  -2  25   3   87.99   26.60
  -2  25   3   68.29   21.40
  -1  25   3  134.89   24.80
  -1  25   3  172.78   30.30
   0  25   3  481.05   41.20
   1  25   3  341.67   32.30
  -3  26   3    1.10   16.00
  -3  26   3   16.00   23.20
  -2  26   3   93.29   23.90
  -2  26   3   81.29   26.40
  -1  26   3    8.50   13.50
  -1  26   3   13.40   16.70
   0  26   3  120.49   24.10
   1  26   3   -0.60   11.60
  -2  27   3  105.49   25.70
  -2  27   3   99.49   29.30
  -1  27   3  234.28   35.30
  -1  27   3  185.68   30.70
   0  27   3  186.58   29.60
   1  27   3   28.50   15.90
  -2  28   3   45.60   24.60
  -2  28   3   35.00   19.40
  -1  28   3  180.48   30.80
  -1  28   3  153.78   30.90
   0  28   3   15.00   14.50
   1  28   3   32.40   16.50
  -2  29   3   -6.00   14.90
  -2  29   3    3.70   18.60
  -1  29   3  151.28   29.40
  -1  29   3  181.88   33.90
   0  29   3   99.69   23.70
   1  29   3    8.20   13.90
  -2  30   3   40.40   21.20
  -2  30   3   72.89   26.20
  -1  30   3   -4.90   13.50
  -1  30   3    1.70   18.00
   0  30   3  117.89   25.70
   1  30   3    0.40   14.20
  -1  31   3   -1.10   14.50
   0  31   3  297.87   39.40
   1  31   3   43.50   18.20
   0  32   3   50.39   20.80
   1  29  -4   19.50   27.30
  -1 -29   4    1.20   64.29
   0  29  -4   15.30   23.40
   1  28  -4   -1.30   23.00
  -1 -28   4  -12.10   53.69
   0  28  -4  216.68   43.90
  -1  28  -4   31.40   19.40
  -1  28  -4   29.00   25.20
   2  27  -4  378.96   64.89
  -2 -27   4  513.75  100.79
   1  27  -4   40.60   26.00
  -1 -27   4   81.19   66.39
   0  27  -4  336.87   49.99
   0  27  -4  308.97   46.40
  -1  27  -4   16.00   22.60
  -1  27  -4   17.50   16.90
   2  26  -4   42.00   30.60
  -2 -26   4   61.49   51.39
   1  26  -4   97.49   32.40
  -1 -26   4   90.89   63.19
   0  26  -4   18.30   21.40
   0  26  -4   -6.30   13.60
  -1  26  -4   67.49   25.80
  -1  26  -4   40.40   20.90
   2  25  -4   30.20   29.10
  -2 -25   4   36.40   44.30
   1  25  -4   16.20   24.40
  -1 -25   4   32.80   53.59
   0  25  -4  184.48   37.60
   0  25  -4  126.59   30.80
  -1  25  -4  116.99   30.10
  -1  25  -4   83.69   26.00
   3  24  -4   -0.40   34.70
   2  24  -4   49.80   32.10
  -2 -24   4   55.19   47.30
   1  24  -4   16.40   23.50
  -1 -24   4    5.90   46.80
   0  24  -4  123.29   30.60
   0  24  -4  169.88   36.00
  -1  24  -4  205.38   36.80
  -1  24  -4  158.78   31.10
  -2  24  -4  106.29   28.80
  -2  24  -4   52.89   23.30
   3  23  -4  225.08   57.89
  -3 -23   4  323.37   71.69
   2  23  -4   59.69   31.50
  -2 -23   4   82.89   46.70
   1  23  -4   22.70   21.20
  -1 -23   4    6.30   42.70
   0  23  -4   20.90   17.90
   0  23  -4   30.90   21.90
  -1  23  -4  137.89   29.40
  -1  23  -4  179.68   34.30
  -2  23  -4   27.60   21.30
  -2  23  -4   36.90   21.30
   3  22  -4   17.80   33.10
  -3 -22   4  105.59   46.10
   2  22  -4   25.40   29.20
  -2 -22   4   83.39   46.20
   1  22  -4  128.99   35.10
  -1 -22   4  130.29   62.69
   0  22  -4    9.80   16.00
   0  22  -4   12.10   18.60
  -1  22  -4   12.00   18.10
  -1  22  -4   43.50   19.60
  -2  22  -4   55.09   24.30
  -2  22  -4   57.79   21.00
   3  21  -4  162.38   48.50
  -3 -21   4  242.88   61.19
   2  21  -4  -23.60   16.90
  -2 -21   4   10.20   34.90
  -1 -21   4  217.28   70.09
   0  21  -4  487.95   48.70
   0  21  -4  364.56   42.70
  -1  21  -4   43.30   20.30
  -1  21  -4   31.60   17.80
  -2  21  -4   15.40   16.50
  -2  21  -4   16.90   20.20
   3  20  -4   12.60   30.80
  -3 -20   4   -4.10   29.60
   2  20  -4    9.60   23.20
  -2 -20   4   -0.10   26.30
   1  20  -4   93.09   31.30
  -1 -20   4   57.79   47.10
   0  20  -4   33.00   21.60
  -1  20  -4   16.80   15.50
  -1  20  -4   13.80   17.20
  -2  20  -4  106.69   26.40
  -2  20  -4   92.29   26.10
   3  19  -4  238.88   55.09
  -3 -19   4  486.05   78.59
   2  19  -4  -13.60   19.10
  -2 -19   4   20.60   33.30
   1  19  -4   18.60   22.70
  -1 -19   4   18.90   35.80
   0  19  -4   47.90   23.00
  -1  19  -4  569.94   51.29
  -1  19  -4  553.84   50.39
  -2  19  -4   79.89   23.70
  -2  19  -4   96.69   25.70
  -3  19  -4  137.49   30.00
   3  18  -4   22.90   29.20
  -3 -18   4   59.59   37.10
   2  18  -4   46.00   27.10
  -2 -18   4   29.30   36.10
   1  18  -4   39.70   24.30
  -1 -18   4   16.60   35.70
   0  18  -4  182.98   35.20
  -1  18  -4  570.64   51.39
  -1  18  -4  590.74   51.29
  -2  18  -4  154.08   30.40
  -2  18  -4  129.99   28.20
  -3  18  -4   60.99   22.20
   4  17  -4   14.00   40.40
  -4 -17   4   24.40   33.50
   3  17  -4  254.07   54.69
   2  17  -4   55.79   30.60
  -2 -17   4   90.59   40.60
   1  17  -4   31.70   22.60
  -1 -17   4   28.50   36.20
   0  17  -4  145.79   32.40
  -1  17  -4  183.68   31.00
  -1  17  -4  148.79   30.70
  -2  17  -4   17.80   17.70
  -2  17  -4   14.90   15.00
  -3  17  -4   79.19   23.90
   4  16  -4    9.60   36.30
  -4 -16   4   43.30   33.60
   3  16  -4   69.39   35.60
  -3 -16   4  194.68   49.10
   2  16  -4   60.09   29.30
  -2 -16   4  101.29   42.00
   1  16  -4   35.00   22.40
  -1 -16   4   81.89   43.30
   0  16  -4   18.10   18.50
  -1  16  -4  137.49   28.50
  -1  16  -4  121.89   24.90
  -2  16  -4   50.59   22.30
  -2  16  -4   41.50   18.70
  -3  16  -4   39.30   19.80
   4  15  -4   50.09   39.50
  -4 -15   4   87.89   38.60
   3  15  -4   -8.30   21.70
  -3 -15   4   11.50   24.20
   2  15  -4  321.57   52.29
   1  15  -4   71.29   27.30
  -1 -15   4   85.79   42.00
   0  15  -4  965.90   71.49
   0 -15   4  842.92  104.39
  -1  15  -4    9.20   13.60
  -1  15  -4    1.40   16.00
  -2  15  -4  134.59   29.50
  -2  15  -4  131.09   26.60
  -3  15  -4   39.20   18.60
   4  14  -4   86.99   43.60
  -4 -14   4  131.99   42.20
   3  14  -4   41.50   31.00
  -3 -14   4   37.80   29.30
   2  14  -4  101.09   32.70
  -2 -14   4  165.08   45.70
   1  14  -4   81.39   27.20
  -1 -14   4  151.68   50.69
   0  14  -4  327.57   43.50
   0 -14   4  225.98   63.19
  -1  14  -4   -3.00   11.40
  -1  14  -4   -8.30   15.80
  -2  14  -4   84.69   21.40
  -2  14  -4   81.09   25.50
  -3  14  -4    3.00   14.70
   4  13  -4   34.80   37.70
  -4 -13   4   98.29   39.20
   3  13  -4   11.80   27.50
  -3 -13   4    5.60   21.20
   2  13  -4  263.37   47.80
  -2 -13   4  435.16   67.89
   1  13  -4   50.69   25.70
  -1 -13   4  118.49   45.40
   0  13  -4   12.30   17.30
   0 -13   4   25.20   33.20
  -1  13  -4   62.19   19.00
  -1  13  -4   51.39   21.20
  -2  13  -4  256.67   37.60
  -2  13  -4  216.68   32.50
  -3  13  -4   53.09   20.00
   4  12  -4   39.30   35.90
  -4 -12   4  204.38   50.19
   3  12  -4    7.80   25.30
  -3 -12   4   17.90   24.90
   2  12  -4   42.20   26.50
  -2 -12   4  116.59   37.60
   1  12  -4   68.19   25.20
  -1 -12   4  102.69   42.60
   0  12  -4   22.90   19.10
   0 -12   4   -3.10   28.40
  -1  12  -4  123.89   29.40
  -1  12  -4  150.48   26.10
  -2  12  -4  109.29   27.30
  -2  12  -4   90.99   22.30
  -3  12  -4   35.70   17.50
   4  11  -4   27.00   33.20
  -4 -11   4  125.89   39.90
   3  11  -4   19.10   28.30
  -3 -11   4   65.89   30.40
   2  11  -4  108.59   31.70
  -2 -11   4  178.08   41.90
   1  11  -4  270.67   43.90
  -1 -11   4  490.15   77.19
   0  11  -4   23.90   18.30
   0 -11   4   28.20   29.70
  -1  11  -4  344.47   39.10
  -1  11  -4  326.17   34.70
  -2  11  -4   49.90   22.40
  -2  11  -4   41.80   16.80
  -3  11  -4   23.90   15.80
   4  10  -4   46.40   36.90
  -4 -10   4   82.59   34.30
   3  10  -4   22.70   27.00
  -3 -10   4   54.79   28.40
   2  10  -4   26.30   22.70
  -2 -10   4   91.09   33.40
   1  10  -4  221.78   39.10
  -1 -10   4  447.36   71.19
   0  10  -4   23.60   19.40
   0 -10   4   64.69   37.80
  -1  10  -4  216.38   36.90
  -1  10  -4  297.07   31.60
  -2  10  -4    0.20   11.80
  -2  10  -4   15.60   19.40
  -3  10  -4  112.49   24.20
   4   9  -4    4.40   33.40
  -4  -9   4   79.59   33.10
   3   9  -4  -32.10   21.40
  -3  -9   4   35.20   24.40
   2   9  -4  188.58   38.90
   1   9  -4  203.28   36.70
   0   9  -4   22.30   18.10
   0  -9   4   -1.30   23.70
  -1   9  -4  681.73   51.19
  -1   9  -4  590.04   52.89
  -2   9  -4   27.80   19.10
  -2   9  -4   22.70   14.90
  -3   9  -4   66.99   20.50
   4   8  -4   22.40   35.10
  -4  -8   4   46.20   30.10
   3   8  -4   25.70   28.50
  -3  -8   4   -4.20   17.00
   2   8  -4   53.69   25.40
  -2  -8   4   59.19   27.20
  -1  -8   4  239.28   50.59
   0   8  -4   22.60   16.70
   0  -8   4   56.69   35.20
  -1   8  -4  177.98   33.10
  -1   8  -4  320.27   32.80
  -2   8  -4   97.19   21.40
  -2   8  -4   21.90   20.20
  -3   8  -4   72.09   20.50
  -4  -7   4   28.50   15.10
  -4  -7   4    0.00   22.60
   3   7  -4   47.60   30.60
  -3  -7   4  123.29   34.70
   2   7  -4   49.80   25.10
  -2  -7   4  110.19   33.10
  -1  -7   4  774.22   76.59
   0   7  -4   53.39   21.40
   0  -7   4  100.29   38.30
  -1   7  -4  803.22   57.89
  -2   7  -4   25.00   20.50
  -2   7  -4   53.09   17.20
  -3   7  -4   35.60   16.60
  -4  -6   4   35.20   16.30
  -4  -6   4   40.90   27.30
   3   6  -4  -14.60   23.60
  -3  -6   4    9.00   20.70
   2   6  -4   13.00   19.90
  -2  -6   4   15.10   21.00
  -1  -6   4  755.12   75.59
   0   6  -4   39.50   20.10
   0  -6   4   40.00   29.10
  -1   6  -4    7.60   18.50
  -1   6  -4   59.69   17.60
  -2   6  -4   75.79   18.40
  -2   6  -4   34.90   22.30
  -3   6  -4   -6.00   11.20
  -4  -5   4   31.70   27.80
  -4  -5   4   64.69   19.80
   3   5  -4   70.89   35.90
  -3  -5   4  353.96   52.99
  -2  -5   4  320.47   50.29
   1   5  -4  172.48   33.60
   0  -5   4  256.07   53.29
  -1   5  -4   32.10   15.20
  -1   5  -4    5.10   16.90
  -2   5  -4   92.89   19.40
  -2   5  -4    6.60   18.30
  -3   5  -4   23.90   15.70
  -4  -4   4   22.60   26.30
  -4  -4   4   32.50   15.90
   2   4  -4   25.40   22.60
  -2  -4   4   74.29   27.40
  -1  -4   4  204.88   42.20
   0  -4   4  278.97   54.39
  -1   4  -4   49.80   22.10
  -2   4  -4  112.09   20.80
  -2   4  -4    7.20   18.90
  -3   4  -4   19.50   13.40
  -4  -3   4   46.40   28.30
  -4  -3   4   10.20   13.30
  -3  -3   4 1673.03  119.79
   2   3  -4   44.10   25.80
  -2  -3   4  139.59   33.10
  -1  -3   4  175.78   38.30
   0  -3   4  195.08   45.30
  -1   3  -4   -3.40   17.20
  -2   3  -4   11.70   10.80
  -2   3  -4   -7.50   18.40
  -3   3  -4   23.00   14.60
  -4  -2   4   10.90   13.90
  -4  -2   4   23.50   26.60
  -3  -2   4  647.54   66.59
  -3  -2   4  753.62   51.39
  -1  -2   4  226.38   41.70
   0   2  -4    6.40   16.60
  -1   2  -4  -15.50   17.20
   1  -2   4   38.60   27.90
  -2   2  -4   19.30   22.40
  -2   2  -4  122.19   20.80
  -3   2  -4   13.60   12.50
  -4  -1   4   44.40   18.30
  -4  -1   4   26.30   27.50
  -3  -1   4  105.49   32.00
  -3  -1   4   65.79   18.70
   1   1  -4   33.60   22.10
  -1  -1   4  155.38   32.60
   0  -1   4 3511.45  206.78
   1  -1   4  585.04   67.29
  -2   1  -4   89.59   19.10
  -3   1  -4  188.58   26.70
  -4   0   4  157.78   41.80
  -4   0   4   91.89   23.20
  -3   0   4   -1.70   16.90
  -3   0   4    6.70   13.00
  -2   0   4 1221.18   92.69
   1   0  -4   37.00   23.10
  -1   0   4  180.58   34.00
   0   0   4  382.36   49.90
  -1   0  -4    5.90   21.90
   1   0   4   90.49   32.90
  -2   0  -4  277.47   28.70
   2   0   4  303.27   22.70
  -3   0  -4    6.90   11.90
  -4   1   4   28.80   25.60
  -4   1   4   40.20   18.30
  -3   1   4   70.69   20.10
  -3   1   4   52.09   23.80
  -2   1   4  776.92   69.39
  -2   1   4  767.52   50.59
   1  -1  -4   31.40   21.10
  -1   1   4  166.98   33.70
   0   1   4 3612.54  205.88
   1   1   4  714.43   69.99
  -2  -1  -4  108.69   20.30
   2   1   4   95.29   14.90
  -4   2   4   13.20   15.90
  -4   2   4   -6.90   22.60
  -3   2   4  765.92   72.89
  -3   2   4  788.62   55.39
  -2   2   4  782.72   68.39
  -2   2   4  760.72   50.79
  -1   2   4  226.68   22.20
  -1   2   4  198.88   36.30
   0   2   4    7.00   15.00
   1   2   4   59.89   26.70
   1   2   4   36.90   11.10
   2   2   4  141.89   17.70
  -4   3   4    9.00   23.70
  -4   3   4   16.20   15.30
  -3   3   4 1750.72   97.89
  -3   3   4 1699.13  122.19
  -2   3   4  148.79   34.20
  -2   3   4  142.49   22.30
  -1   3   4  171.38   32.40
  -1   3   4  163.98   21.70
   0   3   4  295.17   36.60
   0   3   4  267.77   24.60
   1   3   4   20.60   18.90
   1   3   4   12.40    8.90
   2   3   4   12.80   21.40
   2   3   4    0.50    8.90
  -4   4   4    9.80   23.80
  -4   4   4   39.50   18.80
  -3   4   4  638.04   63.99
  -3   4   4  556.64   46.30
  -2   4   4   69.79   25.20
  -2   4   4   53.19   15.50
  -1   4   4  232.18   37.40
  -1   4   4  222.48   22.90
   0   4   4  344.87   37.90
   0   4   4  350.16   28.60
   1   4   4  165.08   30.80
   1   4   4  161.28   20.70
   2   4   4  111.99   15.90
   2   4   4   86.09   30.40
  -4   5   4   53.99   30.80
  -4   5   4   35.20   18.00
  -3   5   4  342.57   35.40
  -3   5   4  348.17   54.39
  -2   5   4  396.66   46.10
  -2   5   4  333.07   32.00
  -1   5   4  607.84   54.39
  -1   5   4  592.04   41.40
   0   5   4  227.08   23.00
   0   5   4  238.58   30.40
   1   5   4   24.00   10.90
   1   5   4   35.90   12.20
   1   5   4   21.80   15.60
   2   5   4   56.19   26.40
   2   5   4  100.99   15.20
  -4   6   4   31.40   17.70
  -4   6   4   51.99   30.90
  -3   6   4   24.50   14.90
  -3   6   4   20.70   23.30
  -2   6   4    4.90   10.70
  -2   6   4    8.50   17.00
  -1   6   4  712.43   59.29
  -1   6   4  628.14   44.30
   0   6   4   59.09   14.00
   0   6   4   54.69   17.10
   1   6   4   85.09   15.50
   1   6   4   79.99   18.90
   1   6   4   67.09   14.80
   2   6   4  100.39   15.00
   2   6   4   96.69   25.30
  -4   7   4   11.10   15.20
  -4   7   4    2.60   22.40
  -3   7   4  143.49   36.60
  -3   7   4  156.08   26.90
  -2   7   4  157.98   24.60
  -2   7   4  155.08   34.00
  -1   7   4  700.63   47.50
  -1   7   4  707.03   58.59
   0   7   4  158.08   26.00
   0   7   4  140.69   20.40
   1   7   4 1019.80   58.39
   1   7   4  998.50   63.89
   1   7   4  971.50   56.99
   2   7   4   56.79   12.20
   2   7   4   67.99   18.70
  -4   8   4   32.20   26.90
  -4   8   4   54.79   20.20
  -3   8   4   18.80   13.40
  -3   8   4   35.10   23.10
  -2   8   4  110.49   30.60
  -2   8   4   72.69   18.70
  -1   8   4  178.98   31.70
  -1   8   4  157.78   23.30
   0   8   4   70.39   15.40
   0   8   4   78.29   19.10
   1   8   4  341.97   30.10
   1   8   4  315.37   28.10
   1   8   4  375.86   27.70
   2   8   4   69.49   12.70
  -4   9   4   87.69   24.80
  -4   9   4   79.69   32.20
  -3   9   4   19.00   23.30
  -3   9   4   17.30   14.90
  -2   9   4  420.76   49.20
  -2   9   4  487.85   39.60
  -1   9   4  497.45   46.50
  -1   9   4  484.85   37.70
   0   9   4    3.90   10.90
   0   9   4   -1.00    8.70
   1   9   4  911.11   52.49
   1   9   4  880.31   50.79
   1   9   4  842.62   53.99
   2   9   4   38.90   11.10
  -4  10   4  134.39   27.90
  -4  10   4  137.99   40.40
  -3  10   4   80.79   30.30
  -3  10   4   86.59   21.80
  -2  10   4   67.39   17.70
  -2  10   4   75.79   24.90
  -1  10   4  416.66   35.70
  -1  10   4  461.35   43.80
   0  10   4   57.89   14.70
   0  10   4   57.29   16.90
   1  10   4  368.36   29.60
   1  10   4  348.27   28.20
   1  10   4  372.66   26.20
   2  10   4   13.40    9.50
  -4  11   4  125.99   39.20
  -4  11   4  158.38   29.30
  -3  11   4   90.29   21.90
  -3  11   4   60.79   28.20
  -2  11   4  153.48   24.30
  -2  11   4  186.18   35.70
  -1  11   4  454.25   44.30
  -1  11   4  412.46   34.90
   0  11   4   57.19   14.60
   0  11   4   43.60   16.00
   1  11   4  446.46   33.60
   2  11   4   57.99   12.50
  -4  12   4  217.28   35.60
  -4  12   4  224.48   49.30
  -3  12   4   29.50   24.00
  -3  12   4   26.60   16.10
  -2  12   4   99.69   27.00
  -2  12   4  104.99   21.40
  -1  12   4   61.79   15.60
  -1  12   4   90.69   23.40
   0  12   4   13.90   10.50
   0  12   4   11.20   12.10
   1  12   4  205.98   22.20
   1  12   4  176.78   18.30
   2  12   4   93.79   15.60
  -4  13   4   88.19   35.20
  -4  13   4   92.29   25.20
  -3  13   4   -5.60   19.60
  -3  13   4    2.20   12.60
  -2  13   4  420.06   46.10
  -2  13   4  351.06   35.10
  -1  13   4   74.79   17.10
  -1  13   4   41.60   19.40
   0  13   4   16.70   10.90
   0  13   4   20.70   14.00
   1  13   4   84.59   17.10
  -4  14   4  126.09   39.50
  -4  14   4  144.99   30.40
  -3  14   4   80.09   21.40
  -3  14   4   35.20   22.10
  -2  14   4  145.59   31.60
  -2  14   4  123.59   22.70
  -1  14   4   96.39   19.10
  -1  14   4   99.29   24.10
   0  14   4  396.66   33.40
   0  14   4  381.56   34.30
   1  14   4    7.40   10.60
  -4  15   4  106.09   27.50
  -4  15   4  103.79   35.80
  -3  15   4   10.00   14.70
  -3  15   4    0.00   19.40
  -2  15   4  475.85   41.10
  -2  15   4  543.15   53.79
  -1  15   4   65.79   20.80
  -1  15   4   90.89   19.50
   0  15   4 1282.77   78.09
   0  15   4 1336.27   75.29
   1  15   4    2.40   10.60
  -4  16   4   42.40   29.80
  -4  16   4   44.00   22.30
  -3  16   4  183.48   39.20
  -3  16   4  152.48   28.90
  -2  16   4   89.59   26.70
  -2  16   4   73.59   19.40
  -1  16   4   67.49   20.60
  -1  16   4   63.69   17.30
   0  16   4   51.79   16.60
   0  16   4   41.00   14.00
   1  16   4  216.58   24.80
  -4  17   4   16.10   27.20
  -4  17   4   13.00   19.40
  -3  17   4  528.35   47.80
  -3  17   4  596.74   60.99
  -2  17   4   77.39   19.80
  -2  17   4  115.09   28.90
  -1  17   4   71.19   22.10
  -1  17   4   55.69   16.00
   0  17   4  157.98   24.10
   0  17   4  175.58   25.50
   1  17   4  174.88   24.70
  -3  18   4   33.10   16.90
  -3  18   4   59.59   27.00
  -2  18   4   68.79   23.50
  -2  18   4   32.10   16.00
  -1  18   4   44.70   19.10
  -1  18   4   24.20   14.00
   0  18   4  251.67   28.70
   0  18   4  268.27   29.00
   1  18   4  789.92   52.39
  -3  19   4  425.86   42.90
  -3  19   4  342.77   52.69
  -2  19   4   25.30   19.50
  -2  19   4   19.40   14.00
  -1  19   4   32.70   18.90
  -1  19   4   24.30   14.80
   0  19   4   44.00   16.20
   0  19   4   30.30   14.50
   1  19   4  636.44   46.10
  -3  20   4   10.20   21.90
  -3  20   4   15.60   16.40
  -2  20   4   -0.70   17.30
  -2  20   4    6.90   12.30
  -1  20   4   77.19   21.90
  -1  20   4   73.99   19.50
   0  20   4   28.80   15.60
   0  20   4    9.80   13.10
   1  20   4   35.90   16.00
  -3  21   4  210.28   41.80
  -3  21   4  208.68   35.30
  -2  21   4    5.80   16.70
  -2  21   4   17.20   15.00
  -1  21   4  113.19   23.10
  -1  21   4  130.09   27.80
   0  21   4  542.35   44.80
   1  21   4   34.30   16.00
  -3  22   4   30.30   19.80
  -3  22   4   48.30   26.10
  -2  22   4   72.59   25.70
  -2  22   4   44.40   19.20
  -1  22   4  149.88   27.30
  -1  22   4  154.38   30.20
   0  22   4    9.30   13.30
   1  22   4   42.50   17.00
  -3  23   4  279.77   41.10
  -3  23   4  265.57   47.50
  -2  23   4   55.09   19.00
  -2  23   4   65.79   25.20
  -1  23   4   48.00   21.70
  -1  23   4   15.80   14.70
   0  23   4   33.30   16.70
   1  23   4  199.28   28.70
  -2  24   4   34.40   22.60
  -2  24   4   51.59   19.80
  -1  24   4    9.10   13.70
  -1  24   4    8.80   18.60
   0  24   4  172.58   29.30
   1  24   4  248.68   32.90
  -2  25   4   16.40   17.30
  -2  25   4   35.80   23.10
  -1  25   4   24.30   17.00
  -1  25   4   27.00   19.80
   0  25   4  183.48   30.50
   1  25   4  155.38   27.50
  -2  26   4   60.79   22.30
  -2  26   4   96.09   29.00
  -1  26   4  116.99   26.40
   0  26   4   -6.10   14.20
   1  26   4   76.69   21.60
  -2  27   4  411.96   49.70
  -2  27   4  368.26   42.50
  -1  27   4  101.69   25.30
   0  27   4  441.16   42.90
   1  27   4   16.70   16.10
  -1  28   4    0.10   16.20
   0  28   4  222.48   34.40
   1  28   4   38.80   19.40
  -1  29   4   23.60   18.90
   0  29   4   25.10   18.90
   1  25  -5  106.69   45.70
  -1 -25   5  123.69   70.49
   0  25  -5  191.58   46.80
   0 -25   5  166.98   75.39
   1  24  -5   39.90   36.10
  -1 -24   5   41.60   56.49
   0  24  -5   12.70   29.10
   0 -24   5   29.40   46.40
   2  23  -5   41.80   37.40
  -2 -23   5  119.19   56.99
   1  23  -5  104.29   39.10
  -1 -23   5   94.69   61.39
   0  23  -5   14.70   27.40
   0 -23   5   24.90   51.39
  -1  23  -5   20.00   28.10
  -1  23  -5   -1.80   17.30
   2  22  -5   26.90   30.80
  -2 -22   5   50.19   47.60
   1  22  -5    2.60   27.30
  -1 -22   5   44.50   50.89
   0  22  -5   22.30   25.40
   0 -22   5   60.59   52.49
  -1  22  -5   44.90   22.20
  -1  22  -5   57.49   31.90
   2  21  -5   87.69   40.60
  -2 -21   5  148.79   58.69
   1  21  -5  117.79   39.20
  -1 -21   5  136.69   65.19
   0  21  -5   -6.70   22.90
   0 -21   5    2.20   37.30
  -1  21  -5  131.09   38.10
  -1  21  -5  132.29   31.10
   2  20  -5   -2.30   28.50
  -2 -20   5    9.30   37.70
   1  20  -5   -6.90   27.20
  -1 -20   5   45.70   47.40
   0  20  -5   49.20   30.70
   0 -20   5   45.50   48.20
  -1  20  -5   97.39   28.00
  -1  20  -5   43.90   30.10
   3  19  -5   -2.70   32.70
  -3 -19   5  -19.50   30.50
   2  19  -5   10.00   31.00
  -2 -19   5   39.30   38.80
   1  19  -5  151.38   42.70
  -1 -19   5  230.38   70.89
   0  19  -5   42.40   28.50
   0 -19   5   21.70   42.50
  -1  19  -5   28.50   19.60
  -1  19  -5   11.30   24.70
  -2  19  -5  115.49   28.50
  -2  19  -5  171.98   42.20
   3  18  -5   -2.00   30.90
  -3 -18   5   -0.50   31.30
   2  18  -5   46.70   32.70
  -2 -18   5   49.30   38.60
   1  18  -5   47.00   30.50
  -1 -18   5   67.29   49.10
   0  18  -5   28.20   26.50
   0 -18   5   32.70   43.80
  -1  18  -5   72.49   30.10
  -1  18  -5   62.89   24.00
  -2  18  -5   35.90   20.40
  -2  18  -5   24.50   27.60
   3  17  -5   20.60   37.00
  -3 -17   5  -12.00   28.10
   2  17  -5  116.49   41.90
  -2 -17   5  277.17   63.59
   1  17  -5  288.07   53.49
  -1 -17   5  634.64  103.89
   0  17  -5   42.00   27.40
   0 -17   5   60.49   48.40
  -1  17  -5  113.49   27.70
  -1  17  -5  125.29   36.00
  -2  17  -5   35.70   28.70
  -2  17  -5   23.30   18.10
   3  16  -5  -13.80   31.20
  -3 -16   5   22.30   31.70
   2  16  -5  286.67   56.19
  -2 -16   5  605.44   89.89
   1  16  -5  121.79   36.90
  -1 -16   5  224.68   65.49
   0  16  -5   30.00   26.40
   0 -16   5   51.69   45.30
  -1  16  -5  294.07   42.20
  -1  16  -5  182.98   41.30
  -2  16  -5   58.09   22.00
  -2  16  -5   32.20   28.80
   3  15  -5   17.50   33.60
  -3 -15   5   37.60   34.60
   2  15  -5  179.78   47.30
  -2 -15   5  389.36   71.09
   1  15  -5   11.20   25.60
  -1 -15   5  118.29   49.00
   0  15  -5  193.08   42.70
   0 -15   5  169.88   61.99
  -1  15  -5  325.57   51.49
  -1  15  -5  333.27   39.50
  -2  15  -5   30.30   27.80
  -2  15  -5   19.40   16.50
   3  14  -5   -4.20   30.70
  -3 -14   5    8.90   26.60
   2  14  -5   63.09   31.50
  -2 -14   5   92.19   40.80
   1  14  -5   54.39   30.40
  -1 -14   5   76.09   41.00
   0  14  -5   -7.40   18.30
   0 -14   5   -0.10   34.10
  -1  14  -5   51.79   28.50
  -1  14  -5   50.89   21.30
  -2  14  -5  199.58   33.70
  -2  14  -5  150.88   40.20
   3  13  -5   22.10   30.90
  -3 -13   5   87.39   39.60
   2  13  -5   30.20   30.50
  -2 -13   5   90.19   39.60
   1  13  -5   -9.50   19.70
  -1 -13   5   24.30   31.80
   0  13  -5  187.08   40.00
   0 -13   5  368.36   79.39
  -1  13  -5   50.29   27.10
  -2  13  -5  296.17   35.60
  -2  13  -5  256.67   47.70
   3  12  -5    5.60   30.60
  -3 -12   5   17.20   26.80
   2  12  -5    5.00   25.70
  -2 -12   5   -5.40   24.00
   1  12  -5   18.50   25.70
  -1 -12   5   11.00   26.90
   0  12  -5   58.49   27.20
   0 -12   5  111.69   50.09
  -1  12  -5   62.19   28.80
  -2  12  -5  231.08   34.30
  -2  12  -5  127.79   37.80
   4  11  -5   36.00   45.30
   3  11  -5  163.28   49.90
  -3 -11   5  395.76   65.39
   2  11  -5    6.60   24.20
  -2 -11   5   27.90   27.80
   1  11  -5  -23.10   19.60
  -1 -11   5   21.30   28.90
   0  11  -5  258.37   46.30
   0 -11   5  453.35   83.89
  -1  11  -5    6.10   21.30
  -2  11  -5   46.90   18.40
  -2  11  -5   55.49   30.10
  -3  11  -5   26.00   17.90
   4  10  -5   25.10   40.70
  -4 -10   5   70.39   39.40
   3  10  -5   28.30   32.10
  -3 -10   5   28.00   26.50
   2  10  -5   81.29   33.90
  -2 -10   5  307.57   56.49
   1  10  -5   10.70   21.90
  -1 -10   5  170.58   49.50
   0  10  -5   28.60   24.40
   0 -10   5   -3.20   29.00
  -1  10  -5   -2.60   21.50
   1 -10   5    2.90   29.60
  -2  10  -5   47.00   19.10
  -2  10  -5   50.39   28.50
  -3  10  -5    7.40   15.30
   4   9  -5   28.00   40.10
  -4  -9   5   27.60   32.20
   3   9  -5  119.29   43.20
  -3  -9   5  328.77   57.89
   2   9  -5   39.90   26.70
  -2  -9   5  133.79   40.20
   1   9  -5   86.69   31.50
  -1  -9   5  164.08   45.50
   0  -9   5  395.46   75.09
  -1   9  -5  -12.00   20.80
   1  -9   5   -3.30   31.20
  -2   9  -5  -11.60   23.30
  -2   9  -5    4.40   13.30
  -3   9  -5   43.30   18.00
  -4  -8   5    8.70   28.70
   3   8  -5   14.50   30.80
  -3  -8   5   28.70   27.10
   2   8  -5   11.80   24.40
  -2  -8   5   86.39   33.30
  -1  -8   5  686.13   78.59
   0   8  -5   18.80   23.20
   0  -8   5   30.70   31.50
  -1   8  -5   23.20   24.40
   1  -8   5   11.90   35.90
  -2   8  -5   72.09   29.90
  -3   8  -5    6.00   14.80
  -4  -7   5   -9.30   23.60
  -4  -7   5   18.20   15.50
   3   7  -5   27.10   33.60
  -3  -7   5  296.67   54.79
   2   7  -5   19.40   26.00
  -2  -7   5  131.09   37.40
   1   7  -5   48.10   26.40
  -1  -7   5   97.09   36.60
   0   7  -5   57.19   28.20
   0  -7   5  297.87   61.49
  -1   7  -5   -4.50   21.10
   1  -7   5   -1.30   28.40
  -2   7  -5   43.50   18.20
  -2   7  -5   -1.10   24.70
  -3   7  -5   89.09   22.70
  -4  -6   5   17.80   28.10
  -4  -6   5    8.00   14.20
   3   6  -5   14.80   29.00
  -3  -6   5  -20.60   17.60
   2   6  -5   28.50   25.90
  -2  -6   5   50.19   27.50
  -1  -6   5  200.08   48.90
   0   6  -5   45.50   26.30
   0  -6   5  131.79   44.90
  -1   6  -5   -0.50   23.00
   1  -6   5  156.38   50.79
  -2   6  -5    7.30   25.80
  -2   6  -5   70.89   21.10
  -3   6  -5   31.20   17.20
  -4  -5   5    5.10   13.50
  -4  -5   5   19.00   24.70
   3   5  -5   10.70   31.70
  -3  -5   5  241.48   48.70
   2   5  -5   24.80   26.00
  -2  -5   5  229.28   46.80
  -1  -5   5  465.05   70.09
   0   5  -5   39.60   25.80
   0  -5   5  225.08   51.39
  -1   5  -5   67.89   30.40
   1  -5   5  137.69   45.90
  -2   5  -5   66.39   20.80
  -2   5  -5   13.50   24.60
  -4  -4   5   45.10   18.50
  -4  -4   5   -3.70   26.30
  -3  -4   5   30.30   26.50
  -2  -4   5  401.16   60.89
   1   4  -5   56.99   30.20
  -1  -4   5  322.87   55.29
   0   4  -5   19.80   23.20
   0  -4   5   15.20   22.50
  -1   4  -5   26.10   26.60
   1  -4   5   97.49   40.30
  -2   4  -5    4.90   25.20
  -4  -3   5  390.36   40.20
  -4  -3   5  335.37   61.49
  -3  -3   5  310.67   56.09
  -3  -3   5  267.47   34.90
  -2  -3   5  450.75   58.09
   0   3  -5   -1.40   21.60
   0  -3   5   17.20   25.00
   1  -3   5  208.98   52.59
  -2   3  -5   11.00   27.40
  -4  -2   5  184.78   31.30
  -4  -2   5  147.89   45.80
  -3  -2   5   63.99   19.50
  -3  -2   5   37.50   27.40
  -1  -2   5  541.25   60.79
   0   2  -5   25.00   25.70
   0  -2   5   31.00   24.70
   1  -2   5  420.26   68.89
   2  -2   5  139.09   48.20
  -4  -1   5  258.07   54.59
  -4  -1   5  257.47   37.80
  -3  -1   5    6.10   22.10
  -3  -1   5   24.40   14.20
  -2  -1   5 1132.59   94.99
   1   1  -5   64.59   30.50
  -1  -1   5  261.77   45.60
   0   1  -5   35.10   27.40
   0  -1   5   87.29   31.50
  -1   1  -5   43.10   30.80
   1  -1   5  285.47   55.19
   2  -1   5  197.18   51.89
  -4   0   5   88.29   25.10
  -4   0   5  105.09   40.00
  -3   0   5   23.80   25.80
  -3   0   5   11.60   12.40
  -2   0   5  238.18   47.40
  -2   0   5  303.17   29.80
   1   0  -5   22.90   24.50
  -1   0   5   19.60   19.20
   0   0  -5   14.80   25.20
   0   0   5   13.70   21.10
   1   0   5  236.08   49.70
   2   0   5   37.10   32.80
  -4   1   5  253.87   55.39
  -4   1   5  300.97   41.30
  -3   1   5   55.09   27.80
  -3   1   5   23.40   14.70
  -2   1   5 1098.39   90.09
  -2   1   5  964.90   62.79
  -1   1   5  289.67   28.00
  -1   1   5  309.17   49.00
   0   1   5   88.39   29.40
   1   1   5  354.66   54.49
   1   1   5  282.67   27.20
   2   1   5  203.38   49.80
  -4   2   5  223.18   35.50
  -4   2   5  143.99   44.40
  -3   2   5   23.80   25.80
  -3   2   5   80.79   21.10
  -2   2   5 1404.56   83.99
  -2   2   5 1585.84  113.49
  -1   2   5  659.93   62.29
  -1   2   5  539.55   41.50
   0   2   5    7.60   17.10
   0   2   5    7.10    9.50
   1   2   5  512.45   56.59
   1   2   5  448.36   35.60
   2   2   5  208.68   48.80
  -4   3   5  350.46   44.70
  -4   3   5  350.46   63.99
  -3   3   5  211.48   46.60
  -3   3   5  257.87   35.10
  -2   3   5  452.85   54.99
  -2   3   5  303.67   31.70
  -1   3   5  487.05   53.79
  -1   3   5  478.35   38.20
   0   3   5    4.10    9.20
   0   3   5    3.60   14.60
   1   3   5  181.48   37.30
   1   3   5  201.78   25.70
  -4   4   5   33.70   30.20
  -4   4   5   22.60   19.20
  -3   4   5    0.70   22.20
  -3   4   5   11.30   14.80
  -2   4   5  332.97   53.99
  -2   4   5  335.27   33.70
  -1   4   5  345.87   49.20
  -1   4   5  232.48   26.70
   0   4   5    2.70   15.00
   0   4   5    8.00    9.60
   1   4   5  154.88   23.40
   1   4   5  144.99   31.70
  -4   5   5    4.80   17.60
  -4   5   5    4.40   25.80
  -3   5   5  234.88   34.50
  -3   5   5  235.28   48.30
  -2   5   5  188.28   28.40
  -2   5   5  229.38   44.80
  -1   5   5  325.27   31.60
  -1   5   5  342.37   49.50
   0   5   5  162.88   24.00
   0   5   5  162.78   32.00
   1   5   5  169.18   24.80
   1   5   5  194.78   34.10
  -4   6   5   21.00   28.10
  -4   6   5    1.30   17.10
  -3   6   5    1.20   13.40
  -3   6   5  -12.60   20.20
  -2   6   5   40.50   24.10
  -2   6   5   48.50   16.30
  -1   6   5  238.78   41.30
  -1   6   5  231.08   27.20
   0   6   5  141.99   22.60
   0   6   5  132.69   28.10
   1   6   5  141.19   27.50
   1   6   5  131.79   22.20
  -4   7   5  -11.10   16.50
  -4   7   5    4.60   27.60
  -3   7   5  265.17   50.69
  -3   7   5  208.98   33.40
  -2   7   5  103.69   21.90
  -2   7   5  112.29   32.60
  -1   7   5   90.99   19.90
  -1   7   5   87.59   27.90
   0   7   5  275.37   28.90
   0   7   5  270.77   38.30
   1   7   5   39.40   14.40
   1   7   5   42.00   18.20
  -4   8   5    3.80   18.90
  -4   8   5   19.40   28.70
  -3   8   5   38.20   18.70
  -3   8   5   10.30   21.90
  -2   8   5   72.79   18.30
  -2   8   5   80.89   29.90
  -1   8   5  557.94   57.79
  -1   8   5  677.73   48.20
   0   8   5   37.70   15.60
   0   8   5   33.80   18.30
   1   8   5    6.70   11.70
   1   8   5    1.20   12.80
  -4   9   5   36.70   22.00
  -4   9   5   41.50   31.70
  -3   9   5  459.05   58.49
  -3   9   5  362.36   39.80
  -2   9   5   86.49   20.70
  -2   9   5  105.89   31.80
  -1   9   5  156.88   25.40
  -1   9   5  153.08   33.30
   0   9   5  431.66   43.50
   0   9   5  413.26   37.40
   1   9   5    9.60   12.20
  -4  10   5   46.30   32.70
  -4  10   5   27.40   20.30
  -3  10   5   18.90   16.20
  -3  10   5   21.00   25.00
  -2  10   5  277.07   47.70
  -2  10   5  283.57   32.10
  -1  10   5  147.79   24.90
  -1  10   5  138.89   31.30
   0  10   5   29.70   17.90
   0  10   5   11.50   13.20
   1  10   5    6.20   11.70
  -3  11   5  433.36   62.59
  -3  11   5  336.97   37.60
  -2  11   5   73.89   27.50
  -2  11   5   28.80   15.00
  -1  11   5   -7.00   14.50
  -1  11   5    2.20   10.70
   0  11   5  602.84   51.49
   0  11   5  676.23   48.70
   1  11   5    9.70   12.10
  -3  12   5   10.60   15.20
  -3  12   5   17.20   23.70
  -2  12   5   -4.40   10.80
  -2  12   5   -0.70   18.10
  -1  12   5   10.60   17.50
  -1  12   5    3.80   11.70
   0  12   5  130.09   26.60
   0  12   5  128.19   23.10
   1  12   5  120.79   21.70
  -3  13   5  143.29   38.50
  -3  13   5  148.29   28.90
  -2  13   5   73.19   27.40
  -2  13   5   59.19   19.00
  -1  13   5   -1.60   11.10
  -1  13   5    8.50   17.60
   0  13   5  478.85   40.30
   0  13   5  456.75   43.40
   1  13   5  107.59   20.80
  -3  14   5   -1.80   20.60
  -3  14   5    5.10   15.30
  -2  14   5   93.39   29.50
  -2  14   5   84.89   21.60
  -1  14   5   51.59   17.40
  -1  14   5   64.49   23.90
   0  14   5   34.00   17.70
   0  14   5   24.10   14.20
   1  14   5   95.29   20.80
  -3  15   5    8.10   15.00
  -3  15   5    6.00   22.50
  -2  15   5  324.77   35.40
  -2  15   5  281.27   45.20
  -1  15   5  136.09   29.80
  -1  15   5   96.29   22.30
   0  15   5  288.17   31.40
   0  15   5  252.77   32.80
   1  15   5  551.64   44.10
  -3  16   5   21.90   17.70
  -3  16   5   20.30   25.10
  -2  16   5  511.15   46.00
  -2  16   5  549.25   57.19
  -1  16   5  230.68   36.70
  -1  16   5  248.18   33.70
   0  16   5   71.29   19.50
   1  16   5  480.35   41.30
  -3  17   5   38.60   20.50
  -3  17   5   35.00   25.40
  -2  17   5  271.17   44.90
  -2  17   5  293.27   34.40
  -1  17   5  446.66   46.90
  -1  17   5  461.85   42.00
   0  17   5   87.79   22.00
   1  17   5  201.28   29.10
  -3  18   5   20.20   19.00
  -3  18   5   11.30   22.10
  -2  18   5   63.49   26.80
  -2  18   5   53.19   20.00
  -1  18   5   32.70   15.60
  -1  18   5   44.10   23.00
   0  18   5   15.30   13.80
   1  18   5  113.89   23.90
  -3  19   5    6.90   16.50
  -3  19   5  -12.60   21.30
  -2  19   5   26.00   15.90
  -2  19   5   36.00   22.80
  -1  19   5  258.77   35.30
  -1  19   5  300.47   42.00
   0  19   5   63.69   20.00
   1  19   5   40.60   19.20
  -2  20   5   35.00   24.00
  -2  20   5   16.70   16.10
  -1  20   5   25.40   21.50
  -1  20   5   11.90   13.80
   0  20   5   56.29   20.90
   1  20   5  110.99   24.20
  -2  21   5   67.99   28.40
  -2  21   5   80.39   23.70
  -1  21   5  167.78   33.60
  -1  21   5  182.18   31.40
   0  21   5   14.60   16.20
   1  21   5  125.19   26.40
  -2  22   5   66.59   22.30
  -2  22   5   54.49   24.60
  -1  22   5   53.49   20.40
   0  22   5   57.89   21.40
   1  22   5   81.39   23.10
  -2  23   5   52.99   22.50
  -2  23   5   63.29   27.10
  -1  23   5  143.49   29.10
   0  23   5   15.50   18.00
   1  23   5   15.60   19.30
  -1  24   5   37.70   19.20
   0  24   5   14.40   17.40
  -1  25   5  137.79   30.00
   0  25   5  254.77   38.10
   1  20  -6   70.49   41.00
  -1 -20   6   75.29   49.30
   0  20  -6   53.59   40.00
   0 -20   6   97.79   60.19
   1  19  -6   21.20   37.10
  -1 -19   6   44.70   45.80
   0  19  -6   85.19   41.40
   0 -19   6  142.29   67.49
   2  18  -6   13.10   35.20
  -2 -18   6   17.90   35.00
   1  18  -6    3.30   32.10
  -1 -18   6   11.70   34.90
   0  18  -6   62.19   40.30
   0 -18   6   52.79   49.99
   2  17  -6   87.79   43.10
  -2 -17   6   77.29   44.70
   1  17  -6   26.50   33.70
  -1 -17   6   10.00   36.80
   0  17  -6   62.09   38.50
   0 -17   6  146.99   62.59
  -1  17  -6   -0.40   31.20
   1 -17   6  -19.10   41.70
   2  16  -6   10.50   33.20
  -2 -16   6   84.19   43.20
   1  16  -6   24.80   33.10
  -1 -16   6   69.39   44.00
   0  16  -6    1.60   29.20
   0 -16   6   27.60   41.70
  -1  16  -6   26.20   32.20
   1 -16   6   12.20   47.70
   2  15  -6   34.90   35.80
  -2 -15   6    6.70   28.80
   1  15  -6   54.19   37.50
  -1 -15   6  195.38   58.69
   0  15  -6    1.60   31.40
   0 -15   6   25.40   43.00
  -1  15  -6   36.60   32.70
   1 -15   6   27.00   50.39
   2  14  -6   38.00   36.30
  -2 -14   6   64.59   38.80
   1  14  -6   64.49   36.60
  -1 -14   6  219.78   58.89
   0  14  -6   14.20   30.50
   0 -14   6   -4.50   33.50
  -1  14  -6   28.60   34.90
   1 -14   6  100.29   54.99
   2  13  -6   57.19   42.60
  -2 -13   6   99.29   44.30
   1  13  -6   -8.50   26.20
  -1 -13   6    3.30   30.00
   0  13  -6   16.10   28.40
   0 -13   6   -0.80   32.80
  -1  13  -6   -0.80   29.50
   1 -13   6   33.80   48.60
   3  12  -6   50.49   42.40
  -3 -12   6   33.20   33.40
   2  12  -6   61.39   39.70
  -2 -12   6  240.08   56.19
   1  12  -6    2.70   27.90
  -1 -12   6   20.10   32.10
   0  12  -6  -22.70   25.90
   0 -12   6    3.80   31.90
  -1  12  -6   17.30   31.50
   1 -12   6  140.39   62.19
   3  11  -6   32.90   43.30
  -3 -11   6   23.30   32.50
   2  11  -6   38.40   36.00
  -2 -11   6   67.99   37.00
   1  11  -6  161.28   48.00
  -1 -11   6  591.64   89.29
   0  11  -6   57.39   33.60
   0 -11   6  122.29   51.19
  -1  11  -6   35.30   34.50
   1 -11   6   26.80   42.90
   3  10  -6   17.50   37.80
  -3 -10   6   28.00   31.00
   2  10  -6   14.50   32.60
  -2 -10   6  198.48   50.69
   1  10  -6    9.80   28.60
  -1 -10   6   18.50   29.40
   0  10  -6   56.59   35.30
   0 -10   6   98.09   45.60
  -1  10  -6   61.69   34.70
   1 -10   6   76.99   46.30
   2 -10   6   31.10   42.60
   3   9  -6   31.40   41.40
  -3  -9   6   97.69   38.40
   2   9  -6   55.89   38.70
  -2  -9   6   49.20   31.90
   1   9  -6   36.80   32.60
  -1  -9   6  320.57   64.39
   0   9  -6   11.70   29.50
   0  -9   6   19.90   32.70
  -1   9  -6   -0.80   30.00
   1  -9   6   47.40   42.90
   2  -9   6   14.80   46.20
   3   8  -6    4.50   38.00
  -3  -8   6   54.79   36.30
   2   8  -6  118.39   46.40
  -2  -8   6  308.17   59.79
   1   8  -6   34.70   32.80
  -1  -8   6   60.09   35.00
   0   8  -6  -13.70   25.40
   0  -8   6   11.30   29.00
  -1   8  -6   39.20   35.70
   1  -8   6  195.28   61.19
   2  -8   6   39.10   45.90
   3   7  -6   32.80   40.00
  -3  -7   6  177.78   49.20
   2   7  -6   31.90   35.70
  -2  -7   6   97.09   38.80
   1   7  -6   16.70   27.80
  -1  -7   6   40.50   33.00
   0   7  -6    1.30   29.50
   0  -7   6   -3.90   25.70
  -1   7  -6   -7.50   27.40
   1  -7   6   67.99   43.00
   2  -7   6   95.29   53.99
   3   6  -6   -2.40   35.40
  -3  -6   6    1.70   26.30
   2   6  -6   18.80   28.00
  -2  -6   6   86.99   36.40
   1   6  -6   44.10   33.90
  -1  -6   6   86.29   37.30
   0   6  -6   30.70   32.10
   0  -6   6  100.19   41.50
  -1   6  -6   48.80   37.00
   1  -6   6  196.78   56.89
   2  -6   6   85.89   52.29
  -3  -5   6   57.69   33.50
   2   5  -6   15.60   30.30
  -2  -5   6   -0.80   21.70
   0  -5   6  506.95   77.89
  -1   5  -6    3.40   34.10
   1  -5   6   45.40   35.90
   2  -5   6   50.79   44.40
  -3  -4   6  141.89   26.60
  -3  -4   6  166.88   48.60
   2   4  -6   28.90   30.60
  -2  -4   6   19.60   25.20
   1   4  -6   16.30   31.90
  -1  -4   6  120.59   38.70
   0  -4   6  588.04   83.09
  -1   4  -6    0.20   33.30
   1  -4   6   94.79   40.60
   2  -4   6  190.88   60.89
  -3  -3   6  221.98   32.70
  -3  -3   6  247.68   55.19
  -2  -3   6   69.19   31.60
  -1  -3   6  485.45   61.89
  -1   3  -6   15.00   34.10
   1  -3   6   -1.80   27.00
  -3  -2   6   61.49   19.40
  -3  -2   6   56.69   35.80
  -2  -2   6   75.49   34.80
  -2  -2   6   81.69   18.90
  -1  -2   6  349.37   59.19
   0   2  -6   12.40   35.00
   0  -2   6  138.59   40.00
   1  -2   6   62.29   35.30
  -3  -1   6  215.38   52.49
  -3  -1   6  190.78   31.40
  -2  -1   6  151.88   43.50
  -2  -1   6  117.19   22.70
  -1  -1   6  118.39   36.30
   0  -1   6   29.50   24.20
   1  -1   6   21.80   11.50
   1  -1   6   24.10   28.20
  -3   0   6   44.10   19.00
  -3   0   6   28.60   31.00
  -2   0   6   13.20   12.50
  -2   0   6   15.40   24.00
  -1   0   6 1133.29   68.29
  -1   0   6 1037.80   93.19
   0   0   6   28.60   12.30
   0   0   6   17.70   23.60
   1   0   6    0.00   24.90
   1   0   6    3.00    9.90
  -3   1   6  179.18   48.90
  -3   1   6  208.28   32.20
  -2   1   6  146.49   25.40
  -2   1   6  162.48   43.10
  -1   1   6   74.19   30.10
  -1   1   6   74.79   19.00
   0   1   6   53.29   26.60
   0   1   6   56.59   16.00
   1   1   6   21.10   12.00
   1   1   6   42.10   29.40
  -3   2   6   61.59   21.00
  -3   2   6   67.69   35.50
  -2   2   6  117.69   38.30
  -2   2   6   52.49   17.10
  -1   2   6  301.77   51.79
  -1   2   6  290.67   31.20
   0   2   6  147.09   36.80
   0   2   6  153.28   24.80
   1   2   6   41.50   28.30
   1   2   6   59.49   16.40
  -3   3   6  291.87   59.09
  -3   3   6  228.18   34.90
  -2   3   6  120.79   23.80
  -2   3   6   94.69   37.70
  -1   3   6  487.55   40.70
  -1   3   6  485.75   58.79
   0   3   6  664.03   49.30
   0   3   6  697.33   66.39
   1   3   6  -14.30   17.70
   1   3   6   -7.00   10.00
  -3   4   6  150.18   29.70
  -3   4   6  131.69   43.40
  -2   4   6   21.20   26.20
  -2   4   6   27.40   15.20
  -1   4   6  112.89   23.30
  -1   4   6  129.29   35.70
   0   4   6  461.45   54.09
   0   4   6  604.34   45.40
   1   4   6   31.90   14.80
  -3   5   6   15.00   27.80
  -3   5   6    3.20   14.00
  -2   5   6   18.40   14.20
  -2   5   6    1.10   22.50
  -1   5   6  850.21   59.39
  -1   5   6  851.01   77.49
   0   5   6  487.25   41.30
   0   5   6  425.96   50.69
   1   5   6   13.50   12.50
  -3   6   6  -10.80   14.00
  -3   6   6   20.20   29.10
  -2   6   6  129.69   25.60
  -2   6   6  121.79   38.20
  -1   6   6   66.79   18.80
  -1   6   6  100.49   32.30
   0   6   6   89.49   21.20
   0   6   6   81.29   27.60
   1   6   6  267.87   30.00
  -3   7   6  205.58   51.39
  -3   7   6  171.78   31.20
  -2   7   6  123.59   38.20
  -2   7   6  112.89   23.60
  -1   7   6   28.90   24.20
  -1   7   6   41.70   16.80
   0   7   6   -4.00   17.10
   0   7   6    5.70   13.20
   1   7   6   45.20   17.10
  -3   8   6   88.29   40.10
  -3   8   6   39.10   20.30
  -2   8   6  335.07   36.20
  -2   8   6  377.16   59.59
  -1   8   6   78.99   21.30
  -1   8   6   80.29   30.80
   0   8   6    0.80   17.80
   0   8   6   20.50   14.60
   1   8   6  289.77   32.60
  -3   9   6  127.19   42.50
  -3   9   6   93.19   25.50
  -2   9   6  101.09   35.70
  -2   9   6   68.19   20.40
  -1   9   6  409.46   50.69
  -1   9   6  340.87   36.70
   0   9   6   11.70   13.90
   0   9   6    7.10   18.70
   1   9   6   51.09   19.40
  -3  10   6   11.80   16.20
  -3  10   6    9.10   28.40
  -2  10   6  182.18   43.60
  -2  10   6  162.88   28.40
  -1  10   6  -10.20   19.90
  -1  10   6   11.70   14.70
   0  10   6  137.99   26.10
   0  10   6  102.89   29.20
   1  10   6  168.18   28.50
  -3  11   6   34.10   19.80
  -3  11   6    5.20   27.60
  -2  11   6   63.49   20.10
  -2  11   6  106.59   34.80
  -1  11   6  546.45   47.00
  -1  11   6  464.75   54.49
   0  11   6  128.49   26.60
   1  11   6   12.50   16.80
  -3  12   6    9.00   28.00
  -3  12   6   -3.00   16.90
  -2  12   6  194.08   31.80
  -2  12   6  213.98   45.20
  -1  12   6    9.60   21.40
  -1  12   6   16.10   15.10
   0  12   6    3.50   15.20
   1  12   6  263.07   35.60
  -2  13   6   88.49   23.70
  -2  13   6  105.99   36.10
  -1  13   6   22.60   16.60
  -1  13   6   10.30   20.70
   0  13   6    0.30   14.90
   1  13   6   28.50   19.00
  -2  14   6   53.19   21.10
  -2  14   6   27.20   26.70
  -1  14   6  243.88   34.80
  -1  14   6  277.47   45.50
   0  14   6   -3.30   13.50
   1  14   6  173.48   30.40
  -2  15   6    3.00   23.80
  -2  15   6   12.50   15.90
  -1  15   6  193.68   38.30
  -1  15   6  162.38   29.90
   0  15   6   15.70   16.60
   1  15   6   14.30   17.10
  -2  16   6   87.09   24.30
  -2  16   6   75.19   30.80
  -1  16   6   94.79   23.70
  -1  16   6   87.79   29.50
   0  16   6   34.40   18.30
  -2  17   6   82.29   31.60
  -2  17   6   73.59   23.40
  -1  17   6  -12.60   12.20
   0  17   6  140.89   29.50
  -2  18   6   50.69   28.60
  -2  18   6   52.19   21.10
  -1  18   6    0.80   15.80
   0  18   6   80.19   24.60
  -1  19   6   28.30   19.70
   0  19   6  168.68   32.40
  -1  20   6   82.99   26.10
   0  20   6   90.69   27.20
   1  10  -7  -17.70   37.00
  -1 -10   7   33.20   34.80
   1   9  -7    9.70   39.80
  -1  -9   7   45.20   36.50
   0   9  -7   41.10   44.00
   0  -9   7  122.39   50.59
   1   8  -7   39.10   42.90
  -1  -8   7  222.48   59.19
   0   8  -7    5.20   40.10
   0  -8   7   32.00   35.40
   1   7  -7   36.10   43.50
  -1  -7   7  108.69   41.50
   0   7  -7   32.80   44.70
   0  -7   7  123.69   46.00
   2   6  -7   23.70   42.10
  -2  -6   7  110.29   43.00
   1   6  -7   40.00   45.80
  -1  -6   7   53.59   33.10
   0   6  -7   44.10   45.80
   0  -6   7  175.78   50.89
  -2  -5   7   13.30   27.70
   1   5  -7    7.10   38.90
  -1  -5   7   80.09   36.10
   0   5  -7   29.10   45.40
   0  -5   7  134.09   46.80
  -2  -4   7  156.28   47.80
  -2  -4   7  118.39   23.60
  -1  -4   7   66.09   34.20
   0   4  -7   31.50   43.40
   0  -4   7  120.49   42.90
  -2  -3   7   42.10   16.10
  -2  -3   7   33.70   32.90
  -1  -3   7  119.49   42.00
   0  -3   7  104.39   40.80
  -2  -2   7  273.17   32.10
  -2  -2   7  356.96   68.29
  -1  -2   7    0.40   24.40
  -1  -2   7    8.90   12.30
   0  -2   7   36.30   28.90
   0  -2   7   70.99   18.30
  -2  -1   7   32.50   32.60
  -2  -1   7   14.40   14.10
  -1  -1   7   38.20   28.20
  -1  -1   7   30.50   14.80
   0  -1   7   -8.10   21.10
   0  -1   7    9.70   11.50
  -2   0   7   68.29   19.60
  -2   0   7   93.29   41.40
  -1   0   7   16.40   13.30
  -1   0   7   -2.70   22.00
   0   0   7   18.10   13.20
   0   0   7    8.90   24.10
  -2   1   7   18.30   30.40
  -2   1   7   13.90   14.20
  -1   1   7   34.20   30.50
  -1   1   7   21.60   14.10
   0   1   7    2.20   11.30
   0   1   7   17.20   25.80
  -2   2   7  275.47   36.70
  -2   2   7  265.77   57.09
  -1   2   7   -1.50   24.10
  -1   2   7   13.20   12.60
   0   2   7   55.89   30.70
   0   2   7   54.09   17.90
  -2   3   7   28.20   16.30
  -2   3   7   15.90   29.10
  -1   3   7   77.59   34.70
  -1   3   7  121.39   24.80
   0   3   7  103.79   33.70
   0   3   7   84.69   21.30
  -2   4   7  160.88   47.50
  -2   4   7  116.19   25.70
  -1   4   7   55.49   30.70
  -1   4   7   43.00   18.30
   0   4   7  150.28   38.10
   0   4   7  151.98   27.40
  -2   5   7    3.10   12.00
  -2   5   7    5.40   29.80
  -1   5   7   81.19   22.40
  -1   5   7  122.29   39.70
   0   5   7  167.28   29.50
  -2   6   7  127.49   27.10
  -2   6   7   76.69   39.10
  -1   6   7  100.69   23.90
  -1   6   7   80.89   35.00
   0   6   7  175.58   30.00
  -1   7   7   98.29   37.20
  -1   7   7   90.99   24.00
   0   7   7  110.79   25.90
  -1   8   7  179.18   32.10
  -1   8   7  174.28   43.40
   0   8   7   11.80   16.10
  -1   9   7   42.30   20.00
  -1   9   7   44.70   29.20
   0   9   7  153.68   30.10
  -1  10   7    7.40   24.40
  -1  10   7   11.80   16.30
;
_shelx_res_checksum              64437
_shelx_res_file
;
REM Solution 1  R1  0.121  Rweak  0.018,  Alpha = 0.0029  in P2(1)
REM Flack x =  0.417 ( 0.113 ) from Parsons' quotients
REM Formula:  C16 N4 O2 Cl2
TITL scan
CELL  0.71073   4.4743  29.7568   6.1706   90.000   97.774   90.000
ZERR    4.00   0.00110   0.00740   0.00150   0.0000   0.0083   0.0000
LATT -1
SYMM -X, 1/2+Y, -Z
SFAC C  H  N  O  Cl
UNIT 24  32  12  8  4
L.S. 10
ACTA
BOND $H
FMAP 2
PLAN 20
SIZE 0.050 0.200 0.500
TEMP -73.000
OMIT     0   2   0
OMIT     0  -2   0
OMIT    -1   0   1
OMIT    -2  -2   1
HTAB
REM Instructions for potential hydrogen bonds
HTAB N1 Cl2
EQIV $1 x-1, y, z+1
HTAB N1 O2_$1
HTAB N2 Cl2
EQIV $2 x+1, y, z
EQIV $3 x-1, y, z
HTAB N2 Cl1_$3
HTAB N2 Cl1
EQIV $4 x, y, z-1
HTAB N2 Cl2_$4
EQIV $5 -x+2, y-1/2, -z+2
HTAB N4 Cl1_$5
HTAB N4 O3_$1
EQIV $6 -x+2, y-1/2, -z+1
HTAB N5 Cl1_$6
HTAB N5 Cl2_$5
EQIV $7 -x+1, y-1/2, -z+2
HTAB N5 Cl2_$7
HTAB N5 Cl1_$5
HTAB N5 N4_$2
HTAB C9 Cl1_$6
EQIV $8 x, y, z+1
HTAB C11 O1_$8
REM Instructions for mean planes
MPLA 6 c1 c2 c3 c4 c5 c6 n1 h1a h1b n2 h2a h2b h2c N3 O1 O2
MPLA N3 O1 O2
MPLA 6 c7 c8 c9 c10 c11 c12 n4 h4a h4b N5 h5a h5b h5c N6 o3 o4
MPLA N6 O3 O4
CONF
RTAB table N1 N2
RTAB table N4 N5
WGHT    0.035800
FVAR       0.98982
CL1   5    0.842497    0.500915    0.449079    11.00000    0.04222    0.03172 =
         0.02217   -0.00123    0.01113   -0.00585
CL2   5    0.472130    0.452017    0.934560    11.00000    0.03994    0.03017 =
         0.02312   -0.00132    0.01110   -0.00510
N3    3    0.396266    0.286700    0.012578    11.00000    0.03412    0.03661 =
         0.02532   -0.00218    0.00920    0.00518
O1    4    0.321962    0.247113   -0.017935    11.00000    0.08746    0.02858 =
         0.06623   -0.01486    0.04108   -0.00174
O2    4    0.564529    0.306785   -0.097708    11.00000    0.05373    0.04952 =
         0.03442   -0.00193    0.02963   -0.00223
N6    3    1.034714    0.164301    0.603226    11.00000    0.04509    0.03482 =
         0.02521    0.00037    0.01102   -0.00904
O3    4    1.223778    0.145231    0.505767    11.00000    0.05364    0.05412 =
         0.03247    0.00543    0.02209   -0.00051
O4    4    0.931869    0.201144    0.555348    11.00000    0.08857    0.02893 =
         0.04533    0.01741    0.02473    0.00416
N1    3   -0.063060    0.380879    0.682478    11.00000    0.04399    0.03200 =
         0.02522   -0.00457    0.01748   -0.01162
H1A   2    0.021187    0.405274    0.725377    11.00000    0.03916
H1B   2   -0.182155    0.363073    0.747882    11.00000    0.04959
N2    3    0.319067    0.426179    0.419995    11.00000    0.03775    0.02915 =
         0.02314    0.00060    0.00834   -0.00616
H2A   2    0.427850    0.428357    0.508490    11.00000   -1.50000
H2B   2    0.173613    0.457763    0.461131    11.00000   -1.50000
H2C   2    0.435211    0.435633    0.335937    11.00000   -1.50000
C1    1    0.059655    0.357555    0.522805    11.00000    0.02316    0.02700 =
         0.02328   -0.00295    0.00355   -0.00033
C2    1    0.243887    0.378382    0.384778    11.00000    0.02693    0.02201 =
         0.02052    0.00427    0.00539   -0.00035
C3    1    0.353431    0.355555    0.220756    11.00000    0.02117    0.02899 =
         0.02212    0.00103    0.00898   -0.00042
AFIX  43
H3    2    0.479611    0.370083    0.130290    11.00000   -1.20000
AFIX   0
C4    1    0.276997    0.310952    0.189200    11.00000    0.02430    0.02597 =
         0.02616   -0.00315    0.00730    0.00576
C5    1    0.099502    0.288847    0.317638    11.00000    0.03635    0.02414 =
         0.02377    0.00015    0.00548   -0.00499
AFIX  43
H5    2    0.050614    0.258095    0.291024    11.00000   -1.20000
AFIX   0
C6    1   -0.009813    0.311624    0.488202    11.00000    0.03917    0.03074 =
         0.02491    0.00308    0.01033   -0.00385
AFIX  43
H6    2   -0.130079    0.296343    0.580358    11.00000   -1.20000
AFIX   0
N4    3    0.618167    0.072074    1.297216    11.00000    0.04729    0.03195 =
         0.02584    0.00372    0.01768    0.00689
H4A   2    0.728176    0.049298    1.366584    11.00000    0.03720
H4B   2    0.538407    0.086347    1.363779    11.00000    0.03890
N5    3    1.007452    0.027591    1.038681    11.00000    0.03530    0.02706 =
         0.02241   -0.00039    0.01105    0.01054
H5A   2    1.092983    0.017839    0.937483    11.00000   -1.50000
H5B   2    0.795530    0.007215    1.028079    11.00000   -1.50000
H5C   2    1.152234    0.024890    1.175800    11.00000   -1.50000
C7    1    0.733329    0.095589    1.137363    11.00000    0.02713    0.03004 =
         0.01653   -0.00309    0.00849   -0.00593
C8    1    0.922029    0.075014    1.000602    11.00000    0.02791    0.02579 =
         0.01913    0.00271    0.00124    0.00430
C9    1    1.025948    0.097047    0.831851    11.00000    0.03253    0.02900 =
         0.02219   -0.00598    0.01282   -0.00016
AFIX  43
H9    2    1.157275    0.082534    0.745219    11.00000   -1.20000
AFIX   0
C10   1    0.935216    0.141215    0.789634    11.00000    0.03572    0.02892 =
         0.01993    0.00224    0.01053   -0.00369
C11   1    0.752541    0.163526    0.918491    11.00000    0.03425    0.02045 =
         0.03767    0.00232    0.01348    0.00218
AFIX  43
H11   2    0.696069    0.193952    0.889985    11.00000   -1.20000
AFIX   0
C12   1    0.655229    0.140487    1.088569    11.00000    0.02503    0.02859 =
         0.02382   -0.00973    0.00909    0.00742
AFIX  43
H12   2    0.529358    0.155619    1.177218    11.00000   -1.20000
AFIX   0
HKLF 4
REM  scan
REM R1 =  0.0493 for    1707 Fo > 4sig(Fo)  and  0.0733 for all    2353 data
REM    251 parameters refined using      1 restraints
END
WGHT      0.0358      0.0000
REM Instructions for potential hydrogen bonds
HTAB N1 Cl2
HTAB N1 O2_$1
HTAB N2 Cl1
HTAB N2 Cl2
HTAB N2 Cl1_$3
HTAB N2 Cl1
HTAB N2 Cl2_$4
HTAB C3 Cl2_$4
HTAB C5 O4_$3
HTAB C6 O2_$1
HTAB N4 Cl1_$5
HTAB N4 O3_$1
HTAB N5 Cl1_$6
HTAB N5 Cl2_$5
HTAB N5 Cl2_$7
HTAB N5 Cl1_$5
HTAB N5 N4_$2
HTAB C9 Cl1_$6
HTAB C11 O1_$8
HTAB C12 O3_$1
REM Highest difference peak  0.439,  deepest hole -0.294,  1-sigma level  0.069
Q1    1   0.8388  0.4645  0.4504  11.00000  0.05    0.44
Q2    1   0.4852  0.4892  0.9374  11.00000  0.05    0.43
Q3    1   0.8335  0.5372  0.4478  11.00000  0.05    0.42
Q4    1   0.4970  0.4169  0.9550  11.00000  0.05    0.38
Q5    1   0.6390  0.4894  0.4407  11.00000  0.05    0.31
Q6    1   0.2284  0.4591  0.9313  11.00000  0.05    0.29
Q7    1   0.6757  0.4633  0.9462  11.00000  0.05    0.29
Q8    1   0.8503  0.5004  0.5247  11.00000  0.05    0.28
Q9    1   0.0761  0.4902  0.4638  11.00000  0.05    0.27
Q10   1   0.6681  0.4386  0.9533  11.00000  0.05    0.25
Q11   1   1.0511 -0.0491  0.9999  11.00000  0.05    0.25
Q12   1   0.7737  0.4509  1.1263  11.00000  0.05    0.25
Q13   1   0.6167  0.1112  1.0656  11.00000  0.05    0.25
Q14   1   0.2190  0.3393  0.1684  11.00000  0.05    0.24
Q15   1   0.6666  0.4006  0.0763  11.00000  0.05    0.23
Q16   1   0.3895  0.3276  0.2473  11.00000  0.05    0.23
Q17   1  -0.0350  0.3406  0.4569  11.00000  0.05    0.23
Q18   1   0.0494  0.4396  0.4100  11.00000  0.05    0.22
Q19   1   1.3454  0.0515  0.6938  11.00000  0.05    0.22
Q20   1   0.8928  0.1101  0.7922  11.00000  0.05    0.21
;
#END Tags that were not found in dictionaries
loop_
_space_group_symop_operation_xyz
'x, y, z'
'-x, y+1/2, -z'
loop_
_atom_site_type_symbol
_atom_site_label
_atom_site_fract_x
_atom_site_fract_y
_atom_site_fract_z
_atom_site_U_iso_or_equiv
_atom_site_adp_type
_atom_site_calc_flag
_atom_site_occupancy
Cl Cl1 0.8425(4) 0.50092(5) 0.4491(3) 0.0314(5) Uani d 1
Cl Cl2 0.4721(4) 0.45202(5) 0.9346(3) 0.0304(4) Uani d 1
N N3 0.3963(13) 0.2867(2) 0.0126(10) 0.0315(15) Uani d 1
O O1 0.3220(15) 0.24711(17) -0.0179(10) 0.0579(18) Uani d 1
O O2 0.5645(12) 0.30679(18) -0.0977(9) 0.0437(15) Uani d 1
N N6 1.0347(14) 0.1643(2) 0.6032(11) 0.0345(17) Uani d 1
O O3 1.2238(12) 0.14523(19) 0.5058(10) 0.0452(15) Uani d 1
O O4 0.9319(14) 0.20114(19) 0.5553(10) 0.0528(18) Uani d 1
N N1 -0.0631(16) 0.3809(2) 0.6825(11) 0.0326(16) Uani d 1
H H1A 0.021(16) 0.405(2) 0.725(12) 0.04(2) Uiso d 1
H H1B -0.182(17) 0.363(3) 0.748(14) 0.05(3) Uiso d 1
N N2 0.3191(14) 0.4262(2) 0.4200(12) 0.0296(17) Uani d 1
H H2A 0.428(19) 0.428(3) 0.508(15) 0.044 Uiso d 1
H H2B 0.174(14) 0.458(2) 0.461(12) 0.044 Uiso d 1
H H2C 0.435(18) 0.436(2) 0.336(14) 0.044 Uiso d 1
C C1 0.0597(15) 0.3576(2) 0.5228(13) 0.0244(17) Uani d 1
C C2 0.2439(15) 0.3784(2) 0.3848(12) 0.0230(16) Uani d 1
C C3 0.3534(14) 0.3556(2) 0.2208(12) 0.0235(17) Uani d 1
H H3 0.4796 0.3701 0.1303 0.028 Uiso calc 1
C C4 0.2770(14) 0.3110(2) 0.1892(12) 0.0251(17) Uani d 1
C C5 0.0995(16) 0.2888(2) 0.3176(12) 0.0280(17) Uani d 1
H H5 0.0506 0.2581 0.291 0.034 Uiso calc 1
C C6 -0.0098(16) 0.3116(2) 0.4882(13) 0.0311(19) Uani d 1
H H6 -0.1301 0.2963 0.5804 0.037 Uiso calc 1
N N4 0.6182(17) 0.0721(2) 1.2972(12) 0.0339(17) Uani d 1
H H4A 0.728(15) 0.049(2) 1.367(12) 0.04(2) Uiso d 1
H H4B 0.538(19) 0.086(3) 1.364(14) 0.04(3) Uiso d 1
N N5 1.0075(15) 0.0276(2) 1.0387(11) 0.0276(16) Uani d 1
H H5A 1.093(18) 0.018(2) 0.937(13) 0.041 Uiso d 1
H H5B 0.796(16) 0.007(2) 1.028(11) 0.041 Uiso d 1
H H5C 1.152(16) 0.025(2) 1.176(14) 0.041 Uiso d 1
C C7 0.7333(15) 0.0956(2) 1.1374(12) 0.0241(17) Uani d 1
C C8 0.9220(15) 0.0750(2) 1.0006(12) 0.0245(17) Uani d 1
C C9 1.0259(16) 0.0970(2) 0.8319(12) 0.0271(17) Uani d 1
H H9 1.1573 0.0825 0.7452 0.032 Uiso calc 1
C C10 0.9352(16) 0.1412(2) 0.7896(12) 0.0276(16) Uani d 1
C C11 0.7525(15) 0.1635(2) 0.9185(13) 0.0300(19) Uani d 1
H H11 0.6961 0.194 0.89 0.036 Uiso calc 1
C C12 0.6552(15) 0.1405(2) 1.0886(12) 0.0253(17) Uani d 1
H H12 0.5294 0.1556 1.1772 0.03 Uiso calc 1
loop_
_atom_site_aniso_label
_atom_site_aniso_U_11
_atom_site_aniso_U_22
_atom_site_aniso_U_33
_atom_site_aniso_U_12
_atom_site_aniso_U_13
_atom_site_aniso_U_23
Cl1 0.0422(11) 0.0317(10) 0.0222(10) -0.0059(8) 0.0111(8) -0.0012(8)
Cl2 0.0399(11) 0.0302(9) 0.0231(10) -0.0051(8) 0.0111(8) -0.0013(8)
N3 0.034(4) 0.037(4) 0.025(4) 0.005(3) 0.009(3) -0.002(3)
O1 0.087(5) 0.029(3) 0.066(5) -0.002(3) 0.041(4) -0.015(3)
O2 0.054(4) 0.050(3) 0.034(4) -0.002(3) 0.030(3) -0.002(3)
N6 0.045(4) 0.035(4) 0.025(4) -0.009(3) 0.011(3) 0.000(3)
O3 0.054(4) 0.054(4) 0.032(3) -0.001(3) 0.022(3) 0.005(3)
O4 0.089(5) 0.029(3) 0.045(5) 0.004(3) 0.025(4) 0.017(3)
N1 0.044(4) 0.032(4) 0.025(4) -0.012(3) 0.017(3) -0.005(3)
N2 0.038(4) 0.029(4) 0.023(4) -0.006(3) 0.008(3) 0.001(3)
C1 0.023(4) 0.027(4) 0.023(5) 0.000(3) 0.004(3) -0.003(3)
C2 0.027(4) 0.022(4) 0.021(4) 0.000(3) 0.005(3) 0.004(3)
C3 0.021(4) 0.029(4) 0.022(5) 0.000(3) 0.009(3) 0.001(3)
C4 0.024(4) 0.026(4) 0.026(5) 0.006(3) 0.007(3) -0.003(3)
C5 0.036(4) 0.024(3) 0.024(5) -0.005(3) 0.005(3) 0.000(3)
C6 0.039(5) 0.031(4) 0.025(5) -0.004(3) 0.010(4) 0.003(3)
N4 0.047(5) 0.032(4) 0.026(4) 0.007(4) 0.018(4) 0.004(3)
N5 0.035(4) 0.027(4) 0.022(4) 0.011(3) 0.011(3) 0.000(3)
C7 0.027(4) 0.030(4) 0.017(4) -0.006(3) 0.008(3) -0.003(3)
C8 0.028(4) 0.026(4) 0.019(4) 0.004(3) 0.001(3) 0.003(3)
C9 0.033(4) 0.029(4) 0.022(5) 0.000(3) 0.013(4) -0.006(3)
C10 0.036(4) 0.029(4) 0.020(4) -0.004(3) 0.011(3) 0.002(3)
C11 0.034(4) 0.020(3) 0.038(5) 0.002(3) 0.013(4) 0.002(3)
C12 0.025(4) 0.029(4) 0.024(4) 0.007(3) 0.009(3) -0.010(3)
loop_
_atom_type_symbol
_atom_type_description
_atom_type_scat_dispersion_real
_atom_type_scat_dispersion_imag
_atom_type_scat_source
C C 0.0033 0.0016 'International Tables Vol C Tables 4.2.6.8 and 6.1.1.4'
H H 0.0000 0.0000 'International Tables Vol C Tables 4.2.6.8 and 6.1.1.4'
N N 0.0061 0.0033 'International Tables Vol C Tables 4.2.6.8 and 6.1.1.4'
O O 0.0106 0.0060 'International Tables Vol C Tables 4.2.6.8 and 6.1.1.4'
Cl Cl 0.1484 0.1585 'International Tables Vol C Tables 4.2.6.8 and 6.1.1.4'
loop_
_geom_angle_atom_site_label_1
_geom_angle_atom_site_label_2
_geom_angle_atom_site_label_3
_geom_angle
O1 N3 O2 123.4(7)
O1 N3 C4 117.8(6)
O2 N3 C4 118.8(6)
O4 N6 O3 123.9(7)
O4 N6 C10 118.2(7)
O3 N6 C10 117.9(7)
C1 N1 H1A 117.(5)
C1 N1 H1B 110.(5)
H1A N1 H1B 130.(8)
C2 N2 H2A 109.(8)
C2 N2 H2B 132.(3)
H2A N2 H2B 96.(8)
C2 N2 H2C 113.(5)
H2A N2 H2C 92.(9)
H2B N2 H2C 106.(6)
N1 C1 C2 122.2(6)
N1 C1 C6 119.7(7)
C2 C1 C6 118.0(7)
C3 C2 C1 121.9(6)
C3 C2 N2 119.6(6)
C1 C2 N2 118.5(7)
C2 C3 C4 118.5(7)
C2 C3 H3 120.7
C4 C3 H3 120.7
C5 C4 C3 122.4(7)
C5 C4 N3 119.6(6)
C3 C4 N3 118.1(7)
C4 C5 C6 119.7(7)
C4 C5 H5 120.2
C6 C5 H5 120.2
C5 C6 C1 119.5(7)
C5 C6 H6 120.3
C1 C6 H6 120.3
C7 N4 H4A 119.(5)
C7 N4 H4B 112.(7)
H4A N4 H4B 117.(9)
C8 N5 H5A 111.(5)
C8 N5 H5B 108.(3)
H5A N5 H5B 104.(6)
C8 N5 H5C 110.(4)
H5A N5 H5C 107.(7)
H5B N5 H5C 117.(5)
N4 C7 C12 122.4(7)
N4 C7 C8 121.6(7)
C12 C7 C8 115.9(6)
C9 C8 C7 122.8(6)
C9 C8 N5 118.3(6)
C7 C8 N5 118.9(6)
C8 C9 C10 118.5(7)
C8 C9 H9 120.8
C10 C9 H9 120.8
C11 C10 C9 121.7(7)
C11 C10 N6 119.6(6)
C9 C10 N6 118.7(7)
C12 C11 C10 118.2(6)
C12 C11 H11 120.9
C10 C11 H11 120.9
C11 C12 C7 123.0(7)
C11 C12 H12 118.5
C7 C12 H12 118.5
loop_
_geom_bond_atom_site_label_1
_geom_bond_atom_site_label_2
_geom_bond_distance
N3 O1 1.232(8)
N3 O2 1.235(8)
N3 C4 1.467(9)
N6 O4 1.210(8)
N6 O3 1.240(8)
N6 C10 1.460(9)
N1 C1 1.379(9)
N1 H1A 0.84(7)
N1 H1B 0.89(8)
N2 C2 1.471(9)
N2 H2A 0.68(8)
N2 H2B 1.19(7)
N2 H2C 0.83(9)
C1 C2 1.407(9)
C1 C6 1.411(9)
C2 C3 1.364(9)
C3 C4 1.378(8)
C3 H3 0.95
C4 C5 1.364(10)
C5 C6 1.395(10)
C5 H5 0.95
C6 H6 0.95
N4 C7 1.366(9)
N4 H4A 0.91(7)
N4 H4B 0.72(8)
N5 C8 1.473(9)
N5 H5A 0.83(8)
N5 H5B 1.12(7)
N5 H5C 1.00(8)
C7 C12 1.403(9)
C7 C8 1.412(9)
C8 C9 1.364(10)
C9 C10 1.390(9)
C9 H9 0.95
C10 C11 1.385(10)
C11 C12 1.373(10)
C11 H11 0.95
C12 H12 0.95
loop_
_geom_hbond_atom_site_label_D
_geom_hbond_atom_site_label_H
_geom_hbond_atom_site_label_A
_geom_hbond_site_symmetry_A
_geom_hbond_distance_DH
_geom_hbond_distance_HA
_geom_hbond_distance_DA
_geom_hbond_angle_DHA
_geom_hbond_publ_flag
N1 H1A Cl2 . 0.84(7) 2.64(7) 3.410(7) 152(6) yes
N1 H1B O2 1_456 0.89(8) 2.30(8) 3.176(9) 170(7) yes
N2 H2A Cl2 . 0.68(8) 2.70(9) 3.249(7) 139(10) yes
N2 H2B Cl1 1_455 1.19(7) 1.95(7) 3.103(7) 161(5) yes
N2 H2C Cl1 . 0.83(9) 2.69(7) 3.217(6) 123(7) yes
N2 H2C Cl2 1_554 0.83(9) 2.55(9) 3.254(7) 143(7) yes
C3 H3 Cl2 1_554 0.95 2.72 3.449(7) 134 no
C5 H5 O4 1_455 0.95 2.46 3.134(9) 128 no
C6 H6 O2 1_456 0.95 2.58 3.390(10) 144 no
N4 H4A Cl1 2_747 0.91(7) 2.54(7) 3.426(8) 164(6) yes
N4 H4B O3 1_456 0.72(8) 2.48(8) 3.182(10) 166(9) yes
N5 H5A Cl1 2_746 0.83(8) 2.49(8) 3.269(6) 157(7) yes
N5 H5A Cl2 2_747 0.83(8) 2.80(7) 3.225(6) 114(6) yes
N5 H5B Cl2 2_647 1.12(7) 2.06(7) 3.128(7) 157(5) yes
N5 H5C Cl1 2_747 1.00(8) 2.42(8) 3.240(7) 139(6) yes
N5 H5C N4 1_655 1.00(8) 2.54(7) 3.253(10) 128(6) yes
loop_
_geom_torsion_atom_site_label_1
_geom_torsion_atom_site_label_2
_geom_torsion_atom_site_label_3
_geom_torsion_atom_site_label_4
_geom_torsion
N1 C1 C2 C3 -177.0(6)
C6 C1 C2 C3 0.3(10)
N1 C1 C2 N2 3.0(10)
C6 C1 C2 N2 -179.7(6)
C1 C2 C3 C4 0.8(10)
N2 C2 C3 C4 -179.2(6)
C2 C3 C4 C5 -0.8(10)
C2 C3 C4 N3 -179.9(6)
O1 N3 C4 C5 2.4(10)
O2 N3 C4 C5 -177.7(7)
O1 N3 C4 C3 -178.5(6)
O2 N3 C4 C3 1.4(9)
C3 C4 C5 C6 -0.2(11)
N3 C4 C5 C6 178.9(6)
C4 C5 C6 C1 1.3(11)
N1 C1 C6 C5 176.0(7)
C2 C1 C6 C5 -1.3(10)
N4 C7 C8 C9 176.2(7)
C12 C7 C8 C9 0.5(10)
N4 C7 C8 N5 -2.9(10)
C12 C7 C8 N5 -178.5(6)
C7 C8 C9 C10 -1.8(11)
N5 C8 C9 C10 177.3(6)
C8 C9 C10 C11 2.3(11)
C8 C9 C10 N6 -177.3(6)
O4 N6 C10 C11 -6.5(10)
O3 N6 C10 C11 172.3(6)
O4 N6 C10 C9 173.1(7)
O3 N6 C10 C9 -8.1(10)
C9 C10 C11 C12 -1.5(11)
N6 C10 C11 C12 178.1(6)
C10 C11 C12 C7 0.2(11)
N4 C7 C12 C11 -175.3(7)
C8 C7 C12 C11 0.3(10)
