#------------------------------------------------------------------------------
#$Date: 2016-02-20 00:18:51 +0200 (Sat, 20 Feb 2016) $
#$Revision: 176760 $
#$URL: svn://www.crystallography.net/cod/cif/2/01/95/2019519.cif $
#------------------------------------------------------------------------------
#
# This file is available in the Crystallography Open Database (COD),
# http://www.crystallography.net/. The original data for this entry
# were provided by IUCr Journals, http://journals.iucr.org/.
#
# The file may be used within the scientific community so long as
# proper attribution is given to the journal article from which the
# data were obtained.
#
data_2019519
loop_
_publ_author_name
'Lutz, Martin'
'Huang, Yuxing'
'Moret, Marc-Etienne'
'Klein Gebbink, Robertus J. M.'
_publ_section_title
;
 Phase transitions and twinned low-temperature structures of
 tetraethylammonium tetrachloridoferrate(III)
;
_journal_coeditor_code           GZ3264
_journal_issue                   5
_journal_name_full               'Acta Crystallographica Section C'
_journal_page_first              470
_journal_page_last               476
_journal_paper_doi               10.1107/S2053229614007955
_journal_volume                  70
_journal_year                    2014
_chemical_formula_iupac          '(C8 H20 N) [Fe Cl4]'
_chemical_formula_moiety         'C8 H20 N +, Cl4 Fe -'
_chemical_formula_sum            'C8 H20 Cl4 Fe N'
_chemical_formula_weight         327.90
_chemical_name_systematic
;
Tetraethylammonium tetrachloridoferrate(III)
;
_space_group_crystal_system      hexagonal
_space_group_IT_number           186
_space_group_name_Hall           'P 6c -2c'
_space_group_name_H-M_alt        'P 63 m c'
_symmetry_space_group_name_Hall  'P 6c -2c'
_symmetry_space_group_name_H-M   'P 63 m c'
_atom_sites_solution_hydrogens   geom
_atom_sites_solution_primary     heavy
_atom_sites_solution_secondary   difmap
_audit_creation_method           SHELXL-2013
_cell_angle_alpha                90
_cell_angle_beta                 90
_cell_angle_gamma                120
_cell_formula_units_Z            2
_cell_length_a                   8.2154(4)
_cell_length_b                   8.2154(4)
_cell_length_c                   13.1972(8)
_cell_measurement_reflns_used    6539
_cell_measurement_temperature    290(2)
_cell_measurement_theta_max      27.43
_cell_measurement_theta_min      1.54
_cell_volume                     771.38(7)
_computing_cell_refinement       '<i>Peakref</i> (Schreurs, 2013)'
_computing_data_collection       '<i>APEX2</i> (Bruker, 2007)'
_computing_data_reduction
;
<i>Eval15</i> (Schreurs <i>et al.</i>, 2010) and
<i>SADABS</i> (Sheldrick, 2012)
;
_computing_molecular_graphics    '<i>PLATON</i> (Spek, 2009)'
_computing_publication_material  'manual editing of the <i>SHELXL</i> output'
_computing_structure_refinement  '<i>SHELXL2013</i> (Sheldrick, 2008)'
_computing_structure_solution
'coordinates from the literature (Evans <i>et al.</i>, 1990)'
_diffrn_ambient_temperature      290(2)
_diffrn_measured_fraction_theta_full 1.000
_diffrn_measured_fraction_theta_max 1.000
_diffrn_measurement_device_type  'Bruker Kappa APEXII'
_diffrn_measurement_method       '\f and \w scans'
_diffrn_radiation_type           MoK\a
_diffrn_radiation_wavelength     0.71073
_diffrn_reflns_av_R_equivalents  0.0184
_diffrn_reflns_limit_h_max       10
_diffrn_reflns_limit_h_min       -9
_diffrn_reflns_limit_k_max       10
_diffrn_reflns_limit_k_min       -10
_diffrn_reflns_limit_l_max       17
_diffrn_reflns_limit_l_min       -17
_diffrn_reflns_number            7971
_diffrn_reflns_theta_full        25.242
_diffrn_reflns_theta_max         27.500
_diffrn_reflns_theta_min         2.863
_exptl_absorpt_coefficient_mu    1.640
_exptl_absorpt_correction_T_max  0.7456
_exptl_absorpt_correction_T_min  0.6549
_exptl_absorpt_correction_type   multi-scan
_exptl_absorpt_process_details   '(<i>SADABS</i>; Sheldrick, 2012)'
_exptl_crystal_colour            yellow
_exptl_crystal_density_diffrn    1.412
_exptl_crystal_description       block
_exptl_crystal_F_000             338
_exptl_crystal_size_max          0.43
_exptl_crystal_size_mid          0.34
_exptl_crystal_size_min          0.10
_refine_diff_density_max         0.165
_refine_diff_density_min         -0.119
_refine_ls_abs_structure_details
;
Flack x determined using 279 quotients [(I+)-(I-)]/[(I+)+(I-)]
(Parsons <i>et al.</i>, 2013)
;
_refine_ls_abs_structure_Flack   0.037(8)
_refine_ls_extinction_coef       0.029(5)
_refine_ls_extinction_expression Fc^*^=kFc[1+0.001xFc^2^\l^3^/sin(2\q)]^-1/4^
_refine_ls_extinction_method     '<i>SHELXL2013</i> (Sheldrick, 2008)'
_refine_ls_goodness_of_fit_ref   1.086
_refine_ls_hydrogen_treatment    constr
_refine_ls_matrix_type           full
_refine_ls_number_parameters     89
_refine_ls_number_reflns         723
_refine_ls_number_restraints     67
_refine_ls_restrained_S_all      1.121
_refine_ls_R_factor_all          0.0268
_refine_ls_R_factor_gt           0.0231
_refine_ls_shift/su_max          0.001
_refine_ls_shift/su_mean         0.000
_refine_ls_structure_factor_coef Fsqd
_refine_ls_weighting_details
'w=1/[\s^2^(Fo^2^)+(0.0438P)^2^+0.0200P] where P=(Fo^2^+2Fc^2^)/3'
_refine_ls_weighting_scheme      calc
_refine_ls_wR_factor_gt          0.0624
_refine_ls_wR_factor_ref         0.0652
_reflns_number_gt                630
_reflns_number_total             723
_reflns_threshold_expression     I>2\s(I)
_cod_data_source_file            gz3264sup1.cif
_cod_data_source_block           Ia
_cod_depositor_comments
'Adding full bibliography for 2019519--2019522.cif.'
_cod_original_cell_volume        771.38(10)
_cod_database_code               2019519
_cod_database_fobs_code          2019519
#BEGIN Tags that were not found in dictionaries:
_shelx_space_group_comment
;
The symmetry employed for this shelxl refinement is uniquely defined
by the following loop, which should always be used as a source of
symmetry information in preference to the above space-group names.
They are only intended as comments.
;
_shelx_hkl_checksum              44380
_shelx_hkl_file
;
   1  -1   0 3094.03 52.5206   1
  -1   0   0 3109.86 52.5541   1
   1   0   0 3103.96 52.5463   1
   0   1   0 3118.71 52.4095   1
  -1   0   0 3036.49 52.5017   1
   0  -1   0 3101.19 52.4563   1
   0   1   0 2958.96 53.3636   4
   1   0   0 3041.94 52.6919   2
   0  -1   0 3115.77 52.4475   1
  -1   1   0 3099.63 52.6824   2
  -1   1   0 3068.90 52.4889   1
   0  -1   0 2990.70 52.7642   2
   0  -1   0 2888.36 53.3697   4
  -1   1   0 3146.93 52.5466   1
   0   1   0 3089.07 52.4121   1
   1  -1   0 3091.51 52.5198   1
   0  -1   0 2940.79 51.7302   3
   1  -1   0 2936.38 52.6899   2
   1  -1   0 3040.18 51.6785   3
   0   1   0 3029.38 52.7339   2
   0   1   0 2885.78 51.7448   3
   1   0   0 3080.53 52.5358   1
   1   0   0 3006.30 51.7501   3
   1  -2   0 3119.38 54.6112   3
   1   1   0 3137.31 56.4398   4
   2  -1   0 3269.07 56.1018   1
  -1   2   0 3201.20 56.3191   4
  -2   1   0 3221.49 56.0664   1
  -1   2   0 3310.78 55.8756   1
   1   1   0 3139.75 55.8863   1
  -2   1   0 3245.27 56.0605   1
   1   1   0 3206.11 55.7433   2
   1  -2   0 3298.49 55.8865   1
   2  -1   0 3195.13 56.0338   1
   1   1   0 3269.05 55.9392   1
  -1  -1   0 3211.47 55.9220   1
  -1   2   0 3294.22 55.8608   1
  -1  -1   0 3122.43 55.8866   1
   1  -2   0 3295.78 55.9139   1
  -1  -1   0 3169.75 54.7100   3
  -1   2   0 3110.56 55.7056   2
   1  -2   0 3148.29 56.3165   4
  -1   2   0 3135.35 54.6361   3
   2  -2   0 1871.51 32.4155   1
   0   2   0 1797.32 31.5004   2
   2  -2   0 1777.56 32.3008   1
  -2   2   0 1878.48 32.4019   1
   0  -2   0 1769.87 32.0828   1
   2   0   0 1780.51 31.4043   2
  -2   2   0 1818.48 31.3571   2
   0  -2   0 1785.22 30.8842   3
   2  -2   0 1810.13 30.6915   3
   0   2   0 1818.33 32.1424   1
   0   2   0 1748.11 31.7386   4
  -2   0   0 1827.23 32.4652   1
  -2   2   0 1742.46 32.2662   1
   2   0   0 1779.21 32.3849   1
   0   2   0 1808.48 32.1148   1
   2   0   0 1782.24 32.3881   1
  -2   0   0 1822.57 32.4383   1
   0  -2   0 1796.57 32.1348   1
   1   2   0 936.002 18.4893   1
  -3   2   0 955.590 18.6734   1
   2   1   0 957.255 18.6449   1
  -3   1   0 959.795 18.7736   1
  -3   1   0 966.189 18.8738   1
   1   2   0 939.990 17.2204   4
  -2   3   0 943.665 17.0183   2
  -2   3   0 961.261 18.5327   1
   2  -3   0 938.954 16.5650   3
   3  -1   0 960.053 18.8262   1
   1   2   0 973.680 17.1336   2
  -1  -2   0 970.257 16.8397   3
  -1   3   0 934.345 17.0826   2
   1   2   0 976.193 18.5038   1
   1  -3   0 958.499 16.6981   3
  -1   3   0 951.352 17.0367   4
   3  -1   0 988.852 18.8794   1
  -3   2   0 950.959 18.8037   1
   3  -2   0 973.847 18.7871   1
   1  -3   0 952.639 18.3774   1
  -2   3   0 987.093 18.5963   1
  -1   3   0 990.873 18.4746   1
   2  -3   0 972.319 18.5629   1
  -2  -1   0 967.469 16.8161   3
  -2  -1   0 965.513 18.5911   1
  -2  -1   0 950.039 18.6304   1
   1  -3   0 936.724 18.4322   1
   2   1   0 963.899 17.0929   2
  -1  -2   0 966.698 18.4484   1
   2   1   0 965.352 18.6178   1
   2  -3   0 958.312 18.6064   1
  -1  -2   0 955.990 18.5462   1
   3  -2   0 974.572 18.7644   1
  -1   3   0 971.803 18.4560   1
  -3   0   0 922.867 18.4867   1
   3   0   0 914.098 18.3147   1
  -3   0   0 919.157 18.3590   1
   0  -3   0 887.620 17.8339   1
   0   3   0 901.890 16.4471   4
   0   3   0 927.953 16.5348   2
   0  -3   0 899.741 16.1595   3
   0  -3   0 913.864 18.0305   1
   3  -3   0 914.465 15.8404   3
   3   0   0 921.404 16.3547   2
   0   3   0 930.191 18.0638   1
  -3   3   0 920.688 16.2960   2
   3  -3   0 923.448 18.4043   1
  -3   3   0 943.905 18.4077   1
   3   0   0 922.366 18.4106   1
   3  -3   0 925.087 18.3096   1
   0   3   0 944.772 18.0049   1
  -3   3   0 934.734 18.2785   1
  -2  -2   0 6022.42 105.877   1
   2   2   0 6019.68 106.595   4
   2  -4   0 6168.64 105.691   1
   2   2   0 6009.24 105.784   1
  -2  -2   0 5948.96 103.299   3
   2  -4   0 5873.21 103.066   3
  -4   2   0 6050.56 106.177   1
   4  -2   0 6059.39 106.182   1
  -2   4   0 6126.08 105.692   1
   2   2   0 6091.30 105.268   2
  -2   4   0 6259.34 105.851   1
  -2  -2   0 5979.47 105.807   1
  -2   4   0 5965.23 105.170   2
   2  -4   0 6176.96 105.810   1
  -2   4   0 5972.05 106.233   4
   4  -2   0 6020.05 106.074   1
   2   2   0 6042.32 105.820   1
  -4   2   0 6204.23 106.188   1
  -1  -3   0 1438.40 27.5338   1
   1  -4   0 1451.48 27.4758   1
   1   3   0 1463.92 27.5460   1
  -4   3   0 1434.71 27.7264   1
  -3   4   0 1431.36 27.6125   1
   1   3   0 1408.07 25.7408   4
  -1   4   0 1426.63 25.6128   2
   3   1   0 1415.99 27.7514   1
   4  -1   0 1432.87 27.8853   1
  -1  -3   0 1446.44 25.1731   3
  -3  -1   0 1433.26 27.8381   1
  -4   1   0 1468.12 28.0917   1
   4  -1   0 1422.94 27.7518   1
   4  -3   0 1435.05 27.9358   1
   3   1   0 1404.31 27.6252   1
   1  -4   0 1447.24 27.3607   1
   4  -3   0 1457.70 27.8978   1
  -4   3   0 1469.95 28.0036   1
   1  -4   0 1447.56 25.0289   3
   1   3   0 1439.99 25.6361   2
  -3  -1   0 1433.70 27.6863   1
  -1   4   0 1443.42 27.4016   1
  -1  -3   0 1434.50 27.3731   1
   1   3   0 1435.35 27.4457   1
  -4   1   0 1432.27 27.8563   1
  -1   4   0 1430.32 25.5477   4
   3  -4   0 1474.28 27.6222   1
  -3   4   0 1500.47 27.7610   1
  -1   4   0 1451.45 27.4359   1
   3  -4   0 1400.16 24.7718   3
   3  -4   0 1458.41 27.7214   1
  -4   3   0 1450.34 25.3159   2
   3   1   0 1457.36 25.5641   2
  -3   4   0 1432.98 25.4629   2
  -4   4   0 633.459 14.1857   1
   0  -4   0 632.615 13.8584   1
   0   4   0 623.946 11.3899   4
   0  -4   0 616.540 11.3531   3
   4   0   0 630.227 14.3614   1
   0   4   0 621.399 13.7964   1
   0  -4   0 631.782 13.8061   1
   4   0   0 619.786 11.4265   2
   4  -4   0 611.447 10.8950   3
   4  -4   0 643.890 14.3391   1
   0   4   0 610.563 11.6226   2
   4  -4   0 592.826 14.1268   1
  -4   4   0 620.184 11.3358   2
  -4   0   0 631.579 14.3164   1
  -4   0   0 634.093 14.4574   1
   4   0   0 626.114 14.2587   1
  -2  -3   0 1758.15 30.5547   3
   2  -5   0 1750.07 30.2724   3
   3   2   0 1768.03 31.0458   2
   3  -5   0 1766.28 33.5580   1
  -5   2   0 1702.76 34.0388   1
   5  -2   0 1737.31 34.0361   1
  -3   5   0 1738.81 30.9393   2
  -2   5   0 1707.22 30.8957   4
   5  -2   0 1716.41 33.9635   1
   2   3   0 1713.70 31.3040   4
   3   2   0 1730.62 33.6784   1
  -2   5   0 1767.94 31.0525   2
   5  -3   0 1743.81 34.0022   1
  -2  -3   0 1741.99 33.4710   1
   2   3   0 1772.59 33.6119   1
  -2   5   0 1748.77 33.4280   1
  -2  -3   0 1780.29 33.7580   1
  -5   2   0 1751.18 34.0688   1
  -5   3   0 1773.26 34.1072   1
   3   2   0 1764.29 31.4381   4
   5  -3   0 1738.67 33.9149   1
   3  -5   0 1734.43 33.5006   1
  -3  -2   0 1753.52 33.6580   1
   2  -5   0 1745.13 33.3090   1
   2   3   0 1768.90 31.0906   2
  -3  -2   0 1720.37 33.7382   1
   2  -5   0 1722.72 33.3577   1
  -3   5   0 1772.03 33.5532   1
   3  -5   0 1748.84 30.1178   3
  -1  -4   0 520.071 9.94692   3
  -5   1   0 536.793 13.4704   1
  -1  -4   0 518.826 12.6427   1
  -1   5   0 519.485 9.70881   4
  -4  -1   0 524.394 13.2064   1
  -5   4   0 533.312 9.74363   2
  -1   5   0 531.030 10.1401   2
  -5   4   0 551.696 13.3926   1
   1   4   0 517.777 9.94541   4
   1  -5   0 549.865 12.8518   1
   4   1   0 540.526 10.0396   2
   5  -4   0 545.189 13.4103   1
   4  -5   0 533.774 13.0661   1
  -4  -1   0 539.377 13.2110   1
   1   4   0 531.986 10.1747   2
  -1  -4   0 519.556 12.8083   1
   5  -4   0 529.611 9.37299   3
  -4   5   0 540.240 13.0139   1
  -4   5   0 540.946 9.92628   2
   1  -5   0 532.760 12.6707   1
   5  -4   0 532.760 13.3110   1
   4  -5   0 514.205 12.9637   1
   5  -1   0 534.195 9.85777   2
   1  -5   0 515.118 9.80585   3
   1   4   0 535.122 12.7978   1
   4  -5   0 519.996 9.42245   3
   4   1   0 505.158 13.0293   1
   5  -1   0 510.451 13.1586   1
  -1   5   0 520.696 12.5897   1
  -5   1   0 554.809 13.5808   1
   0  -5   0 89.8954 2.48459   3
   0  -5   0 83.5253 4.51544   1
  -5   5   0 79.0435 4.71833   1
  -5   5   0 90.0491 2.22987   2
   0   5   0 84.5045 2.13789   4
  -5   0   0 83.3501 5.02372   1
   5  -5   0 86.3133 4.89440   1
   5   0   0 86.2110 5.01726   1
   5  -5   0 93.1837 4.93491   1
   5   0   0 88.2678 2.34636   2
   5  -5   0 86.1440 1.91914   3
   0   5   0 87.0738 2.56321   2
   0   5   0 90.2346 4.59232   1
   0  -5   0 91.5358 4.70210   1
  -5   0   0 86.9723 4.98652   1
   3  -6   0 342.870 10.0810   1
   3  -6   0 340.056 6.54059   3
   3   3   0 339.634 6.96594   4
  -3  -3   0 354.268 10.3285   1
   3   3   0 337.680 7.01677   2
  -3  -3   0 336.494 6.98602   3
  -3   6   0 320.584 9.81318   1
  -6   3   0 339.170 10.5687   1
   3  -6   0 346.964 9.94768   1
  -3   6   0 342.769 6.94381   2
   6  -3   0 337.755 10.5047   1
  -3  -3   0 341.950 10.0630   1
   3   3   0 358.367 10.3067   1
   2   4   0 237.347 5.11610   4
  -4   6   0 240.247 5.12005   2
   4   2   0 242.311 5.35968   4
  -2   6   0 244.520 5.31489   2
  -2  -4   0 249.545 8.39014   1
   2  -6   0 237.608 4.96703   3
   4   2   0 254.606 5.31358   2
   6  -4   0 242.106 8.67938   1
   6  -4   0 235.478 8.60238   1
   2   4   0 233.929 8.10736   1
  -2   6   0 233.339 4.63963   4
   4  -6   0 243.809 4.72183   3
   6  -2   0 244.489 8.61635   1
  -4   6   0 228.818 8.07140   1
   4  -6   0 241.483 8.26181   1
   2  -6   0 242.076 8.10937   1
   4  -6   0 220.403 8.12137   1
  -2   6   0 245.590 8.07265   1
  -6   4   0 220.809 8.39350   1
  -4  -2   0 253.214 8.64525   1
   6  -2   0 236.253 4.89760   2
   2   4   0 248.207 5.38871   2
  -6   2   0 230.311 8.56706   1
   2  -6   0 245.709 8.07265   1
  -2  -4   0 249.279 5.30917   3
   4   2   0 257.957 8.64714   1
  -4  -2   0 249.660 8.52989   1
  -2  -4   0 231.949 7.97420   1
   5  -6   0 85.8557 2.00252   3
   5   1   0 93.5245 5.43375   1
   5   1   0 86.7980 2.49272   2
   6  -1   0 85.9181 5.43295   1
   6  -1   0 83.9420 2.30965   2
  -5  -1   0 87.0013 5.40618   1
   5  -6   0 87.7665 5.20648   1
   1   5   0 85.6227 2.30075   4
   1   5   0 90.4453 4.97718   1
  -5   6   0 85.5984 2.35123   2
   6  -5   0 83.8685 5.32648   1
   1   5   0 85.5343 2.67751   2
   5  -6   0 88.8542 5.25832   1
   1  -6   0 94.3454 5.10784   1
  -1   6   0 87.3189 2.64721   2
  -1   6   0 90.2876 5.04207   1
  -1   6   0 79.6852 2.03477   4
   5   1   0 89.1958 2.71326   4
  -6   5   0 91.0546 5.37334   1
  -5   6   0 81.9282 5.04539   1
  -6   1   0 79.9896 5.37506   1
   1  -6   0 83.6516 2.45544   3
  -1  -5   0 81.2328 2.55800   3
  -1  -5   0 73.9696 4.69664   1
   6  -5   0 88.3414 5.34685   1
   6  -5   0 86.5908 1.94024   3
   6  -6   0 440.480 13.2720   1
   0  -6   0 482.693 13.0130   1
   6   0   0 451.726 8.98234   2
   0   6   0 462.945 9.35444   2
  -6   6   0 455.519 8.79890   2
   0   6   0 466.283 8.81592   4
   0  -6   0 467.678 9.10003   3
  -6   0   0 440.156 13.4384   1
  -6   6   0 449.451 13.2410   1
   6   0   0 462.433 13.5481   1
   3  -7   0 34.2270 3.69460   1
   4   3   0 38.8677 1.74024   4
   3   4   0 39.1579 1.83199   2
   3  -7   0 40.3464 1.51591   3
  -3  -4   0 40.1562 4.13205   1
   3   4   0 36.0000 1.60752   4
   4  -7   0 40.6907 4.06182   1
  -7   4   0 43.4259 4.52702   1
  -7   3   0 35.4886 4.07443   1
  -3   7   0 36.1094 1.70149   2
   4   3   0 42.3830 1.83213   2
  -4   7   0 36.1855 1.63317   2
  -4  -3   0 44.9659 4.37628   1
   3   4   0 41.9602 4.16962   1
   7  -4   0 38.9188 4.42951   1
   7  -3   0 33.4780 4.02543   1
   4  -7   0 38.6779 1.38465   3
   4   3   0 38.9421 4.16544   1
  -2  -5   0 90.5649 5.66203   1
  -2  -5   0 93.2828 2.88537   3
   5   2   0 92.5278 2.91220   4
   5   2   0 90.2515 5.91433   1
   2  -7   0 80.2083 5.25726   1
  -5   7   0 85.3506 2.58355   2
  -7   5   0 84.3916 5.89356   1
   2  -7   0 90.0859 2.60990   3
   5  -7   0 91.1454 5.69149   1
   7  -5   0 92.7303 6.14989   1
   7  -2   0 86.7933 6.04273   1
  -2   7   0 82.5711 2.76888   2
   2   5   0 89.5450 2.56847   4
  -7   2   0 90.6663 6.15374   1
   5   2   0 87.2802 2.72032   2
   2   5   0 87.9373 2.87803   2
   7  -2   0 85.4357 2.41243   2
  -5  -2   0 93.6630 6.06359   1
   6   1   0 165.744 4.08201   2
  -7   1   0 152.368 8.09145   1
  -1  -6   0 170.088 7.61932   1
   6  -7   0 157.084 7.70297   1
  -1   7   0 166.218 4.33925   2
   6   1   0 151.094 7.71834   1
   1   6   0 159.236 4.32086   2
  -1  -6   0 164.826 4.23261   3
  -6   7   0 155.643 3.83613   2
   7  -1   0 156.236 7.91532   1
   1  -7   0 160.501 7.39482   1
   1   6   0 162.211 3.77819   4
   7  -1   0 155.659 3.85878   2
  -7   6   0 149.281 7.85319   1
   1  -7   0 158.698 4.04193   3
   7  -6   0 163.687 8.11395   1
  -6  -1   0 163.340 8.08482   1
   6   1   0 166.391 4.40193   4
  -7   0   0 208.531 9.74190   1
   0   7   0 205.012 5.18192   2
  -7   7   0 193.162 4.49860   2
   0  -7   0 197.048 4.93271   3
   7   0   0 194.733 4.73861   2
   7  -7   0 190.283 9.00339   1
   7   0   0 206.598 5.30914   4
   7   0   0 211.100 9.55308   1
   4   4   0 108.731 3.36225   2
   4  -8   0 103.699 6.55348   1
   4   4   0 105.165 3.16313   4
  -4   8   0 111.701 3.25153   2
  -8   4   0 103.702 7.11181   1
  -4  -4   0 95.9401 6.54793   1
   8  -4   0 102.640 7.01411   1
  -8   3   0 53.1992 5.63631   1
  -8   5   0 59.5774 5.76216   1
   8  -3   0 49.5717 5.46179   1
  -5  -3   0 42.2932 5.06132   1
   3   5   0 50.5786 2.03213   4
   3  -8   0 51.8281 1.93862   3
   5   3   0 47.9018 2.15199   2
  -5   8   0 48.1626 2.03607   2
  -3   8   0 50.7408 2.23391   2
   8  -5   0 50.6877 5.52280   1
   5   3   0 51.0691 2.17435   4
   3   5   0 51.8058 2.27202   2
   2   6   0 66.5153 2.65668   2
   2   6   0 60.3210 2.16744   4
   6   2   0 58.0675 2.33541   2
  -2  -6   0 62.2546 2.57054   3
   8  -2   0 77.6533 6.43594   1
   2  -8   0 59.9898 2.26176   3
  -2   8   0 62.0457 2.54591   2
   6   2   0 61.5814 2.55945   4
  -8   2   0 55.0857 5.83380   1
  -6   8   0 64.2376 2.25296   2
  -1   8   0 55.0619 2.55614   2
   8  -1   0 55.8016 2.62129   4
   1   7   0 55.9374 2.57116   2
  -1  -7   0 58.6584 2.50171   3
   7   1   0 63.1396 2.67813   4
   8  -1   0 60.4656 6.15972   1
   8  -1   0 50.6801 2.08321   2
  -8   1   0 58.6132 6.24893   1
   7   1   0 51.9621 2.23588   2
   1  -8   0 54.2805 2.30619   3
   0   8   0 23.5891 1.86477   2
   8   0   0 18.9525 1.43993   2
   0  -8   0 23.2815 1.71483   3
   8   0   0 20.1773 1.80506   4
   5   4   0 60.4201 2.65663   2
  -5   9   0 68.2386 2.61823   2
  -4   9   0 67.9977 2.67691   2
  -9   4   0 66.4975 6.94931   1
   4   5   0 59.8339 2.68137   2
   4   5   0 63.6861 2.52294   4
   5   4   0 63.3657 2.61353   4
  -9   3   0 24.7979 5.04358   1
  -6   9   0 32.7611 1.79799   2
   6   3   0 33.1327 1.95223   2
   6   3   0 30.9105 1.93610   4
   3   6   0 33.5613 2.05254   2
   3   6   0 32.9492 1.76258   4
  -3   9   0 33.6129 2.03373   2
   7   2   0 5.99704 1.13590   2
  -2   9   0 7.86883 1.41629   2
   2   7   0 7.61853 1.40474   2
   7   2   0 6.80722 1.34420   4
   2  -9   0 10.1167 1.20308   3
   9  -1   0 -0.6490 0.88050   4
  -1   9   0 -0.0741 1.09971   2
   1   8   0 1.28822 1.15059   2
   1  -9   0 0.87578 0.87877   3
   8   1   0 0.43678 0.86329   2
   8   1   0 1.58800 1.12277   4
   0   9   0 4.30792 1.31919   2
   9   0   0 5.99234 1.50302   4
   5   5   0 25.1594 2.00299   2
  -5  10   0 26.1713 1.90389   2
   5   5   0 24.8313 1.83811   4
   6   4   0 6.66112 1.23298   4
   4   6   0 6.73074 1.17106   4
   6   4   0 7.27822 1.28266   2
   4   6   0 9.95453 1.50400   2
  -6  10   0 8.16423 1.25953   2
  -4  10   0 5.30783 1.22615   2
  -3  10   0 0.77448 1.03482   2
   3   7   0 0.36870 1.15993   2
   7   3   0 1.69499 0.99797   2
  10  -3   0 0.15165 0.96059   4
   7   3   0 -1.0214 0.96720   4
  -2  10   0 5.84323 1.41331   2
   2   8   0 6.32869 1.53902   2
  10  -2   0 8.44863 1.51098   4
   8   2   0 8.95086 1.37796   2
   8   2   0 6.62902 1.50495   4
   0   0  -1 -1.1293 0.12609   1
   0   0   1 -0.2080 0.10054   4
   0   0   1 -0.1692 0.09320   2
   0   0   1 -0.5188 0.18240   1
  -1   0  -1 1028.16 17.4601   3
   1   0   1 1004.95 17.7454   4
   0   1  -1 1019.76 17.4739   3
   1   0   1 1015.29 18.0174   1
  -1   1   1 1012.29 18.0526   1
   0  -1  -1 1038.19 18.3900   1
  -1   0  -1 1022.82 18.3376   1
   1   0   1 989.695 17.1451   3
  -1   1  -1 994.089 17.6954   2
  -1   0   1 1006.87 17.9175   1
  -1   0  -1 1016.74 18.2872   1
   1   0   1 1004.25 18.0265   1
  -1   0  -1 1035.92 17.7465   2
   0  -1  -1 1014.30 17.5243   3
   1   0  -1 1022.50 18.1905   1
   0   1   1 983.393 17.7101   4
   0  -1  -1 1032.23 18.3471   1
  -1   1   1 1013.92 17.5003   2
   0   1  -1 973.350 17.7896   1
   0   1   1 996.446 18.0302   1
   1  -1  -1 1040.01 18.3777   1
   0   1  -1 1020.36 17.8214   2
   1  -1  -1 1020.63 18.3932   1
  -1   1  -1 1008.42 18.0168   1
   1  -1   1 1018.91 17.7528   1
   0   1   1 988.592 17.5213   2
   1   0  -1 994.856 18.1789   1
   0  -1  -1 1016.91 18.0634   4
  -1   1  -1 1037.76 18.0248   1
  -1   1   1 1022.65 18.0978   1
   0   1   1 977.971 17.9904   1
   1   0   1 982.706 17.4140   2
  -1   0   1 1011.56 17.8779   1
   0   1  -1 991.249 17.8019   1
   1  -1  -1 1034.01 17.4800   3
   0  -1   1 986.572 17.5486   1
   0   1   1 996.304 17.1983   3
   1  -1   1 976.943 17.3680   2
   0  -1   1 998.079 17.5129   1
   2  -1  -1 0.41811 0.79702   1
  -1  -1   1 -0.0039 0.59928   1
   1   1   1 -0.5017 0.27223   4
  -1  -1  -1 0.04115 0.27751   3
  -1   2   1 -0.5219 0.62742   1
  -1   2  -1 -0.8248 0.18110   2
  -2   1   1 -0.5950 0.67010   1
  -1   2   1 -0.3479 0.20506   4
  -2   1   1 3.39496 0.92138   1
   1  -2  -1 -0.4197 0.22399   3
   2  -1   1 -0.6168 0.58180   1
  -2   1  -1 0.63155 0.65504   1
   1  -2  -1 -0.3947 0.64659   1
  -1   2  -1 -1.1199 0.48177   1
  -1  -1  -1 -0.7969 0.79035   1
  -1   2   1 -0.4091 0.77568   1
   1   1   1 -1.0230 0.75881   1
   1   1  -1 -0.9847 0.59521   1
   1  -2  -1 -0.7099 0.71568   1
  -2   1  -1 -0.8598 0.62010   1
   1   1   1 -0.9735 0.75112   1
   2  -1   1 -0.3961 0.60492   1
   2  -1   1 0.07885 0.15276   3
   1   1  -1 1.64447 0.67329   1
  -1   2   1 -0.6415 0.28976   2
   1   1   1 -0.4820 0.24451   2
  -1  -1   1 -1.2987 0.51866   1
   1  -2   1 -0.4436 0.47286   1
   1   1  -1 -0.6057 0.28269   2
   1  -2   1 -0.5593 0.15739   3
  -1   2  -1 1.11963 0.62033   1
   2  -1  -1 1.66456 0.86614   1
  -1  -1  -1 -0.6437 0.78819   1
   2   0  -1 3577.59 62.2677   1
  -2   0   1 3531.98 62.3300   1
  -2   2  -1 3559.69 62.0983   1
  -2   0  -1 3520.36 62.3357   1
  -2   2  -1 3534.33 61.7387   2
   0  -2  -1 3582.80 62.2347   1
   0   2  -1 3543.72 62.5504   4
   0  -2   1 3548.45 61.8630   1
  -2   0   1 3516.36 62.3202   1
   0   2  -1 3605.30 61.7471   1
   0  -2   1 3503.92 60.8239   3
   2  -2  -1 3602.41 62.3601   1
  -2   0  -1 3641.65 62.3815   1
  -2   2   1 3684.09 62.5470   1
  -2   2   1 3487.27 61.8921   2
   0   2  -1 3476.22 61.9313   2
   0  -2  -1 3586.52 62.3568   1
   0   2  -1 3600.34 61.7529   1
   0  -2  -1 3494.78 60.8155   3
   2  -2   1 3570.70 62.1242   1
   2   0   1 3632.78 62.3955   1
  -2   2  -1 3556.12 62.0306   1
   2  -2   1 3625.29 62.2334   1
   0   2   1 3652.10 62.4096   1
   0   2   1 3502.71 62.7156   4
  -2   2   1 3638.40 62.5421   1
   0   2   1 3507.83 62.0191   2
   2   0  -1 3566.96 62.2426   1
   2  -2  -1 3624.89 62.5101   1
   2   0   1 3450.49 61.8418   2
   2   0   1 3593.19 62.4508   1
  -2   0  -1 3543.81 60.7097   3
   2  -2  -1 3542.95 60.6656   3
   2   0   1 3540.96 62.8634   4
   0   2   1 3676.31 62.3953   1
   1   2   1 351.846 6.62222   4
  -3   2  -1 361.403 8.37167   1
  -2   3   1 343.732 6.56871   2
   3  -2  -1 363.971 8.58222   1
   1   2   1 350.948 6.61542   2
  -3   1   1 365.313 8.53550   1
   1   2   1 372.549 8.35976   1
   2  -3   1 346.371 6.16479   3
  -3   1   1 356.052 8.40783   1
   3  -1   1 351.758 6.33569   2
  -1   3  -1 363.554 6.43573   4
   3  -2  -1 360.004 8.65809   1
   2   1  -1 359.972 8.26375   1
  -2  -1  -1 351.718 8.46532   1
   1  -3  -1 353.089 8.45546   1
   3  -1   1 340.156 8.24260   1
   2  -3   1 336.794 6.28967   4
   2   1  -1 356.834 8.26232   1
  -1  -2   1 340.448 7.80458   1
  -2  -1  -1 362.875 8.55052   1
   2   1  -1 366.204 6.76017   2
   2  -3   1 351.235 7.87742   1
  -1   3  -1 366.629 7.97161   1
  -2   3   1 354.960 8.36167   1
  -1  -2   1 360.628 7.97879   1
  -3   2  -1 376.691 8.45926   1
   1  -3  -1 362.183 8.37382   1
   2  -3   1 357.059 8.00203   1
  -2   3   1 359.028 8.39302   1
  -1  -2   1 353.026 6.51427   3
   3  -1   1 344.804 8.37274   1
   1   2   1 354.677 8.35285   1
  -1   3  -1 356.924 7.93223   1
  -1   3  -1 351.946 6.71299   2
   1  -3  -1 367.655 6.59062   3
  -2  -1  -1 354.387 6.63482   3
  -1   3   1 347.426 8.28768   1
   1  -3   1 352.680 6.34072   3
  -3   1  -1 359.702 8.56470   1
   2   1   1 351.480 8.36128   1
   1  -3   1 342.511 6.27034   4
  -1  -2  -1 356.110 6.65233   3
  -1  -2  -1 368.246 8.48240   1
   1   2  -1 358.849 6.78298   2
   1   2  -1 359.629 8.03120   1
  -3   2   1 355.901 8.51848   1
   2   1   1 348.787 6.53598   2
   2   1   1 352.226 8.34824   1
  -3   2   1 356.073 8.43221   1
   2  -3  -1 364.207 8.61575   1
  -1  -2  -1 332.028 8.32788   1
   1  -3   1 345.623 7.77133   1
  -2   3  -1 357.681 8.07330   1
   2  -3  -1 362.375 8.50967   1
  -1   3   1 351.875 6.47807   4
  -2   3  -1 357.676 8.03787   1
  -2  -1   1 342.664 8.02747   1
   3  -1  -1 359.875 8.51498   1
  -1   3   1 352.136 6.63782   2
   3  -2   1 344.556 8.24306   1
   3  -1  -1 367.593 8.62216   1
  -2   3  -1 354.610 6.61164   2
  -1   3   1 351.229 8.28618   1
  -3   1  -1 364.373 8.53455   1
  -2   3  -1 357.878 6.31757   3
   2  -3  -1 369.327 6.50503   3
   1  -3   1 356.218 7.72647   1
   1   2  -1 352.877 8.01147   1
   2   1   1 356.315 6.71440   4
   3  -2   1 346.843 8.26509   1
  -2  -1   1 346.616 8.12626   1
   0  -3   1 578.634 12.3031   1
   0   3   1 603.780 11.1001   4
  -3   0  -1 610.226 10.8365   3
   0  -3  -1 599.015 12.8125   1
  -3   3  -1 630.844 12.8567   1
   3  -3  -1 610.669 10.6608   3
  -3   0   1 599.842 13.1208   1
   3  -3  -1 625.901 13.3330   1
   0   3   1 607.090 12.9298   1
   0   3  -1 596.656 11.1147   2
  -3   3   1 628.791 13.2535   1
   3   0   1 638.077 13.3098   1
   0   3  -1 609.011 12.4315   1
   3   0  -1 603.459 12.9594   1
   0   3  -1 607.934 12.3802   1
   0  -3   1 620.549 12.5201   1
   3   0  -1 606.526 13.0615   1
  -3   3  -1 603.889 12.8193   1
  -3   3   1 628.873 13.2139   1
   0  -3  -1 602.758 10.9169   3
   3   0   1 580.210 12.9862   1
   0  -3   1 618.164 10.8952   3
  -3   3  -1 603.668 10.8383   2
   3  -3   1 605.635 12.8121   1
   3  -3  -1 623.642 13.1728   1
  -3   3   1 629.803 11.0408   2
  -3   0  -1 606.902 13.1400   1
   3  -3   1 604.039 10.4796   3
   3   0   1 605.182 10.9456   2
   0   3   1 619.308 11.1828   2
  -3   0   1 587.545 12.9539   1
  -3   0  -1 613.163 13.0826   1
   0   3  -1 599.740 10.9377   4
   3  -3   1 609.414 12.8969   1
   0  -3  -1 596.388 12.9795   1
   3   0  -1 613.376 11.0458   2
   0   3   1 612.100 13.0411   1
   4  -2  -1 -0.0311 1.15696   1
   2  -4  -1 -0.5419 0.32716   3
   2   2   1 -0.8192 1.35493   1
  -2   4  -1 0.26423 0.94696   1
  -4   2   1 -0.0473 1.09424   1
   2   2  -1 1.25168 0.53376   2
   2  -4   1 0.02648 0.26352   3
   2  -4   1 -0.8896 0.87441   1
   4  -2  -1 -0.5710 1.20962   1
   2  -4   1 0.22548 0.14954   4
   2   2  -1 -1.6194 0.98972   1
   4  -2   1 -0.9982 0.99563   1
   2   2   1 0.71515 0.46512   4
  -2   4   1 -0.4420 1.38929   1
   2  -4  -1 -1.2870 1.10525   1
  -2   4  -1 -1.1062 0.95050   1
  -2   4   1 0.06577 0.24788   4
  -2  -2  -1 -0.8396 1.25118   1
   2   2   1 0.45865 0.45986   2
  -4   2   1 2.33199 1.41533   1
  -2   4   1 -0.5280 1.24529   1
  -2  -2   1 -1.4023 0.95757   1
  -2   4  -1 -0.2944 0.32604   2
   2   2  -1 -1.0220 1.10064   1
  -2  -2   1 2.01637 1.17142   1
   2   2   1 0.83812 1.49679   1
   2  -4   1 0.03178 1.02483   1
  -2   4   1 0.06044 0.45927   2
  -2  -2  -1 -0.5357 1.42670   1
  -4   2  -1 -0.6588 1.05741   1
   4  -2   1 -0.5193 1.17239   1
  -4   2  -1 0.37332 1.22856   1
   2  -4  -1 1.05893 1.40345   1
  -2  -2  -1 -0.0865 0.40639   3
  -3  -1  -1 8.17928 1.87879   1
  -1  -3   1 6.71824 0.62244   3
   1  -4  -1 8.62087 1.60111   1
   3   1  -1 11.6539 1.89478   1
   4  -1   1 8.87582 0.52345   2
   1  -4  -1 8.67382 1.62062   1
  -1  -3   1 9.59604 1.56248   1
   3   1  -1 7.35496 1.73175   1
   3  -4   1 5.90340 1.40140   1
  -3  -1  -1 9.78399 1.83239   1
   1  -4  -1 10.1641 0.66341   3
  -1   4  -1 9.32477 0.40648   4
  -4   1   1 8.79710 1.87286   1
   4  -3  -1 7.58053 1.65564   1
   3   1  -1 9.25249 0.67996   2
   3  -4   1 9.96620 0.43619   3
  -3   4   1 6.79124 1.59825   1
   4  -1   1 10.8530 1.98495   1
  -1   4  -1 10.0261 1.48219   1
   1   3   1 11.2971 1.91979   1
   1   3   1 8.38463 0.69466   2
   4  -1   1 7.84770 1.70200   1
   1   3   1 9.48462 0.65159   4
  -1   4  -1 9.27172 0.68169   2
  -3  -1  -1 8.11276 0.64158   3
   4  -3  -1 7.97064 1.81402   1
  -1  -3   1 11.9763 1.64287   1
  -3   4   1 8.49361 1.84771   1
  -3   4   1 8.00301 0.65715   2
  -4   1   1 8.48912 1.69531   1
   1   3   1 9.19172 1.81801   1
  -1   4  -1 7.17509 1.52586   1
   3  -4   1 8.87924 1.63315   1
  -4   3  -1 9.91666 1.63023   1
  -4   3  -1 5.58239 1.67722   1
   4  -1  -1 9.59377 1.75498   1
  -1   4   1 8.18607 1.61829   1
  -4   1  -1 9.30721 1.82464   1
   1  -4   1 7.61561 1.40304   1
   3  -4  -1 9.89005 1.71055   1
  -1   4   1 9.18584 0.54254   4
   1  -4   1 7.85543 1.42500   1
   3  -4  -1 9.07832 0.55085   3
   1   3  -1 8.10280 1.47433   1
  -1   4   1 12.0175 0.83349   2
  -3   4  -1 9.91057 1.63862   1
   3   1   1 8.31827 1.62722   1
  -3   4  -1 7.83453 0.57079   2
   3   1   1 9.41142 0.76397   4
   3   1   1 9.22747 1.86214   1
  -4   1  -1 11.2386 1.99902   1
  -3   4  -1 7.11358 1.53656   1
  -1  -3  -1 9.56042 1.68792   1
  -1   4   1 4.54836 1.43668   1
  -1  -3  -1 9.92852 0.74934   3
   4  -3   1 9.39343 1.67506   1
   1   3  -1 10.4131 1.58020   1
  -4   3   1 8.61998 0.59312   2
   1  -4   1 10.0991 0.64795   3
  -3  -1   1 10.6364 1.86023   1
   4  -3   1 7.85862 1.81221   1
  -4   3   1 9.01902 1.87141   1
  -4   3   1 10.9998 1.93174   1
   3   1   1 8.97020 0.65339   2
   4  -1  -1 10.1581 1.80208   1
   1   3  -1 8.94133 0.56492   4
   1   3  -1 8.97784 0.75410   2
  -1  -3  -1 8.99231 1.85551   1
   3  -4  -1 10.2843 1.89846   1
  -3  -1   1 8.28424 1.71500   1
   4   0  -1 389.871 7.53449   2
   0  -4   1 408.062 7.54821   3
  -4   0  -1 376.413 10.1283   1
   0   4  -1 396.990 7.35145   4
   4   0   1 391.849 10.3422   1
   4  -4   1 396.874 10.1675   1
   0  -4  -1 401.178 7.53434   3
   0   4  -1 391.185 7.68041   2
  -4   4   1 406.547 7.54209   2
   0  -4   1 397.026 9.62546   1
   0  -4  -1 389.582 10.0056   1
   4  -4  -1 398.011 10.3813   1
   4  -4   1 400.458 6.97489   3
  -4   4   1 391.272 10.3854   1
   4  -4   1 402.446 10.1357   1
   0  -4   1 406.444 9.75393   1
  -4   0   1 389.461 10.3204   1
   4  -4  -1 416.697 10.4912   1
   4   0  -1 400.030 10.3241   1
   0   4   1 407.785 7.80391   2
   0   4   1 382.946 10.0676   1
   0  -4  -1 385.448 10.1083   1
   0   4   1 399.794 7.54814   4
  -4   0   1 405.858 10.2803   1
   4   0   1 398.796 10.3580   1
   4  -4  -1 387.236 7.12961   3
  -4   0  -1 410.015 10.5764   1
   0   4  -1 410.365 9.67780   1
  -4   4  -1 393.898 7.30734   2
  -4   4   1 371.431 10.5634   1
   4   0   1 405.014 7.50540   2
  -4   4  -1 386.846 10.0405   1
  -5   2   1 10.7373 2.38199   1
   2   3   1 8.91232 1.99004   1
   2  -5  -1 9.60339 0.71690   3
   3   2  -1 10.8413 2.15973   1
   3  -5   1 8.07598 1.81835   1
  -2  -3   1 10.1127 1.92602   1
   5  -3  -1 10.0443 2.38965   1
  -2  -3   1 10.1497 2.07349   1
  -2   5  -1 9.02790 1.87653   1
  -2   5  -1 8.39034 0.77326   2
   5  -3  -1 4.83590 1.88963   1
  -3  -2  -1 9.10174 0.80244   3
   5  -2   1 10.2958 2.13048   1
   2   3   1 9.64157 0.84842   2
  -3   5   1 10.9680 0.84369   2
   3   2  -1 9.93627 0.84906   2
  -5   2   1 8.27237 2.24425   1
   5  -2   1 9.84196 2.28288   1
  -3   5   1 7.72790 2.12041   1
  -3  -2  -1 6.94534 2.13944   1
  -5   3  -1 11.6619 2.20626   1
   3  -5   1 9.33842 0.55609   3
   2   3   1 10.0066 0.79083   4
  -3  -2  -1 9.40276 2.10962   1
   3  -5   1 8.95854 1.87618   1
   2  -5  -1 11.3914 2.22653   1
   2  -5  -1 10.8628 2.00018   1
  -2   5  -1 10.6048 0.41985   4
   5  -3   1 9.74620 2.25047   1
  -2  -3  -1 5.87204 2.09702   1
  -2   5   1 7.21954 1.95567   1
   2  -5   1 6.55441 1.70361   1
  -3   5  -1 8.50120 0.73298   2
   2  -5   1 8.93492 0.65955   3
   2  -5   1 11.9008 1.94609   1
  -3  -2   1 9.39186 2.09321   1
  -2   5   1 8.39141 0.79262   2
   5  -3   1 10.5645 2.10661   1
   3   2   1 9.55129 0.80674   2
  -5   2  -1 10.2075 2.37539   1
   3  -5  -1 11.6130 2.28538   1
   3   2   1 14.7237 2.51145   1
   5  -2  -1 7.98352 1.99861   1
   2   3  -1 10.8875 0.89968   2
   5  -2  -1 10.9625 2.36871   1
   3  -5  -1 8.39747 0.63698   3
  -2  -3  -1 11.5088 0.88654   3
  -5   3   1 10.8469 2.40530   1
  -2   5   1 9.60952 0.58392   4
  -2  -3  -1 7.96553 1.94008   1
   2   3  -1 8.89121 1.78044   1
  -3   5  -1 9.49774 1.98167   1
   3   2   1 9.43772 0.81750   4
   2   3  -1 11.6219 0.78793   4
  -3  -2   1 10.5339 2.12909   1
   3  -5  -1 7.74585 1.95906   1
  -4  -1  -1 123.977 5.62313   1
  -4  -1  -1 142.450 5.96388   1
   4  -5   1 142.172 5.63063   1
   4   1  -1 127.006 5.58791   1
  -1   5  -1 136.292 3.28542   2
   1   4   1 139.602 5.68576   1
   5  -1   1 132.210 5.88098   1
   1   4   1 131.458 3.33559   2
  -5   1   1 139.727 5.90575   1
   5  -4  -1 131.151 2.77461   3
   1  -5  -1 135.750 3.15407   3
  -1  -4   1 134.349 5.35304   1
  -4   5   1 139.069 5.87757   1
  -5   4  -1 132.273 2.84249   2
  -1   5  -1 139.716 5.27311   1
  -4   5   1 133.569 3.15370   2
   1  -5  -1 140.704 5.68955   1
   1   4   1 132.901 3.10976   4
   4   1  -1 130.207 3.17593   2
  -1  -4   1 137.196 3.26952   3
  -1  -4   1 134.262 5.22159   1
   4  -5   1 137.829 5.53961   1
  -5   4  -1 134.271 5.71169   1
   5  -1   1 136.721 2.96993   2
   1  -5  -1 140.258 5.59785   1
   5  -4  -1 136.211 5.93337   1
  -1   5  -1 130.815 2.70322   4
   5  -4  -1 127.013 5.84815   1
   5  -1   1 135.452 5.85279   1
   4  -5   1 136.450 2.65772   3
  -5   1   1 133.718 5.87526   1
  -1   5   1 133.816 2.92557   4
  -4   5  -1 120.741 5.23395   1
   1   4  -1 132.938 3.30924   2
  -5   1  -1 147.398 6.04599   1
  -1  -4  -1 135.496 3.27089   3
   4  -5  -1 136.160 2.85697   3
  -1  -4  -1 153.557 5.86885   1
   1   4  -1 131.560 2.97456   4
   4   1   1 142.320 5.93514   1
  -4   5  -1 133.857 2.99761   2
  -4  -1   1 125.094 5.63975   1
   1  -5   1 133.183 3.09565   3
   4  -5  -1 129.615 5.68370   1
   5  -4   1 133.081 2.58450   3
   5  -4   1 141.099 5.87517   1
   4  -5  -1 129.387 5.68390   1
  -1  -4  -1 138.595 5.59686   1
  -1   5   1 134.961 5.57872   1
   1  -5   1 134.703 5.15791   1
   5  -1  -1 126.821 5.63417   1
   4   1   1 136.630 3.38512   4
   5  -1  -1 137.470 3.11269   2
  -5   4   1 129.219 5.76164   1
  -5   4   1 135.750 3.03858   2
  -1   5   1 139.678 3.37638   2
   1   4  -1 135.435 5.28581   1
   4   1   1 131.449 3.14740   2
   1  -5   1 137.234 5.32702   1
  -4  -1   1 147.547 5.80442   1
   5  -4   1 133.906 5.72378   1
  -5   0  -1 153.124 6.66077   1
  -5   5   1 162.202 6.70572   1
   5  -5  -1 155.642 3.20544   3
   5  -5  -1 138.297 6.36495   1
   5   0   1 154.406 3.81698   4
   0  -5   1 145.335 5.79078   1
  -5   5  -1 147.886 6.21102   1
   5   0   1 159.661 6.70990   1
   0   5  -1 157.294 5.90078   1
   0  -5   1 152.033 3.56783   3
   0  -5  -1 166.076 6.52826   1
   0   5  -1 162.303 3.84078   2
  -5   0   1 148.540 6.44575   1
  -5   5   1 153.715 3.43755   2
   5   0  -1 155.742 3.60574   2
   5  -5  -1 163.535 6.75899   1
   0  -5   1 145.907 5.71731   1
  -5   5  -1 154.545 3.34119   2
   0  -5  -1 163.129 3.72618   3
   0   5   1 148.374 3.71987   2
   5   0  -1 154.769 6.54037   1
   5   0   1 149.932 3.41120   2
   5  -5   1 151.452 6.34471   1
   0   5   1 154.622 6.24479   1
   0   5  -1 155.517 3.29892   4
  -5   0   1 140.405 6.32391   1
   5  -5   1 141.578 6.12209   1
   5  -5   1 153.037 2.85713   3
   0  -5  -1 162.292 6.43414   1
   0   5   1 155.035 3.38070   4
   6  -3  -1 1.59573 1.98683   1
   3   3   1 0.31152 1.75761   1
  -3   6   1 0.29267 1.64894   1
  -3  -3  -1 0.19131 1.85886   1
   3  -6   1 0.01825 1.53602   1
  -6   3  -1 -0.5225 1.67952   1
   3   3  -1 0.31141 0.61898   2
  -3   6  -1 -0.0140 0.45280   2
  -3   6   1 -0.8035 0.44386   2
   6  -3   1 -0.1600 1.92574   1
  -3  -3  -1 1.69362 1.99888   1
   3   3   1 0.19971 0.48328   2
   3  -6   1 0.59270 0.36818   3
   3   3   1 -0.1545 0.49530   4
  -3   6  -1 0.96575 1.78178   1
  -3  -3   1 0.06235 1.66458   1
   6  -3   1 1.19098 1.79316   1
   3  -6  -1 0.41271 0.40783   3
   3   3  -1 0.21078 0.44014   4
   3  -6  -1 1.69168 2.04997   1
  -3  -3   1 -1.5495 1.46211   1
  -3  -3  -1 0.05301 0.57861   3
   3  -6   1 -1.4933 1.59881   1
   3  -6  -1 0.88421 1.66656   1
  -6   3   1 1.81522 2.03065   1
   3   3  -1 -0.1339 1.67003   1
  -2  -4   1 57.8298 3.99722   1
  -4  -2  -1 55.0208 4.20810   1
  -6   2   1 53.0114 4.39572   1
   4  -6   1 54.0308 1.42887   3
   2  -6  -1 56.0715 1.81436   3
  -6   4  -1 61.2482 4.44573   1
   4   2  -1 54.6518 1.97122   4
   4  -6   1 49.0951 3.82577   1
   6  -2   1 48.6949 3.96428   1
  -2   6  -1 54.9262 3.73516   1
   4   2  -1 52.2619 1.91799   2
  -2   6  -1 51.2075 1.24229   4
  -2  -4   1 50.3250 3.80101   1
   2  -6  -1 50.5359 4.00174   1
  -4   6   1 54.5343 4.14292   1
   2   4   1 51.9641 1.81536   4
   2   4   1 60.8345 4.28879   1
   4   2  -1 51.5255 4.03574   1
   6  -2   1 54.7711 1.57375   2
   4  -6   1 54.3535 3.92479   1
  -2   6  -1 51.8714 1.87377   2
   6  -4  -1 51.6371 4.39667   1
   2  -6  -1 45.8726 3.75201   1
   2   4   1 54.8269 2.01391   2
  -4   6   1 54.1848 1.86267   2
  -4  -2  -1 54.0005 4.25266   1
   4   2   1 53.3292 4.10118   1
  -2  -4  -1 54.9000 1.96043   3
  -4   6  -1 51.7684 1.74118   2
   2  -6   1 54.9064 1.73314   3
   2   4  -1 51.9695 1.72453   4
  -2   6   1 57.0786 2.02368   2
  -6   4   1 57.2387 4.51991   1
  -2   6   1 53.9946 1.50309   4
  -4   6  -1 47.8114 3.65571   1
   4  -6  -1 52.8302 4.22548   1
   4  -6  -1 55.7757 4.32482   1
   2   4  -1 53.7258 3.78523   1
   4   2   1 53.6309 1.97181   4
   2  -6   1 55.3748 3.80417   1
  -4  -2   1 49.3950 4.01763   1
  -2  -4  -1 53.0863 4.11604   1
   6  -4   1 54.6808 4.30496   1
  -2  -4  -1 54.5469 4.19763   1
  -6   2  -1 58.0942 4.30588   1
   6  -4   1 53.7378 4.26952   1
  -2   6   1 54.7612 4.05609   1
   2   4  -1 52.2022 1.97259   2
   4   2   1 53.1634 1.85832   2
  -4  -2   1 57.7378 4.22398   1
   2  -6   1 57.6424 3.84612   1
   6  -2  -1 56.7440 4.43437   1
   4  -6  -1 51.8552 1.56536   3
   6  -5  -1 10.0657 0.64265   3
   5  -6   1 8.17526 2.26662   1
  -5  -1  -1 5.93574 2.72549   1
   1   5   1 8.34228 0.77743   4
  -1   6  -1 9.78093 0.95684   2
   1  -6  -1 10.0994 2.48745   1
   1   5   1 9.08692 2.62607   1
  -5   6   1 8.04447 0.82057   2
   1   5   1 6.59050 0.95781   2
  -1   6  -1 9.09817 0.55285   4
   6  -1   1 9.78719 2.75970   1
  -6   1   1 8.09068 2.47034   1
   1  -6  -1 9.31947 0.87591   3
   6  -1   1 9.24362 0.73053   2
  -5   6   1 7.07285 2.34357   1
  -1   6  -1 9.90388 2.56377   1
  -1  -5   1 7.23817 0.91618   3
  -6   5  -1 6.35980 2.59790   1
   6  -5  -1 8.68117 2.83667   1
   5   1  -1 8.80749 0.87362   2
   5   1  -1 9.71351 2.74824   1
  -1  -5   1 6.97855 2.22543   1
  -1   6   1 7.81733 0.64929   4
  -5  -1   1 13.1835 2.98485   1
  -1  -5  -1 9.32334 2.54584   1
   5  -6  -1 6.55938 2.34165   1
   5   1   1 8.69767 0.92907   4
   1  -6   1 14.9650 2.56989   1
  -1  -5  -1 8.57441 0.92832   3
  -5   6  -1 5.54296 2.07483   1
   5   1   1 4.82491 2.48729   1
  -1   6   1 8.13391 2.42858   1
  -1  -5  -1 5.14410 2.53008   1
   6  -5   1 6.18676 2.35152   1
   6  -1  -1 9.77331 2.75782   1
   5  -6  -1 8.92120 0.63995   3
  -5  -1   1 3.47073 2.28067   1
   5   1   1 6.97910 0.77956   2
  -1   6   1 8.34890 0.93082   2
   1   5  -1 7.82133 0.69779   4
  -6   1  -1 7.32635 2.67173   1
  -6   5   1 6.65623 2.71957   1
   1   5  -1 12.8874 2.46528   1
   6  -5   1 9.21198 2.73701   1
   1   5  -1 9.08990 0.99215   2
   6  -1  -1 7.69776 0.76736   2
  -5   6  -1 9.86262 0.78071   2
   5  -6  -1 6.12401 2.79683   1
   1  -6   1 9.12791 0.83636   3
   6  -6   1 3.57875 2.29650   1
   6  -6  -1 3.64121 0.51985   3
   0   6  -1 2.31902 0.48336   4
   0   6  -1 3.07757 0.85099   2
  -6   6  -1 2.10357 0.53094   2
   0  -6  -1 2.87810 2.64122   1
   0   6   1 1.88881 0.76506   2
   6   0   1 2.23781 0.59325   2
  -6   6  -1 2.88620 2.48585   1
   6   0  -1 3.94457 0.72776   2
  -6   0   1 -0.9694 2.46642   1
   0  -6   1 0.28582 1.81159   1
  -6   6   1 3.85372 0.69735   2
  -6   0  -1 5.38978 2.85484   1
   6  -6  -1 1.33655 2.20839   1
   0   6   1 3.68445 0.61610   4
   6   0   1 -2.1444 2.15647   1
   0   6   1 4.27665 2.56400   1
   0  -6  -1 3.38956 0.76292   3
   6   0  -1 2.11174 2.47548   1
   6   0   1 2.87924 0.82006   4
  -6   6   1 3.99790 2.50986   1
   0  -6   1 3.58584 0.77251   3
  -4  -3  -1 29.2409 3.88433   1
  -7   3   1 27.2919 4.03279   1
  -3   7  -1 23.6281 1.38845   2
   4   3  -1 25.7320 1.44451   4
   3  -7  -1 27.9006 1.31050   3
   4  -7   1 25.1211 1.07686   3
   4   3  -1 27.3600 3.71069   1
   3  -7  -1 32.8024 3.86914   1
  -4   7   1 19.8234 3.48890   1
  -7   4  -1 22.4258 3.47668   1
   4  -7   1 22.7725 3.12471   1
  -3  -4   1 20.3099 3.20168   1
   4   3  -1 27.0292 1.50954   2
   7  -4  -1 26.2922 3.86532   1
   7  -3   1 24.6994 1.06108   2
   7  -3   1 25.2083 3.59742   1
  -4   7   1 27.0737 1.46384   2
   3   4   1 24.6595 3.71052   1
   3   4   1 26.6936 1.52770   2
   3   4   1 25.7241 1.40334   4
   3  -7   1 22.7959 1.14902   3
   4   3   1 25.3557 1.41101   2
   3  -7   1 28.5441 3.28153   1
   3   4  -1 26.8583 1.52178   2
   4  -7  -1 24.3299 1.16594   3
  -3  -4  -1 26.5405 1.52516   3
  -3  -4  -1 31.0712 3.96747   1
  -3   7   1 24.8449 1.47305   2
  -7   3  -1 22.1878 3.47265   1
   3   4  -1 25.7937 1.34941   4
  -4  -3   1 27.2094 3.46421   1
   4  -7  -1 22.9326 3.44428   1
   4   3   1 24.6473 1.45362   4
   4   3   1 21.4159 3.47275   1
   7  -4   1 28.3695 3.90832   1
  -7   4   1 19.8681 3.49845   1
   7  -3  -1 28.6413 3.99099   1
  -4   7  -1 25.1809 1.36472   2
   2  -7  -1 78.0028 5.38465   1
   7  -2   1 78.6159 2.18376   2
  -5   7   1 73.1113 5.55155   1
   5  -7   1 74.5996 5.17606   1
   7  -5  -1 74.1356 5.60707   1
  -5  -2  -1 75.4148 5.46679   1
  -7   2   1 94.3540 6.13169   1
  -2   7  -1 82.1451 2.65751   2
  -2  -5   1 83.3483 5.36629   1
   2   5   1 82.6371 2.75517   2
   5   2  -1 74.9772 2.63909   4
  -5   7   1 78.9230 2.49802   2
   2   5   1 80.9404 2.45499   4
  -7   5  -1 71.7298 5.41228   1
   2  -7  -1 80.8745 2.43907   3
   5   2  -1 75.4533 5.25539   1
   5   2  -1 81.4174 2.60931   2
   7  -2   1 63.5567 5.36784   1
   5  -7  -1 76.9210 5.34227   1
  -7   2  -1 76.0293 5.80283   1
   7  -5   1 77.7486 5.55063   1
  -2   7   1 83.8814 2.77295   2
   7  -2  -1 70.1532 5.49005   1
   2   5  -1 74.3059 2.62136   2
  -2  -5  -1 82.7492 2.71200   3
  -2  -5  -1 79.3267 5.43587   1
   2   5  -1 78.0162 2.32043   4
   5   2   1 86.9932 5.73299   1
  -5  -2   1 77.1360 5.41380   1
  -7   5   1 77.3753 5.52599   1
   2  -7   1 80.3712 2.38803   3
  -5   7  -1 75.6884 2.33289   2
   5  -7  -1 79.1568 2.11306   3
   2  -7   1 76.0064 4.96122   1
   7  -2  -1 78.0867 2.33110   2
   5   2   1 80.9827 2.72309   4
   5   2   1 82.2713 2.57264   2
  -1  -6   1 7.91297 2.72870   1
   1  -7  -1 8.32912 0.99412   3
   1   6   1 8.97605 1.23556   2
  -1  -6   1 8.75894 1.10603   3
   1   6   1 5.99737 0.80672   4
   7  -1   1 6.98818 1.11814   4
  -1   7  -1 8.58662 1.17361   2
  -6  -1  -1 12.4000 3.46805   1
   1  -7  -1 5.23419 2.60430   1
   6   1  -1 7.55924 0.97879   2
   6   1  -1 11.4757 3.14177   1
   7  -1   1 8.10756 0.84701   2
  -7   1   1 13.2592 3.31102   1
   7  -6  -1 8.00497 3.46204   1
   6  -7   1 9.61564 2.81481   1
  -6   7   1 7.56162 0.93073   2
   7  -1   1 4.83316 3.01315   1
   6   1   1 8.34420 3.01932   1
   6   1   1 5.29402 0.82391   2
   7  -1  -1 7.75005 0.91644   2
  -7   1  -1 6.77908 3.14866   1
   6   1   1 6.75545 1.04254   4
   1   6  -1 8.85751 1.14385   2
   7  -1  -1 3.36560 2.61574   1
   6  -7  -1 9.68574 3.06867   1
   1  -7   1 8.72479 0.97298   3
  -7   6   1 3.97505 3.16486   1
  -1   7   1 7.72663 1.19214   2
  -1  -6  -1 5.05281 2.81726   1
   1  -7   1 8.39631 2.86655   1
  -6   7  -1 7.89247 0.83398   2
   1   6  -1 7.51342 0.80125   4
  -1  -6  -1 8.20720 1.10642   3
   7  -6   1 8.02114 3.10625   1
  -6  -1   1 7.93563 2.97147   1
   7   0  -1 0.52338 0.65690   2
   7   0   1 3.51243 3.61856   1
   0  -7  -1 1.34893 0.78020   3
  -7   0  -1 0.63573 3.53457   1
  -7   0   1 3.57719 3.05016   1
   0   7   1 0.30815 0.82293   2
   7  -7  -1 0.46200 2.71020   1
   0  -7   1 0.54256 0.85511   3
   7   0   1 -0.6468 0.90393   4
   7   0  -1 0.99018 2.83845   1
   7   0   1 1.14209 0.65880   2
   0   7  -1 0.37891 0.98679   2
  -7   7   1 1.57408 0.68894   2
   4   4   1 1.14140 0.85547   2
  -4  -4   1 1.40484 2.53222   1
   8  -4  -1 1.12056 2.83684   1
  -4   8   1 -0.1305 0.82159   2
   4  -8  -1 0.42008 0.58697   3
  -8   4  -1 -1.2841 2.81974   1
   4  -8  -1 0.08619 3.00507   1
   4   4   1 0.03986 0.66452   4
  -8   4   1 1.89708 2.89097   1
   8  -4   1 -1.4330 2.64866   1
  -4  -4  -1 -1.0894 2.77528   1
   4  -8   1 -0.5058 2.71336   1
   4   4  -1 -1.1023 0.53534   4
  -4   8  -1 0.05771 0.67616   2
   4   4  -1 0.74768 0.79749   2
   3  -8  -1 1.53524 0.70883   3
  -3   8  -1 2.44361 0.84473   2
   3   5   1 2.81962 0.75951   4
   8  -5  -1 0.96057 2.89890   1
  -8   3   1 0.66403 3.38115   1
   5   3  -1 5.18233 1.01974   2
   8  -3   1 5.45268 3.33638   1
   3   5   1 3.26639 0.94413   2
  -5   8   1 4.05252 0.93799   2
  -5  -3  -1 3.30394 3.47666   1
   5   3  -1 2.47845 0.88384   4
   5   3   1 3.76798 0.85990   2
   5   3   1 3.78638 0.90783   4
  -5   8  -1 4.04261 0.82573   2
   3   5  -1 3.29368 0.79442   4
   8  -3  -1 3.40167 3.41781   1
  -3   8   1 3.92701 1.03825   2
  -8   3  -1 1.76593 3.15080   1
  -3  -5  -1 2.08955 0.83625   3
   8  -3  -1 3.05255 0.72450   2
  -8   5   1 7.52991 3.24630   1
   8  -5   1 2.03097 3.22699   1
   3  -8   1 2.86031 0.68349   3
  -3  -5  -1 3.10054 3.31935   1
   3   5  -1 2.20558 0.86277   2
  -6   8   1 1.56991 0.75115   2
  -8   2   1 0.38194 3.20550   1
   2   6   1 1.38585 0.73714   4
  -2   8  -1 0.97640 0.88804   2
   2  -8  -1 -0.1306 0.61795   3
   8  -6  -1 0.27537 3.32671   1
   6   2  -1 0.81367 0.75313   2
   6   2  -1 0.89775 0.83981   4
   8  -2   1 6.97498 3.50950   1
  -6  -2  -1 -1.6758 3.39364   1
   2   6   1 1.97455 0.97420   2
   8  -2   1 2.11039 0.92925   4
   2  -8   1 1.24125 0.69717   3
  -8   2  -1 3.35093 3.43505   1
   6   2   1 1.53496 0.84244   4
   2   6  -1 1.84673 0.97398   2
  -2  -6  -1 0.68936 0.81699   3
   6   2   1 1.20392 0.80234   2
  -2   8   1 0.89104 0.87349   2
   2   6  -1 0.89682 0.63573   4
   8  -2  -1 1.12237 3.17236   1
  -6   8  -1 0.67105 0.68560   2
   8  -2  -1 0.83415 0.60709   2
   8  -1   1 6.20572 1.21538   4
  -7   8   1 6.21802 0.95494   2
   7   1  -1 5.97872 1.04680   2
   8  -1   1 3.83122 3.68704   1
   7   1  -1 5.66077 1.21537   4
   1  -8  -1 5.39832 1.01964   3
   1   7   1 6.25804 1.13289   2
  -1   8  -1 5.24478 1.20500   2
   8  -1  -1 3.99076 0.88831   2
   7   1   1 3.93432 0.86385   2
  -1  -7  -1 4.21940 1.02428   3
   1  -8   1 3.87824 0.93602   3
  -8   1  -1 5.81434 3.94017   1
  -1   8   1 3.81290 1.17765   2
   7   1   1 5.26501 1.13308   4
   1   7  -1 4.81447 1.08567   2
   8   0  -1 -0.4561 0.67434   2
   8   0  -1 1.32765 1.02344   4
   8   0   1 -0.1270 1.02253   4
   0  -8  -1 0.00714 0.80562   3
   0   8   1 -0.3070 1.02761   2
   0   8  -1 -0.8532 0.97988   2
  -5   9   1 1.62146 1.00379   2
   4   5   1 -0.3503 0.73965   4
   5   4  -1 0.58081 0.84762   2
  -9   4   1 -1.6444 3.70016   1
   4   5   1 1.58919 0.98305   2
  -4   9  -1 1.94591 0.97499   2
   5   4  -1 2.22056 0.90888   4
   4   5  -1 0.84536 1.04626   2
   5   4   1 1.49523 0.99553   4
   4   5  -1 2.71454 0.95049   4
  -4   9   1 1.97026 0.98960   2
   5   4   1 2.80963 1.05738   2
  -5   9  -1 1.87549 0.84898   2
   6   3  -1 9.05809 1.23436   2
   3   6   1 9.35888 1.41262   2
   6   3  -1 6.07871 1.17600   4
   3   6   1 5.22164 1.02994   4
   3  -9  -1 6.93489 1.06689   3
  -3   9  -1 7.98488 1.35462   2
  -6   9   1 6.87863 1.08494   2
   9  -3   1 7.52654 1.22812   4
  -6   9  -1 5.70156 1.06676   2
  -3   9   1 8.00939 1.32201   2
   3   6  -1 8.55089 1.40686   2
   9  -3  -1 5.88571 4.37370   1
   6   3   1 8.97420 1.30332   4
   6   3   1 8.19230 1.25439   2
   3   6  -1 8.36870 1.06784   4
   7   2  -1 5.39174 1.11748   2
  -2   9  -1 5.93160 1.27607   2
   7   2  -1 5.25491 1.15156   4
  -7   9   1 6.72300 1.06006   2
   2   7   1 3.71397 1.20542   2
   9  -2   1 6.63025 1.24872   4
   2  -9  -1 6.45954 1.08167   3
   2  -9   1 7.64334 1.11281   3
   2   7  -1 6.17798 1.36185   2
   7   2   1 5.19182 1.07013   2
  -2   9   1 7.55349 1.33811   2
   7   2   1 7.07630 1.34964   4
  -2  -7  -1 6.08153 1.28905   3
   8   1  -1 -1.0402 0.82334   4
   8   1  -1 -0.3258 0.78637   2
   1   8   1 1.30576 1.07084   2
   1  -9  -1 1.69694 0.94176   3
   9  -1   1 0.92486 1.04518   4
  -1   9  -1 -0.2440 1.09982   2
  -1   9   1 0.61468 1.01349   2
   1   8  -1 -0.1199 0.95982   2
   9  -1  -1 -1.7341 1.03748   4
   8   1   1 1.46834 1.04985   4
  -1  -8  -1 0.58857 1.00089   3
   0  -9  -1 0.77647 1.09701   3
   9   0  -1 2.96867 1.24979   4
   9   0   1 1.92600 1.16148   4
   0   9   1 1.14651 1.12530   2
   0   9  -1 0.00615 1.23003   2
  -5  10  -1 -0.0956 0.89232   2
   5   5  -1 -0.4549 0.99547   2
   5   5  -1 0.58193 0.98633   4
   5   5   1 -1.6544 0.93923   2
  -5  10   1 -0.0805 1.02395   2
   5   5   1 0.25840 1.01459   4
   4   6   1 0.93550 1.16318   2
   6   4  -1 0.52834 1.07102   2
   6   4  -1 0.12017 0.89239   4
   4   6   1 0.93169 0.98441   4
  10  -4   1 0.82194 0.97471   4
  -6  10   1 0.14618 0.88552   2
  -4  10  -1 1.29940 1.13145   2
   4   6  -1 0.35744 1.05140   2
   6   4   1 1.41968 0.99761   2
   6   4   1 1.19050 0.98539   4
  -4  10   1 0.15398 1.08199   2
  -3  10  -1 1.01665 1.14394   2
   7   3  -1 0.59625 1.03312   2
   7   3  -1 1.85667 1.07760   4
   3   7   1 1.85801 1.25960   2
  10  -3   1 0.44226 0.98040   4
  -3  10   1 2.09148 1.13870   2
   7   3   1 0.31928 1.00078   2
   3   7  -1 2.43308 1.19321   2
   7   3   1 0.98839 1.04273   4
  10  -2   1 -1.3338 1.13641   4
   8   2  -1 0.27971 1.07560   2
   8   2  -1 -0.0564 1.06945   4
  -2  10  -1 -1.1283 1.15642   2
   2   8   1 -0.4932 1.04434   2
  -2  10   1 0.64473 1.12842   2
   2   8  -1 0.53031 1.10481   2
   8   2   1 -0.2638 1.19557   4
  10  -2  -1 0.98494 1.13286   4
   0   0  -2 1388.63 24.3026   1
   0   0  -2 1420.41 24.3684   2
   0   0  -2 1376.26 24.7194   4
   0   0  -2 1381.06 24.3161   1
   0   0   2 1502.83 25.6614   2
   0   0   2 1449.52 25.5791   1
   0   0   2 1449.24 26.0343   4
   0   1   2 3589.35 66.8156   2
  -1   1  -2 3903.48 66.3086   1
   1   0  -2 3808.28 66.6043   1
   1   0   2 4085.01 66.6451   1
   1   0   2 3835.44 67.6750   4
   1  -1   2 3942.26 66.1477   1
  -1   0  -2 3976.65 66.8004   1
   0   1   2 3867.15 66.7253   1
  -1   1  -2 3849.40 67.8241   4
   1  -1  -2 3801.56 66.9291   1
   0   1   2 3900.76 67.6812   4
   1   0   2 3998.83 66.5640   1
   0   1  -2 3767.15 67.8241   4
   1  -1  -2 3948.18 65.7831   3
   1   0   2 3625.13 65.5488   3
  -1   1   2 3829.86 67.7229   4
  -1   0  -2 3705.37 65.7515   3
  -1   1   2 3860.70 66.8022   2
  -1   0   2 3883.48 66.4096   1
  -1   1  -2 3932.10 65.6599   3
   1  -1   2 3921.12 66.0873   1
  -1   1  -2 3895.81 66.2946   1
   0   1   2 3980.73 66.7440   1
   0  -1  -2 3739.39 65.8299   3
   0  -1  -2 3944.32 66.9018   1
  -1   1   2 3861.43 66.7020   1
   0  -1  -2 3974.29 67.0068   1
  -1   0  -2 4043.47 66.8297   1
   1   0   2 3602.24 66.6816   2
   0   1  -2 3893.14 66.9615   2
   0   1  -2 3805.30 65.9739   1
  -1   1   2 3983.62 66.7520   1
   1  -1  -2 3897.47 66.9044   1
  -1   1  -2 3871.42 66.8784   2
   1   0  -2 3860.88 66.5638   1
   1  -1   2 3770.48 67.5835   4
  -1   0  -2 3729.31 66.9195   2
   2  -1   2 549.207 9.94662   4
   2  -1   2 532.582 9.46253   3
   2  -1  -2 632.688 12.4556   1
  -1  -1  -2 604.988 12.4171   1
   2  -1   2 525.281 10.8475   1
   2  -1  -2 626.988 12.3662   1
   1   1   2 546.889 11.2386   1
  -1   2   2 538.174 9.90705   2
   1  -2   2 557.498 10.2604   1
   1  -2   2 542.263 10.2120   1
   1   1   2 544.570 11.1809   1
  -1   2  -2 615.071 10.7274   3
   1   1   2 547.862 9.83448   2
  -1   2  -2 616.447 11.0118   2
  -1   2   2 556.563 11.2792   1
  -1  -1  -2 621.307 10.9466   3
  -1   2  -2 644.774 11.4861   1
   1  -2  -2 620.752 12.4607   1
  -1   2  -2 605.859 11.4219   1
  -2   1  -2 619.144 12.1604   1
   1   1  -2 619.796 11.7348   1
   2  -1   2 549.679 10.9120   1
   1   1  -2 616.775 11.1526   2
  -2   1  -2 625.071 12.1532   1
   1  -2  -2 616.426 10.9324   3
   1  -2  -2 626.023 12.5764   1
  -1   2   2 539.839 9.94908   4
  -2   1   2 571.242 11.1868   1
  -2   1  -2 619.063 10.7060   3
   1   1  -2 614.364 11.7373   1
  -1  -1  -2 629.065 12.4346   1
  -1  -1   2 557.742 10.5475   1
   1   1   2 542.395 10.0118   4
  -2   1   2 556.582 11.2307   1
  -1   2   2 549.453 11.2779   1
   0  -2   2 2377.40 41.8739   1
  -2   0  -2 2508.67 44.2861   3
   2   0   2 2328.79 41.7798   2
   2  -2   2 2385.50 42.2739   1
  -2   2  -2 2542.75 44.9486   2
   2  -2  -2 2629.39 46.2790   1
  -2   0   2 2428.61 42.6751   1
   0   2   2 2382.06 42.0225   2
   0  -2   2 2421.43 41.8289   1
  -2   2   2 2476.13 43.1433   1
   2   0  -2 2565.69 45.7410   1
   2   0   2 2388.99 42.8499   1
   0   2  -2 2547.51 44.9940   1
   0  -2  -2 2610.71 46.0549   1
   2   0   2 2401.71 42.8141   1
   2  -2   2 2499.68 42.6420   1
   2   0  -2 2583.79 45.7866   1
  -2   0  -2 2649.21 46.0773   1
  -2   2   2 2393.62 41.9564   2
   0  -2  -2 2529.28 44.4017   3
  -2   2  -2 2602.33 45.5094   1
   0   2   2 2429.92 42.4978   4
  -2   2   2 2529.31 43.1057   1
  -2   2  -2 2631.94 45.4362   1
   0   2   2 2403.07 42.8970   1
   2  -2   2 2353.22 42.2951   4
   0  -2  -2 2569.16 46.1103   1
   2   0   2 2360.19 42.5483   4
  -2   0  -2 2677.09 46.1218   1
   0   2   2 2451.16 42.9627   1
   2  -2  -2 2656.55 44.3420   3
   2  -2  -2 2647.01 46.1993   1
  -2   0   2 2410.67 42.6163   1
   0   2  -2 2559.00 45.1780   2
   2  -2   2 2309.19 41.6925   2
  -3   2  -2 722.425 14.4828   1
  -2   3   2 673.513 14.1220   1
  -2   3   2 659.602 12.0584   4
   3  -2  -2 724.827 14.9164   1
   3  -2  -2 713.622 14.7984   1
   1  -3  -2 709.253 12.6785   3
  -1  -2   2 678.686 13.3408   1
   1  -3  -2 710.418 14.8273   1
   1   2   2 666.700 12.1745   4
   3  -1   2 657.123 13.7168   1
  -2   3   2 662.151 12.0552   2
   3  -1   2 683.534 12.1995   4
  -2  -1  -2 702.176 12.6599   3
  -2  -1  -2 714.584 14.7506   1
  -1   3  -2 709.369 13.6555   1
   2   1  -2 713.249 14.2930   1
  -3   1   2 664.615 13.8838   1
  -3   1   2 660.525 13.7424   1
  -1   3  -2 726.685 13.7134   1
   1   2   2 662.796 13.9375   1
  -1   3  -2 708.575 12.8392   2
  -2  -1  -2 710.199 14.8355   1
   1   2   2 665.769 13.9055   1
   1  -3  -2 747.137 14.7468   1
   2   1  -2 722.888 12.9490   2
   1   2   2 667.484 12.0388   2
   3  -1   2 652.920 13.7507   1
   3  -1   2 666.797 11.6869   2
  -3   2  -2 737.686 14.5602   1
  -2   3   2 647.585 13.8999   1
   2   1  -2 704.538 14.2081   1
  -1  -2   2 656.655 13.1036   1
   2  -3   2 689.055 13.1675   1
  -1  -2  -2 712.487 14.8064   1
  -2   3  -2 728.105 13.9037   1
  -3   2   2 656.872 14.0311   1
   1   2  -2 721.149 13.9570   1
   2   1   2 668.090 12.2173   4
   2  -3  -2 714.471 12.6149   3
  -3   1  -2 723.057 14.7370   1
   1   2  -2 714.067 13.9130   1
   2   1   2 652.039 13.8679   1
  -1   3   2 668.291 13.9694   1
   3  -2   2 655.801 11.6050   2
  -2   3  -2 720.571 13.9304   1
  -2   3  -2 706.352 12.7220   2
  -3   2   2 674.206 13.9551   1
   3  -1  -2 709.195 14.7554   1
  -1  -2  -2 733.016 14.7468   1
  -1   3   2 695.305 13.9985   1
  -2   3  -2 692.087 12.3062   3
  -1  -2  -2 714.397 12.7294   3
   3  -2   2 643.002 13.5058   1
  -2  -1   2 683.826 13.5470   1
  -3   1  -2 726.862 14.7015   1
   3  -2   2 658.996 13.5601   1
   2   1   2 659.535 13.8649   1
  -3   1  -2 713.007 12.4537   3
  -1   3   2 667.660 12.0579   4
   1  -3   2 673.269 12.8535   1
   2  -3  -2 717.735 14.9508   1
   1   2  -2 711.436 12.9548   2
   3  -1  -2 715.900 14.7891   1
   2  -3  -2 722.161 14.8147   1
   2   1   2 653.106 11.9285   2
   3  -2   2 672.541 11.4042   3
  -1   3   2 676.036 12.1065   2
  -2  -1   2 629.040 13.2215   1
   0   3  -2 551.048 9.96211   4
   0   3   2 510.257 11.3833   1
  -3   0  -2 590.124 12.4942   1
   0   3  -2 554.117 11.2049   1
   3  -3   2 496.488 10.8358   1
  -3   3   2 503.859 9.19782   2
   0  -3   2 484.335 10.3168   1
   0  -3  -2 545.573 12.3253   1
  -3   3  -2 559.083 9.84069   2
   0   3   2 496.879 9.25021   4
   0   3  -2 549.112 11.1707   1
   0  -3  -2 557.020 10.0455   3
   3   0   2 495.531 11.3588   1
   0   3   2 507.559 11.3957   1
   0   3  -2 554.508 10.2000   2
  -3   3   2 491.890 11.5667   1
   3  -3  -2 551.767 12.4860   1
   0   3   2 496.476 9.30586   2
   3  -3   2 507.035 10.8931   1
  -3   0   2 483.739 11.0584   1
  -3   3  -2 556.877 11.6532   1
   0  -3  -2 548.259 12.2071   1
  -3   0  -2 549.090 9.89985   3
   3   0  -2 550.348 11.9995   1
  -3   3  -2 548.083 11.7555   1
   3   0   2 492.082 9.00910   2
   3   0  -2 522.833 11.9317   1
  -3   3   2 503.965 11.4722   1
   3   0   2 504.888 9.42188   4
  -3   0   2 507.631 11.2858   1
   3   0   2 499.390 11.3444   1
   3  -3  -2 561.968 9.84434   3
  -3   0  -2 564.428 12.3006   1
   3  -3  -2 556.893 12.4051   1
   2  -4  -2 1063.69 18.6618   3
   4  -2   2 1060.75 21.1320   1
  -2   4   2 1039.67 21.3285   1
  -2   4  -2 1066.37 20.4403   1
  -2  -2  -2 1052.98 21.3049   1
  -4   2   2 1075.04 21.5324   1
  -2   4   2 1060.51 21.4645   1
   2  -4   2 1071.45 20.3212   1
   2   2   2 1072.74 18.9526   2
   2   2   2 1053.20 19.1898   4
  -2   4  -2 1085.07 18.9820   2
   2  -4   2 1057.24 18.2599   3
  -2  -2  -2 1055.76 18.7878   3
   2   2  -2 1084.68 20.8642   1
   2  -4   2 1084.85 20.4299   1
  -2   4   2 1043.27 18.9710   2
  -4   2  -2 1057.79 21.3429   1
   4  -2  -2 1098.01 21.7128   1
   4  -2   2 1079.54 21.1762   1
  -4   2  -2 1050.45 21.3312   1
   2  -4  -2 1050.10 21.3778   1
   2   2   2 1006.80 21.0871   1
   2   2  -2 1038.46 19.1226   2
  -2   4  -2 1102.49 20.5347   1
   2  -4  -2 1049.25 21.5469   1
  -2  -2   2 1068.63 20.5475   1
   4  -2  -2 1082.93 21.6999   1
  -2  -2  -2 1057.16 21.5182   1
  -2  -2   2 1049.24 20.6453   1
  -4   2   2 1036.20 21.3026   1
   2   2  -2 1050.14 20.6992   1
  -2   4   2 1039.86 18.9610   4
   2   2   2 1044.25 21.3262   1
  -1   4  -2 789.205 14.4280   2
   4  -1   2 829.853 14.7628   4
  -4   1   2 784.258 17.0309   1
   3   1  -2 792.547 14.4904   2
   1  -4  -2 789.271 16.8312   1
   3  -4   2 792.137 16.2193   1
  -4   3  -2 810.082 16.7499   1
   4  -1   2 789.930 16.9907   1
   3  -4   2 818.291 16.3425   1
  -1  -3   2 813.555 16.1474   1
  -3   4   2 797.735 14.4666   2
   3   1  -2 808.613 16.6554   1
   1   3   2 790.616 16.9497   1
   1   3   2 802.174 14.5912   4
  -3  -1  -2 786.990 14.1863   3
  -3   4   2 782.400 17.0499   1
  -4   3  -2 798.785 16.7761   1
   1   3   2 799.694 14.5323   2
  -3   4   2 797.590 17.1838   1
   4  -3  -2 798.301 17.3233   1
  -1  -3   2 777.816 15.9076   1
   3  -4   2 802.905 13.6747   3
   1   3   2 796.254 17.0041   1
   1  -4  -2 798.495 14.2083   3
  -1   4  -2 794.814 15.7898   1
  -3  -1  -2 769.942 16.8634   1
   3   1  -2 795.512 16.6203   1
  -3  -1  -2 790.598 17.1380   1
  -1   4  -2 798.562 15.8491   1
   4  -3  -2 802.386 17.0223   1
   1  -4  -2 768.042 16.8741   1
  -4   1   2 808.277 16.9653   1
   4  -1   2 796.547 16.9323   1
   4  -1   2 795.968 14.0980   2
  -1  -3  -2 797.926 14.2764   3
   1   3  -2 812.674 14.5490   2
   1  -4   2 807.570 14.0539   3
  -4   3   2 783.868 17.0509   1
   1  -4   2 804.139 15.9037   1
   4  -1  -2 794.711 16.8762   1
  -3   4  -2 798.951 16.2023   1
   3   1   2 782.458 16.8891   1
  -4   1  -2 790.486 17.0473   1
   3  -4  -2 796.010 17.1928   1
   3   1   2 792.616 17.0640   1
  -3   4  -2 793.182 13.6641   3
  -3  -1   2 784.767 16.6005   1
  -1   4   2 799.792 16.9337   1
  -1  -3  -2 810.754 17.0449   1
  -1  -3  -2 791.285 16.8288   1
   1   3  -2 784.792 15.9823   1
  -4   1  -2 782.583 16.8921   1
  -3   4  -2 803.974 14.2213   2
   3   1   2 769.015 14.6864   4
   1   3  -2 811.828 16.1512   1
   3   1   2 791.291 14.3458   2
  -4   3   2 799.934 14.3658   2
   4  -3   2 814.938 16.7180   1
   3  -4  -2 791.174 14.0319   3
  -4   3   2 775.278 17.1121   1
   4  -1  -2 795.910 17.0503   1
  -1   4   2 792.583 17.0174   1
  -1   4   2 794.223 14.5523   2
  -1   4   2 778.067 14.4354   4
   3  -4  -2 805.077 17.0857   1
   4  -3   2 798.282 16.7213   1
  -3  -1   2 783.668 16.5150   1
  -3   4  -2 803.231 16.2198   1
   1   3  -2 781.697 14.3976   4
   0   4   2 301.775 6.22381   2
  -4   4   2 306.158 6.05896   2
  -4   0  -2 354.976 9.62887   1
   4  -4  -2 343.858 9.77067   1
   0  -4  -2 358.574 6.83170   3
   0   4  -2 360.596 8.63350   1
  -4   4  -2 344.532 6.46269   2
   0   4  -2 342.499 6.50628   4
   4   0   2 312.977 5.91244   2
  -4   4  -2 345.757 9.03659   1
  -4   0   2 320.836 8.80243   1
  -4   0  -2 348.054 6.65267   3
   0  -4   2 309.858 7.80839   1
  -4   4   2 297.220 8.93397   1
  -4   0   2 315.327 8.79144   1
  -4   0  -2 350.603 9.67094   1
   0   4   2 306.130 8.78197   1
   4   0   2 318.023 8.96530   1
   0   4   2 308.618 6.05914   4
   0  -4  -2 356.010 9.61244   1
   4  -4   2 304.912 8.32287   1
   4  -4   2 322.798 8.52677   1
   4  -4  -2 345.827 6.50191   3
   4   0  -2 358.593 6.86431   2
   4   0  -2 348.757 9.39928   1
   0  -4  -2 360.329 9.57824   1
   0  -4   2 295.978 7.79376   1
   0   4  -2 346.290 6.90781   2
   4   0   2 307.395 6.32263   4
  -4   4   2 302.689 9.01238   1
   4   0   2 293.301 8.74601   1
   4  -4  -2 352.784 9.69758   1
  -3   5   2 928.862 19.9398   1
  -5   3  -2 899.185 19.4739   1
  -3  -2  -2 926.770 19.9205   1
  -3  -2  -2 896.554 16.3071   3
  -2   5  -2 924.433 16.5171   2
   3   2  -2 905.925 19.1549   1
   2  -5  -2 902.031 16.2025   3
   2   3   2 904.994 16.8993   4
  -2  -3   2 916.364 19.0345   1
   3   2  -2 909.533 16.6303   2
  -3  -2  -2 909.055 19.5774   1
   5  -2   2 901.421 19.6707   1
   2  -5  -2 898.281 19.6993   1
   5  -3  -2 897.118 20.3150   1
   3  -5   2 906.966 18.7834   1
   3  -5   2 918.522 15.9262   3
   5  -3  -2 912.683 19.9664   1
   2   3   2 932.852 19.9186   1
   3  -5   2 933.592 18.9541   1
  -3   5   2 928.857 16.7454   2
   2  -5  -2 921.373 19.5845   1
   5  -2   2 913.609 16.2026   2
  -2   5  -2 907.009 18.4531   1
  -2  -3   2 932.737 18.9163   1
  -5   2   2 894.216 19.9890   1
   5  -2   2 898.077 19.7330   1
  -5   2   2 928.080 19.9841   1
   2   3   2 925.110 16.7866   2
   3   2   2 904.138 16.9478   4
   2   3  -2 901.350 16.6353   4
  -3  -2   2 951.260 19.4607   1
   2  -5   2 919.024 18.6584   1
  -5   3   2 924.629 20.1558   1
   3  -5  -2 896.512 16.0796   3
  -2   5   2 901.952 16.7692   2
   2   3  -2 907.498 16.6713   2
  -2   5   2 888.691 19.7144   1
   2  -5   2 917.433 18.7083   1
  -2   5   2 902.671 16.5915   4
  -3  -2   2 923.050 19.1643   1
   2   3  -2 919.885 18.8749   1
  -2  -3  -2 875.547 19.4389   1
   3  -5  -2 865.141 19.5277   1
   3  -5  -2 923.585 19.8980   1
   5  -2  -2 905.595 19.8418   1
  -2  -3  -2 910.621 16.3769   3
   3   2   2 925.033 19.9213   1
   5  -3   2 889.663 19.6162   1
  -2  -3  -2 911.900 19.6730   1
   5  -3   2 885.876 19.4932   1
   3   2   2 953.387 16.7194   2
  -3   5  -2 935.592 18.7247   1
  -5   2  -2 927.903 19.8121   1
  -5   3   2 908.437 19.8353   1
  -3   5  -2 905.828 16.3771   2
   2  -5   2 918.994 16.1090   3
   5  -1   2 90.8715 4.90692   1
   1  -5  -2 103.331 2.64843   3
   4   1  -2 102.527 2.68596   2
   5  -1   2 87.9442 4.80532   1
   5  -4  -2 97.0778 5.19690   1
  -1   5  -2 100.888 2.06409   4
   1   4   2 87.2790 2.50912   2
   4  -5   2 88.0707 4.37351   1
   4   1  -2 99.6722 4.80451   1
  -4  -1  -2 107.706 5.50127   1
  -1   5  -2 93.6975 4.18643   1
  -5   1   2 89.5900 4.91584   1
   1   4   2 91.1330 2.35805   4
  -4   5   2 85.0294 2.35490   2
   5  -1   2 84.3612 2.04766   2
  -4  -1  -2 114.361 5.30959   1
  -5   4  -2 98.4932 4.83884   1
   4  -5   2 96.4143 4.50942   1
  -4   5   2 86.7627 4.86084   1
  -4  -1  -2 98.8960 2.59863   3
   1  -5  -2 113.152 5.23903   1
  -1   5  -2 106.882 2.72194   2
   1   4   2 78.6733 4.44777   1
   5  -1   2 91.0438 2.58543   4
   5  -4  -2 95.6979 5.18290   1
  -5   1   2 93.2623 4.87826   1
  -1  -4   2 88.2863 4.14217   1
  -1  -4   2 88.4512 4.07794   1
   5  -4  -2 103.504 2.34947   3
   1  -5  -2 97.6796 4.94307   1
  -5   4   2 86.8672 4.99360   1
   1   4  -2 98.5916 2.73510   2
   1   4  -2 106.229 2.40800   4
   5  -1  -2 99.3242 5.05145   1
   4  -5  -2 106.345 5.37997   1
   1   4  -2 104.394 4.44526   1
   4   1   2 85.8232 2.28045   2
  -4  -1   2 78.4796 4.39852   1
  -4  -1   2 91.9121 4.59316   1
   1  -5   2 92.0758 4.09016   1
   4  -5  -2 102.193 5.26364   1
  -5   1  -2 104.491 5.31167   1
  -1   5   2 89.2613 2.19272   4
  -1  -4  -2 98.7437 4.98855   1
  -5   4   2 88.7551 2.29462   2
   4   1   2 85.0813 2.49779   4
   5  -4   2 74.4372 4.35254   1
   1  -5   2 88.4431 2.26722   3
  -1   5   2 82.6808 4.55932   1
   4   1   2 83.8872 4.65516   1
  -1  -4  -2 107.269 5.13081   1
  -4   5  -2 108.709 4.63822   1
   5  -4   2 91.2497 4.65813   1
  -1  -4  -2 101.443 2.70889   3
  -4   5  -2 105.181 2.40187   2
   1  -5   2 93.2904 4.10149   1
  -1   5   2 84.9691 2.49742   2
   4  -5  -2 102.460 2.39784   3
  -5   5  -2 197.641 7.20669   1
   5  -5  -2 216.393 8.04008   1
   0   5   2 186.843 4.42845   2
   0   5   2 192.633 7.24554   1
   5  -5   2 193.375 7.05903   1
  -5   0   2 175.103 7.05154   1
   5  -5   2 198.773 7.08747   1
  -5   0   2 191.952 7.33805   1
   0  -5  -2 215.936 4.68326   3
   0  -5  -2 221.654 7.77816   1
  -5   0  -2 212.956 7.97510   1
   5   0  -2 206.915 7.55502   1
   0   5   2 194.168 4.13721   4
   5  -5  -2 203.722 7.89081   1
  -5   5   2 187.885 4.17580   2
  -5   5  -2 213.387 4.19633   2
   0   5  -2 202.752 4.16867   4
   0  -5   2 198.077 6.45587   1
   0   5  -2 216.870 6.82954   1
   5   0  -2 208.382 4.62177   2
   5   0   2 190.097 4.04922   2
   0  -5  -2 206.266 7.61732   1
   0  -5   2 174.090 6.26653   1
   5  -5  -2 212.218 4.23930   3
   0   5  -2 213.978 4.75686   2
   5   0   2 196.608 4.53024   4
   5   0   2 190.069 7.42927   1
  -5   5   2 182.371 7.46802   1
   3   3  -2 103.894 5.11410   1
  -6   3   2 90.4106 5.35860   1
  -3   6  -2 104.820 4.83674   1
  -3  -3  -2 107.128 5.70013   1
   6  -3   2 98.9045 5.47154   1
  -3   6   2 97.4851 2.78167   2
  -6   3  -2 102.413 5.51766   1
   3   3   2 98.2856 5.37327   1
  -3  -3   2 102.395 5.04755   1
   3   3  -2 100.271 2.71724   4
  -3  -3  -2 103.273 2.83506   3
  -3   6  -2 104.384 2.71211   2
   3   3   2 100.180 2.76853   4
   6  -3  -2 98.4711 5.53480   1
  -3  -3  -2 106.094 5.66848   1
   3  -6  -2 102.965 5.58539   1
  -3  -3   2 110.209 5.13466   1
   6  -3   2 97.2564 2.16557   2
   3   3   2 106.725 2.83938   2
   3  -6   2 98.4406 2.30791   3
   3  -6   2 91.5706 4.70807   1
  -3   6   2 96.6087 2.38051   4
   3  -6  -2 97.3944 5.38420   1
   3  -6  -2 98.7615 2.59274   3
   3  -6   2 98.3475 4.68270   1
   3   3  -2 100.893 2.87558   2
   6  -3   2 103.579 5.57881   1
  -3   6   2 94.1405 5.36652   1
   4  -6   2 109.790 2.30457   3
   2  -6  -2 130.139 3.17696   3
  -6   4  -2 134.917 6.22498   1
  -2   6  -2 127.471 3.27005   2
   4  -6   2 108.251 5.22004   1
   2   4   2 109.562 3.05804   2
  -4   6   2 119.088 5.99246   1
  -6   2   2 103.634 5.83423   1
   4   2  -2 126.114 5.76098   1
   6  -2   2 112.514 2.48913   2
  -2   6  -2 121.086 5.20862   1
   6  -2   2 115.245 3.14233   4
   2   4   2 113.604 5.85941   1
   2  -6  -2 125.373 6.11513   1
  -2  -4   2 110.150 5.23000   1
  -4  -2  -2 128.657 3.28900   3
   6  -2   2 108.606 5.77780   1
   4   2  -2 131.134 3.35598   2
   6  -4  -2 134.942 6.62329   1
   2   4   2 107.778 2.91178   4
  -4  -2  -2 134.420 6.45358   1
  -4   6   2 112.150 2.98533   2
   2  -6  -2 134.436 6.22761   1
   4   2   2 121.503 2.99273   2
   4  -6  -2 130.984 3.00456   3
   4   2   2 112.126 3.09641   4
  -2   6   2 98.0365 5.50919   1
  -2  -4  -2 129.703 6.03977   1
   2  -6   2 103.639 2.65280   3
  -4   6  -2 125.246 5.51920   1
   2   4  -2 129.687 3.08976   4
  -6   4   2 100.953 5.82805   1
   2  -6   2 115.779 5.08133   1
  -2  -4  -2 127.341 3.33223   3
  -2  -4  -2 129.866 6.24172   1
   2   4  -2 124.836 3.35529   2
   6  -2  -2 129.205 6.37896   1
   4   2   2 109.957 5.82719   1
   6  -4   2 121.056 5.91702   1
  -4   6  -2 130.612 3.06655   2
  -6   2  -2 125.014 6.31472   1
   4  -6  -2 135.310 6.41392   1
  -2   6   2 112.860 3.09876   2
  -2   6   2 108.400 2.61004   4
   2   4  -2 130.305 5.56505   1
   6  -4   2 91.4192 5.38768   1
  -4  -2   2 121.460 5.64194   1
  -4  -2   2 109.344 5.53172   1
   4  -6  -2 122.120 6.16386   1
  -1  -5   2 98.5132 4.98149   1
   6  -1   2 101.447 2.48273   2
   5   1  -2 101.846 5.62235   1
  -5   6   2 99.8400 5.87343   1
   1   5   2 101.555 2.97274   2
   5  -6   2 94.8818 5.28519   1
   6  -1   2 103.338 3.05176   4
   6  -5  -2 105.344 6.10559   1
   1  -6  -2 110.796 2.92423   3
   1  -6  -2 95.7845 5.48348   1
   1  -6  -2 99.0164 5.62075   1
  -6   5  -2 98.5737 5.53147   1
   6  -1   2 99.5173 5.89293   1
  -1   6  -2 100.292 2.93740   2
   6  -5  -2 105.167 2.48410   3
  -6   1   2 99.8463 5.86109   1
  -5  -1  -2 111.330 6.12588   1
   5   1  -2 108.934 2.95820   2
   1   5   2 100.198 2.71111   4
   1   5   2 107.435 5.73219   1
  -5   6   2 98.4997 2.76082   2
   5  -6  -2 103.860 2.53077   3
   1  -6   2 100.406 2.70020   3
  -1  -5  -2 96.9822 5.62842   1
   6  -5   2 95.4368 5.54208   1
   1  -6   2 110.288 4.99967   1
  -5  -1   2 98.1313 5.63463   1
  -1   6   2 99.0858 5.54772   1
  -1  -5  -2 106.122 3.00320   3
   5   1   2 96.0836 5.78596   1
   5   1   2 102.363 2.69919   2
   6  -1  -2 101.685 2.79048   2
  -6   1  -2 95.3006 5.86623   1
  -1  -5  -2 111.744 5.78339   1
  -1   6   2 97.8396 2.52256   4
   5  -6  -2 106.090 6.00227   1
  -5   6  -2 106.749 2.57948   2
   5   1   2 101.513 2.99192   4
  -1   6   2 103.373 3.00014   2
  -5   6  -2 106.803 5.43679   1
   1   5  -2 104.643 3.03001   2
  -5  -1   2 94.4181 5.49754   1
  -6   5   2 93.9275 5.82649   1
   1   5  -2 103.772 2.54426   4
   6  -1  -2 112.404 5.95913   1
  -6   6  -2 47.2437 1.50103   2
  -6   6   2 40.5711 4.23038   1
  -6   0   2 47.7146 4.50052   1
   6   0  -2 43.9983 4.40743   1
   0   6  -2 52.6114 2.09647   2
   6   0  -2 50.5962 1.92190   2
   0   6   2 51.0262 4.37167   1
   0  -6   2 49.1271 3.87588   1
   0   6   2 46.8331 1.67750   4
   6  -6  -2 50.2300 4.64707   1
   6   0   2 49.3580 2.11571   4
   0  -6  -2 58.6799 4.72035   1
   0   6   2 45.2963 2.03595   2
   6  -6   2 43.7069 4.12837   1
   6  -6  -2 52.2117 1.58957   3
  -6   0  -2 50.2177 4.72155   1
   0  -6  -2 50.2773 2.02300   3
   6   0   2 42.2346 4.51629   1
  -6   6   2 44.5387 1.72819   2
   6   0   2 46.3892 1.64421   2
   4   3  -2 52.2227 2.03585   4
   3   4   2 43.0761 1.91127   2
   3   4   2 39.2302 4.06141   1
  -7   3   2 43.0384 4.67159   1
  -4  -3  -2 52.1996 4.69391   1
  -3   7  -2 57.0163 2.04878   2
  -7   4  -2 60.9298 5.06065   1
   4   3  -2 50.9690 2.08276   2
   3   4   2 41.2567 1.79575   4
   4  -7   2 49.2468 4.04238   1
   7  -4  -2 53.8609 4.95536   1
  -3  -4   2 56.0026 4.42127   1
  -4  -3  -2 53.4125 2.11469   3
   3  -7  -2 51.0144 4.69959   1
  -4   7   2 54.1269 4.70181   1
  -4   7   2 43.6693 1.87274   2
   3  -7  -2 48.9940 1.83728   3
   7  -3   2 49.8814 4.77937   1
   3   4  -2 55.5793 2.17271   2
   4   3   2 46.2513 1.89870   2
   3   4  -2 50.9779 1.88223   4
  -3   7   2 44.5969 1.48577   4
   7  -3  -2 53.8554 5.00218   1
  -7   3  -2 54.9740 4.98959   1
   4  -7  -2 54.4022 1.82324   3
   3  -7   2 44.6208 1.54648   3
   3  -7   2 53.0808 4.01571   1
   4   3   2 47.2626 1.97520   4
  -3  -4  -2 53.6728 2.13556   3
   4  -7  -2 50.1486 4.78349   1
  -3   7   2 44.4619 4.33117   1
  -3  -4  -2 58.5567 4.83092   1
   4   3   2 43.7894 4.32499   1
   7  -4   2 37.4520 4.26797   1
  -7   4   2 37.9038 4.29084   1
  -4  -3   2 43.9684 4.13619   1
  -3   7   2 49.0035 2.02388   2
  -4   7  -2 53.8072 1.92259   2
  -5   7   2 27.1884 4.07139   1
   2   5   2 27.4877 1.43884   4
   2   5   2 26.4926 3.67097   1
  -2  -5   2 25.8180 3.30913   1
  -5  -2  -2 30.5365 4.27901   1
  -5   7   2 25.0600 1.46624   2
   7  -2   2 29.7583 4.11266   1
   7  -5  -2 33.1381 1.28416   3
   2  -7  -2 34.8326 1.61424   3
   7  -5  -2 29.8993 4.19421   1
   2  -7  -2 32.4379 4.12874   1
   7  -2   2 27.0541 1.66853   4
   5  -7   2 24.4060 3.29438   1
   2   5   2 27.4966 1.58640   2
  -7   2   2 28.3249 4.08872   1
  -2   7  -2 34.6773 1.68235   2
   5   2  -2 32.4429 1.68834   2
   5   2   2 26.9365 4.13153   1
  -5   7  -2 36.6706 1.48012   2
   2   5  -2 33.5588 1.75850   2
  -7   5   2 25.7039 4.04109   1
   2  -7   2 26.7219 3.22634   1
  -2   7   2 29.3903 1.68137   2
   5  -7  -2 32.8318 1.34798   3
  -2   7   2 26.1195 1.16652   4
  -2  -5  -2 35.2967 1.74646   3
   5   2   2 27.6633 1.62346   4
  -2  -5  -2 34.1740 4.00623   1
   7  -5   2 31.7889 4.11271   1
   5  -7  -2 26.5007 3.99766   1
   2   5  -2 32.9892 1.40524   4
   2  -7   2 28.6095 1.36160   3
   5   2   2 27.7057 1.46677   2
   7  -2  -2 37.8966 4.48754   1
  -5  -2   2 29.7237 3.71215   1
  -7   2  -2 35.5294 4.35711   1
   6  -7   2 117.715 6.51327   1
  -6  -1  -2 128.074 7.44253   1
   6   1  -2 130.397 3.54339   2
  -6   7   2 128.830 7.14796   1
   7  -1   2 127.972 7.32848   1
   1  -7  -2 119.281 6.84602   1
   1   6   2 127.977 3.32477   4
   7  -1   2 127.866 3.13422   2
  -6   7   2 122.171 3.35770   2
  -1  -6   2 128.368 6.30659   1
   7  -6  -2 120.770 7.31176   1
   1  -7  -2 124.691 3.48997   3
   7  -1   2 130.727 3.80825   4
  -7   1   2 110.738 6.91613   1
   1   6   2 124.459 3.67747   2
  -1   7  -2 132.994 3.65987   2
   6   1   2 126.716 3.35562   2
   1   6  -2 134.099 3.73519   2
  -1   7   2 129.637 3.73866   2
   7  -1  -2 109.145 6.77235   1
  -1  -6  -2 113.484 6.91320   1
  -6  -1   2 130.921 7.23606   1
  -7   1  -2 130.685 7.48197   1
   6  -7  -2 118.166 7.12269   1
   1  -7   2 127.086 6.19341   1
  -7   6   2 126.944 7.43900   1
  -1   7   2 117.761 3.06390   4
   6   1   2 130.551 3.76422   4
   6   1   2 129.108 7.23183   1
  -6   7  -2 118.612 3.05538   2
  -1  -6  -2 126.995 3.64230   3
   7  -6   2 114.351 6.69734   1
   7  -1  -2 120.556 3.33943   2
  -7   7   2 110.702 3.09791   2
   0   7  -2 109.910 3.46336   2
   0   7   2 110.078 2.99437   4
  -7   0   2 100.891 6.81922   1
   7  -7  -2 94.9494 6.90519   1
   7   0   2 116.383 3.65640   4
  -7   0  -2 108.899 7.33252   1
   0  -7  -2 108.834 3.37653   3
   7   0  -2 103.775 3.19024   2
   7   0   2 94.9892 6.94895   1
   7   0   2 111.581 3.03663   2
   0   7   2 111.460 3.58032   2
   8  -4   2 27.4361 4.23222   1
  -4  -4  -2 27.2273 4.27021   1
  -4  -4  -2 29.1126 1.74996   3
   4   4  -2 32.7818 1.65586   4
  -4   8  -2 31.7307 1.63760   2
   8  -4  -2 25.0491 4.18581   1
   4  -8  -2 36.4830 4.50728   1
   4   4  -2 32.0618 1.81626   2
  -4   8   2 31.7483 1.79260   2
   4   4   2 29.2521 1.71819   2
  -8   4   2 34.5492 4.75329   1
   4   4   2 28.6717 1.69792   4
   4  -8  -2 29.8593 1.47551   3
   8  -3   2 37.5764 4.76889   1
   8  -3   2 46.1921 2.15407   4
   3   5   2 43.0621 1.94599   4
  -3   8  -2 46.0256 2.03184   2
   8  -5  -2 50.3822 5.69812   1
   3  -8  -2 43.3028 1.87084   3
  -5  -3  -2 50.1989 5.34024   1
   5   3  -2 48.1435 2.17359   2
   5   3  -2 44.6642 2.05583   4
  -5   8   2 44.8787 2.03903   2
  -8   3   2 36.9046 4.73151   1
   3   5   2 41.4539 2.04699   2
   5   3   2 40.6401 1.94767   2
   5   3   2 43.6342 2.09190   4
  -3  -5  -2 45.3439 2.15682   3
  -3   8   2 43.4677 2.10818   2
  -5   8  -2 41.3020 1.79511   2
  -3  -5  -2 34.7216 4.91386   1
   8  -3  -2 54.4490 5.46487   1
   8  -5   2 36.5887 4.65304   1
   5   3   2 44.5996 5.15763   1
  -8   5   2 41.9895 5.33508   1
   3   5  -2 44.5817 2.12050   2
   3   5  -2 40.1185 1.76391   4
  -8   3  -2 43.0034 5.11186   1
  -8   2   2 18.0839 4.02450   1
  -6   8   2 22.6791 1.46420   2
   6   2  -2 22.4276 1.54912   2
   8  -6  -2 15.0971 4.38290   1
  -2   8  -2 23.5661 1.63325   2
   8  -2   2 22.1992 1.67242   4
   2   6   2 21.9511 1.64102   2
  -6  -2  -2 19.3129 4.59163   1
   2  -8  -2 22.7085 1.48913   3
   8  -2   2 19.3661 4.22056   1
   6   2  -2 23.4393 1.66950   4
   2   6   2 22.2557 1.41888   4
   6   2   2 21.5413 1.66499   4
  -8   2  -2 34.6660 5.12871   1
   8  -2  -2 25.1861 4.40583   1
  -8   6   2 16.2547 4.38706   1
  -2  -6  -2 23.8180 1.67140   3
  -2   8   2 22.2013 1.70095   2
   6   2   2 18.1623 4.36102   1
   2   6  -2 22.9147 1.68013   2
   6   2   2 20.1757 1.41523   2
   8  -2  -2 21.9129 1.38306   2
  -1   8  -2 18.1990 1.60144   2
   8  -1   2 17.0879 4.29841   1
   1   7   2 18.3510 1.33197   4
   1  -8  -2 20.9414 1.55843   3
   8  -1   2 23.4727 1.78479   4
   7   1  -2 18.6787 1.45975   2
  -7   8   2 19.0635 1.40065   2
   1   7   2 20.3991 1.68500   2
  -1   8   2 21.3398 1.68818   2
   7   1   2 25.5341 4.64690   1
   8  -1  -2 19.9104 1.42681   2
  -1  -7  -2 17.2808 1.48722   3
  -8   1  -2 12.8005 4.35472   1
   7   1   2 20.8664 1.40202   2
   7   1   2 19.9999 1.68327   4
   1   7  -2 18.6681 1.60406   2
   8   0   2 8.69688 1.29726   4
   0   8   2 7.27806 1.33773   2
   0   8  -2 9.74755 1.33691   2
   8   0  -2 9.53987 1.22627   2
   0  -8  -2 9.35909 1.33842   3
   5   4  -2 45.6363 2.15122   4
   4   5   2 37.9523 2.16992   2
  -5   9   2 41.0859 2.14356   2
   5   4  -2 43.9998 2.31547   2
   4   5   2 39.2856 2.08803   4
   9  -4   2 41.6781 2.20771   4
  -4   9  -2 42.2386 2.10827   2
   4   5  -2 42.9379 2.00996   4
  -9   5   2 37.2229 5.73376   1
  -5   9  -2 41.1970 2.01529   2
   5   4   2 43.5025 2.25299   4
  -4   9   2 42.9410 2.26330   2
   9  -5   2 46.9518 2.22429   4
   5   4   2 43.4860 2.24208   2
   9  -4  -2 40.1744 6.01238   1
   4   5  -2 41.5794 2.26719   2
  -4  -5  -2 42.5053 2.27642   3
  -3   9  -2 10.2310 1.38394   2
   3  -9  -2 7.93398 1.08632   3
   6   3  -2 7.19928 1.19434   4
   9  -3   2 7.41890 1.25576   4
  -6   9   2 8.18256 1.15110   2
   6   3  -2 6.54094 1.13462   2
   3   6   2 8.19753 1.12323   4
   3   6   2 5.51891 1.26276   2
  -3  -6  -2 6.56208 1.31923   3
   6   3   2 6.28270 1.21556   4
   6   3   2 8.30663 1.23323   2
   3   6  -2 8.45108 1.30450   2
  -3   9   2 7.08008 1.22352   2
   2  -9  -2 4.79632 1.09407   3
   7   2  -2 8.28395 1.34371   4
  -7   9   2 5.42052 1.04316   2
  -2   9  -2 5.99858 1.20828   2
   2   7   2 5.37035 1.31130   2
   9  -2   2 4.85123 1.19361   4
   7   2  -2 5.91537 1.20116   2
   2   7  -2 6.28466 1.31368   2
  -2   9   2 6.66022 1.26147   2
   7   2   2 3.86962 0.95100   2
  -2  -7  -2 9.24551 1.33742   3
   7   2   2 4.96989 1.15916   4
   8   1  -2 4.42681 1.21546   4
   1  -9  -2 3.03865 1.13018   3
  -1   9  -2 4.78445 1.35035   2
   9  -1   2 4.71832 1.23915   4
   1   8   2 3.48876 1.26555   2
   8   1  -2 6.54766 1.16767   2
  -1  -8  -2 4.11855 1.23187   3
   8   1   2 8.18697 1.48165   4
   1   8  -2 6.17693 1.37608   2
  -1   9   2 3.18121 1.19887   2
   0  -9  -2 2.19204 1.09412   3
   9   0  -2 4.38803 1.28882   4
   0   9  -2 2.96414 1.26599   2
   9   0   2 -0.0115 1.20863   4
   0   9   2 -0.4348 1.19008   2
  -5  10  -2 4.95074 1.12358   2
  -5  10   2 5.71386 1.26023   2
  10  -5   2 5.91219 1.27175   4
   5   5  -2 5.24151 1.13102   4
   5   5   2 4.31206 1.26376   2
   5   5   2 5.72809 1.23859   4
   5   5  -2 4.19939 1.28220   2
  -4  10  -2 8.31161 1.31799   2
   4   6   2 7.07136 1.29910   4
   6   4  -2 7.65926 1.28232   4
   6   4  -2 8.18777 1.45017   2
  10  -4   2 6.80742 1.30986   4
  -6  10   2 7.01287 1.23058   2
   4   6   2 8.67605 1.47574   2
   6   4   2 5.69539 1.29215   4
  -4  10   2 7.93485 1.49154   2
   6   4   2 9.32152 1.43663   2
  10  -6   2 9.66485 1.36000   4
   4   6  -2 7.22685 1.43833   2
  10  -3   2 2.64422 1.10735   4
  -7  10   2 6.48591 1.29332   2
   3   7   2 4.61598 1.24610   2
   7   3  -2 3.69495 1.16450   2
   7   3  -2 3.89880 1.17060   4
  -3  10  -2 3.08600 1.23421   2
  -3  -7  -2 2.61198 1.25596   3
  -3  10   2 2.98043 1.16917   2
   7   3   2 4.84459 1.19531   2
   3   7  -2 6.40638 1.48248   2
   7   3   2 3.13274 1.13950   4
   2   8   2 0.85150 1.23507   2
   2 -10  -2 1.47940 1.03323   3
   8   2  -2 0.47203 0.98621   2
  -2  10  -2 0.28582 1.08165   2
  10  -2   2 -0.0712 1.12851   4
   8   2  -2 -0.8057 1.00322   4
   8   2   2 0.52173 1.21827   4
   2   8  -2 1.32478 1.13555   2
  -2  10   2 1.76835 1.22411   2
  -2  -8  -2 -0.8113 1.14913   3
   0   0  -3 0.25176 0.49010   1
   0   0   3 -0.6396 0.23613   4
   0   0   3 -1.4650 0.40419   1
   0   0  -3 -0.6698 0.43934   1
   0   0  -3 -1.6086 0.21589   3
   1   0  -3 277.073 5.79359   1
  -1   0  -3 270.426 6.03658   1
   1  -1   3 274.337 5.43414   1
  -1   0   3 269.634 5.81836   1
   0  -1  -3 282.691 6.31380   1
  -1   1  -3 279.796 5.43942   1
   1  -1  -3 275.943 5.07836   3
   1  -1  -3 282.318 6.30797   1
   1   0   3 272.892 6.02448   1
   1  -1  -3 277.086 6.26473   1
  -1   0  -3 273.360 5.00488   3
  -1   0  -3 272.559 6.02874   1
   1   0   3 270.640 4.97285   2
  -1   1   3 274.007 6.25832   1
  -1   1  -3 268.643 4.88494   3
  -1   1   3 274.381 5.23115   4
  -1   1   3 269.904 6.23571   1
   0  -1  -3 272.356 5.07929   3
   1   0   3 274.452 6.01613   1
  -1   1   3 278.122 5.16026   2
   1  -1   3 272.246 5.07876   4
   0   1   3 279.024 6.30823   1
   0   1   3 271.519 5.22501   4
  -1   1  -3 272.788 5.42598   1
   1  -1   3 269.238 5.42369   1
   0   1   3 279.495 5.13814   2
   1   0   3 275.486 5.20794   4
   0   1   3 275.241 6.26541   1
   1   0  -3 266.991 5.79924   1
   0  -1  -3 272.312 6.28685   1
  -1   2  -3 -0.6414 0.15851   2
   1   1  -3 -0.7901 0.39252   1
   2  -1   3 -0.6557 0.56459   1
  -1   2   3 -0.3535 0.30553   4
  -1   2  -3 0.33435 0.36778   1
   1   1   3 -0.5291 0.21100   2
   1  -2  -3 0.92510 1.00220   1
  -1  -1  -3 -0.8102 0.27430   3
   1  -2  -3 0.13334 0.33621   3
   1   1   3 -0.0907 0.78288   1
  -1  -1  -3 -0.0428 0.93913   1
   1   1  -3 -0.2800 0.48022   1
  -1   2   3 -1.1986 0.79799   1
  -2   1  -3 -0.4734 0.69328   1
   1  -2  -3 0.85841 0.93793   1
   1  -2   3 0.07407 0.12287   4
  -2   1  -3 -0.0312 0.16556   3
  -1  -1   3 -0.9610 0.43830   1
   2  -1   3 -0.7219 0.58709   1
  -2   1  -3 -0.4695 0.61764   1
   2  -1  -3 -0.8505 0.80284   1
  -1  -1   3 0.07222 0.48403   1
   1   1   3 -0.3755 0.32801   4
  -1  -1  -3 0.33806 0.79660   1
  -1   2   3 1.11634 0.99998   1
   2  -1   3 0.25592 0.16963   3
  -2   1   3 0.03348 0.79128   1
   1  -2   3 -0.4711 0.33118   1
  -1   2  -3 -0.1440 0.11694   4
   2  -1  -3 -0.0392 0.78321   1
   1   1   3 0.57935 0.93408   1
   2  -1   3 -0.4220 0.21256   4
   1  -2   3 -0.1325 0.33599   1
  -1   2  -3 -0.3797 0.30919   1
  -1   2   3 0.24177 0.34782   2
  -2   1   3 0.36973 0.84805   1
   0   2   3 1974.58 35.3183   2
   2   0   3 1987.86 36.3379   1
   0   2  -3 2020.14 35.6110   2
   0   2   3 2022.07 35.7581   4
   2   0   3 2047.76 35.7849   4
   2  -2  -3 2073.75 37.0906   1
   2   0  -3 2065.86 36.4660   1
  -2   2   3 2057.38 36.6530   1
   0   2  -3 2014.04 35.3421   1
  -2   0  -3 2067.43 36.7280   1
   0  -2   3 2021.72 34.9680   1
  -2   2   3 2018.35 36.6208   1
  -2   2  -3 2032.20 35.3234   2
   0   2   3 2081.22 36.6652   1
   2   0   3 2049.30 36.3769   1
   2  -2  -3 2067.89 34.9920   3
  -2   0   3 1995.34 36.0933   1
   2  -2   3 1983.97 35.4961   4
  -2   0  -3 2088.82 36.8787   1
   2   0   3 1962.53 35.0526   2
   0  -2  -3 1993.43 35.0405   3
  -2   2  -3 2015.24 35.9137   1
   0   2  -3 2035.64 35.3365   1
  -2   2   3 2013.04 35.3051   2
  -2   0  -3 2040.87 34.9234   3
   0   2   3 1982.21 36.5107   1
   2  -2  -3 2012.86 36.9040   1
   2   0  -3 2027.93 36.4663   1
  -2   0   3 2047.72 36.0703   1
   0  -2  -3 1982.17 36.8770   1
   0  -2   3 1998.21 34.9801   1
  -2   2  -3 2031.74 35.9304   1
   0  -2  -3 2054.88 36.9654   1
   2  -2   3 2011.36 35.6155   1
  -2  -1  -3 386.116 7.34208   3
   2   1  -3 402.064 8.79040   1
   1   2   3 403.094 7.47321   2
   1   2   3 408.757 9.57831   1
   3  -1   3 404.272 7.00821   2
   1  -3  -3 397.110 9.46304   1
   1  -3  -3 405.065 7.41500   3
  -3   1   3 380.682 9.35830   1
  -3   1   3 403.372 9.32174   1
   3  -1   3 392.639 9.22571   1
   1  -3  -3 408.608 9.72896   1
   3  -2  -3 392.937 9.65319   1
   3  -1   3 387.200 9.13371   1
  -3   2  -3 380.072 8.91604   1
   1   2   3 411.526 9.53384   1
  -1  -2   3 397.928 8.33929   1
  -2   3   3 407.216 7.49843   4
   2  -3   3 394.673 8.25940   1
  -2   3   3 386.805 9.52141   1
   2   1  -3 406.245 7.55772   2
  -2  -1  -3 409.462 9.64906   1
  -3   2  -3 398.625 6.91741   3
  -1   3  -3 397.153 7.40185   2
  -3   2  -3 400.445 9.05718   1
  -2   3   3 406.742 9.69881   1
  -1   3  -3 400.750 8.03676   1
  -1  -2   3 398.125 8.36779   1
  -1   3  -3 403.428 8.06152   1
   2  -3   3 396.055 8.30692   1
   3  -2  -3 401.584 9.62922   1
  -2   3   3 388.150 7.48918   2
   3  -1   3 404.091 7.53288   4
   1   2   3 394.299 7.55578   4
  -2  -1  -3 407.803 9.50094   1
   2   1  -3 397.605 8.81420   1
  -3   2   3 395.171 9.59559   1
   1  -3   3 389.848 7.97929   1
   2   1   3 405.160 7.34119   2
   1  -3   3 402.084 8.00501   1
   2   1   3 380.022 9.42503   1
  -3   1  -3 399.735 9.26873   1
   2  -3  -3 409.695 7.36856   3
  -3   2   3 377.785 9.36691   1
  -2  -1   3 366.006 8.61882   1
  -2   3  -3 410.145 8.37135   1
  -1   3   3 406.559 9.62262   1
  -1  -2  -3 390.465 9.41529   1
   1   2  -3 405.137 8.36012   1
   3  -2   3 385.670 7.36520   4
   3  -2   3 404.149 6.85490   3
   1   2  -3 389.984 7.52256   2
   3  -2   3 386.650 8.89289   1
   2  -3  -3 418.833 9.88337   1
   2   1   3 397.546 9.47316   1
   2  -3  -3 398.871 9.63412   1
  -3   1  -3 394.815 7.11622   3
  -2   3  -3 396.124 8.33898   1
  -1  -2  -3 409.084 9.71897   1
   3  -1  -3 417.383 9.53462   1
   1   2  -3 399.462 8.41357   1
  -1   3   3 407.409 9.58058   1
   2   1   3 396.832 7.59100   4
  -1  -2  -3 387.746 7.40716   3
  -3   1  -3 396.741 9.36008   1
   3  -1  -3 404.131 9.41091   1
  -1   3   3 390.545 7.45511   4
  -1   3   3 393.569 7.51879   2
  -2   3  -3 385.673 6.94960   3
  -2   3  -3 398.367 7.25779   2
   3  -2   3 392.962 8.90981   1
  -2  -1   3 413.015 8.87585   1
  -3   3   3 323.753 6.33542   2
   3  -3   3 322.084 6.05215   4
   0   3  -3 325.755 6.34082   2
  -3   3   3 335.910 8.77005   1
   3   0  -3 323.484 8.13429   1
   3   0   3 341.762 8.62020   1
  -3   3  -3 328.981 5.89620   2
  -3   3   3 319.820 8.58244   1
  -3   0  -3 322.680 6.09754   3
  -3   0  -3 327.938 8.54902   1
   0   3   3 328.683 6.40477   2
   0  -3  -3 327.172 8.54930   1
   3   0   3 327.415 6.46102   4
   3  -3   3 326.131 7.79865   1
   3   0   3 324.585 6.05117   2
  -3   3  -3 319.836 7.65946   1
   0  -3  -3 323.970 6.28935   3
   0  -3   3 336.368 7.18939   1
  -3   3  -3 326.863 7.78350   1
   3  -3  -3 327.978 6.14714   3
   0   3   3 336.153 6.38259   4
   0   3   3 329.031 8.57522   1
  -3   0   3 327.425 8.27991   1
   0  -3  -3 338.376 8.77153   1
  -3   0   3 327.197 8.17355   1
   0  -3   3 331.508 7.10061   1
   3   0  -3 325.458 8.17281   1
   3   0   3 314.467 8.33466   1
   3  -3  -3 335.059 8.67734   1
   3  -3  -3 348.533 8.88168   1
   3  -3   3 324.557 7.74609   1
   0   3  -3 331.242 7.15993   1
   0   3  -3 328.364 7.10941   1
  -3   0  -3 334.309 8.48375   1
   0   3   3 329.141 8.63382   1
   4  -2  -3 1.27530 1.48628   1
  -2   4   3 -0.0667 0.29686   4
  -4   2  -3 -0.6427 1.04816   1
  -4   2   3 0.36824 1.15854   1
  -2   4  -3 1.01511 0.83896   1
   2   2   3 1.03671 1.32021   1
   4  -2   3 0.49363 1.11335   1
  -2   4   3 0.18124 0.47821   2
   2   2  -3 0.35766 1.04829   1
   2  -4   3 -0.9783 0.77350   1
   2  -4  -3 0.36615 1.40582   1
   2   2  -3 0.94487 1.03944   1
  -4   2  -3 -1.0095 0.99164   1
  -2  -2  -3 -1.4095 1.17004   1
   2   2   3 -0.0215 0.39387   4
  -2   4  -3 -0.5494 0.28675   2
   4  -2  -3 0.05608 1.18256   1
   4  -2   3 -0.3381 0.34292   4
   2   2   3 -1.7946 1.07996   1
   2  -4   3 -0.3390 0.77021   1
   2   2   3 -0.1768 0.31155   2
  -2  -2   3 -0.0432 0.89870   1
  -2   4   3 -0.4244 1.15524   1
  -2  -2   3 -1.0413 0.85390   1
  -2   4  -3 0.49215 0.81554   1
  -2   4   3 0.69287 1.48329   1
   2  -4  -3 -0.1821 0.35101   3
   2  -4  -3 -0.0809 1.21424   1
   2   2  -3 -0.5599 0.42785   2
  -4   2   3 0.89507 1.38232   1
  -2  -2  -3 -0.0201 1.21417   1
   4  -2   3 0.03018 1.11132   1
  -2  -2  -3 -0.0005 0.38228   3
   1   3   3 13.2029 2.06448   1
  -4   3  -3 16.5756 1.96084   1
   3  -4   3 11.3798 1.54434   1
   1   3   3 12.4151 0.84779   2
   3   1  -3 9.85390 1.62125   1
   4  -1   3 11.6149 0.51040   2
   1  -4  -3 12.6190 2.00261   1
   3   1  -3 11.0863 0.80568   2
   1   3   3 11.0516 2.00929   1
  -3   4   3 13.8845 2.09548   1
   1   3   3 13.1028 0.82374   4
  -3  -1  -3 9.32854 2.05506   1
   3  -4   3 11.7017 0.39801   4
  -4   1   3 12.8258 1.93264   1
  -3  -1  -3 14.3984 2.13356   1
   4  -3  -3 12.3082 2.00436   1
  -1  -3   3 13.1988 1.57388   1
   4  -1   3 15.0682 2.16499   1
  -3   4   3 12.1748 0.81074   2
   4  -1   3 13.0412 2.06007   1
   4  -1   3 12.9356 0.82080   4
  -4   1   3 13.7706 1.99780   1
   1  -4  -3 11.7446 1.99243   1
  -1   4  -3 14.0318 1.47110   1
   1  -4  -3 12.7232 0.84254   3
   4  -3  -3 10.0341 2.08038   1
  -1   4  -3 13.0035 1.41079   1
  -1   4  -3 12.3488 0.76544   2
  -3   4   3 11.3476 2.17799   1
  -3  -1  -3 13.1183 0.80374   3
  -4   3   3 10.3037 2.07878   1
   1   3  -3 13.9560 1.58837   1
   4  -3   3 13.8256 1.80370   1
  -4   3   3 11.3022 0.78649   2
   3   1   3 11.8879 0.86094   4
  -4   1  -3 11.9782 0.63088   3
  -3   4  -3 11.6179 0.59300   2
   1  -4   3 11.8575 1.40724   1
   1  -4   3 12.4716 1.38547   1
   4  -1  -3 7.92927 1.73059   1
  -1  -3  -3 13.5356 2.00173   1
   3   1   3 12.5736 2.16146   1
   3  -4  -3 12.1350 0.73949   3
  -3  -1   3 12.5772 1.75962   1
  -1  -3  -3 9.75897 1.98905   1
   1   3  -3 10.5108 0.81636   2
   3  -4  -3 14.7786 2.16991   1
  -1   4   3 10.0005 1.96895   1
   4  -3   3 11.3349 1.80052   1
   4  -3   3 11.7568 0.67916   4
  -3   4  -3 12.7423 1.67657   1
  -1   4   3 11.7364 0.72199   4
   1   3  -3 13.1474 1.58057   1
   3   1   3 11.2219 0.68213   2
  -1   4   3 12.8397 2.01866   1
  -4   1  -3 13.0735 2.09660   1
  -4   1  -3 13.5094 2.11081   1
  -3  -1   3 11.8776 1.73894   1
  -3   4  -3 10.4984 1.55053   1
  -1   4   3 13.1398 0.89884   2
  -1  -3  -3 13.1924 0.87603   3
   3   1   3 10.0413 1.91042   1
  -4   3   3 10.4958 1.96802   1
   3  -4  -3 12.7103 2.18307   1
   0  -4  -3 183.271 3.97374   3
   0  -4   3 180.851 5.29712   1
   4   0   3 179.657 6.49995   1
  -4   0   3 170.597 6.12851   1
   0  -4  -3 184.907 6.63112   1
   0   4   3 168.561 6.45258   1
   4   0  -3 185.353 6.24299   1
   4  -4  -3 173.051 3.69289   3
  -4   4   3 174.101 6.55666   1
  -4   4   3 180.113 3.93586   2
   4  -4  -3 178.549 6.69117   1
  -4   0  -3 180.999 3.75131   3
   0   4  -3 173.880 3.48595   4
  -4   4  -3 173.579 5.75878   1
   4   0   3 188.670 4.11330   4
  -4   0  -3 184.570 6.56471   1
   4  -4  -3 179.210 6.72728   1
   4  -4   3 174.765 5.85382   1
   4   0   3 180.124 6.50779   1
   4   0   3 182.979 3.66188   2
  -4   0   3 182.289 6.33571   1
   0   4   3 184.159 3.91382   4
   0   4  -3 178.526 5.27789   1
  -4   4  -3 177.684 3.43676   2
   4  -4   3 185.839 5.95638   1
   0   4   3 177.927 4.05095   2
   0  -4  -3 178.084 6.49187   1
  -4   4   3 172.581 6.57374   1
   0   4  -3 178.167 3.95115   2
   4  -4   3 178.956 3.58564   4
  -2  -3   3 -0.3965 1.24487   1
   3   2  -3 0.03630 1.35759   1
  -3  -2  -3 0.31716 0.43926   3
  -2   5  -3 0.38149 0.47772   2
  -5   3  -3 -0.9133 1.40787   1
   2  -5  -3 -1.8148 1.57976   1
  -5   2   3 1.74407 1.96290   1
   5  -2   3 0.34242 0.20256   2
   3   2  -3 0.64094 0.49804   2
  -5   2   3 0.57345 1.80056   1
   5  -2   3 0.69394 0.46281   4
   2  -5  -3 0.64714 0.51469   3
  -3  -2  -3 0.79134 1.64391   1
   2   3   3 0.05112 0.43089   4
   2  -5  -3 1.54373 1.97780   1
  -2  -3   3 0.30628 1.15857   1
  -3  -2  -3 0.42843 1.68789   1
  -3   5   3 -0.2850 0.45558   2
   5  -3  -3 -0.9213 1.42449   1
   5  -2   3 1.03350 1.50825   1
  -3   5   3 0.13341 0.40007   4
   5  -2   3 1.53324 1.89602   1
  -3   5   3 -1.0785 1.62328   1
  -2   5  -3 -0.1842 1.00493   1
   2   3   3 2.83335 0.62444   2
   3  -5   3 2.30397 1.36453   1
   2   3   3 0.30480 1.53780   1
   3  -5  -3 1.98518 1.81665   1
  -2  -3  -3 0.77310 1.68825   1
  -3   5  -3 0.15900 1.14651   1
  -5   2  -3 0.49890 1.44684   1
   5  -3   3 -1.4428 1.53537   1
  -2   5   3 0.19611 0.51741   2
   5  -2  -3 1.75428 1.88488   1
  -3  -2   3 -0.0472 1.51372   1
  -2   5   3 -0.1057 0.39458   4
   3   2   3 1.02543 1.62217   1
   3  -5  -3 -0.8384 1.67720   1
   3  -5  -3 0.46293 0.39772   3
  -5   3   3 -0.6484 1.43462   1
   3   2   3 0.60301 0.48592   4
  -3   5  -3 -0.6171 0.31234   2
  -5   3   3 -0.1037 1.51073   1
  -2  -3  -3 -1.1819 1.47309   1
   2   3  -3 0.43579 0.59481   2
  -2   5   3 0.63095 1.85221   1
   5  -3   3 1.73203 1.52108   1
   5  -3   3 0.04415 0.43612   4
  -3  -2   3 0.21918 1.24834   1
   2  -5   3 -0.2957 1.05635   1
  -2  -3  -3 -0.3136 0.52052   3
   2   3  -3 0.31001 1.28996   1
   3   2   3 0.03664 0.39838   2
  -1   5  -3 93.7753 2.52469   2
   5  -1   3 91.3609 4.90385   1
  -5   4  -3 86.8543 4.51766   1
   1  -5  -3 101.444 5.15978   1
   5  -1   3 98.9322 5.03821   1
  -4   5   3 93.1662 2.52659   2
   4  -5   3 87.0032 4.21264   1
   1  -5  -3 87.3618 4.79529   1
   4   1  -3 91.1161 4.66795   1
   4   1  -3 94.2450 2.57951   2
   1  -5  -3 92.4721 2.52276   3
  -4  -1  -3 94.9966 5.09824   1
   1   4   3 91.2569 2.48097   4
   5  -1   3 91.6875 2.62284   4
  -1  -4   3 94.3960 4.12303   1
   4  -5   3 85.7662 1.87517   4
   5  -4  -3 87.2939 5.02105   1
   1   4   3 89.7803 2.58986   2
   1   4   3 93.9967 5.06399   1
  -1  -4   3 90.0880 3.99731   1
   5  -4  -3 89.5099 2.25522   3
   4  -5   3 88.4492 4.26659   1
  -4  -1  -3 90.7821 2.43128   3
  -4   5   3 87.4455 4.92085   1
  -1   5  -3 87.9223 3.83929   1
   5  -1   3 89.5938 2.06848   2
  -5   1   3 83.5993 4.83103   1
  -5   1   3 103.796 5.03588   1
   1   4  -3 89.1948 3.99205   1
  -4   5  -3 89.6093 2.14858   2
   1   4  -3 94.2071 2.60042   2
   5  -1  -3 92.9908 4.95657   1
   1  -5   3 95.2315 3.96134   1
  -1  -4  -3 98.2979 5.05057   1
   5  -4   3 86.2310 4.52991   1
  -1   5   3 91.2709 2.64067   2
  -4  -1   3 92.1819 4.64161   1
  -1   5   3 93.3320 2.35881   4
   1   4  -3 92.8011 2.20980   4
  -4   5  -3 94.0634 4.27830   1
   4  -5  -3 92.2173 5.10512   1
   4   1   3 94.6819 2.35111   2
  -4  -1   3 92.0387 4.67876   1
   4  -5  -3 89.3268 5.04627   1
   5  -4   3 90.3417 2.28593   4
   4   1   3 88.6778 2.60241   4
   4  -5  -3 91.1200 2.30832   3
  -5   4   3 90.5643 2.43835   2
  -1   5   3 93.4046 4.87074   1
   4   1   3 86.9607 4.89494   1
  -5   1  -3 102.153 5.16114   1
  -5   4   3 85.9933 4.99203   1
  -1  -4  -3 88.9777 2.55713   3
  -1  -4  -3 97.3220 5.15140   1
   5  -4   3 88.7072 4.56104   1
  -5   0   3 284.923 9.23642   1
   5  -5   3 285.901 5.62849   4
  -5   5   3 293.752 9.65727   1
   5   0  -3 288.992 6.02681   2
   0  -5  -3 289.472 9.45925   1
   0   5   3 284.199 6.20885   2
   0   5  -3 280.774 7.87537   1
   0   5  -3 282.990 5.45412   4
   5  -5  -3 311.606 10.0273   1
   0   5   3 296.157 9.48026   1
   0  -5   3 291.323 8.04784   1
  -5   0  -3 290.582 9.62254   1
   0  -5  -3 297.626 6.05453   3
   5   0   3 284.999 9.49565   1
  -5   0  -3 289.139 5.80125   3
  -5   5   3 289.585 5.99624   2
   0   5   3 288.943 5.96910   4
   5   0   3 293.760 6.29515   4
   0  -5  -3 283.810 9.26489   1
   5  -5   3 282.366 8.78440   1
   5   0  -3 271.715 8.92036   1
   0   5  -3 286.757 6.06920   2
  -5   5  -3 277.113 5.39906   2
   5  -5   3 296.164 8.91119   1
   5   0   3 288.719 5.71144   2
  -5   5  -3 276.159 8.61996   1
  -5   0   3 294.928 9.24616   1
   5  -5  -3 284.599 5.62423   3
   6  -3  -3 0.11252 1.82650   1
   3   3   3 -0.5468 1.89643   1
  -3   6   3 -0.4807 1.77297   1
   6  -3   3 0.38747 1.85898   1
   3  -6  -3 -0.4943 0.41694   3
  -3   6   3 -0.0955 0.41825   4
   3  -6   3 -0.7761 1.34536   1
  -3  -3   3 -0.5139 1.50060   1
   3   3  -3 0.25138 1.49770   1
   3  -6  -3 0.70254 1.86200   1
   3   3  -3 0.59928 0.56697   2
  -3   6  -3 0.19910 0.42621   2
   3   3   3 -0.6604 0.50353   2
  -3  -3  -3 0.08662 0.60509   3
  -3   6   3 0.61195 0.62650   2
  -6   3  -3 1.64883 1.84012   1
   6  -3   3 0.04498 0.51287   4
   3  -6  -3 0.50244 2.16395   1
  -6   3   3 -0.0654 1.79655   1
   3   3   3 0.34047 0.50601   4
   6  -3   3 -0.3458 1.69593   1
  -3  -3  -3 0.75779 2.14169   1
   4  -6   3 17.2949 2.50755   1
   2  -6  -3 15.9227 2.80382   1
  -4   6   3 19.7120 1.22057   2
  -6   4  -3 19.9808 3.10673   1
   2  -6  -3 22.0862 3.40292   1
   2  -6  -3 17.2754 1.12707   3
   6  -2   3 17.6432 1.22252   4
  -2  -4   3 21.4310 2.64304   1
   4   2  -3 16.9581 2.77994   1
   2   4   3 16.1490 1.15060   2
   2   4   3 16.6977 2.83560   1
  -6   2   3 16.3003 2.84934   1
  -4   6   3 19.5265 3.12569   1
  -2   6  -3 18.0092 1.12104   2
  -4  -2  -3 21.2339 1.20965   3
   6  -4  -3 20.5389 3.37749   1
  -4  -2  -3 20.1892 3.38532   1
   6  -2   3 18.0036 3.15811   1
   6  -2   3 15.1110 2.85519   1
   2   4   3 17.6196 1.15729   4
   6  -2   3 17.4573 0.72899   2
   4   2  -3 15.2823 1.12700   2
   4  -6  -3 16.9706 0.99796   3
  -6   2  -3 18.4538 3.25518   1
   6  -4   3 23.8265 3.13151   1
   2   4  -3 21.3797 1.28513   2
  -4   6  -3 17.7890 0.97310   2
   4  -6  -3 17.5967 2.95248   1
  -2  -4  -3 17.0773 2.88613   1
   4   2   3 21.0726 3.33005   1
   6  -2  -3 18.0763 2.90518   1
  -2   6   3 17.2523 3.07389   1
  -2   6   3 18.4483 1.25572   2
   6  -4   3 19.3835 2.91822   1
   4   2   3 16.5940 1.06379   2
   2  -6   3 15.4262 2.17805   1
  -2   6   3 16.1808 0.93728   4
  -6   4   3 13.6451 2.73229   1
  -2  -4  -3 18.9442 1.18650   3
   2   4  -3 18.3936 0.99054   4
  -4  -2   3 27.0071 3.15192   1
   4   2   3 17.2526 1.18091   4
   6  -4   3 17.0290 1.05394   4
  -1  -5   3 40.6301 3.35009   1
   1  -6  -3 40.2823 1.70475   3
   1   5   3 38.4359 1.59813   4
   6  -1   3 36.9434 4.01513   1
   5   1  -3 40.5284 3.79027   1
   5  -6   3 41.7244 3.59074   1
  -5  -1  -3 35.6192 3.91725   1
  -6   1   3 35.4321 3.89275   1
   1  -6  -3 48.3029 4.35570   1
   6  -1   3 40.8142 1.83057   4
  -5   6   3 42.0491 1.70111   2
   6  -5  -3 36.6921 1.37872   3
   5   1  -3 40.8060 1.73566   2
   1  -6  -3 45.5931 4.37389   1
  -5  -1  -3 39.8909 1.65245   3
  -6   1   3 36.2168 3.81138   1
  -1   6  -3 38.7167 1.71297   2
   6  -5  -3 37.4322 4.14132   1
   1   5   3 42.2156 4.02380   1
   6  -1   3 37.7765 1.29681   2
   1   5   3 41.1979 1.84540   2
  -5   6   3 44.1895 4.18053   1
  -6   5  -3 38.3407 3.65888   1
  -6   1  -3 39.5753 4.20335   1
   1  -6   3 47.8489 3.36002   1
  -1   6   3 34.3307 3.87746   1
  -1   6   3 40.9637 1.83360   2
   1   5  -3 39.4030 1.33190   4
  -1  -5  -3 40.2231 1.75958   3
   6  -1  -3 33.5252 3.63235   1
  -6   5   3 34.4366 3.90976   1
  -1   6   3 40.4618 1.50453   4
  -5   6  -3 39.6145 1.32306   2
   5   1   3 38.8636 1.78838   4
  -1  -5  -3 45.4379 4.28754   1
  -5  -1   3 38.4976 3.80428   1
   1   5  -3 38.0182 1.74200   2
   5   1   3 35.4086 3.92823   1
   6  -5   3 44.1211 3.94674   1
   5   1   3 42.3569 1.55988   2
   6  -5   3 37.3121 1.43259   4
   5  -6  -3 37.6358 4.01387   1
   5  -6  -3 43.3371 1.49636   3
   6   0   3 1.94615 2.77421   1
   0   6   3 0.99665 0.55790   4
   6   0  -3 1.09164 0.68137   2
   6  -6   3 -0.7206 1.91950   1
   0  -6   3 -0.0658 1.76560   1
   0   6   3 2.05821 0.74905   2
   6   0   3 1.65844 0.52856   2
   6  -6  -3 0.68790 0.48951   3
  -6   0   3 0.35965 2.09805   1
   6   0  -3 1.80029 2.23933   1
   0   6   3 2.31285 2.39754   1
   0  -6  -3 1.03356 0.63273   3
   0  -6  -3 3.90502 2.48561   1
  -6   0  -3 0.45008 2.71843   1
  -6   6   3 0.71168 0.65049   2
  -6   6   3 2.07316 2.72660   1
   6   0   3 1.58081 0.71150   4
   6  -6  -3 1.90535 2.64056   1
   0   6  -3 1.16330 0.70835   2
  -7   4  -3 49.3158 4.78574   1
   3   4   3 49.0160 2.03085   2
  -7   3   3 46.6091 4.69677   1
   4  -7   3 52.3714 3.99133   1
   7  -3   3 42.6580 4.44324   1
   3   4   3 58.4460 5.07940   1
  -3  -4   3 52.2888 4.18768   1
   7  -4  -3 45.5323 4.52444   1
  -4  -3  -3 49.3611 2.03847   3
  -4   7   3 43.3422 4.62297   1
   3  -7  -3 50.1405 4.79651   1
  -4  -3  -3 54.2786 5.07498   1
   4   3  -3 49.6987 2.09266   2
   3  -7  -3 46.3080 1.83969   3
  -4   7   3 51.8378 2.08295   2
   7  -3   3 47.8277 2.02096   4
  -3   7  -3 47.6367 1.88347   2
   3   4   3 49.1462 2.01176   4
   3   4  -3 49.1620 1.83239   4
  -3   7   3 49.6037 1.67896   4
  -4  -3   3 56.3730 4.45133   1
  -7   4   3 45.9054 4.56696   1
   7  -4   3 52.6379 1.99899   4
   3  -7   3 54.9832 3.86600   1
   7  -3  -3 47.9876 4.76821   1
   4  -7  -3 50.6876 1.82818   3
  -3   7   3 49.5005 2.12279   2
   7  -4   3 60.1019 5.00348   1
   4  -7  -3 57.1564 5.09108   1
   4   3   3 52.6074 4.90339   1
   4   3   3 53.3330 2.02879   2
   3   4  -3 50.0435 2.13039   2
   4   3   3 49.9785 2.08645   4
  -3   7   3 45.9348 4.69742   1
  -3  -4  -3 50.3511 2.07940   3
  -7   3  -3 54.7880 4.99185   1
  -3  -4  -3 42.8201 4.75105   1
  -4   7  -3 47.0507 1.79955   2
  -2  -5   3 35.9821 3.69987   1
   7  -5  -3 39.3480 1.46461   3
   2   5   3 35.6348 1.68740   4
  -7   2   3 39.5670 4.44946   1
   2   5   3 35.8511 1.81490   2
  -5   7   3 37.6535 1.77876   2
  -2   7  -3 37.2086 1.74583   2
   2   5   3 40.5419 4.34350   1
   7  -2   3 38.7930 4.53491   1
  -5  -2  -3 39.5794 4.68435   1
   5   2  -3 36.9741 1.81687   2
  -5  -2  -3 41.2857 1.82380   3
   2  -7  -3 34.1154 1.68632   3
   7  -5  -3 39.0873 4.59564   1
   5  -7   3 36.8822 3.76064   1
   7  -2   3 39.0453 1.90819   4
   2  -7  -3 37.1966 4.40380   1
  -5   7   3 37.3765 4.30262   1
   5  -7  -3 35.3217 1.47441   3
  -2  -5  -3 34.5210 1.79819   3
  -5  -2   3 39.2302 4.10806   1
   5   2   3 33.6932 1.62353   2
  -7   2  -3 37.1583 4.57413   1
   5   2   3 37.9765 4.56038   1
   2   5  -3 31.5079 1.72736   2
   5   2   3 36.8348 1.83218   4
   7  -5   3 36.0036 1.60532   4
  -2   7   3 39.4723 1.90716   2
   5  -7  -3 35.5838 4.19330   1
   7  -2  -3 40.0061 4.38540   1
  -5   7  -3 33.5235 1.41289   2
   7  -5   3 26.6579 3.77193   1
  -2   7   3 39.6679 4.48073   1
   2   5  -3 34.8633 1.44081   4
  -2  -5  -3 37.9481 4.36808   1
   2  -7   3 37.6293 3.41215   1
  -2   7   3 36.4248 1.45773   4
  -7   5   3 40.4835 4.51088   1
   6  -7   3 0.47468 2.16373   1
   7  -1   3 3.85467 1.02505   4
  -1   7  -3 3.66231 0.99939   2
   1  -7  -3 1.55741 2.79358   1
   6   1  -3 3.01632 0.85361   2
   1   6   3 4.14973 1.05076   2
   1  -7  -3 2.97650 0.89949   3
  -6   7   3 -1.0722 2.51159   1
  -6   7   3 1.98456 0.82420   2
   1   6   3 4.23095 0.78729   4
  -7   1   3 2.60938 3.03097   1
   7  -6  -3 4.51341 0.70195   3
  -1  -6   3 1.58302 2.05617   1
   7  -1   3 1.33087 3.14941   1
   7  -6  -3 2.77272 2.74010   1
  -6  -1  -3 2.04492 2.96933   1
  -1   7   3 5.69627 1.11798   2
  -7   6   3 4.96015 2.98435   1
  -1  -6  -3 3.33872 2.76435   1
   7  -6   3 4.29927 3.01169   1
  -7   1  -3 1.48622 3.13851   1
   6   1   3 4.55243 0.78063   2
   7  -1  -3 3.42556 0.82362   2
  -6  -1   3 3.31931 2.66127   1
  -1   7   3 3.95375 0.72870   4
   6   1   3 3.70931 1.02931   4
  -1  -6  -3 3.12034 0.91321   3
   6  -7  -3 4.65466 0.72606   3
   6  -7  -3 8.25266 3.13875   1
   1   6  -3 2.71179 0.96022   2
   1  -7   3 6.30221 2.36110   1
   6   1   3 3.31628 2.95623   1
   7   0   3 0.71676 3.52291   1
   0  -7  -3 1.24588 0.80127   3
  -7   7   3 1.30425 0.77574   2
   0   7  -3 0.76476 0.83675   2
   0   7   3 -0.2414 0.59481   4
   0   7   3 0.28963 0.95968   2
  -7   0  -3 -0.7353 3.53728   1
   7  -7  -3 -0.4128 2.94292   1
   7   0  -3 0.53419 0.81051   2
   7   0   3 1.35331 0.86388   4
  -7   7   3 -1.1144 2.90144   1
  -4  -4  -3 -0.9683 0.60981   3
   4   4   3 -1.2256 0.70903   2
   8  -4   3 -0.1864 0.62724   4
   8  -4  -3 -1.0957 3.29109   1
  -4   8  -3 -1.3536 0.67125   2
   8  -4   3 2.27850 3.02157   1
  -4  -4  -3 0.66171 3.45508   1
   4  -8  -3 1.00055 0.68769   3
   4   4   3 -0.8741 0.61672   4
   4   4  -3 0.29464 0.68574   4
  -4   8   3 0.86064 0.82461   2
   4   4  -3 0.83859 0.89388   2
   4  -8  -3 -1.0242 2.75497   1
   4   4   3 -1.4689 3.20344   1
  -8   4   3 -1.4932 3.19141   1
  -5   8   3 0.44717 0.78405   2
  -5  -3  -3 2.40765 3.72125   1
   3   5   3 0.40882 0.80519   4
   5   3  -3 1.21327 0.77079   2
   8  -3   3 1.73878 0.91480   4
  -3   8  -3 1.53178 0.80988   2
  -8   3   3 -1.2536 3.40781   1
   3  -8  -3 1.40925 0.76211   3
   8  -3   3 1.69035 3.51571   1
   5   3  -3 0.74247 0.80624   4
  -5  -3  -3 0.36869 0.70939   3
   3   5   3 -0.1383 0.81628   2
   8  -5  -3 1.11397 3.20568   1
   5   3   3 0.28852 0.70733   2
   5   3   3 2.32835 0.94897   4
  -3  -5  -3 1.60338 3.34349   1
   8  -5   3 0.95800 0.66837   4
   3   5  -3 1.64397 0.82367   2
   8  -3  -3 3.41841 3.75878   1
  -8   5   3 0.11763 3.10991   1
   3   5  -3 2.03545 0.66131   4
   5  -8  -3 1.07405 0.62478   3
   5   3   3 1.46316 3.59961   1
  -3   8   3 1.06339 0.80066   2
  -3  -5  -3 0.62318 0.84666   3
  -5   8  -3 1.54401 0.71689   2
   2  -8  -3 0.26255 0.74105   3
   2   6   3 0.74487 0.77782   2
   8  -2   3 4.86615 3.89708   1
   8  -2   3 0.26267 0.79861   4
   2   6   3 0.93777 0.79079   4
  -2   8  -3 1.25114 0.79792   2
   6   2  -3 0.60776 0.87251   2
  -6  -2  -3 0.69134 3.56562   1
   8  -6  -3 2.70323 3.63692   1
  -6   8   3 -0.5735 0.66641   2
   6   2   3 0.40481 3.43649   1
   6   2   3 0.73459 0.67544   2
   8  -2  -3 1.91585 0.81439   2
   6   2   3 1.28359 0.90101   4
  -2   8   3 0.86592 0.85391   2
  -2  -6  -3 1.35861 0.93697   3
  -8   2  -3 -0.0792 3.88051   1
   2   6  -3 1.89147 1.00901   2
  -8   6   3 -1.1816 3.32431   1
   1   7   3 2.03071 0.95605   2
   8  -1   3 2.21325 0.95186   4
   7   1  -3 3.41500 0.98357   2
   1  -8  -3 5.03424 1.07640   3
  -1   8  -3 4.72750 1.06405   2
  -7   8   3 2.08736 0.81376   2
  -7  -1  -3 2.44236 4.17724   1
   1   7   3 3.56079 0.88305   4
   7   1   3 0.44607 3.96087   1
   1   7  -3 3.71852 1.08543   2
  -8   1  -3 2.66565 3.92292   1
   7   1   3 4.28616 1.13416   4
  -1  -7  -3 0.71841 0.84057   3
   8  -1  -3 2.62430 0.86079   2
  -1   8   3 3.43857 1.10242   2
   0   8  -3 2.50575 1.03279   2
   0   8   3 -0.2844 0.89505   2
  -8   8   3 0.90092 0.76403   2
   0  -8  -3 0.64213 0.98309   3
   8   0  -3 1.20582 0.87280   2
   8   0   3 2.55615 1.07717   4
  -5   9   3 0.50640 0.88337   2
   4   5   3 0.49300 0.95548   4
  -4   9  -3 0.33840 0.82317   2
   4  -9  -3 -1.1895 0.63559   3
   9  -4   3 0.39920 0.84798   4
   4   5   3 0.16185 0.83539   2
   5   4  -3 0.63288 0.85667   4
  -5  -4  -3 -0.8686 0.91799   3
   5   4  -3 0.99407 0.97831   2
  -4  -5  -3 0.28503 0.92233   3
  -4   9   3 0.20295 0.87861   2
   4   5  -3 0.49438 0.75009   4
   5   4   3 -0.4580 0.92628   4
   9  -5   3 -0.8877 0.74649   4
   5   4   3 0.88881 0.89775   2
   4   5  -3 -0.1948 1.01951   2
   3   6   3 4.60788 1.16569   2
  -3   9  -3 5.80158 1.22529   2
   6   3  -3 7.90335 1.27255   2
   9  -3   3 6.78786 1.24645   4
   6   3  -3 7.11631 1.25244   4
  -6   9   3 5.87688 1.14270   2
   3  -9  -3 5.70795 1.06862   3
   3   6   3 5.35699 1.04578   4
   3   6  -3 7.65367 1.32087   2
   6   3   3 6.68577 1.15058   2
   6   3   3 6.95365 1.27670   4
  -3  -6  -3 5.74373 1.25857   3
  -3   9   3 5.27506 1.20905   2
   7   2  -3 9.57541 1.33057   2
   2   7   3 9.21690 1.46507   2
   7   2  -3 10.9862 1.46175   4
   2  -9  -3 8.37680 1.27242   3
  -2   9  -3 9.37765 1.37981   2
  -7   9   3 7.87108 1.19108   2
   2   7   3 7.54459 1.13306   4
   9  -2   3 9.83093 1.48385   4
   7   2   3 8.57071 1.34443   4
  -2   9   3 8.80828 1.46965   2
   2   7  -3 6.93692 1.39187   2
  -2  -7  -3 12.2941 1.54614   3
   9  -2  -3 10.1181 1.23462   2
   1  -9  -3 0.47400 0.99948   3
   8   1  -3 -0.2600 0.83752   2
   9  -1   3 0.92853 1.01196   4
   1   8   3 -0.1602 1.12241   2
  -1   9  -3 -0.9588 1.05512   2
  -1  -8  -3 0.16162 1.04483   3
   1   8  -3 -0.6243 1.04348   2
   9  -1  -3 0.45643 0.95600   2
   8   1   3 -1.1339 0.92174   4
  -1   9   3 0.80912 1.19008   2
   9   0   3 0.70359 1.13092   4
   0  -9  -3 -0.6042 1.03076   3
   0   9   3 0.37237 1.25227   2
   0   9  -3 2.29207 1.22921   2
   9   0  -3 2.88763 1.07768   2
  10  -5   3 0.26570 1.01728   4
   5   5   3 -0.5627 0.92522   4
   5   5  -3 -0.8669 0.76400   4
   5   5  -3 1.39008 1.13883   2
   5   5   3 0.25714 0.95768   2
  -5  10   3 -0.6365 0.99520   2
  -4  10  -3 1.68754 1.05521   2
   6   4  -3 1.57339 1.05301   4
   4   6   3 1.30755 0.99437   4
  -6  10   3 1.13828 0.99006   2
   4   6   3 1.72069 1.14169   2
   6   4  -3 0.07388 0.94134   2
  10  -4   3 1.61064 1.01047   4
   6   4   3 1.16839 1.15839   4
   4   6  -3 1.28823 1.23643   2
   6   4   3 1.44004 1.03201   2
  -4  10   3 0.10723 1.15010   2
  -4  -6  -3 2.06904 1.14050   3
  -7  10   3 -0.0180 0.94213   2
  10  -3   3 0.83260 1.14197   4
   3 -10  -3 -0.3294 0.89044   3
   3   7   3 0.36197 1.10754   2
  -3  10  -3 -0.5575 1.09428   2
   7   3  -3 0.26450 1.07086   2
   7   3  -3 -0.0997 1.08751   4
   3   7  -3 -0.0562 1.18729   2
  -3  10   3 -0.1006 1.02846   2
  -3  -7  -3 -1.3307 1.05412   3
   7   3   3 0.16974 1.06473   4
   0   0  -4 9862.83 167.529   3
   0   0   4 9999.99 175.381   4
   1  -1   4 1332.73 23.1105   1
  -1   0  -4 1255.67 22.3326   1
   1   0   4 1320.51 23.7986   1
   0   1   4 1325.48 23.0641   2
   1  -1  -4 1215.75 22.5858   1
  -1   1   4 1325.09 23.1072   2
  -1   1  -4 1230.54 21.5389   1
   0  -1   4 1310.63 23.2694   4
   1   0   4 1313.98 23.3898   4
   1   0   4 1291.38 22.8982   2
   0  -1  -4 1217.80 22.6728   1
   1  -1  -4 1219.32 21.1606   3
   0  -1  -4 1230.60 22.6041   1
   1   0  -4 1189.44 21.9521   1
  -1   1  -4 1222.09 20.9690   3
   1   0   4 1297.25 23.8482   1
   1  -1  -4 1242.21 22.5722   1
  -1   0   4 1329.50 23.6073   1
  -1   0  -4 1203.92 21.0509   3
  -1   1  -4 1217.25 21.5534   1
   0   1   4 1341.97 23.4432   4
   0   1   4 1330.54 24.1772   1
  -1   1   4 1295.55 23.4129   4
   0   1   4 1280.25 24.0922   1
  -1   1   4 1288.17 24.0192   1
   1  -1   4 1326.84 23.0992   1
  -1   0  -4 1237.75 22.3324   1
  -1   1   4 1290.95 24.0290   1
   1  -1   4 1280.53 23.2673   4
   0  -1  -4 1195.20 21.1399   3
   1   0  -4 1203.19 22.0130   1
   2  -1  -4 452.244 9.94204   1
   2  -1   4 447.054 9.43552   1
   1  -2   4 449.581 8.15581   4
  -1  -1  -4 440.941 9.93000   1
   2  -1   4 464.425 9.47290   1
  -2   1   4 451.261 9.84474   1
  -1   2   4 455.518 8.40587   2
   1  -2  -4 457.210 8.27935   3
   1  -2  -4 465.278 10.1629   1
   1   1   4 440.533 9.94876   1
   1   1   4 446.769 8.27243   2
  -1  -1   4 464.429 8.83926   1
  -2   1  -4 445.837 9.45327   1
   2  -1   4 450.914 8.38260   4
  -2   1  -4 450.953 7.98009   2
  -2   1  -4 459.893 9.46145   1
   1  -2  -4 437.641 10.1537   1
  -1   2   4 467.352 10.1971   1
  -1  -1  -4 469.088 10.1358   1
  -1   2   4 455.360 8.48853   4
   2  -1  -4 473.443 9.93917   1
  -1  -1  -4 459.825 8.24973   3
   1   1   4 447.930 8.49702   4
   1   1   4 449.326 9.98153   1
   1   1  -4 448.198 8.82257   1
  -1   2   4 452.891 10.1811   1
  -2   1  -4 459.382 8.00318   3
   1   1  -4 445.687 8.76427   1
  -1   2  -4 453.973 8.18630   2
  -2   1   4 454.017 9.93480   1
  -1  -1   4 449.176 8.85805   1
   2  -2  -4 266.393 7.05876   1
   2  -2   4 272.799 5.16825   4
   0  -2  -4 277.419 7.10297   1
  -2   0   4 285.116 6.73695   1
  -2   2  -4 266.698 4.70362   3
  -2   2   4 280.707 5.46656   4
  -2   2  -4 274.034 5.88998   1
   2   0   4 275.325 6.92265   1
   2  -2  -4 251.210 6.96402   1
  -2   2   4 278.146 5.40207   2
   2   0  -4 262.345 6.36697   1
   2   0   4 280.361 6.97355   1
   2   0   4 272.119 5.09445   2
  -2   0   4 274.521 6.51693   1
   2  -2  -4 265.863 5.10046   3
  -2   2   4 280.162 7.24574   1
   2   0   4 271.826 5.43742   4
   2   0  -4 267.851 6.46465   1
   0   2  -4 259.796 5.09443   2
  -2   0  -4 262.237 4.97406   3
   2  -2   4 272.795 6.04008   1
  -2   2  -4 262.696 4.76651   2
   0   2   4 284.284 7.26152   1
   0   2   4 278.209 5.40422   2
   0   2   4 272.207 7.15148   1
   0  -2  -4 272.798 7.10083   1
   0  -2  -4 260.480 5.12805   3
  -2   0  -4 263.172 6.74947   1
  -2   2  -4 278.108 5.92167   1
  -2   2   4 277.386 7.24313   1
   0   2   4 278.566 5.45898   4
   2  -2   4 280.719 6.03315   1
  -2   0  -4 260.913 6.69295   1
   2   1  -4 268.218 6.66058   1
  -2  -1  -4 275.412 5.40305   3
   3  -1   4 282.673 7.37171   1
  -2  -1  -4 290.512 7.77948   1
   2  -3   4 282.424 5.13224   4
   3  -1   4 288.930 5.60114   4
  -3   2  -4 290.426 7.07047   1
   2  -3   4 281.037 6.17351   1
   1   2   4 281.160 5.55514   2
  -1  -2   4 275.427 6.17220   1
  -3   2  -4 287.065 7.00921   1
  -3   1   4 291.825 7.65053   1
   3  -2  -4 280.263 7.74318   1
  -2  -1  -4 279.436 7.59080   1
  -2   3   4 291.577 7.95809   1
  -1  -2   4 284.605 6.27297   1
  -2   3   4 285.332 7.79291   1
  -3   1   4 279.742 7.31083   1
  -3   2  -4 281.182 4.97273   3
   1   2   4 277.749 5.63900   4
  -1   3  -4 281.961 5.70325   1
   1  -3  -4 282.034 7.82015   1
   1  -3  -4 284.132 5.51121   3
   2   1  -4 288.379 6.76663   1
   3  -2  -4 276.042 7.67005   1
   1   2   4 282.913 7.67858   1
   3  -1   4 291.927 7.43204   1
   2  -3   4 283.438 6.16976   1
   1  -3  -4 286.445 7.74923   1
  -1   3  -4 285.420 5.68012   1
  -2   3   4 282.001 5.60949   4
  -2   3   4 281.165 5.61682   2
  -1   3  -4 280.328 5.39180   2
   1   2   4 285.884 7.79800   1
  -1   3  -4 275.506 5.07630   4
  -3   2   4 294.487 7.74664   1
  -1   3   4 287.138 7.84477   1
  -1   3   4 286.592 5.63756   2
  -1  -2  -4 286.758 5.50385   3
  -2   3  -4 282.749 6.15235   1
  -1  -2  -4 279.717 7.63715   1
   1   2  -4 284.660 5.56670   2
   1  -3   4 285.896 5.75585   1
  -3   1  -4 269.849 7.23443   1
   3  -2   4 277.557 5.43780   4
  -3   1  -4 275.875 7.25411   1
  -2   3  -4 275.637 5.00594   3
   3  -2   4 291.022 7.01840   1
  -2   3  -4 279.858 6.08760   1
  -1  -2  -4 289.033 7.80043   1
  -2   3  -4 282.422 5.10979   4
   1  -3   4 278.072 5.71226   1
   3  -1  -4 292.117 7.58077   1
   2   1   4 282.984 5.41273   2
   3  -1  -4 285.275 7.47274   1
  -1   3   4 277.904 7.75105   1
   2   1   4 271.618 7.56232   1
  -3   2   4 280.075 7.74640   1
   1   2  -4 280.662 6.21443   1
  -2  -1   4 287.094 6.85638   1
   3  -2   4 280.027 4.98605   3
   2  -3  -4 293.247 7.96427   1
  -2   3  -4 285.113 5.23403   2
   2   1   4 281.106 7.67602   1
   2  -3  -4 279.152 7.78897   1
  -1   3   4 273.189 5.56764   4
  -3   1  -4 280.607 5.16380   3
   2   1   4 281.136 5.66531   4
   3  -2   4 275.477 6.95598   1
   1   2  -4 274.833 6.13883   1
   2  -3  -4 278.462 5.43911   3
   0   3   4 335.469 6.58017   2
   3   0  -4 345.596 8.44894   1
   3  -3   4 326.220 6.20077   4
   0   3   4 324.353 8.84971   1
   0   3  -4 333.353 6.44557   2
   3  -3   4 338.767 7.83078   1
  -3   3  -4 319.789 7.64185   1
   0  -3  -4 329.236 8.87296   1
   0  -3  -4 328.537 6.43026   3
   0  -3   4 342.811 7.01441   1
  -3   0  -4 327.513 8.72148   1
  -3   0  -4 327.787 6.21403   3
   0   3   4 323.709 8.88471   1
  -3   3   4 339.104 6.54016   2
   3   0  -4 329.038 8.23963   1
  -3   0  -4 333.328 8.74588   1
  -3   0   4 345.831 8.47309   1
  -3   0   4 339.599 8.34951   1
   0   3  -4 329.586 6.87638   1
   0  -3   4 330.282 6.95156   1
   3  -3  -4 340.240 9.08521   1
   0   3  -4 338.904 6.94216   1
  -3   3  -4 332.363 5.93251   2
   3   0   4 333.159 6.17149   2
   3  -3  -4 329.592 8.93452   1
  -3   3  -4 339.756 7.75985   1
   0   3   4 330.969 6.55939   4
   3   0   4 327.224 6.61010   4
  -3   3   4 341.188 9.11473   1
   3   0   4 341.680 8.75738   1
   3   0   4 336.611 8.74401   1
   0  -3  -4 328.474 9.00171   1
  -3   3   4 324.922 8.88748   1
   3  -3  -4 337.158 6.31897   3
  -2   4   4 1876.40 36.1414   1
   2  -4   4 1846.90 33.9303   1
  -2   4  -4 1853.42 32.6116   1
  -2  -2  -4 1804.03 34.7645   1
   4  -2   4 1879.62 35.5034   1
   2  -4   4 1919.42 34.0289   1
  -2  -2  -4 1807.12 34.8808   1
   2   2  -4 1832.38 33.3289   1
  -2   4  -4 1790.29 32.5351   1
   2   2   4 1902.51 36.1814   1
   2   2   4 1853.02 36.0596   1
  -2   4   4 1924.25 36.3876   1
  -2  -2  -4 1795.72 31.5712   3
   2  -4  -4 1773.47 34.6656   1
   2   2  -4 1802.96 32.1609   2
   2   2   4 1922.36 33.5374   2
   4  -2   4 1950.01 33.9546   4
   2  -4  -4 1812.81 35.0260   1
   2  -4  -4 1820.33 31.5630   3
   4  -2  -4 1854.78 34.8229   1
  -4   2  -4 1811.40 34.2296   1
   4  -2   4 1904.31 35.5322   1
  -2  -2   4 1884.70 34.7519   1
  -4   2   4 1875.84 35.8808   1
  -2   4  -4 1824.93 31.8944   2
  -4   2   4 1908.90 36.2194   1
  -2   4   4 1909.78 33.9240   4
  -4   2  -4 1805.30 31.0442   3
  -2   4   4 1867.76 33.6566   2
   2   2   4 1930.08 34.0885   4
  -4   3  -4 379.346 9.29794   1
  -1   4  -4 368.193 7.19052   2
   1  -4  -4 370.697 7.23574   3
   3   1  -4 372.464 7.36024   2
  -4   1   4 389.715 10.3958   1
   3  -4   4 413.387 9.22884   1
   4  -1   4 402.622 10.3346   1
  -3  -1  -4 366.099 7.10545   3
   1   3   4 408.291 7.87665   2
   4  -1   4 394.601 7.26251   2
   4  -1   4 396.145 10.3723   1
  -1  -3   4 410.147 8.91219   1
  -3  -1  -4 389.011 10.2284   1
   1   3   4 399.124 10.5939   1
  -3   4   4 387.629 10.7375   1
  -1   4  -4 373.026 8.02110   1
   1   3   4 405.236 7.91061   4
   4  -3  -4 375.816 10.3193   1
   3  -4   4 401.497 7.25873   4
  -1  -3   4 412.407 9.00545   1
   1   3   4 404.514 10.6304   1
  -1   4  -4 364.486 7.99986   1
   1  -4  -4 381.043 10.2884   1
   4  -1   4 402.850 7.93424   4
   3  -4   4 404.942 9.18339   1
   1  -4  -4 368.434 10.1053   1
   3   1  -4 369.590 9.23480   1
  -4   1   4 412.197 10.3854   1
  -3   4   4 412.832 7.90611   2
  -3   4   4 397.241 10.7283   1
  -1  -3  -4 371.392 10.1029   1
   3   1   4 402.031 7.60644   2
   3  -4  -4 382.770 10.2779   1
   3  -4  -4 381.369 7.14150   3
   4  -3   4 405.985 9.83241   1
   3   1   4 409.264 10.5945   1
  -4   1  -4 374.130 6.88811   3
  -3   4  -4 379.162 8.64286   1
   4  -3   4 407.093 9.88248   1
   1   3  -4 371.153 7.34489   2
   4  -1  -4 388.329 10.0017   1
  -3  -1   4 411.407 9.92295   1
  -4   3   4 410.856 10.6873   1
  -1  -3  -4 379.524 10.2655   1
  -1  -3  -4 382.631 7.28036   3
   3   1   4 389.188 10.5097   1
  -3   4  -4 362.240 6.87269   2
   3  -4  -4 380.446 10.4144   1
   3   1   4 400.016 8.00154   4
  -1   4   4 405.909 10.7575   1
  -1   4   4 412.243 10.7704   1
   1   3  -4 361.117 8.37557   1
  -4   1  -4 380.912 10.0395   1
   1  -4   4 394.403 8.47119   1
  -1   4   4 415.208 7.85827   4
   1  -4   4 394.696 8.53725   1
  -4   3   4 411.756 10.8652   1
  -3  -1   4 410.322 9.79567   1
   4  -3   4 400.567 7.64115   4
  -1   4   4 412.202 7.94444   2
   4  -4  -4 72.2804 4.56781   1
   0  -4  -4 93.4514 4.83931   1
   0  -4  -4 79.2119 2.30286   3
   4   0   4 93.6143 4.63077   1
   4  -4   4 89.3679 3.96855   1
   4   0  -4 78.2125 4.13152   1
  -4   4   4 94.0528 2.44445   2
   0  -4  -4 75.5217 4.36291   1
   0  -4   4 89.9508 3.32637   1
   4  -4   4 88.3302 1.99580   4
   4   0   4 88.2124 2.49912   4
   4   0   4 94.2579 4.75729   1
   4  -4  -4 79.4324 2.10951   3
  -4   0  -4 82.9476 4.45379   1
  -4   0  -4 80.3620 2.07831   3
   0   4   4 89.4570 2.52672   2
   0   4   4 86.4709 4.65245   1
   0  -4   4 89.8919 3.29030   1
  -4   0   4 88.3897 4.35409   1
   4  -4   4 88.1665 3.97162   1
  -4   4  -4 78.3062 3.70293   1
  -4   4   4 82.9992 4.76061   1
   4   0   4 90.2441 2.07960   2
   0   4  -4 81.8113 3.15242   1
   0   4   4 84.0500 2.32952   4
  -4   4  -4 77.8168 1.65418   2
   0   4  -4 80.5479 2.26130   2
  -4   0   4 86.3666 4.39058   1
  -4   4   4 78.3082 4.58772   1
   2   3   4 557.731 10.7410   4
   2   3   4 572.661 10.6172   2
  -2  -3   4 564.061 12.5206   1
   5  -3  -4 508.300 13.3849   1
   3   2  -4 496.274 11.9853   1
   3  -5   4 564.230 12.2577   1
   3  -5   4 552.405 12.1461   1
   3   2  -4 505.404 9.83008   2
  -5   2   4 544.889 14.0151   1
  -2   5  -4 506.593 9.60166   2
   2   3   4 528.046 13.8302   1
  -5   2   4 554.471 13.7756   1
   2  -5  -4 500.058 13.2084   1
  -3  -2  -4 497.981 13.1989   1
  -2   5  -4 510.910 10.9839   1
   5  -2   4 552.072 13.5892   1
  -3   5   4 584.577 14.3981   1
  -3   5   4 550.940 10.6672   2
  -3  -2  -4 505.144 9.58595   3
   5  -2   4 573.588 10.7121   4
   2  -5  -4 496.617 13.2253   1
  -3   5   4 553.814 10.5425   4
   2  -5  -4 497.273 9.57446   3
   5  -2   4 565.335 13.6329   1
  -5   3  -4 521.394 12.7123   1
   3  -5  -4 518.541 9.56483   3
  -2   5   4 557.221 10.5379   4
  -3  -2   4 560.067 12.8323   1
   2   3  -4 502.428 9.84053   2
  -2   5   4 548.838 14.0518   1
   5  -3   4 533.375 13.2768   1
   5  -3   4 557.097 13.4229   1
   3   2   4 540.358 13.8559   1
  -2  -3  -4 518.801 9.70062   3
  -5   3   4 555.583 14.1395   1
   3   2   4 561.775 10.7809   4
   2  -5   4 538.437 11.7857   1
  -5   2  -4 518.122 12.9410   1
  -3   5  -4 492.294 11.2013   1
  -2   5   4 547.980 10.6729   2
  -5   3   4 537.217 13.7008   1
   3  -5  -4 504.676 13.4376   1
   2   3  -4 511.035 11.6468   1
   3   2   4 568.269 10.4983   2
   5  -2  -4 518.712 13.1958   1
  -3   5  -4 507.781 9.42886   2
   2  -5   4 553.025 11.8148   1
  -3  -2   4 558.615 12.9988   1
  -2  -3  -4 515.816 13.3215   1
   5  -3   4 534.968 10.4963   4
   5  -4  -4 247.043 5.04862   3
   1   4   4 250.155 5.43962   2
   1   4   4 236.107 8.38188   1
  -4  -1  -4 248.570 5.17955   3
   5  -1   4 254.358 5.52051   4
  -4  -1  -4 245.239 8.58864   1
  -5   1   4 251.039 8.28836   1
  -4   5   4 240.398 8.73817   1
  -5   1   4 257.601 8.55261   1
  -1   5  -4 248.432 5.27259   2
   1   4   4 246.801 5.35653   4
   1  -5  -4 245.553 8.56296   1
  -5   4  -4 236.318 7.65993   1
   5  -1   4 245.021 4.75900   2
  -1   5  -4 241.133 6.52991   1
   4   1  -4 251.473 5.41048   2
   5  -4  -4 258.028 8.81324   1
   1  -5  -4 249.558 5.32384   3
   5  -1   4 262.971 8.61190   1
  -1  -4   4 254.913 6.96425   1
  -4   5   4 257.138 5.42894   2
   4  -5   4 241.038 7.18167   1
   4  -5   4 249.409 4.62053   4
  -1  -4   4 242.280 6.89729   1
   4  -5   4 251.414 7.70742   1
   4   1  -4 255.017 7.90278   1
   5  -1   4 262.526 8.51978   1
  -1  -4  -4 261.106 8.81546   1
  -4   5  -4 243.947 4.80873   2
   4   1   4 247.023 5.10549   2
   5  -4   4 265.823 7.99858   1
  -4  -1   4 249.011 7.88500   1
   4   1   4 256.555 5.53973   4
   4  -5  -4 256.409 5.12110   3
  -1  -4  -4 248.747 5.36476   3
   4   1   4 246.005 8.50127   1
   5  -4   4 237.897 7.81740   1
  -1   5   4 253.576 5.27359   4
  -5   1  -4 254.655 8.45334   1
   5  -1  -4 256.172 8.43032   1
  -1   5   4 245.943 5.45453   2
   1  -5   4 248.941 6.65013   1
  -5   1  -4 243.217 4.90602   3
  -1   5   4 242.702 8.42407   1
  -5   4   4 252.057 8.88611   1
  -4  -1   4 237.201 7.81131   1
   1   4  -4 235.462 5.33802   2
   5  -4   4 247.241 5.05851   4
   4  -5  -4 248.511 8.80458   1
  -4   5  -4 253.858 7.29236   1
   1  -5   4 243.509 6.58595   1
   1   4  -4 249.049 6.89947   1
  -5   0   4 30.8191 3.34163   1
   0  -5  -4 37.9544 1.66826   3
   5  -5  -4 38.3232 1.44989   3
   5  -5   4 35.5026 1.16152   4
  -5   5  -4 36.3150 3.18101   1
  -5   0   4 35.1588 3.54953   1
  -5   0  -4 38.9873 3.98218   1
  -5   5   4 33.4593 3.65029   1
   5  -5  -4 41.1983 3.90371   1
   0   5  -4 38.0541 1.09659   4
   5  -5   4 38.6837 3.27896   1
   0   5  -4 45.2491 1.74816   2
   5   0   4 40.0524 1.73925   4
   0   5   4 37.7202 3.64027   1
   5   0   4 39.6735 3.96971   1
   5   0  -4 39.6879 1.67899   2
   0   5   4 36.8730 1.51298   4
   0   5   4 38.4543 1.72579   2
   0  -5   4 41.6496 2.74569   1
  -5   5   4 41.2541 1.65984   2
  -5   5  -4 37.7121 1.04810   2
   0  -5  -4 36.8780 3.76726   1
   5   0   4 37.4313 1.29466   2
   5   0  -4 40.2577 3.62448   1
  -5   0  -4 39.1044 1.47778   3
   6  -3   4 117.000 3.09933   4
  -3  -3   4 112.953 5.25140   1
   6  -3   4 115.374 5.81671   1
  -3   6   4 110.467 3.17141   2
  -3   6   4 108.609 6.10958   1
   3  -6   4 113.437 4.70125   1
   3   3   4 111.821 6.10939   1
  -3  -3  -4 113.657 6.28739   1
   6  -3  -4 108.164 6.05052   1
   3   3  -4 117.855 3.20586   2
   3  -6  -4 112.493 2.97623   3
  -6   3   4 115.301 6.24102   1
  -3   6   4 118.102 2.91456   4
   3   3   4 118.594 3.20021   4
   3  -6  -4 121.204 6.25323   1
  -3   6  -4 115.455 2.87292   2
  -3  -3  -4 112.390 3.09926   3
   6  -3   4 110.197 5.97866   1
   3   3   4 112.873 3.06218   2
  -6   3  -4 114.113 5.88195   1
  -6   2   4 53.2744 4.59710   1
  -6   2   4 60.4130 4.64784   1
  -4   6   4 55.0921 2.08511   2
   6  -2   4 58.9349 4.58078   1
   2   4   4 57.2993 2.05239   4
  -2  -4   4 65.9115 3.80287   1
  -6   4  -4 47.4730 4.06655   1
   6  -2   4 53.8278 4.37786   1
   2   4   4 63.0648 4.84313   1
   2  -6  -4 44.1107 4.14321   1
  -4   6   4 63.7093 4.95835   1
  -4  -2  -4 54.2217 4.58083   1
   2  -6  -4 51.5370 1.93641   3
   2   4   4 58.6104 2.12634   2
   4   2  -4 53.6047 2.03533   2
  -4  -2  -4 52.6965 1.92451   3
  -2   6  -4 53.6286 1.89206   2
   6  -4  -4 63.0719 4.91123   1
   4  -6   4 57.1109 3.64846   1
   6  -2   4 55.4329 2.09206   4
  -4  -2   4 58.0971 4.07667   1
   4   2   4 59.7315 1.96558   2
  -4   6  -4 53.5049 1.65931   2
   6  -2  -4 51.5321 4.32387   1
  -2   6   4 59.9617 4.63465   1
  -2   6   4 58.3210 2.21150   2
  -2   6   4 61.7037 1.92170   4
   6  -4   4 62.5309 4.42908   1
   2  -6   4 64.1389 3.52730   1
   6  -4   4 57.7985 1.91327   4
   4   2   4 61.0300 2.22373   4
  -2  -4  -4 53.2190 2.00590   3
  -2  -4  -4 59.1531 4.81728   1
  -6   4   4 55.7365 4.75287   1
   4   2   4 55.3330 4.57884   1
   4  -6  -4 52.1697 1.81107   3
   2   4  -4 50.5909 1.99276   2
  -6   2  -4 57.1295 4.56222   1
   4  -6  -4 44.4347 4.49729   1
  -5  -1  -4 35.7349 3.99628   1
  -5   6   4 34.4088 3.98030   1
  -1   6  -4 35.3982 1.62586   2
  -5   6   4 33.0977 1.57184   2
   6  -5  -4 35.3350 1.42672   3
   6  -1   4 34.2372 4.03868   1
   5   1  -4 36.8453 1.71732   2
  -1  -5   4 31.1166 2.87507   1
   6  -1   4 31.9026 1.66017   4
   5  -6   4 24.9311 3.00417   1
   1   5   4 33.6266 1.68454   2
   6  -5  -4 30.4448 4.03366   1
  -5  -1  -4 38.3389 1.61687   3
   1  -6  -4 28.0388 3.70620   1
   1  -6  -4 37.8771 1.70806   3
   1   5   4 33.3504 4.06473   1
   1   5   4 33.7717 1.56182   4
  -6   1   4 31.8772 3.69423   1
   1   5  -4 35.2860 1.23866   4
  -1   6   4 30.4522 1.41415   4
  -1   6   4 31.1988 1.68203   2
   6  -5   4 32.1662 3.57492   1
  -1  -5  -4 36.0230 4.24447   1
   5   1   4 30.9177 1.65522   4
   6  -1  -4 32.0088 3.67456   1
  -5  -1   4 45.2245 4.00635   1
   1   5  -4 35.6990 1.71407   2
  -6   5   4 33.7907 4.17654   1
  -6   1  -4 34.1136 4.09298   1
   1  -6   4 32.0293 2.73553   1
   5   1   4 27.0361 3.59197   1
  -1   6   4 28.6231 3.69317   1
   5   1   4 31.9544 1.36309   2
  -5   6  -4 33.9154 1.18541   2
   5  -6  -4 33.8623 1.44103   3
   5  -6  -4 30.2122 3.79780   1
   6  -5   4 32.0019 1.28652   4
  -1  -5  -4 36.0390 1.69925   3
   6  -6  -4 190.469 8.78809   1
   0   6   4 198.380 4.62492   4
   6   0  -4 192.352 4.74432   2
   6   0   4 202.142 8.76729   1
  -6   0  -4 202.081 8.88590   1
   6  -6  -4 193.740 4.33145   3
   6   0   4 209.117 5.06791   4
   0   6  -4 198.379 4.81660   2
   0  -6  -4 190.647 8.53745   1
  -6   6   4 192.206 8.75523   1
  -6   6   4 193.822 4.69651   2
   0   6   4 193.363 8.49177   1
   6   0   4 200.686 4.34017   2
   0  -6   4 185.711 6.66517   1
   6  -6   4 184.883 7.63803   1
  -6   0   4 218.011 8.76410   1
   0   6   4 205.131 5.03844   2
   0  -6  -4 202.927 4.84097   3
   3  -7  -4 31.5916 1.58244   3
  -4  -3  -4 30.7826 4.08331   1
  -4  -3  -4 32.4801 1.67839   3
   7  -3   4 30.3930 1.65474   4
   3   4   4 29.0813 1.64825   4
  -3   7  -4 34.6681 1.57306   2
  -3  -4   4 26.7706 3.24820   1
  -7   3   4 20.8533 3.85817   1
   4   3  -4 36.2326 1.83768   2
   3   4   4 26.5306 3.94365   1
  -4   7   4 26.5372 1.64304   2
  -4   7   4 30.0438 4.30163   1
   4  -7   4 28.9855 3.14914   1
   7  -4  -4 37.3918 4.43863   1
   7  -3   4 34.3377 4.18758   1
   3   4   4 28.9613 1.59098   2
   3  -7  -4 34.2225 4.35362   1
  -4  -3   4 29.5142 3.54418   1
  -3   7   4 29.3462 1.71401   2
  -7   4   4 32.7058 4.10623   1
   3  -7   4 33.3825 3.12904   1
   4  -7  -4 32.8100 1.54705   3
   7  -4   4 33.2137 3.92173   1
  -3  -4  -4 35.2919 1.81194   3
   4   3   4 34.6591 4.30738   1
  -3   7   4 28.4952 4.06972   1
   4  -7  -4 34.3000 4.52067   1
   4   3   4 29.8775 1.66584   4
  -3  -4  -4 27.3000 4.19215   1
  -4   7  -4 33.4633 1.47535   2
   7  -3  -4 38.4659 4.65941   1
   3   4  -4 34.5584 1.79720   2
   4   3   4 30.4973 1.60055   2
   7  -4   4 31.3731 1.56805   4
   3   4  -4 32.4811 1.50595   4
  -3   7   4 30.2754 1.39612   4
   5   2  -4 66.2988 2.45457   2
   5  -7   4 69.2938 4.56233   1
  -7   2   4 59.7402 5.27062   1
  -5   7   4 57.2884 5.18971   1
   7  -5  -4 65.0453 2.06618   3
   2   5   4 62.3648 2.44550   2
   2   5   4 61.1167 2.27380   4
  -5   7   4 62.3008 2.36047   2
   7  -2   4 63.5306 2.42252   4
   2  -7  -4 61.3897 2.29129   3
   7  -5  -4 58.6318 5.51844   1
  -2  -5   4 57.7097 4.16900   1
   2   5   4 61.2433 5.40086   1
   7  -2   4 60.2550 5.06622   1
   2  -7  -4 64.5024 5.56881   1
  -5  -2  -4 62.5759 2.29826   3
  -2   7  -4 63.4131 2.30240   2
  -5  -2  -4 59.2725 5.27201   1
  -2   7   4 60.9851 2.04305   4
  -2   7   4 67.7532 5.53747   1
  -7   2  -4 65.8435 5.36027   1
   7  -2  -4 58.1408 5.19160   1
  -2  -5  -4 53.9466 5.38204   1
   7  -5   4 55.7983 2.03706   4
   5   2   4 58.6664 2.14167   2
   5  -7  -4 65.9562 5.56981   1
   2   5  -4 67.2337 2.46621   2
   2   5  -4 58.9386 1.93857   4
   5   2   4 59.9791 2.42601   4
  -2   7   4 63.4623 2.48326   2
  -7   5   4 67.1754 5.72917   1
   2  -7   4 58.0071 3.88604   1
  -5  -2   4 57.7809 4.72383   1
  -2  -5  -4 62.9817 2.42404   3
   7  -5   4 57.9941 4.80250   1
   5   2   4 58.0183 5.19716   1
   5  -7  -4 65.2406 2.13628   3
   7  -1   4 71.7213 2.71821   4
   7  -1   4 60.5422 5.54757   1
  -7   1   4 65.2005 5.53378   1
  -1   7  -4 60.6498 2.38439   2
  -6   7   4 69.5485 6.19377   1
   1  -7  -4 54.9264 5.40103   1
   6  -7   4 66.5172 4.85868   1
   1   6   4 70.7964 2.67215   2
   1  -7  -4 58.9726 2.34368   3
   1   6   4 68.9054 5.93277   1
   7  -6  -4 60.3678 5.90216   1
  -6  -1  -4 55.1594 5.45121   1
   6   1  -4 60.1486 2.37426   2
   1   6   4 63.6171 2.34225   4
  -1  -6   4 68.3381 4.47212   1
   7  -6  -4 54.2829 1.92531   3
  -6   7   4 69.1459 2.47635   2
  -7   1  -4 51.1115 5.37593   1
  -1   7   4 64.0820 2.60466   2
  -7   6   4 58.8638 5.84638   1
   6   1   4 66.5391 2.21705   2
   6  -7  -4 54.6050 1.97562   3
   6   1   4 68.9483 5.87701   1
  -1   7   4 69.4727 2.24786   4
   7  -6   4 63.6536 5.20986   1
   6  -7  -4 61.5093 5.89425   1
  -6  -1   4 60.0818 5.24152   1
   6   1   4 66.1335 2.62866   4
  -1  -6  -4 59.7439 2.40008   3
   7  -1  -4 54.5633 2.21967   2
  -1  -6  -4 58.0985 5.58922   1
   1   6  -4 61.9045 2.45607   2
   1  -7   4 67.8879 4.31969   1
  -7   7   4 68.7733 6.40057   1
   0   7  -4 62.2731 2.60274   2
  -7   0  -4 58.9840 6.00217   1
  -7   7   4 75.3563 2.61652   2
   0  -7  -4 62.8097 2.57230   3
   0   7   4 67.9200 2.41487   4
   7   0   4 76.4940 2.95732   4
   7   0  -4 63.9798 2.50334   2
   7  -7  -4 72.5515 6.53956   1
   0   7   4 74.1754 2.90486   2
   7   0   4 78.7128 6.38100   1
   4   4   4 49.1248 2.19568   2
  -4   8   4 53.9577 2.34678   2
   4  -8  -4 48.5323 2.00446   3
  -8   4   4 56.0233 5.59499   1
  -4  -4  -4 47.2044 2.19964   3
  -4  -4  -4 49.2373 5.36174   1
  -4   8  -4 45.4710 1.92057   2
   4   4   4 52.1762 2.30591   4
   8  -4  -4 34.7172 4.81732   1
   4   4  -4 44.9921 1.97209   4
   4   4   4 48.9447 5.49410   1
   8  -4   4 51.7546 2.21288   4
   4   4  -4 47.1618 2.23252   2
   3   5   4 24.2485 1.61686   4
   3  -8  -4 21.6574 1.43684   3
   3   5   4 25.1646 1.67800   2
   5   3  -4 21.6723 1.62056   2
  -8   3   4 21.3300 4.64350   1
  -5  -3  -4 21.8123 1.58238   3
  -5  -3  -4 21.8906 4.80135   1
   8  -3   4 24.0898 1.67022   4
  -5   8   4 25.1791 1.64808   2
   8  -5  -4 16.7395 4.37789   1
  -3   8  -4 21.8072 1.47703   2
  -8   5   4 29.1997 5.01253   1
   3   5  -4 22.6163 1.32275   4
   8  -5   4 22.0129 1.42273   4
   5  -8  -4 20.4274 1.34055   3
  -3  -5  -4 12.7206 3.94120   1
   3   5  -4 21.1438 1.63583   2
   5   3   4 20.8960 1.45929   2
   5   3   4 23.5926 1.66778   4
   5   3   4 13.2941 4.25324   1
  -3  -5  -4 21.6136 1.56969   3
  -3   8   4 23.5628 1.73359   2
   6   2  -4 18.5354 1.46782   2
  -6  -2  -4 18.0113 4.79009   1
   8  -6  -4 10.7701 3.99033   1
  -6   8   4 17.3071 1.43189   2
  -2   8  -4 16.1051 1.41736   2
   2   6   4 17.9735 1.52542   2
   2  -8  -4 13.8141 1.35854   3
   2   6   4 17.0973 1.40634   4
   8  -2   4 18.5178 1.56627   4
   6   2   4 19.9518 4.82382   1
   6   2   4 16.8805 1.51765   4
   6   2   4 17.0259 1.32699   2
   8  -2  -4 15.8687 1.36690   2
  -8   6   4 14.8365 4.33866   1
  -2  -6  -4 15.6782 1.45120   3
  -2   8   4 16.5231 1.53624   2
   2   6  -4 17.9954 1.49303   2
  -1   8  -4 13.9517 1.40983   2
   1  -8  -4 17.6775 1.56058   3
  -7   8   4 14.9593 1.35547   2
   7   1  -4 17.0022 1.46537   2
  -7  -1  -4 10.9126 4.84215   1
   1   7   4 16.8190 1.35590   4
   8  -1   4 15.6742 1.56402   4
   1   7   4 17.4507 1.62001   2
  -1  -7  -4 12.9797 1.40136   3
   1   7  -4 16.4245 1.55191   2
  -1   8   4 17.6673 1.65417   2
  -8   7   4 18.5157 4.70019   1
   8  -1  -4 14.7599 1.38434   2
   7   1   4 14.2204 1.49622   4
  -8   8   4 7.87673 1.21203   2
   0   8   4 7.68249 1.47495   2
   8   0   4 8.83508 1.34127   4
   8   0  -4 7.80579 1.22663   2
   0  -8  -4 6.14117 1.27392   3
   0   8  -4 6.53169 1.23103   2
   5   4  -4 24.9209 1.90349   2
  -4   9  -4 22.0757 1.61929   2
   5   4  -4 19.4878 1.56153   4
   9  -4   4 24.6759 1.80253   4
   4  -9  -4 21.4114 1.55484   3
   4   5   4 27.0072 1.86370   2
   4   5   4 25.0688 1.76156   4
  -5   9   4 24.2905 1.77735   2
  -5  -4  -4 17.9493 1.63275   3
   4   5  -4 22.3135 1.83632   2
  -4  -5  -4 23.7116 1.77895   3
   5   4   4 24.4721 1.82503   4
   5   4   4 27.3182 1.80965   2
   9  -5   4 25.5878 1.72176   4
  -4   9   4 23.6747 1.88242   2
   4   5  -4 20.2354 1.46969   4
   3  -9  -4 12.6447 1.36817   3
  -6   9   4 11.2321 1.44147   2
   6   3  -4 9.33099 1.33818   4
   3   6   4 10.7279 1.42797   2
   9  -3   4 12.8836 1.52313   4
   6   3  -4 11.3667 1.47206   2
  -3   9  -4 10.4577 1.33535   2
   3   6   4 13.5735 1.37322   4
   6   3   4 12.6966 1.37342   2
  -3  -6  -4 12.2874 1.52520   3
   6   3   4 14.8044 1.62546   4
   3   6  -4 11.9528 1.52425   2
  -3   9   4 13.0621 1.59925   2
   2   7   4 3.83055 1.03642   4
  -2   9  -4 2.64312 1.11589   2
   9  -2   4 5.25052 1.33232   4
   2   7   4 3.25923 1.19327   2
   2  -9  -4 2.83786 1.03331   3
  -7   9   4 3.81616 1.07811   2
   7   2  -4 4.49742 1.12582   2
   7   2   4 4.55045 1.19411   4
   2   7  -4 2.61190 1.08371   2
  -2  -7  -4 5.02065 1.27094   3
   9  -2  -4 5.90853 1.09597   2
  -2   9   4 3.38370 1.26004   2
  -1   9  -4 5.40316 1.33181   2
   8   1  -4 5.34901 1.20623   2
   9  -1   4 3.50718 1.25432   4
   1  -9  -4 5.22346 1.32428   3
  -8   9   4 1.14505 0.95191   2
   1   8   4 3.37066 1.22509   2
   9  -1  -4 2.62678 1.02578   2
   8   1   4 1.79678 1.10244   4
  -1   9   4 2.89919 1.31339   2
  -1  -8  -4 3.65465 1.25499   3
   1   8  -4 3.01142 1.19989   2
   5   5   4 10.8742 1.43956   2
  -5  -5  -4 9.31061 1.47764   3
  10  -5   4 9.93129 1.40412   4
   5   5  -4 11.8374 1.64668   2
   5   5   4 8.35510 1.38987   4
  -5  10   4 11.6528 1.64807   2
   6   4  -4 1.86049 1.08588   2
   4   6   4 4.38555 1.22931   4
  -4  10  -4 2.20562 1.09887   2
   4   6   4 4.16701 1.32729   2
  10  -4   4 1.29921 1.11210   4
  -6  10   4 4.08297 1.18153   2
   6   4  -4 2.06590 1.01436   4
   6   4   4 4.71097 1.16478   2
  -4  -6  -4 3.42690 1.31548   3
  -4  10   4 4.47102 1.39530   2
   4   6  -4 3.33614 1.19157   2
   6   4   4 2.47164 1.17275   4
   7   3  -4 4.48309 1.37932   2
   3   7   4 2.89381 1.09380   4
   3 -10  -4 0.82626 1.06385   3
   7   3  -4 1.07130 1.10447   4
  -7  10   4 1.76287 1.07845   2
   3   7   4 0.56001 1.08445   2
  10  -3   4 1.85617 1.24474   4
  -3  10  -4 1.56700 1.17617   2
  -3  -7  -4 1.05827 1.19740   3
   7   3   4 3.30421 1.36524   4
   3   7  -4 1.70128 1.14193   2
  -3  10   4 -0.1519 1.11376   2
   0   0   5 -0.2898 0.26825   4
   0   0  -5 -0.4510 0.56077   1
   0   0   5 0.02165 0.58703   1
   0   0   5 -0.8787 0.55002   1
   0   0  -5 -0.4389 0.25452   3
   0   0  -5 0.25309 0.61918   1
   1   0   5 35.7240 1.96991   1
  -1   1  -5 32.5186 1.43769   1
  -1   1   5 31.4470 1.08321   2
   1  -1  -5 32.6336 2.00849   1
  -1   1   5 35.5010 2.09168   1
   0   1   5 33.3718 2.08401   1
  -1   1   5 33.0323 1.14976   4
  -1   1   5 34.6904 2.07982   1
  -1   0   5 35.8125 1.77991   1
   1   0   5 36.2292 1.14881   4
  -1   1  -5 33.4579 1.42719   1
  -1   1  -5 33.0823 0.95067   3
  -1   0  -5 33.8431 1.87419   1
   0  -1  -5 31.4105 1.09083   3
   0  -1   5 33.4153 1.02301   4
   1   0   5 32.4196 0.93411   2
  -1   0  -5 31.5797 1.85354   1
   1   0   5 34.4115 1.93933   1
   0   1   5 33.1397 2.04666   1
   1   0  -5 32.9978 1.70179   1
  -1   0   5 36.7147 1.79028   1
   1  -1   5 35.6951 1.48670   1
  -1   0  -5 33.2810 1.03583   3
   1  -1  -5 32.5300 1.08795   3
   1  -1  -5 29.9122 1.96033   1
   0  -1  -5 34.2259 2.13121   1
   1   0  -5 33.5080 1.69281   1
   1  -1   5 33.4383 1.03097   4
   1  -1   5 36.8531 1.49027   1
   0   1   5 32.7832 1.07030   2
   0   1   5 32.8155 1.16005   4
   0  -1  -5 32.8531 2.04977   1
   1   1   5 -0.2887 0.35587   4
  -2   1   5 0.27286 0.81162   1
   1   1  -5 -0.2854 0.46622   1
   1  -2  -5 0.40621 0.34279   3
  -2   1   5 0.38120 0.90486   1
  -1  -1  -5 0.35169 1.02186   1
   1  -2  -5 0.59030 0.96669   1
  -1   2   5 -0.1810 0.99314   1
   1  -2   5 0.01085 0.19083   4
   1   1   5 -0.1734 0.24066   2
  -1  -1  -5 -0.7419 0.96202   1
  -2   1  -5 1.02010 0.82613   1
  -2   1  -5 0.03931 0.21636   3
  -1   2   5 0.26972 1.02422   1
  -1   2  -5 0.54700 0.24154   2
  -1  -1   5 0.28124 0.49978   1
   2  -1   5 0.19650 0.28821   4
   2  -1  -5 0.67539 0.84514   1
  -2   1  -5 0.02748 0.81235   1
   1   1  -5 0.81446 0.53535   1
  -1   2   5 -0.0154 0.31614   2
   1   1   5 0.55392 1.08790   1
   2  -1   5 -0.2609 0.68165   1
  -1  -1   5 -0.1093 0.48146   1
   2  -1  -5 0.31996 0.84737   1
  -1  -1  -5 -0.2547 0.29163   3
  -1   2   5 -0.2259 0.38222   4
   1  -2  -5 -1.1817 0.82014   1
   1   1   5 0.06717 1.12556   1
  -2   2   5 1252.21 24.8699   1
   2   0   5 1268.01 24.5122   1
  -2   2   5 1296.29 25.0104   1
  -2   2   5 1306.18 23.0215   2
  -2   2  -5 1286.55 22.8708   2
   0   2   5 1299.60 22.9935   2
   2   0  -5 1297.69 24.4139   1
   0  -2  -5 1328.79 22.9691   3
  -2   2  -5 1306.70 23.5794   1
   2  -2  -5 1336.79 25.2311   1
  -2   2  -5 1325.12 23.6601   1
   2   0   5 1309.26 22.6784   2
  -2   2   5 1320.82 23.3295   4
   2  -2  -5 1303.16 22.9004   3
   2  -2   5 1295.40 23.3193   1
   2   0   5 1249.91 24.4517   1
   0  -2  -5 1289.83 25.2544   1
   0   2   5 1295.03 24.9683   1
   2   0  -5 1304.33 24.3128   1
  -2   0   5 1301.06 24.1509   1
   0  -2  -5 1277.31 25.1698   1
   2  -2  -5 1330.15 25.3271   1
   0   2   5 1310.95 24.9833   1
   0   2  -5 1316.86 23.2203   2
  -2   0  -5 1354.44 24.9092   1
   2   0   5 1312.35 23.2846   4
  -2   0  -5 1302.96 24.8897   1
   2  -2   5 1285.25 23.2914   1
  -2   0  -5 1295.13 22.7481   3
   0   2   5 1328.54 23.3400   4
   2  -2   5 1249.16 23.0069   4
  -2   2  -5 1326.59 22.5240   3
   1   2   5 88.7473 4.22136   1
  -2   3   5 91.4113 2.42203   2
  -2  -1  -5 96.3789 4.28446   1
   2   1  -5 90.1241 3.26454   1
   2  -3   5 92.2626 1.91675   4
   3  -1   5 90.0284 3.85529   1
   1   2   5 105.983 4.42345   1
   3  -2  -5 90.1824 4.19246   1
   1  -3  -5 93.7516 2.38682   3
  -3   2  -5 89.6674 1.86850   3
  -3   2  -5 92.1522 3.50341   1
   2   1  -5 91.2333 3.35783   1
  -2   3   5 97.5847 4.43327   1
  -3   1   5 95.3214 3.97282   1
   1   2   5 94.6512 2.43018   4
   3  -1   5 93.0447 1.79254   2
  -3   2  -5 98.1249 3.63523   1
  -1  -2   5 90.4852 2.77025   1
  -2   3   5 91.2108 4.36410   1
  -2   3   5 95.6209 2.41472   4
  -2  -1  -5 93.8551 2.29861   3
   3  -1   5 92.2323 3.86195   1
   1  -3  -5 100.719 4.41815   1
   1   2   5 94.3521 2.32686   2
   3  -2  -5 88.9652 4.11874   1
  -1  -2   5 92.2489 2.84345   1
   1  -3  -5 91.5304 4.32953   1
   2  -3   5 90.4386 2.67621   1
   2  -3   5 97.0534 2.70555   1
  -3   1   5 93.8282 4.05701   1
  -1   3  -5 92.4871 2.17115   2
   3  -1   5 96.5207 2.35305   4
  -2  -1  -5 102.462 4.33428   1
  -2   3  -5 90.7906 2.00989   2
   2   1   5 90.3073 2.17386   2
  -2  -1   5 98.9298 3.49035   1
  -1   3   5 91.6773 2.37184   4
   1   2  -5 92.9758 2.36009   2
   2  -3  -5 92.8262 4.35468   1
   2  -3  -5 92.6325 2.33856   3
  -3   1  -5 92.4911 3.86771   1
  -3   2   5 97.7022 4.36538   1
  -2   3  -5 96.5395 2.71676   1
  -2  -1   5 89.3251 3.29394   1
   3  -1  -5 89.9088 3.95954   1
  -3   1  -5 90.9461 1.78351   2
   2  -3  -5 92.9026 4.42347   1
   2   1   5 90.8295 4.18798   1
  -3   2   5 90.3697 4.20552   1
  -3   1  -5 91.7203 2.03903   3
  -1   3   5 93.2746 2.43811   2
  -3   1  -5 91.6658 3.85939   1
  -1   3   5 90.1400 4.32396   1
  -1  -2  -5 95.6449 4.32242   1
   3  -2   5 96.4848 3.74861   1
   1   2  -5 96.6613 2.81075   1
  -1  -2  -5 93.6752 2.37155   3
   3  -2   5 90.6720 3.57646   1
  -1   3   5 86.7253 4.20512   1
   2   1   5 96.7225 4.25031   1
   3  -2   5 93.4613 2.21837   4
   2   1   5 95.6723 2.43623   4
  -1  -2  -5 90.8362 4.25788   1
   1   2  -5 94.0095 2.80190   1
  -2   3  -5 90.2096 2.64503   1
   3  -1  -5 101.293 4.18861   1
   3  -3  -5 262.557 7.94947   1
   3   0   5 264.644 7.64696   1
   0  -3   5 265.630 5.44253   1
  -3   3  -5 258.748 6.43530   1
   3  -3   5 257.713 5.04558   4
  -3   0   5 259.043 7.24037   1
  -3   3   5 267.061 8.02447   1
   0  -3  -5 265.196 7.90224   1
   3  -3   5 254.996 6.42814   1
   3   0  -5 258.982 7.16967   1
  -3   3  -5 265.716 4.72913   2
   0  -3  -5 257.678 7.91537   1
  -3   3  -5 262.585 6.47488   1
   0   3   5 268.333 5.44737   2
   3   0   5 259.826 5.45793   4
   0   3  -5 274.163 5.41933   1
  -3   3   5 261.792 5.42018   2
  -3   0  -5 257.779 5.06474   3
   3   0   5 259.081 4.96775   2
  -3   3   5 273.853 8.02561   1
  -3   0  -5 251.527 7.61336   1
   0  -3  -5 263.227 5.33648   3
   3  -3  -5 262.012 5.24616   3
   3  -3   5 267.619 6.53901   1
   0   3   5 271.490 8.03677   1
   0   3   5 261.061 5.43747   4
  -3   0   5 273.180 7.20918   1
   0   3   5 263.184 7.93101   1
   0  -3   5 260.608 5.40297   1
   0   3  -5 262.963 5.38354   1
   3   0   5 270.460 7.70008   1
   0   3  -5 261.523 5.28889   2
   4  -2  -5 -0.2944 1.28227   1
   2   2   5 -0.2379 1.83234   1
   4  -2   5 1.34516 1.32849   1
  -2   4   5 0.42791 0.51329   4
   4  -2   5 -1.0384 1.35548   1
   2   2   5 0.30081 0.40694   2
   2   2  -5 -0.1699 0.89882   1
  -2   4   5 2.63638 0.59263   2
  -4   2   5 -0.6221 1.33550   1
   2   2  -5 0.58157 0.47535   2
   2  -4  -5 -0.1250 0.50378   3
  -2   4  -5 0.14302 0.67754   1
  -2   4   5 -1.2345 1.55792   1
  -2   4  -5 0.26021 0.65590   1
   2   2   5 -0.4643 0.54006   4
  -2   4  -5 -0.0908 0.34753   2
   4  -2   5 -0.0518 0.37663   4
   2  -4   5 -0.0267 0.65593   1
  -4   2  -5 -0.8659 1.24967   1
   2  -4  -5 0.95456 1.72798   1
  -4   2   5 -0.7042 1.24225   1
  -2  -2  -5 -0.4484 1.49393   1
   2  -4   5 -0.5052 0.61909   1
  -2  -2  -5 0.49165 0.45423   3
  -2   4   5 -0.7657 1.81516   1
  -2  -2   5 -0.4586 0.98469   1
   2   2   5 0.42276 1.47932   1
  -4   2  -5 0.20856 0.23280   3
  -2  -2   5 -0.5242 0.82447   1
  -3   4   5 4.96918 0.68839   4
  -1   4  -5 4.85501 0.85671   1
  -4   1   5 4.20383 1.55142   1
   3  -4   5 4.06396 0.29775   4
  -3  -1  -5 1.61387 1.59266   1
   1   3   5 3.59076 0.60790   4
   3   1  -5 3.41353 1.28800   1
   4  -1   5 6.42771 1.73412   1
   4  -1   5 4.60499 0.31182   2
   3  -4   5 3.83247 1.08827   1
  -1  -3   5 4.35854 1.06162   1
   4  -1   5 7.17246 1.88692   1
   1  -4  -5 5.04163 0.68507   3
   4  -3  -5 3.60584 1.69695   1
   4  -1   5 3.85840 0.66721   4
  -3   4   5 4.87275 0.69826   2
  -4   1   5 3.85660 1.52032   1
  -1  -3   5 7.88092 1.20254   1
  -1   4  -5 4.67145 0.60613   2
   1   3   5 7.81438 2.17308   1
  -3   4   5 5.90042 2.16043   1
  -1   4  -5 4.39581 0.82887   1
   1  -4  -5 4.62095 1.99063   1
  -3   4   5 3.32639 1.78825   1
  -3  -1  -5 5.22018 0.65795   3
   3  -4   5 4.72696 1.14077   1
   1   3   5 5.23580 0.70965   2
  -4   3  -5 4.62724 1.46679   1
   1   3   5 4.28475 2.02368   1
  -1   4   5 4.63496 1.96254   1
   3  -4  -5 4.72780 2.08294   1
   1   3  -5 2.59291 0.92022   1
  -3  -1   5 7.04298 1.52722   1
  -4   3   5 1.95325 1.61301   1
   1  -4   5 4.16719 0.81272   1
  -4   1  -5 5.10877 0.48984   3
   3   1   5 6.33593 1.90779   1
  -1   4   5 3.56589 1.90031   1
   4  -3   5 5.05821 1.42913   1
  -4   1  -5 5.71016 1.94708   1
   1  -4   5 4.85371 0.85129   1
   3   1   5 3.97869 0.51213   2
   3   1   5 6.11445 1.79951   1
  -1   4   5 4.35853 0.73326   2
  -1   4   5 4.55086 0.67309   4
  -3   4  -5 4.33432 0.39735   2
  -1  -3  -5 3.99687 2.01146   1
   4  -1  -5 5.16267 1.72563   1
   4  -3   5 5.19478 1.43411   1
  -1  -3  -5 4.54589 0.69482   3
   1   3  -5 4.27212 0.70518   2
   4  -3   5 4.25559 0.49852   4
   3  -4  -5 4.11391 0.59912   3
   3   1   5 3.91655 0.68425   4
  -4   3   5 2.71686 1.84154   1
  -3   4  -5 2.47763 0.99396   1
  -3  -1   5 5.33726 1.42978   1
   0   4   5 303.019 9.39992   1
   0  -4  -5 299.860 9.38014   1
  -4   0   5 295.956 8.57391   1
  -4   4   5 284.796 9.29287   1
   0   4   5 293.775 6.19195   2
   0   4   5 303.682 6.17336   4
   0  -4   5 291.951 6.77414   1
   4  -4  -5 301.459 9.49453   1
   4   0   5 278.721 8.92096   1
   0   4  -5 305.084 6.17267   2
   4   0   5 310.049 9.14071   1
  -4   4  -5 296.577 7.87187   1
   4   0  -5 301.079 8.74537   1
   4   0   5 298.831 5.67692   2
  -4   4   5 297.192 6.16312   2
   0  -4   5 298.267 6.82793   1
   4  -4   5 287.801 7.83375   1
   4  -4  -5 308.563 6.03254   3
   4   0   5 283.930 6.23423   4
  -4   0  -5 293.128 5.85650   3
   0  -4  -5 299.505 6.18491   3
   4  -4   5 294.036 5.66241   4
  -4   0  -5 299.466 9.11882   1
   0   4  -5 300.276 6.83022   1
  -4   4   5 306.655 9.51461   1
  -4   0   5 315.638 8.89376   1
   5  -3  -5 10.2598 2.50644   1
  -2   5  -5 11.0062 1.39426   1
  -3  -2  -5 9.58052 0.89417   3
  -5   2   5 10.9574 2.51114   1
   2   3   5 10.9364 1.00681   4
  -2  -3   5 8.96460 1.63279   1
  -2   5  -5 9.79976 0.77583   2
   5  -2   5 8.99445 2.12907   1
   2  -5  -5 10.2939 2.55981   1
   2   3   5 10.2394 0.91621   2
  -3   5   5 11.1561 1.02583   2
   5  -2   5 9.68704 2.14961   1
   3  -5   5 11.6833 1.59568   1
  -5   2   5 8.26183 2.19233   1
  -3   5   5 10.9353 2.70136   1
   3   2  -5 8.56647 0.94358   2
  -3   5   5 9.32101 0.83485   4
  -5   3  -5 11.2424 2.17191   1
   5  -2   5 9.90049 0.85667   4
   3   2  -5 10.2113 1.87667   1
   2   3   5 12.2156 2.60478   1
  -2  -3   5 9.19971 1.63616   1
  -3  -2  -5 15.0467 2.87887   1
   2  -5  -5 11.3858 0.97563   3
   3  -5   5 9.99194 1.56457   1
  -5   3   5 12.6241 2.71692   1
   5  -3   5 10.9943 2.07519   1
   3   2   5 8.67506 0.79736   2
   3  -5  -5 9.48638 0.85924   3
  -2   5   5 9.74940 0.84870   4
   2  -5   5 10.2050 1.38945   1
  -3  -2   5 8.15088 1.80973   1
  -3   5  -5 7.86745 1.43611   1
  -2   5   5 9.04280 0.94960   2
  -3  -2   5 11.4330 1.95478   1
   2   3  -5 13.2692 1.80574   1
   5  -3   5 9.17749 2.23045   1
   5  -2  -5 11.9560 2.37780   1
  -5   3   5 8.60430 2.32579   1
   5  -3   5 10.0021 0.81128   4
  -5   2  -5 9.17206 0.57315   3
  -5   2  -5 7.32765 2.29520   1
   3   2   5 11.6550 2.67482   1
   3   2   5 11.1444 1.01511   4
   3  -5  -5 12.2687 2.85934   1
   2  -5   5 9.30203 1.38109   1
  -2   5   5 7.58799 2.32573   1
   2   3  -5 10.6105 0.93194   2
  -2  -3  -5 9.15714 0.87827   3
  -2  -3  -5 13.9757 2.80293   1
  -3   5  -5 10.2241 0.69455   2
  -1  -4   5 99.1102 3.88380   1
   1   4   5 100.950 2.90492   2
   4   1  -5 98.7876 4.74875   1
  -4  -1  -5 100.722 2.66007   3
   1  -5  -5 100.181 2.84439   3
  -4   5   5 101.843 2.87387   2
   5  -1   5 101.520 5.39517   1
  -4   5   5 104.290 5.85314   1
   4   1  -5 102.898 2.88516   2
  -5   1   5 91.4395 5.12198   1
   5  -1   5 100.082 5.27610   1
   1  -5  -5 106.267 5.74133   1
   4  -5   5 112.353 4.54218   1
  -5   1   5 91.9641 4.98260   1
   5  -4  -5 108.608 5.87100   1
  -5   4  -5 92.1158 4.63502   1
   5  -1   5 102.972 2.19179   2
   1   4   5 105.974 2.85020   4
  -4  -1  -5 100.623 5.56258   1
   1   4   5 102.647 5.60833   1
   5  -4  -5 105.607 2.66161   3
   4  -5   5 103.819 4.32438   1
  -1  -4   5 103.682 3.96231   1
  -1   5  -5 96.4913 3.54880   1
  -1   5  -5 99.8125 2.70314   2
   5  -1   5 100.701 2.88499   4
  -1  -4  -5 108.999 5.83378   1
  -4  -1   5 97.5957 4.84749   1
   5  -1  -5 91.4408 5.03709   1
  -1   5   5 104.543 2.97477   2
   4  -5  -5 100.107 5.80704   1
   1  -5   5 101.467 3.66479   1
   5  -4   5 95.9789 4.86135   1
   4   1   5 101.250 2.54878   2
   4   1   5 113.334 5.77517   1
   1  -5   5 104.971 3.62389   1
   4  -5  -5 100.778 2.67096   3
   1   4  -5 107.025 4.08933   1
  -1   5   5 98.0145 2.71941   4
   1   4  -5 102.090 2.83860   2
   5  -4   5 97.4485 4.77488   1
  -5   1  -5 97.1410 2.40057   3
  -4   5  -5 99.7645 2.23715   2
   4   1   5 97.8217 5.68231   1
  -5   4   5 102.405 5.83691   1
  -4  -1   5 108.366 5.08752   1
  -1   5   5 100.840 5.57080   1
   4   1   5 101.937 2.92924   4
  -5   1  -5 89.9139 5.16892   1
   5  -4   5 102.988 2.50926   4
  -4   5  -5 96.6148 4.23845   1
  -1  -4  -5 95.2956 2.79673   3
  -5   0  -5 3.26354 2.15509   1
   0  -5   5 12.9235 1.75745   1
  -5   5   5 11.6312 1.05196   2
   5   0   5 13.1717 0.76699   2
   0  -5  -5 10.4001 1.08785   3
   5  -5  -5 10.1193 3.02267   1
   0  -5  -5 7.58296 2.73411   1
   5   0   5 12.1160 2.66857   1
   5   0   5 14.9002 1.20702   4
  -5   0  -5 10.2797 0.86310   3
   0   5   5 13.6219 1.17273   2
  -5   0   5 10.4442 2.38236   1
   5  -5   5 16.1655 2.37544   1
   0   5   5 13.8000 2.99072   1
  -5   5   5 11.5827 3.01364   1
   0   5   5 12.7041 1.03184   4
   5   0  -5 11.8780 2.45572   1
   5  -5   5 11.6321 0.67662   4
   5  -5  -5 10.9435 0.93034   3
   0   5  -5 12.8129 1.07486   2
   3  -6  -5 -1.4355 2.22410   1
   3  -6   5 -0.2495 1.23459   1
   6  -3  -5 0.70821 2.12220   1
  -3  -3  -5 0.04840 2.39447   1
   3   3  -5 0.03944 0.55903   2
   3   3   5 -0.3628 0.52644   2
   3   3   5 1.58000 2.42748   1
  -3   6   5 1.66608 2.42862   1
  -6   3   5 -0.2834 2.09560   1
  -3  -3   5 0.36703 1.60791   1
  -6   3  -5 -0.8813 1.77020   1
  -3  -3  -5 -1.2676 0.53144   3
  -3   6  -5 0.31531 0.49791   2
   3  -6  -5 0.92630 0.64268   3
   6  -3   5 0.06579 0.56187   4
   6  -3   5 -0.1293 1.74918   1
  -3   6   5 0.75305 0.54270   4
  -3   6   5 0.99991 0.78004   2
   3   3   5 -0.2304 0.62301   4
  -6   2   5 61.4535 4.82697   1
  -4   6   5 69.3142 5.16935   1
   2   4   5 69.6197 2.34251   4
  -2  -4   5 66.0491 3.74342   1
   2  -6  -5 65.3312 2.30343   3
   6  -2   5 71.8654 2.38335   4
   4  -6   5 59.5351 3.62284   1
   2   4   5 67.7155 2.34460   2
  -4  -2  -5 71.6999 5.20143   1
  -4  -2  -5 64.4577 2.24351   3
   2   4   5 70.5715 5.17756   1
  -4   6   5 66.8874 2.37456   2
   6  -4  -5 72.9592 5.24320   1
   4   2  -5 68.4231 2.38872   2
   2  -6  -5 62.6946 5.15372   1
  -2   6  -5 67.7889 2.17557   2
   6  -2   5 60.7211 4.76456   1
  -2  -4  -5 66.8629 5.17094   1
  -4   6  -5 66.7463 1.89141   2
   4   2   5 67.3754 5.02712   1
   6  -4   5 67.7262 4.56952   1
   4   2   5 69.2918 2.17338   2
   6  -4   5 65.8713 2.08550   4
   2  -6   5 68.2443 3.36867   1
   4  -6  -5 68.2434 2.22065   3
  -2   6   5 64.7659 2.41102   2
  -2   6   5 62.4137 5.10664   1
  -4  -2   5 64.9641 4.30644   1
   2   4  -5 69.8030 2.39392   2
   6  -2  -5 68.1342 5.03483   1
  -2  -4  -5 68.5556 2.36836   3
  -6   4   5 71.0124 5.23506   1
   4   2   5 75.4099 2.50454   4
   4  -6  -5 69.8895 5.27488   1
  -6   2  -5 66.1627 4.93553   1
  -2   6   5 64.7700 2.15380   4
   6  -1   5 3.22145 0.82020   4
   1   5   5 2.01045 2.88583   1
   6  -1   5 2.59682 2.53431   1
  -5  -1  -5 4.70047 2.60378   1
   1   5   5 4.83282 0.81811   4
  -5   6   5 4.37481 0.93598   2
   6  -5  -5 3.12807 2.48920   1
  -5  -1  -5 4.86628 0.82057   3
   1   5   5 3.88169 0.85368   2
  -1   6  -5 3.81392 0.86777   2
  -5   6   5 7.30204 3.10533   1
  -6   1   5 5.74578 2.73186   1
   1  -6  -5 7.10611 3.20679   1
   1  -6  -5 4.19877 0.91476   3
   5  -6   5 3.87188 1.89209   1
   6  -5  -5 4.26378 0.76946   3
  -1  -5   5 5.03469 1.72888   1
   5   1  -5 4.42718 0.92667   2
  -6   5   5 1.24866 2.33852   1
   6  -5   5 3.27858 0.57805   4
   5   1   5 6.10935 1.05012   4
   1  -6   5 3.55436 1.50886   1
   6  -5   5 2.29436 1.94270   1
   5  -6  -5 3.40695 0.72053   3
  -1   6   5 3.80915 0.85566   2
  -6   1  -5 4.57805 0.68214   3
  -1  -5  -5 4.47857 0.87085   3
  -1   6   5 4.18848 3.03838   1
  -1   6   5 3.51191 0.70785   4
  -6   1  -5 3.21671 2.72924   1
   1   5  -5 4.64900 0.89263   2
   5   1   5 4.08391 2.54257   1
  -1  -5  -5 5.44262 3.04518   1
   1   5  -5 3.50964 0.52133   4
  -5  -1   5 2.80773 2.15762   1
   5  -6  -5 4.08989 2.93972   1
   5   1   5 2.86797 0.58777   2
   6  -6   5 -0.6963 2.11789   1
   6   0   5 -0.7964 2.91749   1
   0   6  -5 0.24178 0.75918   2
  -6   0  -5 -2.1095 2.95039   1
   6   0   5 -0.1936 0.70876   4
  -6   6   5 0.72283 3.02885   1
  -6   0   5 1.38839 2.23662   1
   0   6   5 -0.3445 3.03065   1
   6  -6  -5 0.30742 0.63978   3
   0   6   5 0.82431 0.75088   2
   6   0  -5 0.58769 0.69838   2
  -6   6   5 0.24418 0.76513   2
   0  -6   5 2.25793 1.66161   1
   0  -6  -5 1.15294 0.73568   3
  -6   0  -5 0.60373 0.54421   3
   0  -6  -5 2.05864 3.24976   1
   6  -6  -5 -1.7125 2.87492   1
   0   6   5 0.28825 0.63897   4
  -4   7   5 4.89042 1.03587   2
  -4  -3  -5 6.04407 3.37466   1
  -7   3   5 4.35448 2.87671   1
   4   3  -5 5.35711 1.06179   2
   3  -7  -5 4.18683 3.23152   1
   4  -7   5 7.34435 2.10871   1
  -4  -3  -5 5.04131 0.97506   3
   3   4   5 5.42429 0.91910   2
   7  -3   5 5.99875 0.99653   4
   3  -7  -5 5.64030 0.95818   3
   7  -3   5 3.19404 2.96875   1
   3   4   5 1.25792 2.77814   1
   7  -4  -5 4.82287 3.19944   1
   3   4   5 5.35378 0.99361   4
  -3  -4   5 4.69390 2.13557   1
  -4   7   5 5.51499 3.01315   1
  -3   7  -5 5.48130 0.81118   2
  -3   7   5 7.60410 3.50024   1
   4   3   5 5.44524 3.19109   1
  -3  -4  -5 4.39762 3.15347   1
  -4  -3   5 3.71949 2.23105   1
  -4   7  -5 6.00058 0.79575   2
   4  -7  -5 4.17744 0.82967   3
   7  -3  -5 4.42851 3.01528   1
  -7   4   5 8.01088 3.27392   1
  -3   7   5 4.74257 0.80029   4
   3   4  -5 3.40811 0.95554   2
  -3   7   5 3.50667 0.92018   2
   7  -4   5 2.03897 2.43938   1
   7  -4   5 6.33730 0.92818   4
   4   3   5 5.18589 0.89768   2
   3  -7   5 6.34278 1.93071   1
   4  -7  -5 4.24791 2.83092   1
   4   3   5 4.38474 0.92705   4
  -3  -4  -5 5.51296 0.93559   3
  -5   7   5 50.8698 5.21069   1
  -5   7   5 44.9415 2.08595   2
  -2   7  -5 47.2723 1.95791   2
   7  -2   5 39.0787 2.00090   4
  -7   2   5 43.6245 4.71900   1
   2   5   5 47.3053 4.87043   1
  -5  -2  -5 41.4388 1.90059   3
   7  -5  -5 42.9706 1.75993   3
   7  -5  -5 44.9770 4.99323   1
   2  -7  -5 43.1283 5.01408   1
   2   5   5 39.8773 1.99140   2
   2   5   5 41.1428 1.93794   4
   5  -7   5 50.7990 3.91819   1
  -5  -2  -5 45.7731 5.29376   1
   2  -7  -5 43.3948 2.00093   3
   5   2  -5 48.1429 2.15936   2
   7  -2   5 44.2014 4.71820   1
  -2  -5   5 41.5774 3.52982   1
  -2   7   5 43.4526 1.81218   4
  -7   5   5 36.1636 4.77495   1
   7  -5   5 44.2403 1.75312   4
   2   5  -5 41.3803 2.07246   2
  -2   7   5 32.7776 4.60901   1
   7  -5   5 49.1802 4.71225   1
   2  -7   5 39.8599 3.18009   1
  -2  -5  -5 38.5411 4.70255   1
  -5  -2   5 45.1873 4.40869   1
   2   5  -5 41.7097 1.61759   4
   5  -7  -5 43.4312 5.06539   1
   5   2   5 47.5682 2.16042   4
   5   2   5 48.7578 5.23666   1
  -2  -5  -5 41.8742 2.04038   3
   5  -7  -5 41.3994 1.79520   3
   5   2   5 42.8632 1.80588   2
  -2   7   5 42.5311 2.09534   2
  -6   7   5 7.68133 1.05839   2
  -1  -6   5 7.97003 2.24656   1
   7  -6  -5 4.15395 3.48201   1
   6  -7   5 11.3763 2.96993   1
   7  -1   5 16.3877 3.88556   1
  -6  -1  -5 3.52711 3.10974   1
  -6  -1  -5 7.61930 0.99102   3
  -1   7  -5 7.58135 1.06022   2
   6   1  -5 12.2983 1.28383   2
   1   6   5 9.67663 1.15213   4
   1   6   5 9.23643 1.30136   2
   1  -7  -5 12.7285 3.82967   1
   7  -6  -5 10.5409 1.00780   3
   1  -7  -5 11.8732 1.27914   3
   7  -1   5 10.3713 1.24598   4
  -6   7   5 14.1998 4.17912   1
   1   6   5 10.0173 3.67905   1
  -7   6   5 6.83285 3.61498   1
  -1   7   5 10.1076 1.31385   2
   1  -7   5 8.94286 2.21913   1
   6   1   5 6.52422 3.26123   1
  -1  -6  -5 6.07959 3.41063   1
   7  -1  -5 9.83959 1.19887   2
  -1   7   5 8.37066 1.00266   4
   1   6  -5 8.25047 1.17935   2
   6   1   5 9.72091 1.31236   4
  -1  -6  -5 6.55054 1.14782   3
   6  -7  -5 10.0615 3.73247   1
   6  -7  -5 8.31310 0.96641   3
  -1   7   5 8.99368 3.69192   1
   7  -7  -5 -0.7766 3.75238   1
   7   0  -5 1.31739 0.82637   2
   0   7   5 0.03722 0.68362   4
  -7   7   5 0.42557 0.73755   2
   0   7   5 1.49681 1.03836   2
   7  -7  -5 1.11241 0.69903   3
   0  -7  -5 -0.4083 0.81882   3
   0   7  -5 0.81727 0.96923   2
   7   0   5 0.72664 0.84286   4
  -7   7   5 1.96165 3.88123   1
  -4   8  -5 0.01941 0.63879   2
   4   4   5 0.89040 0.82177   4
   4  -8  -5 -0.9931 0.66537   3
   4   4   5 -2.7759 3.46301   1
  -4   8   5 -0.5129 0.75586   2
   4   4  -5 -1.0886 0.72671   2
  -4  -4  -5 -0.0706 0.82686   3
   8  -4   5 -0.6276 0.65010   4
  -4  -4  -5 1.19163 3.86173   1
   4   4   5 0.51217 0.74570   2
  -5   8   5 3.58007 0.96120   2
   5   3  -5 4.62776 1.10834   2
   8  -5  -5 1.82580 0.72222   3
   3  -8  -5 3.61173 0.99354   3
   8  -5  -5 4.25221 3.78456   1
   3   5   5 2.57137 0.98066   2
   3   5   5 5.71414 3.52723   1
  -3   8  -5 2.98546 0.90835   2
   8  -3   5 5.25748 1.10725   4
  -5  -3  -5 -0.6069 3.27981   1
  -5  -3  -5 2.38184 0.88569   3
   3   5   5 3.63280 0.99474   4
   5  -8  -5 1.78054 0.73678   3
   3   5  -5 3.04520 1.08079   2
   5   3   5 2.93184 0.95109   4
  -3   8   5 3.74267 1.02573   2
   5   3   5 2.12101 3.35409   1
  -8   5   5 1.40980 3.60961   1
   5   3   5 4.58064 0.94375   2
   8  -5   5 3.59934 0.90230   4
  -3  -5  -5 3.47065 3.51476   1
  -3  -5  -5 1.96281 0.87554   3
  -3   8   5 3.14622 0.84186   4
   8  -6  -5 1.92806 0.79394   3
   8  -2   5 1.61845 0.95475   4
   2   6   5 1.94784 0.93803   2
   2   6   5 2.08945 0.94227   4
   6   2  -5 1.55389 0.89021   2
  -6  -2  -5 2.01378 0.90262   3
   8  -6  -5 2.33153 3.45198   1
  -6   8   5 0.96077 0.93789   2
  -6  -2  -5 4.37212 3.69274   1
   2  -8  -5 2.13297 0.92330   3
  -2   8  -5 1.79636 0.91345   2
   6   2   5 2.19888 3.49853   1
   2   6  -5 0.71127 0.87199   2
  -8   6   5 4.53602 3.60782   1
   6   2   5 0.55632 0.94644   4
   6  -8  -5 3.04630 0.79915   3
  -2  -6  -5 0.47141 0.89174   3
  -2   8   5 2.93853 1.13678   2
   1   7   5 1.87119 1.14120   2
  -7   8   5 2.62864 0.92292   2
  -1   8  -5 2.88261 1.03892   2
   1  -8  -5 3.60268 1.06824   3
   1   7   5 4.98134 1.02948   4
   8  -1   5 4.51920 1.20651   4
   7   1  -5 4.43561 1.16285   2
   8  -1  -5 4.24701 1.04812   2
  -1  -7  -5 2.32549 1.01923   3
   7   1   5 3.11232 1.19251   4
  -1   8   5 4.32693 1.11189   2
   1   7  -5 5.74596 1.26973   2
   0   8   5 1.83298 1.19346   2
   0  -8  -5 0.01153 0.89737   3
   8   0   5 -0.5174 1.00544   4
   8   0  -5 1.18699 0.91864   2
   0   8  -5 1.09214 1.12715   2
   5   4  -5 1.13734 0.98213   2
  -5  -4  -5 1.27345 1.05655   3
   5   4  -5 0.23042 0.88039   4
   4  -9  -5 1.44347 0.88251   3
   9  -4   5 0.34133 0.90081   4
   4   5   5 1.28852 0.93437   2
  -5   9   5 0.43882 0.90165   2
   4   5   5 0.40203 1.01060   4
  -4  -5  -5 2.38245 1.15463   3
  -4   9   5 -1.0586 0.89405   2
   5  -9  -5 -0.4655 0.75649   3
   4   5  -5 0.31038 0.95147   2
   5   4   5 0.97528 0.92039   2
   9  -5   5 0.34213 0.81858   4
   5   4   5 0.73905 0.94324   4
   3   6   5 4.43134 1.09908   4
  -6  -3  -5 6.30950 1.21417   3
  -3   9  -5 7.87703 1.28085   2
   3   6   5 4.81058 1.17072   2
   3  -9  -5 4.84879 1.15666   3
  -6   9   5 5.81011 1.26022   2
   6   3  -5 4.70486 1.15193   2
   9  -3   5 7.32069 1.31810   4
   3   6  -5 4.44042 1.28165   2
  -3  -6  -5 6.44605 1.33004   3
  -3   9   5 7.68269 1.40313   2
   6   3   5 8.92756 1.47446   4
  -7   9   5 0.69574 1.05374   2
   2  -9  -5 1.82211 0.98506   3
   7   2  -5 1.69041 1.12427   2
   9  -2   5 0.53164 1.11800   4
   2   7   5 1.64676 1.22726   2
  -2   9  -5 1.99521 1.11897   2
   2   7   5 2.36698 1.01570   4
   7   2   5 0.31258 0.97845   4
   2   7  -5 3.11097 1.29468   2
  -2  -7  -5 3.84581 1.31233   3
  -2   9   5 0.92369 1.17741   2
   9  -2  -5 2.23081 1.01582   2
   1   8   5 0.03562 1.14336   2
  -8   9   5 0.17658 0.99607   2
  -1   9  -5 0.34832 1.01509   2
   8   1  -5 -0.3325 0.95430   2
   9  -1   5 -0.6529 1.05598   4
   1  -9  -5 0.38433 0.96375   3
  -1   9   5 -0.8466 1.10841   2
   1   8  -5 -0.0660 0.99681   2
   8   1   5 0.03757 1.03852   4
   9  -1  -5 0.03041 0.99211   2
  -1  -8  -5 -0.7757 1.10747   3
  -5  10   5 -0.5851 0.98652   2
   5   5   5 0.17660 1.04737   2
  10  -5   5 0.84032 0.95670   4
   5   5  -5 -0.0021 1.06230   2
   5   5   5 -0.6086 0.96790   4
  -5  -5  -5 -1.6239 0.90530   3
  10  -4   5 0.35929 0.97428   4
   6   4  -5 -0.1470 0.91520   4
   6   4  -5 -0.9755 1.03687   2
   4   6   5 -0.5041 1.08220   4
  -6  10   5 1.24262 1.10735   2
   4   6   5 -1.2923 1.01921   2
   6   4   5 -0.7217 0.95716   4
  -4  -6  -5 1.32822 1.23389   3
   4   6  -5 1.14688 1.20083   2
  -4  10   5 0.35917 1.28041   2
   0   0  -6 2093.19 37.4040   1
   0   0   6 2219.48 39.6876   1
   0   0   6 2243.55 39.7930   4
   0   0  -6 2102.63 37.4614   1
   0   0   6 2253.97 39.6263   1
   0   0  -6 2125.77 36.3164   3
   1   0   6 1398.03 24.6967   2
   0   1  -6 1377.96 24.1547   1
  -1   1  -6 1382.02 23.8086   3
   1   0   6 1417.55 25.2676   4
  -1   1   6 1423.08 24.9346   2
  -1   1   6 1432.99 26.3358   1
   1  -1  -6 1380.61 23.9934   3
   1   0   6 1417.23 25.9409   1
  -1   1  -6 1405.36 24.6346   1
  -1   1  -6 1350.99 24.5630   1
   0   1   6 1388.50 26.2767   1
  -1   0   6 1402.09 25.2291   4
  -1   0  -6 1369.26 25.4309   1
  -1   0  -6 1436.85 25.5320   1
  -1   0   6 1411.66 25.6021   1
   1  -1   6 1344.71 25.0534   1
  -1   1   6 1376.17 26.1915   1
   0  -1   6 1420.58 24.6726   1
   1   0   6 1450.75 26.4673   1
   1  -1   6 1415.69 25.1127   1
   0   1  -6 1382.74 24.1616   1
   0   1   6 1394.56 25.2822   4
   1  -1   6 1400.91 25.1347   4
   1   0  -6 1329.94 24.9773   1
  -1   0  -6 1386.07 23.8929   3
   0  -1   6 1383.58 24.6860   1
   0  -1  -6 1347.47 25.7724   1
   1  -1  -6 1382.86 25.7633   1
   0  -1   6 1426.55 25.1408   4
   0   1   6 1418.90 24.8730   2
   1  -1  -6 1365.81 25.7703   1
   0  -1  -6 1357.71 25.8192   1
   1   0  -6 1369.91 25.0783   1
   0   1   6 1384.63 26.3008   1
  -1   1   6 1431.30 25.3111   4
   0  -1  -6 1383.23 23.9814   3
  -1   0   6 1379.32 25.5259   1
   1   1   6 1432.35 25.1284   2
  -2   1   6 1408.38 26.9048   1
   1   1  -6 1412.73 25.3933   1
  -1  -1   6 1414.09 25.4306   1
   1  -2  -6 1402.89 27.3208   1
  -1   2   6 1394.42 27.3161   1
   1   1   6 1407.90 26.9895   1
  -2   1   6 1434.65 26.7904   1
  -1   2   6 1452.16 25.6822   4
   1  -2  -6 1436.59 24.8712   3
  -2   1  -6 1415.31 26.1446   1
  -1  -1  -6 1464.70 27.1866   1
  -1  -1  -6 1420.97 27.1317   1
  -2   1  -6 1408.14 24.5591   3
   2  -1  -6 1429.12 26.8732   1
   2  -1   6 1447.31 26.2479   1
   1   1  -6 1411.19 25.3326   1
   1  -2  -6 1404.95 27.2825   1
   1   1   6 1418.51 25.6501   4
  -1   2   6 1431.40 27.3120   1
  -1  -1  -6 1413.56 24.8230   3
   1   1   6 1413.79 27.0559   1
   1  -2   6 1397.98 25.3214   4
  -1   2   6 1437.07 25.3152   2
   2  -1  -6 1421.84 26.8335   1
  -2   1  -6 1438.25 26.2361   1
   2  -1   6 1414.81 25.5146   4
  -1  -1   6 1425.11 25.3564   1
  -2   2   6 2269.58 40.7159   2
   2  -2   6 2212.71 40.6096   1
   0  -2  -6 2367.19 41.2892   3
   0   2   6 2370.17 42.7327   1
   2   0   6 2297.16 40.3507   2
   2   0   6 2274.39 42.0662   1
  -2   2  -6 2361.01 41.5475   2
   2   0  -6 2409.07 42.9049   1
   0   2   6 2363.43 41.2937   4
  -2   0  -6 2443.33 43.6477   1
   2   0   6 2335.89 41.2319   4
  -2   2  -6 2425.55 41.9790   1
  -2   2  -6 2416.37 40.8882   3
  -2   0   6 2329.17 41.6427   1
   2  -2  -6 2379.04 41.2609   3
   2   0   6 2334.55 42.1471   1
  -2   0  -6 2354.95 41.0679   3
   0  -2  -6 2401.13 44.0083   1
   2  -2   6 2339.20 40.7428   1
  -2   0  -6 2416.89 43.5088   1
   2  -2  -6 2393.53 44.0901   1
  -2   2  -6 2360.26 41.8984   1
   0  -2  -6 2314.56 43.8328   1
   2   0  -6 2411.91 42.8015   1
   2  -2  -6 2362.95 43.8244   1
   0   2   6 2272.26 40.6658   2
  -2   2   6 2326.98 41.2931   4
   2  -2   6 2258.65 40.9742   4
  -2   2   6 2382.72 42.6698   1
  -2   2   6 2297.35 42.5825   1
   0   2   6 2354.72 42.6196   1
   1  -3  -6 1206.67 24.9434   1
   3  -1   6 1225.66 23.8943   1
  -2  -1  -6 1213.45 21.7744   3
   3  -2  -6 1280.77 24.9181   1
  -3   1   6 1230.45 24.3114   1
  -3   1   6 1244.67 24.1564   1
  -2  -1  -6 1244.97 24.7829   1
  -2   3   6 1233.35 22.1394   2
  -3   2  -6 1235.27 23.5400   1
   2  -3   6 1229.55 21.8611   1
  -2   3   6 1237.45 22.3912   4
  -1  -2   6 1217.29 21.9872   1
   1  -3  -6 1270.84 21.9853   3
  -2   3   6 1258.66 25.0635   1
   2  -3   6 1216.58 21.7969   1
   3  -1   6 1206.98 22.2636   4
   1   2   6 1239.29 22.0202   2
   3  -1   6 1199.40 21.4441   2
  -2   3   6 1217.73 24.7833   1
  -1   3  -6 1240.02 22.0307   2
  -3   2  -6 1236.50 21.3817   3
   2   1  -6 1214.88 23.2173   1
  -1  -2   6 1228.79 22.1621   1
   3  -1   6 1192.99 23.8309   1
   1   2   6 1232.09 22.4399   4
   2  -3   6 1223.86 21.8835   4
   1   2   6 1202.99 24.5832   1
   1   2   6 1201.10 24.5812   1
  -2   3  -6 1267.67 22.0251   1
   2  -3  -6 1251.18 25.1145   1
  -3   2   6 1217.96 24.4743   1
   1   2  -6 1251.63 22.2768   1
   2   1   6 1224.46 24.5687   1
   3  -2   6 1232.95 22.1664   4
  -2   3  -6 1234.29 21.8351   2
  -1   3   6 1237.18 22.3819   4
   1   2  -6 1235.42 22.1961   1
  -1   3   6 1261.47 24.9208   1
   1   2  -6 1232.12 22.2137   2
  -1   3   6 1193.58 24.7155   1
  -3   1  -6 1224.95 24.0521   1
  -1  -2  -6 1244.15 24.9708   1
  -2   3  -6 1233.02 21.9629   1
   2  -3  -6 1248.19 21.9028   3
   3  -1  -6 1240.16 24.3837   1
  -2  -1   6 1247.47 23.1505   1
   2   1   6 1229.43 22.3982   4
   3  -2   6 1282.96 23.4736   1
  -2  -1   6 1249.28 22.9897   1
  -1   3   6 1235.74 22.1297   2
  -3   2   6 1242.69 24.6231   1
   2   1   6 1240.75 24.5383   1
  -3   1  -6 1232.97 21.5393   3
   2   1   6 1239.43 21.8613   2
  -1  -2  -6 1240.05 21.9073   3
   0   3   6 848.005 15.5815   2
   0  -3  -6 875.366 15.5797   3
   3  -3   6 844.843 16.4783   1
   3   0   6 838.858 18.0322   1
  -3   0   6 834.553 17.3602   1
   3   0   6 840.660 18.0301   1
  -3   3   6 848.081 18.5879   1
   0   3   6 863.232 18.6780   1
   3  -3  -6 851.827 15.4709   3
   3  -3   6 826.392 15.3225   4
   0   3   6 865.531 18.5993   1
   3   0   6 842.513 15.7630   4
   3  -3  -6 845.024 18.7916   1
  -3   0  -6 858.255 15.2657   3
  -3   3  -6 851.157 14.8286   3
   3   0   6 847.445 15.0780   2
  -3   3   6 847.445 18.6001   1
   0   3  -6 849.339 15.6195   2
  -3   0   6 871.836 17.6700   1
  -3   3  -6 878.056 16.6808   1
  -3   0  -6 875.945 18.3525   1
   0  -3  -6 876.556 18.8802   1
   3  -3   6 843.380 16.4209   1
   0   3   6 862.322 15.8044   4
  -3   3  -6 838.858 15.0595   2
   3   0  -6 853.804 17.7213   1
  -3   3   6 843.620 15.5883   2
  -4   2  -6 516.135 9.22453   3
  -2   4   6 553.876 10.5567   2
  -2  -2  -6 520.853 13.1815   1
   4  -2  -6 525.355 13.0706   1
  -4   2  -6 507.872 12.1673   1
  -2  -2   6 547.563 11.6911   1
  -2   4   6 545.590 13.8184   1
   4  -2   6 546.736 12.6899   1
  -2   4   6 554.277 10.5732   4
  -2  -2   6 537.209 11.4703   1
   2   2   6 538.040 10.2893   2
   2  -4  -6 538.036 13.4835   1
  -2   4  -6 508.135 9.60004   2
  -2  -2  -6 509.764 9.79329   3
   2   2   6 558.306 10.6557   4
   2   2  -6 534.235 11.1585   1
  -4   2   6 541.356 13.3190   1
  -4   2   6 569.301 13.6366   1
   4  -2   6 530.960 12.6376   1
  -2   4   6 569.810 14.0227   1
   2   2   6 544.190 13.5429   1
   2   2   6 540.081 13.5895   1
   2  -4  -6 525.522 9.87436   3
   2   2  -6 515.028 10.0041   2
   4  -2   6 543.315 10.4254   4
  -4   3  -6 559.230 12.3398   1
   4  -1   6 554.153 9.67993   2
   4  -3  -6 535.342 10.1398   3
   1   3   6 527.846 13.6193   1
  -3  -1  -6 536.987 13.5736   1
  -1   4  -6 540.750 10.1647   2
   4  -1   6 553.441 10.5623   4
  -3  -1  -6 543.011 10.0850   3
  -4   3  -6 532.521 9.37252   3
   3  -4   6 550.017 11.2272   1
   1   3   6 556.430 10.4617   2
   3  -4   6 541.585 9.87229   4
  -4   1   6 538.906 13.2553   1
  -1  -3   6 568.494 11.0306   1
   4  -3  -6 516.136 13.5936   1
  -3   4   6 550.633 10.5742   4
  -3   4   6 554.760 10.5534   2
   3   1  -6 528.290 12.1844   1
   1   3   6 556.478 10.6290   4
  -4   1   6 508.894 12.8475   1
  -3   4   6 549.147 13.9411   1
   1  -4  -6 544.543 13.8887   1
   4  -1   6 562.664 13.2476   1
   1  -4  -6 547.103 10.2705   3
   3  -4   6 555.350 11.2362   1
  -3   4   6 551.886 13.9726   1
   4  -1   6 545.228 13.1446   1
  -1  -3   6 554.046 10.8932   1
   1   3   6 527.489 13.6514   1
  -4   1  -6 553.387 9.81126   3
  -1  -3  -6 553.414 13.8717   1
   3  -4  -6 536.320 10.1628   3
   3   1   6 556.338 13.5697   1
   1   3  -6 544.115 10.3259   2
   4  -3   6 542.678 10.2411   4
   4  -3   6 525.811 12.1793   1
  -3   4  -6 530.834 9.42671   3
   3   1   6 547.758 10.1368   2
  -4   1  -6 547.562 13.1144   1
  -4   3   6 553.283 13.7831   1
   3  -4  -6 539.433 13.9382   1
  -1   4   6 535.031 10.5241   4
  -1   4   6 520.034 13.7111   1
  -4   3   6 544.129 13.7323   1
  -3   4  -6 529.834 9.75570   2
   3   1   6 550.136 10.6533   4
  -1   4   6 533.329 13.8580   1
   4  -1  -6 555.358 13.2221   1
  -1  -3  -6 545.810 10.2656   3
   3   1   6 538.727 13.4993   1
  -1   4   6 561.772 10.5767   2
  -3   4  -6 545.624 11.1200   1
   1   3  -6 526.123 10.7478   1
  -3  -1   6 536.492 12.4445   1
   4   0   6 785.076 18.0387   1
   4  -4   6 765.451 14.3185   4
  -4   0   6 819.923 17.6747   1
   0   4   6 800.643 14.9259   4
   4   0  -6 817.987 17.8336   1
  -4   0  -6 795.532 14.5915   3
   4  -4  -6 801.320 18.9704   1
   4  -4   6 792.449 16.3207   1
   0   4  -6 813.726 15.0382   2
   0  -4   6 786.598 14.7560   1
  -4   0   6 806.770 17.3282   1
  -4   0  -6 836.403 18.6138   1
   4  -4   6 803.223 16.3972   1
   0   4   6 788.536 18.5151   1
   4   0   6 802.005 14.9795   4
  -4   4   6 791.364 18.6294   1
  -4   4  -6 791.260 16.5718   1
   0  -4  -6 814.484 14.9559   3
  -4   4   6 794.681 14.7917   2
   0  -4   6 783.190 14.7610   1
   4  -4  -6 832.783 14.8368   3
   0  -4  -6 812.810 18.8466   1
  -4   4   6 787.387 18.5107   1
   4   0   6 775.144 14.1651   2
   0   4  -6 805.273 15.1217   1
   0   4   6 792.290 14.8100   2
   4   0   6 752.237 17.8274   1
  -2   5  -6 278.124 6.32246   1
   5  -2   6 288.113 9.34432   1
  -5   2   6 309.821 9.76172   1
  -2  -3   6 300.807 7.78574   1
  -3   5   6 299.609 6.40170   2
  -5   2   6 305.713 9.54472   1
   3  -5   6 296.066 7.13812   1
   2   3   6 297.407 6.39706   4
   5  -2   6 300.482 6.29256   4
  -3   5   6 291.034 6.25918   4
   2   3   6 283.890 9.66667   1
   5  -3  -6 277.813 9.42815   1
  -3   5   6 302.844 10.0414   1
   3   2  -6 275.529 6.05261   2
  -5   3  -6 271.473 8.49064   1
  -3  -2  -6 289.727 5.91546   3
   2  -5  -6 289.603 5.98727   3
  -3  -2  -6 280.162 9.55493   1
   5  -2   6 306.573 9.30102   1
   3  -5   6 287.204 7.12315   1
   2   3   6 300.943 6.25828   2
   2  -5  -6 285.814 9.73973   1
  -2   5  -6 289.174 5.73079   2
  -2  -3  -6 278.296 5.94990   3
  -2  -3  -6 269.986 9.43621   1
   5  -2  -6 259.510 9.14254   1
   3   2   6 298.033 9.74661   1
   2   3  -6 287.317 6.07847   2
   2  -5   6 285.082 6.50865   1
   3   2   6 296.726 6.42721   4
   3  -5  -6 273.572 9.71295   1
  -3   5  -6 282.317 5.52695   2
  -5   3   6 291.171 9.68667   1
  -5   2  -6 284.634 8.89797   1
  -3  -2   6 299.014 8.30992   1
   3  -5  -6 285.731 5.92568   3
  -2   5   6 278.927 9.74416   1
   5  -3   6 305.397 8.86768   1
  -2   5   6 288.856 6.23442   4
   3   2   6 304.603 6.13583   2
   2  -5   6 297.214 6.64076   1
  -2   5   6 301.213 6.43165   2
  -5   3   6 308.477 9.95866   1
   5  -3   6 294.052 6.10741   4
  -5   2  -6 275.002 5.28609   3
  -4  -1  -6 140.211 6.73450   1
   4   1  -6 154.965 3.90506   2
  -4  -1  -6 152.977 3.64723   3
  -5   1   6 165.068 6.90439   1
  -4   5   6 169.944 7.54803   1
   5  -1   6 163.266 6.79998   1
   1   4   6 136.045 6.66721   1
   5  -4  -6 160.184 3.73006   3
   1  -5  -6 157.187 3.88677   3
   1   4   6 158.256 3.97604   4
  -1  -4   6 155.969 4.79382   1
   4  -5   6 150.272 5.20412   1
   1  -5  -6 146.742 7.02917   1
   1   4   6 164.037 3.99226   2
   5  -1   6 165.073 4.01414   4
  -1   5  -6 156.382 3.69326   2
   5  -4  -6 156.353 7.15453   1
  -4   5   6 159.349 3.99928   2
   5  -1   6 162.354 7.03515   1
   1  -5   6 158.571 4.23783   1
   4   1   6 148.658 6.87039   1
  -1   5   6 157.777 4.02987   2
   5  -4   6 156.477 3.52312   4
  -5   1  -6 156.916 3.39525   3
   4   1   6 174.733 7.22569   1
   4  -5  -6 153.703 7.26768   1
  -1   5   6 166.906 7.29837   1
   4   1   6 154.230 3.56575   2
   4  -5  -6 160.948 3.76675   3
  -1  -4  -6 159.274 3.92224   3
   1   4  -6 154.693 3.84173   2
  -1  -4  -6 146.636 6.95644   1
  -5   1  -6 155.359 6.75074   1
   5  -4   6 157.753 5.93967   1
  -1   5   6 156.901 3.84810   4
   4   1   6 154.362 4.01861   4
  -4  -1   6 152.256 6.10658   1
  -4   5  -6 150.968 3.14704   2
   5  -1  -6 139.679 6.47432   1
  -5   4   6 161.125 7.18042   1
   1  -5   6 159.518 4.28469   1
   5   0   6 401.128 7.83406   2
   0  -5  -6 423.927 8.51491   3
   5   0   6 413.135 8.62923   4
   0  -5  -6 416.308 12.7817   1
   5  -5   6 390.361 10.7039   1
   5  -5  -6 422.733 8.24582   3
   0   5   6 409.864 8.54919   2
  -5   0  -6 398.332 12.2899   1
  -5   0  -6 419.631 8.09208   3
   5   0   6 427.542 12.5115   1
   0   5   6 414.801 12.6438   1
   5  -5  -6 400.528 12.7046   1
   0  -5   6 414.350 9.27219   1
   0   5  -6 419.716 8.46527   2
  -5   0   6 428.373 11.9717   1
  -5   5   6 407.241 12.7605   1
  -5   5   6 418.419 8.47228   2
   0   5   6 418.653 8.49510   4
  -3  -3   6 97.3161 4.68423   1
   3  -6   6 95.2919 3.79074   1
   6  -3   6 95.3492 2.76808   4
  -6   3   6 100.242 6.16453   1
   6  -3  -6 85.0910 5.82442   1
  -3  -3  -6 93.2307 6.01952   1
   6  -3   6 88.8111 5.21834   1
  -3   6  -6 88.8245 2.43595   2
  -3   6   6 94.6886 6.13725   1
   3   3  -6 93.8069 2.89720   2
  -3  -3  -6 93.0312 2.79932   3
   3  -6  -6 80.8291 5.90239   1
   3   3   6 94.2146 2.93768   4
   3   3   6 90.4476 2.75464   2
   3   3   6 85.9426 5.86553   1
  -3   6   6 92.7729 2.75071   4
   3  -6  -6 91.2191 2.76872   3
  -3   6   6 88.0383 2.91800   2
   6  -4  -6 249.756 9.66387   1
   2   4   6 239.445 5.54613   4
   2  -6  -6 243.134 9.71778   1
   6  -2   6 235.541 5.48170   4
   2  -6  -6 241.229 5.46551   3
   2   4   6 228.661 9.30512   1
   6  -2   6 224.914 8.82176   1
  -2  -4   6 231.090 7.11774   1
  -4   6   6 233.215 5.54200   2
  -6   2   6 232.773 9.18234   1
   4  -6   6 232.041 6.94797   1
  -4  -2  -6 234.674 5.33241   3
  -4  -2  -6 229.190 9.26557   1
   4   2  -6 242.579 5.59443   2
  -4   6   6 232.870 9.56450   1
  -2   6  -6 242.329 5.26071   2
   2   4   6 236.289 5.47019   2
  -4  -2   6 247.815 8.23321   1
  -2   6   6 233.995 9.45494   1
   2  -6   6 243.223 6.25038   1
  -2  -4  -6 262.532 9.83639   1
  -2  -4  -6 241.653 5.53931   3
   4   2   6 236.786 5.17444   2
   4   2   6 233.840 5.59445   4
   4  -6  -6 244.248 5.37998   3
  -6   4   6 229.787 9.47656   1
  -2   6   6 252.918 5.66897   2
  -6   2  -6 228.303 4.77153   3
   4  -6  -6 232.407 9.53969   1
   2   4  -6 243.496 5.58252   2
  -4   6  -6 236.259 4.89433   2
   6  -4   6 232.267 5.15051   4
   4   2   6 230.744 9.16845   1
  -2   6   6 233.123 5.32496   4
   6  -4   6 242.062 8.49854   1
  -1   6  -6 211.034 4.97041   2
   1   5   6 223.264 9.17624   1
  -1  -5   6 203.852 6.37558   1
   6  -1   6 211.101 8.81379   1
  -5   6   6 216.386 5.11510   2
   1  -6  -6 221.462 9.44964   1
   1  -6  -6 218.101 5.16038   3
   5   1  -6 213.965 5.19176   2
   6  -1   6 214.055 5.21079   4
   1   5   6 210.439 5.04119   4
   6  -5  -6 203.870 9.22225   1
  -5  -1  -6 201.157 8.88822   1
   6  -5  -6 208.019 4.81715   3
   1   5   6 208.897 5.13828   2
  -6   1   6 199.073 8.53111   1
  -5  -1  -6 217.227 4.90199   3
   5  -6   6 198.314 6.98652   1
  -5   6   6 204.859 9.16879   1
  -5  -1   6 210.030 8.12846   1
  -1  -5  -6 225.366 5.23027   3
   6  -5   6 218.838 7.92729   1
   1  -6   6 204.256 5.88172   1
   1   5  -6 219.620 5.16665   2
  -6   5   6 207.524 9.15428   1
   5  -6  -6 212.232 4.87634   3
   5  -6  -6 212.055 9.27303   1
   5   1   6 213.628 5.23758   4
  -1   6   6 215.109 5.21158   2
  -1  -5  -6 232.332 9.41720   1
  -1   6   6 212.954 9.21514   1
  -1   6   6 209.803 4.91918   4
   6  -5   6 204.820 4.55658   4
   5   1   6 212.840 9.07173   1
   5   1   6 204.771 4.58061   2
  -6   1  -6 211.388 4.59108   3
   6  -6  -6 51.4539 5.40153   1
  -6   6   6 44.3791 5.04505   1
   0  -6   6 54.9903 3.28405   1
   0   6   6 59.1759 2.42859   2
  -6   0  -6 51.3080 1.92443   3
   0  -6  -6 51.4997 2.23628   3
   0   6   6 63.8057 5.66464   1
   6  -6  -6 46.4061 1.91829   3
   0   6   6 51.8437 2.12411   4
   6   0   6 60.8158 5.30853   1
   6   0  -6 52.3955 2.19606   2
   6  -6   6 47.8688 4.06188   1
  -6   6   6 52.8903 2.21144   2
   0  -6  -6 51.5803 5.45075   1
   6   0   6 54.7665 2.39551   4
  -6   0   6 54.1575 4.85643   1
  -6   0  -6 54.7617 5.30492   1
   0   6  -6 53.9588 2.18569   2
   3  -7  -6 151.279 8.26275   1
   4  -7   6 148.831 5.61284   1
   3   4   6 124.959 7.60560   1
   7  -3   6 134.675 3.86045   4
   3   4   6 142.915 3.93427   2
   3  -7  -6 143.098 3.90550   3
  -4   7   6 142.977 4.04122   2
  -4  -3  -6 140.805 3.94732   3
  -7   3   6 147.607 7.91344   1
   4   3  -6 155.022 4.17072   2
  -3   7  -6 148.756 3.69351   2
  -4   7   6 134.982 7.83181   1
   7  -3   6 141.780 7.27291   1
   7  -4  -6 138.013 7.92507   1
  -4  -3  -6 153.160 8.15405   1
   3   4   6 142.436 4.02179   4
  -3  -4   6 129.684 5.98111   1
   4   3   6 145.967 7.81635   1
   7  -4   6 146.344 3.78893   4
  -3   7   6 137.216 4.02814   2
  -4  -3   6 121.171 6.19355   1
  -3  -4  -6 144.411 3.99897   3
   4  -7  -6 147.156 3.87333   3
   3  -7   6 135.925 5.15424   1
   4  -7  -6 137.940 7.87606   1
   7  -4   6 142.501 7.27881   1
   4   3   6 146.062 3.81297   2
  -3   7   6 144.961 8.10161   1
  -3   7   6 145.465 3.76809   4
   3   4  -6 147.983 4.12071   2
  -3  -4  -6 143.393 8.07625   1
  -7   4   6 140.953 7.92254   1
   4   3   6 141.712 4.05264   4
  -2  -5   6 71.5456 4.26805   1
  -2   7  -6 64.6205 2.37748   2
   7  -2   6 65.0102 5.79310   1
   5   2  -6 70.1556 2.65630   2
   2   5   6 67.7850 5.83843   1
   2  -7  -6 70.1007 6.17763   1
   2   5   6 65.8178 2.64926   2
   2   5   6 69.3470 2.58059   4
  -5  -2  -6 68.5809 6.13218   1
  -7   2   6 63.3877 6.05699   1
   7  -5  -6 64.8468 6.13795   1
   7  -2   6 67.0935 2.61847   4
   2  -7  -6 69.8626 2.59460   3
   7  -5  -6 67.6591 2.36969   3
  -5   7   6 64.2690 6.11982   1
  -5  -2  -6 70.0860 2.53936   3
  -5   7   6 73.5163 2.69620   2
   5  -7   6 60.9484 4.08689   1
   7  -5   6 69.3623 2.27627   4
   5   2   6 63.9727 5.79694   1
  -2  -5  -6 66.0443 5.95805   1
   5  -7  -6 60.8470 6.06673   1
   5   2   6 66.5907 2.69848   4
   2   5  -6 70.9024 2.68918   2
  -7   5   6 62.5786 6.12575   1
  -2   7   6 77.8499 6.26517   1
  -2  -5  -6 69.4392 2.63649   3
   2  -7   6 71.6278 3.66020   1
  -2   7   6 64.4326 2.34821   4
   5   2   6 68.7830 2.34255   2
  -2   7   6 65.3268 2.63917   2
   5  -7  -6 70.3856 2.43673   3
   7  -6  -6 55.0544 2.11111   3
  -1   7  -6 52.6493 2.25054   2
   1   6   6 58.0160 5.92580   1
  -6  -1  -6 56.5524 2.20906   3
   1  -7  -6 58.2835 2.44954   3
   1   6   6 59.2467 2.53439   2
   6   1  -6 52.8641 2.37426   2
   1   6   6 56.8814 2.33937   4
   7  -6  -6 61.5747 6.09578   1
  -1  -6   6 56.6028 3.80006   1
  -6   7   6 63.2752 6.16447   1
  -6  -1  -6 55.9231 5.88455   1
  -6   7   6 59.7228 2.47774   2
   1  -7  -6 58.4194 6.08677   1
   7  -1   6 64.6115 2.66603   4
  -1   7   6 60.6032 2.29306   4
   6   1   6 44.4209 5.36736   1
   1  -7   6 58.4580 3.59794   1
  -1  -6  -6 55.8277 5.94650   1
   6  -7  -6 55.2299 2.14665   3
   6   1   6 64.7090 2.64125   4
  -1  -6  -6 55.5003 2.41090   3
  -7   6   6 61.6948 6.10129   1
   6  -7  -6 56.4917 5.84683   1
   1   6  -6 51.3639 2.35396   2
  -1   7   6 60.3592 2.59123   2
  -1   7   6 53.5825 5.79802   1
   7   0  -6 31.5425 1.90959   2
   0   7   6 33.6111 1.80940   4
  -7   7   6 35.1017 1.97160   2
   7   0   6 34.0883 2.13331   4
   7  -7  -6 29.4371 1.61777   3
   0   7  -6 27.8505 1.81200   2
   0  -7  -6 29.7661 1.88076   3
   0   7   6 33.6455 2.03876   2
   7  -7  -6 22.4078 4.75297   1
  -7   7   6 28.8833 4.95728   1
   4   4   6 34.6215 2.00113   4
  -4   8   6 27.4824 5.06350   1
  -4   8   6 32.4897 2.02656   2
   8  -4   6 35.2100 1.88460   4
   4   4  -6 35.7980 2.09490   2
  -4  -4  -6 33.0923 1.95776   3
  -4  -4  -6 32.7257 5.04017   1
   4   4   6 33.7086 4.99950   1
   4  -8  -6 32.4095 1.81809   3
   4   4   6 34.6192 1.91632   2
   8  -3   6 40.1152 2.13591   4
   8  -5  -6 35.1163 1.79390   3
   3   5   6 42.3744 5.79279   1
  -5  -3  -6 28.5580 5.07175   1
   3   5   6 41.8691 2.14541   4
  -5   8   6 37.9084 2.11069   2
   3   5   6 36.5475 2.09390   2
  -3   8  -6 37.3868 1.85152   2
   5   3  -6 39.7147 2.14110   2
  -5   8   6 27.2049 5.53427   1
   3  -8  -6 37.2731 1.97813   3
  -5  -3  -6 38.0944 2.04105   3
  -3   8   6 40.5351 2.17619   2
  -3  -5  -6 38.3090 2.12094   3
   8  -5   6 33.6553 1.79831   4
   5   3   6 44.0825 2.29720   4
   5   3   6 39.9706 1.95478   2
   5  -8  -6 37.7936 1.85635   3
  -3   8   6 36.6652 1.82069   4
   3   5  -6 36.2835 2.06389   2
   5   3   6 44.6673 5.64682   1
  -6   8   6 30.3859 1.93260   2
  -6   8   6 20.1734 5.29137   1
   8  -2   6 28.5389 1.95970   4
   6   2  -6 28.7275 1.90385   2
  -2   8  -6 30.2831 1.80544   2
  -6  -2  -6 32.5264 1.83202   3
   2   6   6 26.8668 1.94675   2
   2   6   6 28.4537 1.83080   4
   2  -8  -6 28.5325 1.81365   3
   8  -6  -6 27.4484 1.57447   3
  -2   8   6 26.1234 1.87020   2
  -2  -6  -6 29.8202 1.94019   3
   6   2   6 32.3714 2.06938   4
   6  -8  -6 32.8227 1.74122   3
   2   6  -6 31.2316 2.00173   2
  -2   8   6 27.4417 1.62822   4
   1   7   6 10.4665 1.28034   4
   1   7   6 10.8542 1.41402   2
  -7   8   6 13.6151 1.42034   2
   8  -1   6 8.70381 1.42385   4
  -1   8  -6 10.0584 1.30343   2
   7   1  -6 12.1193 1.47729   2
   1  -8  -6 12.9058 1.48352   3
  -1   8   6 9.86412 1.20116   4
  -1  -7  -6 10.1300 1.38396   3
   1   7  -6 12.1672 1.48991   2
   8  -1  -6 9.42995 1.34294   2
   7   1   6 12.5533 1.52646   4
  -1   8   6 13.5031 1.58667   2
   0   8   6 8.90017 1.27798   4
   8   0   6 9.33710 1.45495   4
   8   0  -6 11.0271 1.46205   2
   0   8   6 13.3341 1.67864   2
   0  -8  -6 8.79965 1.36230   3
   0   8  -6 10.0784 1.50904   2
  -5   9   6 16.4341 1.68930   2
   4  -9  -6 13.7674 1.44201   3
   4   5   6 19.8619 1.74832   4
   9  -4   6 16.8996 1.56870   4
  -5  -4  -6 15.0131 1.62256   3
   4   5   6 19.6055 1.69365   2
   5   4  -6 14.6198 1.58164   2
  -4  -5  -6 18.7681 1.75999   3
  -4   9   6 18.1241 1.79575   2
   4   5  -6 15.7509 1.72651   2
   5   4   6 17.0788 1.58220   2
   5  -9  -6 15.4588 1.45352   3
   5   4   6 14.8545 1.66371   4
  -6   9   6 7.61809 1.34822   2
  -3   9  -6 8.00752 1.26329   2
   3   6   6 9.04239 1.39278   2
   6   3  -6 8.21401 1.40566   2
   3   6   6 8.84212 1.39180   4
  -6  -3  -6 9.35221 1.30867   3
   3  -9  -6 7.10439 1.29693   3
   9  -3   6 7.83320 1.35564   4
  -3  -6  -6 6.04161 1.34575   3
   3   6  -6 6.39969 1.40056   2
  -3   9   6 9.86015 1.48078   2
   6   3   6 9.35748 1.52378   4
   2  -9  -6 12.5115 1.58220   3
   7   2  -6 9.27200 1.53824   2
  -2   9  -6 13.8825 1.60080   2
   2   7   6 12.1101 1.46903   4
   2   7   6 14.3677 1.66070   2
   9  -2   6 14.8336 1.75656   4
  -7   9   6 12.2131 1.47256   2
   2   7  -6 13.8740 1.69995   2
  -2  -7  -6 12.9459 1.63857   3
   9  -2  -6 12.3995 1.53988   2
   7   2   6 10.8917 1.57524   4
  -2   9   6 10.3197 1.63191   2
  -8   9   6 9.31079 1.46707   2
  -1   9  -6 10.2876 1.58045   2
   8   1  -6 9.22207 1.52443   2
   1   8   6 7.96005 1.58516   2
   1  -9  -6 10.5344 1.53875   3
   9  -1   6 7.52516 1.57029   4
   1   8  -6 8.93307 1.53018   2
  -1   9   6 6.91746 1.48444   2
   8   1   6 9.86697 1.57903   4
   9  -1  -6 8.02057 1.44022   2
  -1  -8  -6 8.44629 1.58433   3
  -5  -5  -6 0.17187 1.11533   3
   5   5  -6 0.54444 1.20414   2
   5   5   6 3.09207 1.26886   4
   5   5   6 1.81597 1.06992   2
  -5  10   6 0.58025 1.07611   2
   0   0  -7 -0.0133 0.78921   1
   0   0   7 0.05683 0.33710   4
   0   0   7 1.18276 0.85432   1
   0   0  -7 0.22367 0.81661   1
   0   0   7 -0.0553 0.73165   1
   1   0  -7 20.7834 1.65130   1
  -1   1  -7 23.0050 1.47133   1
  -1   0  -7 20.7405 1.84522   1
  -1   1  -7 21.1112 1.43259   1
  -1   0  -7 25.2603 1.94796   1
   0  -1   7 21.8948 1.22375   1
  -1   1  -7 21.0940 0.89872   3
   1  -1   7 19.2146 0.90790   4
   1  -1   7 20.8854 1.43066   1
   0   1   7 17.2588 1.88372   1
   1  -1  -7 24.1273 2.02768   1
  -1   0   7 22.0295 1.68804   1
   0   1   7 22.1762 2.06647   1
  -1   1   7 25.4688 2.07663   1
  -1   0  -7 22.9537 0.97338   3
   0  -1   7 21.2870 1.20029   1
   0   1   7 22.0444 0.96349   2
   0  -1   7 21.2714 0.93370   4
   1   0   7 22.5034 0.86109   2
   0   1   7 20.6445 1.04496   4
   1  -1   7 20.5397 1.42756   1
   1   0   7 23.0224 1.03772   4
   1   0   7 19.3909 1.78829   1
   0  -1  -7 22.4248 2.06710   1
  -1   1   7 22.0459 1.07141   4
   0  -1  -7 22.3067 1.04079   3
  -1   0   7 20.1914 1.00016   4
  -1   1   7 20.9925 2.00335   1
   0   1  -7 21.3468 1.20734   1
   1  -1  -7 22.7300 1.03649   3
   1   0  -7 22.2343 1.68984   1
  -1   0   7 23.6713 1.73621   1
   0   1  -7 21.6050 1.21388   1
  -1  -1   7 0.47607 0.61289   1
  -1   2   7 -0.6572 0.42368   4
   1   1   7 0.14309 1.22697   1
  -1   2   7 0.28667 1.26324   1
  -2   1  -7 -0.0433 0.94714   1
  -1   2   7 0.43681 1.30902   1
   2  -1   7 -0.7192 0.30799   4
  -2   1   7 -0.5547 0.94337   1
   1   1   7 0.70565 0.46431   4
   1   1  -7 -0.3522 0.60334   1
  -2   1   7 0.63752 1.03360   1
   2  -1  -7 -0.4168 1.01052   1
   1  -2  -7 -0.7374 1.33930   1
  -1  -1   7 0.24002 0.64500   1
  -1  -1  -7 -0.3215 0.36501   3
  -1  -1  -7 -1.2978 1.06066   1
  -1   2   7 -0.3215 0.40920   2
   2  -1   7 -0.9018 0.88636   1
  -2   1  -7 -0.7933 0.24989   3
   1   1  -7 -0.1609 0.60200   1
   1  -2  -7 -0.3242 0.41495   3
   1  -2   7 -0.1853 0.27823   4
   1   1   7 0.31742 0.37728   2
   2  -1   7 -0.1237 0.89687   1
   1   1   7 -0.7274 1.07846   1
   2  -2   7 486.062 9.03966   4
   2  -2  -7 473.365 11.6706   1
   0   2   7 465.690 11.6236   1
   0   2   7 486.940 9.15845   2
   0  -2  -7 479.242 9.12351   3
  -2   2  -7 488.514 9.74002   1
  -2   2  -7 485.959 9.73553   1
   2   0   7 486.570 9.28792   4
  -2   0   7 469.676 10.5335   1
   0  -2  -7 483.812 11.8024   1
  -2   2  -7 476.893 8.69879   3
   0   2   7 498.198 9.38558   4
  -2   2   7 487.311 9.22235   2
  -2   0   7 477.973 10.6037   1
   2   0   7 448.705 11.0352   1
  -2   0  -7 486.028 8.93287   3
  -2   0  -7 479.229 11.2194   1
  -2   2   7 480.788 11.6131   1
  -2   2   7 487.028 9.36694   4
   2  -2  -7 489.147 9.13117   3
   2  -2   7 488.371 9.70915   1
   0   2   7 478.109 11.7596   1
   2   0   7 494.153 11.2670   1
   2   0   7 466.942 8.76720   2
   2  -2   7 476.497 9.65476   1
   2   0  -7 483.581 10.6681   1
  -2   2   7 478.431 11.6196   1
  -2   3   7 103.250 5.08309   1
   1   2   7 116.430 3.03805   4
  -2  -1  -7 111.544 5.04301   1
  -3   1   7 122.663 4.87405   1
  -3   2  -7 113.361 2.21766   2
   1  -3  -7 119.081 5.28432   1
  -1  -2   7 114.042 3.00098   1
  -2   3   7 124.493 5.42483   1
  -1   3  -7 115.671 2.67978   2
   1   2   7 115.188 2.86269   2
  -3   1   7 117.602 4.91458   1
  -3   2  -7 109.773 4.09735   1
  -2   3   7 118.363 3.04912   4
   1  -3  -7 113.469 2.95016   3
  -2  -1  -7 113.605 2.83652   3
  -2   3   7 113.711 2.98535   2
   3  -1   7 114.229 4.62879   1
  -1  -2   7 115.086 3.08561   1
   1   2   7 114.709 5.21436   1
   3  -1   7 115.153 4.60773   1
   2   1  -7 119.996 3.93979   1
   1   2   7 113.400 5.09237   1
  -3   2  -7 118.623 2.46453   3
   3  -2  -7 119.676 5.10454   1
   2  -3   7 114.171 2.53287   4
   3  -1   7 114.259 2.88393   4
   3  -2   7 118.302 2.78367   4
   3  -2   7 123.846 4.26957   1
  -1   3   7 117.303 5.32583   1
  -2  -1   7 117.828 3.98409   1
   2  -3  -7 117.193 2.92443   3
   2   1   7 116.375 2.70552   2
   2   1   7 126.709 5.20380   1
  -1  -2  -7 117.217 2.92897   3
  -2   3  -7 116.465 2.50672   2
  -1   3   7 121.976 5.44450   1
   2  -3  -7 111.763 5.26104   1
   3  -2   7 115.619 4.17847   1
   2   1   7 117.608 3.01011   4
   1   2  -7 113.661 3.00077   1
  -3   1  -7 115.394 2.59130   3
   3  -1  -7 113.236 4.69600   1
  -1   3   7 116.409 3.00108   2
  -2  -1   7 109.524 3.76307   1
  -3   2   7 124.333 5.19676   1
  -1   3   7 117.140 3.03658   4
  -1  -2  -7 115.893 5.24369   1
  -3   1  -7 116.948 4.61688   1
  -3   2   7 116.268 5.01945   1
   2   1   7 119.267 5.06945   1
   1   2  -7 116.057 2.97031   1
   3  -3   7 63.3031 1.71761   4
   0  -3  -7 65.3456 2.08711   3
   0   3   7 65.7138 2.13591   4
  -3   3   7 65.7351 4.32102   1
  -3   3   7 65.6380 2.09824   2
   0   3   7 64.7204 4.23760   1
  -3   3   7 63.9706 4.10576   1
   3   0   7 65.4795 3.89765   1
   0   3   7 66.1867 2.07942   2
  -3   3  -7 65.9471 1.49719   3
   0   3  -7 64.0626 1.93488   2
   3  -3   7 65.4965 2.81402   1
   3   0   7 65.2369 2.08893   4
  -3   0   7 70.9686 3.63141   1
  -3   3  -7 63.1060 2.71137   1
  -3   3  -7 65.7159 1.42794   2
   3  -3  -7 62.4002 2.02261   3
  -3   0  -7 68.2147 1.89463   3
   0  -3  -7 65.3974 4.19217   1
   3   0   7 63.8524 3.84704   1
   3  -3  -7 66.0865 4.20641   1
  -3   0  -7 62.6933 3.86692   1
  -3   0   7 69.4750 3.56535   1
   3  -3   7 62.4732 2.70627   1
   0   3   7 66.5982 4.20381   1
   3   0   7 63.6937 1.61553   2
   3   0  -7 59.4609 3.37977   1
   2   2   7 1.47900 1.86215   1
   2  -4  -7 -0.3392 1.73766   1
   2   2  -7 0.54776 0.93650   1
  -2   4   7 0.71004 1.86255   1
  -2   4  -7 -0.3282 0.31001   2
   2   2  -7 -0.2222 0.52316   2
   4  -2   7 -0.8759 1.29679   1
  -4   2   7 2.11226 1.73927   1
  -4   2  -7 0.05666 1.52225   1
   4  -2   7 0.49291 1.42111   1
  -2   4   7 0.80038 2.02291   1
   2   2   7 -0.2606 0.41070   2
  -2  -2   7 -0.0009 0.94173   1
  -2   4   7 0.10868 0.49060   2
  -2  -2  -7 0.10986 1.81419   1
   2  -4  -7 0.03666 0.49175   3
   2   2   7 -0.2306 0.53039   4
   4  -2   7 0.16009 0.45990   4
   2   2   7 -0.3225 1.63433   1
  -2  -2  -7 -0.7077 0.39342   3
   4  -2  -7 0.64340 1.79362   1
  -4   2   7 1.24920 1.59270   1
  -2  -2   7 -0.2862 0.87558   1
  -4   2  -7 0.22095 0.27772   3
  -2   4   7 0.01599 0.56552   4
  -3   4   7 15.5288 2.83231   1
  -3   4   7 15.4409 3.03543   1
  -3  -1  -7 17.1792 1.04140   3
  -4   1   7 16.3401 2.44691   1
   1   3   7 20.0429 2.77491   1
   4  -3  -7 17.0205 1.10646   3
  -3   4   7 15.4603 1.15971   2
  -1  -3   7 14.4621 1.21990   1
   1   3   7 17.5573 1.19446   4
   4  -1   7 19.8479 2.66730   1
   1   3   7 18.4623 2.85433   1
   1   3   7 18.1899 1.12086   2
  -4   1   7 14.3434 2.34734   1
   3  -4   7 17.0473 0.68499   4
   1  -4  -7 14.4609 2.93185   1
  -1  -3   7 17.0745 1.26044   1
   1  -4  -7 16.7999 1.17949   3
  -3  -1  -7 17.0312 2.65078   1
   3  -4   7 16.2308 1.44092   1
  -1   4  -7 15.1975 0.94424   2
   4  -1   7 18.1935 2.60841   1
   4  -1   7 16.7546 1.07847   4
  -4   3  -7 16.9146 0.60309   3
   3   1  -7 18.7862 2.13763   1
  -3   4   7 15.4821 1.08115   4
   4  -3  -7 22.2884 3.05941   1
  -4   3  -7 14.5135 1.99573   1
   3  -4   7 15.3424 1.39313   1
   4  -1   7 16.3763 0.56324   2
  -4   1  -7 17.3182 2.48452   1
  -3   4  -7 17.7193 0.65090   3
  -4   1  -7 16.6807 0.85185   3
   3   1   7 15.8852 1.11364   4
  -3  -1   7 20.9387 2.19883   1
   1   3  -7 14.7220 1.21748   1
  -4   3   7 15.0612 2.77686   1
  -1   4   7 17.4408 1.16905   2
  -1   4   7 16.7720 1.09729   4
   1   3  -7 18.9212 1.11660   2
   3  -4  -7 16.4824 1.12794   3
   3  -4  -7 15.8108 2.71661   1
  -1   4   7 15.5419 2.96645   1
  -1  -3  -7 18.2225 1.18667   3
  -4   3   7 19.5483 2.85738   1
   4  -3   7 17.0488 0.90904   4
  -3   4  -7 16.2733 1.44065   1
   3   1   7 15.0927 0.87043   2
   4  -3   7 19.7922 2.11476   1
   4  -1  -7 20.0612 2.59755   1
  -3   4  -7 18.0333 0.73917   2
  -1  -3  -7 19.2783 2.84285   1
  -1   4   7 16.8227 2.84313   1
   3   1   7 14.7993 2.72615   1
   3   1   7 17.6455 2.59892   1
   0   4   7 56.0504 2.07056   4
   4   0   7 59.2887 1.57058   2
  -4   0   7 57.4199 3.86824   1
   4   0   7 64.2636 4.42930   1
   4   0   7 59.3818 4.29707   1
   0   4   7 56.9538 2.09864   2
  -4   4   7 55.3287 2.09048   2
  -4   0  -7 56.4419 4.26416   1
   0   4  -7 56.1685 1.92748   2
  -4   0  -7 53.7326 1.76267   3
   0  -4  -7 55.7856 2.05253   3
   0   4   7 58.2027 4.58853   1
   4  -4  -7 51.5103 4.41349   1
   4  -4  -7 55.8032 2.01009   3
  -4   4   7 57.4010 4.59900   1
   4  -4   7 56.3572 1.59486   4
   4  -4   7 53.5431 3.06486   1
   0  -4  -7 55.6600 4.57687   1
   4   0   7 57.3994 2.09422   4
  -4   4   7 55.9367 4.47785   1
   2   3   7 5.68210 0.86105   4
  -3   5   7 5.50954 0.83420   4
   2  -5  -7 9.57072 2.92198   1
  -3   5   7 4.86748 2.41600   1
  -3   5   7 4.46153 0.87104   2
   5  -2   7 5.52351 0.80734   4
  -2  -3   7 3.60555 1.27687   1
   3  -5   7 5.86974 1.09920   1
  -3  -2  -7 5.30206 0.78085   3
   2  -5  -7 4.77601 0.80693   3
  -2   5  -7 5.67777 0.65132   2
  -3  -2  -7 5.60538 2.61712   1
   5  -3  -7 4.27216 2.27654   1
   3   2  -7 3.79657 0.81907   2
   2   3   7 4.19114 0.71113   2
   5  -2   7 7.70831 2.17225   1
   3  -5   7 5.03286 1.04153   1
  -5   2   7 6.77597 2.34357   1
   2   3   7 1.66435 2.35685   1
   2   3  -7 6.71727 0.85468   2
  -2   5   7 5.84608 0.86370   2
  -2   5   7 6.37816 0.85448   4
  -2   5   7 0.92123 2.40832   1
  -2  -3  -7 6.01179 2.60035   1
   3   2   7 6.66478 0.88034   4
   3   2   7 2.47654 2.27487   1
  -3   5  -7 6.54532 0.59871   2
   3  -5  -7 5.19017 0.80970   3
   3  -5  -7 1.68388 2.11818   1
   5  -3   7 7.90665 2.07997   1
   3   2   7 5.26916 0.71458   2
  -3  -2   7 5.61363 1.67937   1
  -5   2  -7 5.22365 0.51277   3
  -2  -3  -7 6.97209 0.90449   3
   5  -3   7 5.69968 0.72081   4
  -5   3   7 5.09492 2.49172   1
   5  -2  -7 4.16083 2.06946   1
   1   4   7 40.4672 1.80644   2
   5  -4  -7 31.9528 3.89851   1
   5  -1   7 40.1073 3.94914   1
   1  -5  -7 40.6132 1.79910   3
   5  -4  -7 39.9748 1.68572   3
  -1  -4   7 33.8009 2.11176   1
  -1   5  -7 37.3987 1.58341   2
  -5   1   7 43.2161 3.84835   1
  -4   5   7 38.0764 4.28270   1
   1   4   7 41.8654 4.34130   1
  -4   5   7 37.3661 1.76644   2
  -4  -1  -7 36.1657 1.59245   3
   1  -5  -7 36.4306 4.07016   1
  -4  -1  -7 39.4780 4.05953   1
   4  -5   7 40.6273 2.61797   1
   1   4   7 38.3929 1.75212   4
   5  -1   7 40.7952 1.78487   4
  -1  -4  -7 37.2264 1.78438   3
  -1   5   7 40.5698 1.75626   4
  -4  -1   7 35.7848 3.30712   1
  -5   4   7 37.3479 3.97662   1
   1   4  -7 37.9634 1.71138   2
  -1  -4  -7 38.9513 4.35619   1
  -5   1  -7 36.4494 1.36242   3
   4   1   7 39.3561 1.43657   2
  -5   1  -7 30.3106 3.90827   1
   5  -4   7 40.0577 3.18747   1
   4  -5  -7 38.5708 4.37654   1
   5  -4   7 38.2639 1.42052   4
   4   1   7 39.5570 1.82497   4
  -1   5   7 42.9372 4.34187   1
   4  -5  -7 40.9069 1.74738   3
  -1   5   7 37.9895 1.81757   2
   4   1   7 38.9963 3.93117   1
   0  -5  -7 86.2694 2.83777   3
   0   5   7 81.2038 2.70323   4
   0  -5  -7 77.0266 5.61390   1
   5  -5  -7 81.3804 2.58611   3
   5  -5   7 79.5719 4.26105   1
  -5   0  -7 87.0026 5.67572   1
  -5   5   7 80.4778 2.69694   2
   5   0   7 81.4711 2.76045   4
  -5   5   7 91.8130 6.20376   1
   0   5  -7 85.4725 2.65669   2
  -5   0  -7 81.1766 2.40532   3
   5  -5  -7 79.3332 5.89835   1
   5   0   7 73.1131 5.26701   1
   0   5   7 83.8099 5.71758   1
  -5   0   7 78.3262 4.98160   1
   0   5   7 87.5213 2.82911   2
   3   3   7 -0.1316 0.53975   2
  -3  -3   7 1.65654 1.64156   1
  -3   6   7 -0.8718 2.43043   1
   3  -6  -7 0.50787 2.57390   1
  -6   3   7 -0.9228 2.42743   1
  -3  -3  -7 -0.3631 0.66126   3
   3   3   7 -0.1617 2.55520   1
  -3  -3  -7 2.29851 2.71280   1
   6  -3   7 1.58105 2.37187   1
  -3   6  -7 0.45316 0.48894   2
   3  -6  -7 -0.9664 0.55339   3
  -3   6   7 0.63054 0.80658   2
   3   3   7 0.03276 0.67116   4
   3  -6   7 0.28002 0.99141   1
  -3   6   7 -0.2951 0.62779   4
   3   3  -7 0.59452 0.68627   2
   6  -3   7 0.84577 0.68484   4
   2  -6  -7 4.72613 3.09544   1
   2   4   7 11.1588 1.11393   2
  -2  -4   7 10.7656 1.91130   1
   2   4   7 14.1294 3.53108   1
   2   4   7 9.37565 1.14162   4
   6  -4  -7 8.87381 0.99829   3
  -2   6  -7 10.1376 0.95878   2
  -6   2   7 9.29609 2.88879   1
  -4   6   7 9.66446 1.11285   2
   6  -4  -7 9.78782 3.07737   1
  -4   6   7 8.02047 3.11201   1
   6  -2   7 11.2391 1.15755   4
   4  -6   7 9.41191 1.76669   1
  -4  -2  -7 9.27653 1.01101   3
   6  -2   7 5.52556 2.65927   1
   4   2  -7 11.4742 1.22420   2
   2  -6  -7 9.11202 1.06578   3
  -4  -2  -7 7.27572 3.44917   1
   6  -4   7 11.8378 0.98515   4
   4  -6  -7 10.0927 3.34650   1
  -2   6   7 16.8424 3.72292   1
  -2  -4  -7 7.22558 1.01549   3
  -2   6   7 9.71915 1.14544   2
  -6   4   7 11.6351 3.56400   1
   4   2   7 11.1811 1.24075   4
   6  -4   7 15.9664 2.79868   1
   4   2   7 16.6517 3.68023   1
  -4  -2   7 13.9331 2.56005   1
  -2  -4  -7 13.5743 3.81258   1
   4  -6  -7 9.02289 1.02077   3
  -2   6   7 10.3181 1.11433   4
   2   4  -7 9.74720 1.17987   2
   4   2   7 9.39953 0.92361   2
  -5   6   7 20.2852 4.27028   1
   6  -5  -7 19.9853 1.36923   3
   6  -5  -7 25.6287 4.26599   1
   1   5   7 21.2256 1.50489   4
   1   5   7 21.2694 1.48925   2
   1   5   7 19.1253 3.76681   1
  -1  -5   7 18.5807 2.06872   1
   1  -6  -7 19.2792 1.45648   3
  -5   6   7 22.2895 1.56229   2
  -6   1   7 19.7721 3.38994   1
  -5  -1  -7 23.5070 1.40958   3
  -1   6  -7 19.9948 1.36784   2
  -5  -1  -7 17.5105 3.62238   1
   5   1  -7 22.4099 1.54709   2
   1  -6  -7 18.9521 3.98213   1
   6  -1   7 25.5996 1.64378   4
   5  -6   7 24.9084 2.72863   1
   6  -1   7 15.9043 3.54791   1
  -1  -5  -7 21.8885 1.56848   3
   6  -5   7 21.0839 3.13977   1
  -1   6   7 19.2598 1.38991   4
   1   5  -7 21.7362 1.50473   2
  -1  -5  -7 20.7540 3.92158   1
  -5  -1   7 17.7266 3.16818   1
  -1   6   7 25.0082 4.29438   1
  -6   1  -7 18.3099 1.08680   3
   5  -6  -7 23.5851 1.40737   3
   5  -6  -7 26.0916 4.48501   1
   5   1   7 23.8762 1.64036   4
  -1   6   7 23.1010 1.64427   2
   5   1   7 18.7250 3.61188   1
  -6   5   7 17.8057 3.86519   1
   6   0   7 0.41562 0.86248   4
   0   6   7 3.09534 0.89459   2
   0   6  -7 0.10592 0.76703   2
   0  -6  -7 1.07749 0.92245   3
   6   0  -7 -0.0593 0.71263   2
  -6   6   7 -1.1418 2.94205   1
   0   6   7 -0.3811 0.78644   4
  -6   0  -7 0.04597 0.64044   3
   0  -6  -7 0.35221 3.04715   1
   6  -6   7 -0.4101 1.96823   1
   6  -6  -7 1.63494 0.80425   3
  -6   6   7 -0.0423 0.68377   2
   6  -6  -7 2.77721 3.26724   1
   6   0   7 -0.5744 2.78980   1
   0   6   7 3.91406 3.19364   1
   0  -6   7 0.02965 1.22855   1
  -4   7   7 18.3876 1.61314   2
  -3  -4   7 15.6626 2.67199   1
   4   3  -7 18.4180 1.54154   2
   3  -7  -7 20.3085 1.49119   3
   4  -7   7 18.5919 2.27913   1
  -3   7  -7 20.5043 1.30574   2
   3  -7  -7 15.0112 3.90267   1
   3   4   7 16.8779 1.44296   4
  -4  -3  -7 20.2591 4.42522   1
   3   4   7 17.6033 4.41452   1
  -4   7   7 19.2479 4.12651   1
   3   4   7 17.8326 1.41188   2
  -4  -3  -7 20.5669 1.52678   3
   7  -3   7 15.8211 1.33987   4
   3  -7   7 16.8293 1.93579   1
  -3  -4  -7 22.7222 1.58857   3
  -4  -3   7 16.8329 3.00955   1
  -3  -4  -7 21.6037 4.62624   1
   4   3   7 19.5827 1.59344   4
   4   3   7 24.9682 4.59669   1
  -3   7   7 21.4050 4.46417   1
  -3   7   7 19.9976 1.65073   2
   3   4  -7 18.5541 1.48846   2
   7  -4   7 20.3435 1.36439   4
   4   3   7 21.4813 1.45538   2
   4  -7  -7 19.0182 4.17114   1
   4  -7  -7 16.6904 1.40605   3
  -3   7   7 18.2607 1.42054   4
  -5  -2  -7 13.1586 1.25813   3
   2   5   7 14.3384 1.36386   2
   7  -5  -7 14.3211 1.28509   3
   2   5   7 13.0262 1.37731   4
   5  -7   7 12.9757 2.42328   1
  -2  -5   7 9.60596 2.21948   1
  -5   7   7 16.2906 4.11295   1
  -5   7   7 16.2984 1.52333   2
   5   2  -7 13.7796 1.44950   2
  -2   7  -7 13.8622 1.21182   2
   2  -7  -7 13.7957 1.41442   3
   2  -7  -7 5.95078 3.60626   1
   2   5   7 7.79686 3.73894   1
   7  -2   7 13.2039 1.35536   4
   5   2   7 14.4301 1.51989   4
  -2  -5  -7 9.81303 4.02923   1
   5  -7  -7 7.79475 3.88676   1
   2   5  -7 13.0551 1.42807   2
   2  -7   7 9.45936 1.62430   1
  -2   7   7 14.4831 1.29548   4
   5  -7  -7 11.8349 1.23233   3
  -2   7   7 16.7588 1.50395   2
   5   2   7 6.72638 3.64079   1
  -2  -5  -7 12.8168 1.35452   3
  -2   7   7 7.27541 3.65277   1
   1   6   7 6.17062 1.06736   4
   1   6   7 1.88782 3.70348   1
  -6  -1  -7 5.49114 0.98791   3
   1  -7  -7 5.49013 4.23057   1
   1   6   7 6.04889 1.19116   2
   7  -1   7 5.95777 1.16824   4
  -6   7   7 2.52301 3.74408   1
  -1  -6   7 4.97123 1.89797   1
   1  -7  -7 5.04655 1.12969   3
  -6   7   7 6.04000 1.17434   2
   7  -6  -7 3.99440 0.92502   3
   6   1  -7 4.66326 1.11630   2
  -1   7  -7 3.87166 1.00489   2
   6   1   7 6.30554 1.16453   4
   1  -7   7 5.87059 1.66091   1
  -1  -6  -7 8.28900 4.20898   1
   6  -7  -7 6.58205 0.98572   3
  -1   7   7 8.26073 4.23487   1
   6  -7  -7 5.20219 3.94251   1
  -1  -6  -7 5.65145 1.18597   3
  -1   7   7 4.53863 1.01547   4
  -1   7   7 5.62278 1.23085   2
   1   6  -7 6.45640 1.09586   2
   7  -7  -7 -1.6526 3.77081   1
   0   7  -7 -0.4365 0.82571   2
   7  -7  -7 0.87087 0.74721   3
  -7   0  -7 -0.8364 0.59749   3
   0   7   7 0.26217 0.91411   2
   0   7   7 -2.7446 4.04536   1
   7   0   7 -0.3430 0.94120   4
   0   7   7 -1.3290 0.69840   4
  -7   7   7 -0.0988 0.87528   2
   0  -7  -7 1.14161 1.02965   3
   7   0  -7 -0.6362 0.84372   2
  -4  -4  -7 -0.9324 3.60733   1
  -4   8   7 -1.1521 4.17474   1
   4   4  -7 -0.8551 0.86900   2
   4   4   7 -0.0063 0.80384   2
   4  -8  -7 -0.9387 0.68896   3
   8  -4   7 0.29541 0.73312   4
  -4  -4  -7 -0.2498 0.90043   3
  -4   8   7 1.52921 1.06722   2
   4   4   7 -0.3344 0.82212   4
  -5  -3  -7 1.58083 0.99789   3
   3   5   7 0.86497 0.85474   2
   3   5   7 0.87552 0.87768   4
   3  -8  -7 0.73776 0.94070   3
   8  -5  -7 0.99917 0.78335   3
   8  -3   7 2.72502 1.01767   4
  -3   8  -7 1.54416 0.81888   2
  -5   8   7 0.74008 4.45303   1
   5   3  -7 1.17263 1.06762   2
  -5   8   7 1.01865 0.89301   2
   3   5  -7 0.33066 0.94281   2
   5   3   7 1.31839 0.81328   2
  -3  -5  -7 0.89640 0.87909   3
   3  -8   7 1.76946 1.75464   1
   5   3   7 0.09995 0.97525   4
  -3   8   7 1.64496 1.02496   2
   5  -8  -7 1.02446 0.79867   3
  -3   8   7 0.77893 3.98954   1
  -3   8   7 1.58852 0.81699   4
   6   2  -7 -0.1597 1.01114   2
  -2   8  -7 -0.1904 0.78966   2
  -6  -2  -7 -0.3152 0.73056   3
   8  -6  -7 1.23276 0.79988   3
   2   6   7 1.05356 0.91025   2
   2  -8  -7 0.97729 1.06075   3
   8  -2   7 0.22639 0.96042   4
   2   6   7 1.46814 0.91111   4
  -6   8   7 -0.0810 0.89332   2
  -2  -6  -7 -0.0393 1.02983   3
   6  -8  -7 -0.7078 0.69374   3
  -2   8   7 -0.0230 0.82035   4
   2   6  -7 0.46206 0.88890   2
  -2   8   7 1.59147 1.14094   2
   6   2   7 0.41530 0.99683   4
  -7   8   7 0.92282 1.03810   2
  -1   8  -7 1.69811 0.95407   2
   1  -8  -7 0.60938 0.95243   3
   8  -1   7 2.16426 1.05314   4
   1   7   7 1.14505 1.01227   4
   7   1  -7 1.37118 0.99831   2
   1   7   7 0.56129 1.01199   2
  -7  -1  -7 0.25301 0.89169   3
  -1   8   7 0.24257 1.12064   2
   8  -1  -7 1.76998 0.95684   2
   7  -8  -7 1.52716 0.92471   3
  -1   8   7 2.49938 0.99915   4
   1   7  -7 0.62217 1.10640   2
   7   1   7 2.40618 1.11286   4
  -1  -7  -7 -0.5650 0.89458   3
   0   8  -7 0.69783 0.99070   2
   8   0  -7 -0.2719 1.00122   2
   8   0   7 -0.5569 1.12516   4
   0  -8  -7 1.16805 1.17847   3
   0   8   7 -0.2812 0.91753   4
   0   8   7 -0.2814 1.00269   2
   5   4  -7 1.24795 1.13835   2
   4   5   7 -0.3735 0.88584   2
   9  -5  -7 0.00152 0.81469   3
   9  -4   7 1.61155 1.05373   4
  -5  -4  -7 -0.8900 0.82231   3
   4   5   7 1.76456 1.06048   4
   4  -9  -7 -0.1499 0.93118   3
  -5   9   7 0.96140 1.02811   2
   5   4   7 1.03182 0.98685   2
   4   5  -7 0.66337 1.04904   2
  -4  -5  -7 1.34542 1.02264   3
   5   4   7 0.21618 1.01229   4
  -4   9   7 2.33691 1.15650   2
   5  -9  -7 0.46480 0.84758   3
   6   3  -7 0.03273 1.14388   2
   3   6   7 0.58237 0.98812   4
   3  -9  -7 1.62100 1.02446   3
   9  -3   7 1.43604 1.03756   4
   3   6   7 0.92017 1.05687   2
  -6   9   7 1.62600 1.12823   2
  -6  -3  -7 1.05265 1.09636   3
   3   6  -7 0.42606 1.01807   2
  -3   9   7 1.09500 1.08358   2
  -3  -6  -7 1.20428 1.06781   3
   6   3   7 0.25721 1.03333   4
   6  -9  -7 0.97007 0.89579   3
   2   7   7 3.47860 1.15024   4
   2   7   7 3.09304 1.33444   2
   9  -2   7 1.65449 1.18212   4
  -7  -2  -7 3.16507 1.09719   3
  -2   9  -7 2.60981 1.09803   2
   2  -9  -7 4.76312 1.33098   3
   7   2  -7 2.66025 1.17418   2
  -7   9   7 3.11638 1.26261   2
   2   7  -7 3.46266 1.22922   2
   9  -2  -7 1.33599 1.03586   2
   7   2   7 1.56465 1.21794   4
  -2   9   7 5.96847 1.37228   2
  -2  -7  -7 2.15731 1.31799   3
   0   0   8 49.8480 1.63751   4
   0   0  -8 45.2160 2.45699   1
   0   0   8 46.3192 2.50020   1
   0   0  -8 46.7477 1.52409   3
   0   0   8 51.4505 2.57229   1
  -1   0   8 79.6505 2.30069   4
  -1   1   8 87.2501 3.88452   1
  -1   1  -8 100.888 2.41499   3
   1   0   8 83.6798 2.33135   4
  -1   1   8 77.9000 3.62236   1
   0  -1   8 85.6821 2.24994   4
   1  -1   8 84.1881 2.24779   4
   0   1   8 85.8585 3.92679   1
   0  -1  -8 101.937 2.59132   3
  -1   0   8 83.2375 3.32889   1
   1  -1  -8 104.487 4.16636   1
  -1   1   8 83.7363 2.38714   4
   0   1  -8 97.6414 2.91550   1
   1  -1  -8 101.799 2.61183   3
   0   1  -8 104.180 2.95877   1
  -1   0  -8 104.744 3.96341   1
   0   1   8 83.6544 2.21292   2
  -1   0  -8 98.6794 2.48941   3
  -1   0   8 83.8814 3.32666   1
   0  -1   8 87.4453 2.73308   1
   0  -1  -8 105.092 4.29175   1
   0   1   8 95.0906 2.46154   4
   1   0  -8 99.7654 3.57806   1
   1  -1   8 93.3856 3.07094   1
   0  -1   8 87.9956 2.66305   1
   0   1   8 92.7394 3.99172   1
   1  -1   8 82.7231 3.00799   1
  -1   1  -8 99.7831 3.25162   1
   1   0   8 83.4600 3.56745   1
  -1   2   8 615.279 14.1977   1
  -2   1   8 618.694 13.7238   1
   1  -2  -8 636.092 14.5648   1
  -1  -1   8 632.602 12.1000   1
   1   1   8 618.929 11.4159   2
   1   1   8 624.696 14.0361   1
   1   1   8 607.759 13.8974   1
   2  -1   8 613.495 12.9604   1
  -2   1  -8 630.097 13.2687   1
  -1  -1   8 633.139 12.0037   1
   1  -2   8 620.523 11.5170   4
  -1   2   8 616.266 14.1918   1
   1   1  -8 636.220 12.3600   1
  -1   2   8 619.445 11.8501   4
  -2   1  -8 645.501 11.5320   3
   2  -1   8 605.898 13.0258   1
  -1  -1  -8 654.283 11.7910   3
   1  -2  -8 654.293 11.8586   3
  -1  -1  -8 633.152 14.3629   1
  -1   2   8 603.579 11.6088   2
   2  -1   8 611.220 11.6711   4
  -2   1   8 610.974 13.6687   1
   2  -1  -8 614.270 13.8860   1
   1   1   8 636.161 11.8744   4
   2  -2   8 531.101 10.4134   1
   0   2   8 523.258 12.5933   1
  -2   2  -8 548.869 9.90016   3
   0   2   8 511.053 12.6549   1
  -2   0   8 504.778 11.3758   1
   0   2   8 519.737 9.81260   2
   2   0   8 513.959 9.98398   4
   2   0   8 522.310 12.1094   1
   2   0   8 506.988 11.9840   1
  -2   2   8 501.816 12.4774   1
   2  -2   8 506.902 10.3762   1
   0  -2  -8 541.078 13.1560   1
   2  -2  -8 540.412 10.3123   3
  -2   2   8 519.301 12.5501   1
   2  -2   8 510.394 9.70379   4
   2   0  -8 547.870 11.9197   1
  -2   0  -8 545.576 10.1319   3
   2   0   8 501.590 9.41965   2
   0  -2  -8 548.135 10.3134   3
  -2   2   8 520.921 9.94098   2
   0   2   8 514.211 10.0487   4
  -2   0  -8 559.810 12.6003   1
  -2   2  -8 543.292 10.8782   1
  -2   2   8 510.694 10.0588   4
   2  -2  -8 547.728 13.0344   1
  -2   0   8 511.143 11.2873   1
   3  -1   8 253.804 5.46159   4
   1  -3  -8 267.297 8.63163   1
  -3   2  -8 272.319 5.19528   3
  -3   1   8 258.299 7.67248   1
  -2  -1  -8 275.779 5.57787   3
   3  -1   8 256.500 7.50535   1
   2   1  -8 264.277 6.68330   1
   1   2   8 248.676 8.11244   1
   1  -3  -8 267.852 5.70811   3
   3  -2  -8 265.362 8.29962   1
  -1   3  -8 272.257 5.43848   2
  -2  -1  -8 264.675 8.35997   1
   1   2   8 258.703 8.30542   1
   1   2   8 265.601 5.66182   4
  -2   3   8 246.572 5.52268   2
  -2   3   8 259.254 5.65914   4
  -3   1   8 245.228 7.68122   1
  -2   3   8 260.320 8.50932   1
   3  -1   8 249.823 7.43357   1
  -3   2  -8 279.836 7.16418   1
   3  -2  -8 275.612 5.70344   3
   2  -3   8 254.105 5.09420   4
  -2   3   8 262.469 8.56400   1
   1   2   8 257.843 5.37747   2
   2  -3  -8 268.352 8.59628   1
  -2  -1   8 258.121 6.60478   1
  -1  -2  -8 274.133 5.69001   3
  -3   1  -8 264.909 5.28016   3
   2  -3  -8 272.305 5.70002   3
   2   1   8 258.642 8.12600   1
  -1   3   8 257.855 5.62753   4
   3  -2   8 261.919 6.95211   1
   2   1   8 259.397 5.20933   2
  -3   2   8 262.126 8.21703   1
  -2   3  -8 264.558 5.23161   2
   2   1   8 253.833 8.02075   1
  -1   3   8 256.814 8.38871   1
   3  -1  -8 268.534 7.95989   1
  -2   3  -8 266.456 5.17158   3
  -1   3   8 262.777 5.55563   2
   3  -2   8 253.895 6.88917   1
   2   1   8 255.061 5.60265   4
  -1   3   8 255.972 8.49539   1
   3  -2   8 258.455 5.34044   4
  -2  -1   8 252.100 6.45060   1
  -3   1  -8 264.600 7.68172   1
  -1  -2  -8 282.584 8.73925   1
  -3   2   8 267.110 8.10203   1
   3  -3   8 372.013 8.37346   1
   3  -3   8 365.809 8.30674   1
  -3   3  -8 396.089 7.07409   3
   3  -3  -8 385.235 11.0184   1
  -3   3   8 382.744 10.9291   1
   0   3   8 360.094 10.8175   1
   3   0   8 371.884 7.01771   2
   0  -3  -8 374.135 10.9890   1
  -3   0  -8 381.148 10.5148   1
   0   3   8 373.303 10.9792   1
   0   3   8 378.559 7.59103   2
  -3   3  -8 372.933 7.03015   2
   3  -3   8 370.163 7.24595   4
   0  -3  -8 401.592 7.81523   3
   0   3   8 374.492 7.73825   4
  -3   3   8 375.938 10.8547   1
  -3   0  -8 385.540 7.46274   3
   3   0   8 366.226 10.2308   1
   3   0   8 384.476 10.2670   1
   3   0  -8 391.770 9.77932   1
  -3   0   8 371.907 9.67841   1
  -3   3  -8 379.102 8.53778   1
   3   0   8 389.511 7.74268   4
  -3   3   8 372.903 7.64550   2
   3  -3  -8 394.604 7.74241   3
   0   3  -8 391.350 7.65440   2
  -4   2   8 0.88059 1.76196   1
   2  -4  -8 0.74823 0.61803   3
  -4   2  -8 0.44997 0.32490   3
   4  -2  -8 -0.7170 1.84606   1
   2   2   8 -0.2087 1.83059   1
   2  -4  -8 -1.4804 1.84920   1
  -2   4   8 1.03031 0.60743   4
   4  -2   8 0.14166 0.43608   4
  -2  -2  -8 0.24687 0.49205   3
   2   2   8 0.15508 0.59279   4
  -2   4   8 0.02372 1.83027   1
  -2   4   8 1.83356 0.62229   2
   2   2   8 1.58223 2.09246   1
  -2  -2   8 0.32808 0.97806   1
   2   2  -8 1.48689 0.61477   2
  -2   4   8 0.59578 2.29474   1
  -2  -2  -8 0.82915 2.21870   1
   2   2   8 -0.2658 0.39114   2
  -2  -2   8 0.66329 0.93489   1
   4  -2   8 0.60854 1.49400   1
   1   3   8 48.6321 3.98222   1
  -4   1   8 51.9572 3.79024   1
   4  -1   8 46.1119 3.66338   1
  -3  -1  -8 56.3668 4.32050   1
   1   3   8 44.6407 4.04266   1
   3  -4   8 49.3309 2.06949   1
   3  -4   8 47.0033 1.36624   4
   1   3   8 52.9101 2.02455   4
  -3   4   8 48.4242 4.26429   1
   1  -4  -8 54.7749 4.46538   1
  -4   3  -8 54.8733 1.39315   3
   1  -4  -8 58.8142 2.11591   3
  -3  -1  -8 58.5066 1.95024   3
   3  -4   8 49.6644 2.04543   1
  -1   4  -8 56.0612 1.81939   2
   4  -3  -8 56.3116 4.32057   1
  -3   4   8 52.2904 2.00937   2
   4  -3  -8 57.9127 2.04310   3
  -3   4   8 51.5191 4.28619   1
   4  -1   8 51.0093 1.89715   4
  -3   4   8 53.2692 1.99578   4
   1   3   8 48.9836 1.84380   2
  -4   1  -8 57.5098 1.70647   3
  -1   4   8 41.0857 4.20073   1
  -3   4  -8 59.0788 1.50071   2
   4  -3   8 49.3847 3.02254   1
  -1   4   8 49.4216 4.27522   1
  -1  -3  -8 57.1282 2.07999   3
  -4   3   8 58.9059 4.42470   1
  -3  -1   8 47.8376 3.09603   1
   3   1   8 47.7956 1.57781   2
   1   3  -8 56.5396 1.98876   2
  -3   4  -8 54.7025 1.41760   3
   4  -3   8 48.8634 1.63664   4
  -1  -3  -8 53.9346 4.25666   1
   3  -4  -8 62.3633 4.63740   1
   3   1   8 49.5607 1.97711   4
  -1   4   8 47.8004 1.92282   4
   3  -4  -8 58.2123 2.08092   3
   3   1   8 49.0450 3.96773   1
  -1   4   8 47.6141 1.93199   2
  -4   4   8 138.272 6.79997   1
  -4   0   8 136.306 5.81378   1
   0  -4  -8 145.888 3.74727   3
   0   4   8 135.363 3.61082   2
  -4   0  -8 136.463 6.66665   1
   4  -4   8 133.915 3.04188   4
  -4   0  -8 140.613 3.34348   3
  -4   4   8 134.156 3.62086   2
   0   4   8 139.721 3.67716   4
   4   0   8 133.940 2.91938   2
   4  -4   8 126.787 4.61027   1
   4  -4  -8 148.515 6.95335   1
   0   4   8 132.650 6.70134   1
   0   4  -8 138.364 3.51822   2
   4  -4  -8 138.723 3.61972   3
   0  -4  -8 140.467 6.93655   1
   4   0   8 131.632 3.61653   4
   4   0   8 131.142 6.24176   1
  -5   2   8 0.90097 2.23311   1
  -3   5   8 -0.2629 2.38058   1
   2  -5  -8 2.84136 0.74532   3
   3   2  -8 1.55175 0.71857   2
  -3   5   8 0.58967 0.72179   4
   2   3   8 -0.4893 0.66111   4
   5  -2   8 0.02083 0.50636   4
   5  -2   8 -1.3587 1.74940   1
   2   3   8 0.09601 0.52770   2
  -3  -2  -8 1.48973 0.63678   3
  -2  -3   8 0.17338 1.04055   1
   2   3   8 0.76194 2.21208   1
  -3   5   8 1.91911 0.70301   2
   2  -5  -8 2.46770 2.34700   1
  -2   5  -8 0.91427 0.51451   2
  -3  -2  -8 -0.7098 2.17683   1
  -2   5   8 0.23349 2.19705   1
  -2  -3  -8 -0.2829 2.19874   1
   3  -5  -8 2.35153 0.72539   3
   5  -3   8 0.46530 1.60356   1
  -2   5   8 0.34395 0.64508   2
   5  -3   8 0.11713 0.46311   4
   3  -5  -8 0.65979 2.55419   1
   3   2   8 0.57499 0.75547   4
  -3   5  -8 1.66040 0.45361   2
  -5   2  -8 0.66259 0.37619   3
   2   3  -8 2.04692 0.72493   2
  -2   5   8 0.04821 0.61522   4
   3   2   8 0.09592 2.19701   1
  -5   3   8 0.94683 1.96925   1
  -3  -2   8 0.20160 1.34425   1
  -2  -3  -8 2.63226 0.80084   3
   3   2   8 -0.0274 0.46906   2
   1   4   8 151.833 7.46001   1
  -4  -1  -8 162.141 3.92742   3
   1   4   8 155.355 4.09202   4
   1  -5  -8 152.363 7.66032   1
   4  -5   8 152.381 4.86167   1
   5  -1   8 146.300 6.82508   1
   5  -1   8 145.340 3.97445   4
  -4   5   8 153.724 4.09277   2
   5  -4  -8 160.811 4.06466   3
  -1   5  -8 164.565 3.92232   2
  -5   1   8 153.483 6.91029   1
  -4   5   8 152.622 7.63242   1
   1   4   8 149.020 3.95055   2
   5  -4  -8 147.647 7.46277   1
   1  -5  -8 165.521 4.20324   3
   4  -5  -8 162.110 4.07271   3
   4   1   8 154.379 4.12774   4
   1   4  -8 159.125 4.05749   2
  -1  -4  -8 155.870 7.68786   1
  -1   5   8 160.099 4.05447   4
  -4  -1   8 147.564 6.16240   1
  -5   1  -8 161.525 3.61825   3
   4  -5  -8 158.297 7.75566   1
  -1   5   8 155.080 7.56564   1
   4   1   8 152.514 3.50233   2
  -1  -4  -8 170.371 4.23477   3
   5  -4   8 151.790 3.56079   4
  -1   5   8 153.752 4.09504   2
  -5   4   8 139.202 7.32330   1
   5  -4   8 155.282 5.92187   1
   4   1   8 142.949 7.03800   1
   5  -5   8 69.3172 4.00362   1
   5  -5  -8 85.7387 2.76680   3
  -5   5   8 80.5393 6.09851   1
   0  -5  -8 98.4026 6.54070   1
  -5   0  -8 82.8769 2.48499   3
   0   5   8 79.5781 2.77988   2
  -5   0   8 80.2927 5.16050   1
   5   0   8 76.8989 5.56879   1
   0   5   8 71.2089 5.82885   1
   5  -5  -8 83.9747 6.23662   1
   0  -5  -8 91.6871 2.98584   3
   0   5  -8 81.9045 2.71264   2
  -5   5   8 76.9516 2.73389   2
   5   0   8 83.5397 2.83948   4
   0   5   8 77.8958 2.71942   4
   6  -3   8 76.3685 2.53867   4
   6  -3   8 79.3132 5.13298   1
  -3  -3  -8 76.6841 2.70338   3
  -3  -3  -8 92.1590 6.42922   1
   3  -6  -8 82.1562 6.18200   1
  -6   3   8 70.6528 5.73823   1
   3   3   8 79.3692 6.02158   1
   3   3   8 73.4715 2.75620   4
  -3   6   8 76.7115 2.76206   2
   3   3  -8 80.2201 2.79456   2
  -3   6   8 72.5343 2.60201   4
  -3   6  -8 80.9606 2.29215   2
   3   3   8 71.8267 2.46604   2
   3  -6  -8 78.4493 2.74622   3
  -3   6   8 85.5910 6.19468   1
  -3  -3   8 63.7114 3.88110   1
  -2  -4   8 49.9563 2.98891   1
   4  -6   8 46.6703 2.64471   1
   2  -6  -8 54.9217 2.27114   3
  -4   6   8 47.4812 2.20227   2
   2   4   8 52.3117 5.37497   1
   4   2  -8 52.6813 2.30445   2
  -4   6   8 42.3090 4.86009   1
  -6   2   8 40.6628 4.55560   1
   6  -4  -8 54.4832 2.14494   3
   2  -6  -8 56.3498 5.58203   1
  -2   6  -8 49.4222 1.90823   2
   2   4   8 52.1732 2.15181   2
  -4  -2  -8 53.2259 2.13231   3
   6  -2   8 45.5928 2.08069   4
   2   4   8 50.0326 2.23599   4
   6  -2   8 42.4706 4.45719   1
  -2   6   8 49.0572 2.10791   4
   2   4  -8 55.6764 2.27421   2
   4   2   8 47.2278 5.00129   1
   4   2   8 49.5523 1.88828   2
   6  -4   8 46.3232 1.82157   4
  -2  -4  -8 52.4487 2.26463   3
   4  -6  -8 52.7812 5.01611   1
   4  -6  -8 50.1647 2.15423   3
   6  -4   8 51.4400 4.23327   1
  -6   4   8 46.3178 5.06532   1
  -4  -2   8 48.6188 3.88681   1
   4   2   8 47.6699 2.19914   4
  -2  -4  -8 52.6153 5.44934   1
  -2   6   8 50.6869 2.27807   2
  -2   6   8 51.5499 5.20937   1
  -1   6  -8 52.4083 2.08796   2
   6  -1   8 53.8089 2.32076   4
   5  -6   8 51.7511 3.40918   1
  -5   6   8 55.0338 5.63809   1
  -1  -5   8 48.6276 2.56430   1
   1   5   8 51.1879 2.25402   4
  -5  -1  -8 51.1672 2.02333   3
   5   1  -8 52.2176 2.30795   2
  -5   6   8 52.7808 2.34076   2
   1   5   8 50.9479 2.27037   2
   1  -6  -8 50.9952 2.31733   3
   1  -6  -8 42.0771 5.34123   1
   6  -5  -8 51.9073 2.11969   3
   1   5   8 54.4853 5.51778   1
   5  -6  -8 55.1019 5.63911   1
   6  -5   8 47.0125 3.96431   1
  -1   6   8 46.9127 2.13488   4
  -5  -1   8 50.1153 4.43380   1
  -1  -5  -8 49.7922 2.27888   3
  -1  -5  -8 51.8253 5.50303   1
   1   5  -8 50.4249 2.21157   2
   5   1   8 55.2828 5.44190   1
  -1   6   8 49.9757 5.59885   1
   5  -6  -8 49.6646 2.11823   3
  -1   6   8 55.4636 2.40266   2
  -6   5   8 51.3420 5.44269   1
  -6   1  -8 51.9546 1.85519   3
   5   1   8 56.2912 2.40207   4
   0  -6  -8 22.6320 1.70032   3
   0   6   8 22.7963 1.57139   4
  -6   0  -8 21.5885 1.35042   3
   6   0   8 20.4970 1.66174   4
   0   6   8 20.7091 1.62739   2
   0   6   8 17.7981 4.20385   1
  -6   6   8 19.8909 1.62594   2
   0  -6  -8 24.3409 4.53402   1
   6  -6  -8 21.1274 1.49894   3
   0   6  -8 23.0492 1.54818   2
   4  -7   8 43.6356 2.64749   1
  -3  -4   8 41.2468 3.56046   1
   3   4   8 44.7402 5.39798   1
   4   3  -8 54.1380 2.44417   2
   3   4   8 47.5354 2.14416   2
   3  -7  -8 43.8825 5.78511   1
  -4   7   8 39.2462 5.52747   1
  -4   7   8 44.7455 2.26702   2
  -4  -3  -8 45.8593 2.17362   3
   3  -7  -8 52.9769 2.30585   3
   7  -3   8 45.6540 2.13826   4
   3   4   8 45.7941 2.27460   4
   4   3   8 52.6990 2.39732   4
   3   4  -8 52.4092 2.40388   2
   7  -4   8 46.0331 2.02528   4
  -3   7   8 48.3993 2.34065   2
   4  -7  -8 50.4715 2.22946   3
  -3   7   8 48.3141 5.88315   1
   4   3   8 44.3792 2.00122   2
  -3   7   8 45.0883 2.11121   4
  -3  -4  -8 37.9480 5.35952   1
   4  -7  -8 26.4343 4.99303   1
  -3  -4  -8 48.1918 2.29555   3
   2   5   8 42.0945 2.17995   2
   5   2  -8 43.1550 2.26773   2
   5  -7   8 31.1504 2.95886   1
  -2   7  -8 46.6268 2.00125   2
   2   5   8 41.7907 2.15464   4
  -5   7   8 26.2520 5.11184   1
  -5  -2  -8 43.5527 2.06539   3
  -5   7   8 48.6146 2.36076   2
   7  -2   8 42.8719 2.18810   4
   2   5   8 36.4911 5.35839   1
  -2  -5   8 43.4728 3.25336   1
   2  -7  -8 45.3701 2.22470   3
   2  -7  -8 36.6017 5.44457   1
   7  -5  -8 45.4888 2.07536   3
  -2  -5  -8 47.2924 2.28738   3
  -2   7   8 46.9146 2.15288   4
   2   5  -8 39.9189 2.14775   2
   5  -7  -8 45.8382 2.15387   3
  -2   7   8 45.8011 2.32110   2
  -2  -5  -8 40.9079 5.55727   1
  -2   7   8 42.4182 5.73948   1
   5  -7  -8 55.8231 6.18829   1
   5   2   8 48.5135 2.39592   4
  -1  -6   8 3.10163 1.64963   1
   6   1  -8 1.42548 0.90044   2
  -1   7  -8 2.32619 0.92766   2
   1  -7  -8 0.82530 3.63634   1
  -6   7   8 2.38654 1.06801   2
   1   6   8 2.43878 1.00694   4
   7  -6  -8 1.32649 0.90505   3
   7  -1   8 2.58099 1.06948   4
   1   6   8 1.89095 0.91674   2
   1  -7  -8 2.89058 0.97269   3
  -6  -1  -8 2.05699 0.79959   3
   6  -7  -8 1.97401 0.89934   3
   1   6  -8 2.71307 1.06036   2
  -1  -6  -8 0.62917 3.63596   1
  -1   7   8 2.00030 0.87751   4
  -1   7   8 3.33356 1.03331   2
  -1   7   8 5.59734 3.92939   1
  -1  -6  -8 1.36179 1.02028   3
   6   1   8 2.64437 1.04004   4
   7   0   8 1.36642 0.98677   4
   0   7   8 0.65996 0.96331   2
   7  -7  -8 0.77824 0.85556   3
   0   7  -8 0.27299 0.84348   2
   7   0  -8 -0.0621 0.81542   2
   0  -7  -8 -0.1533 0.99189   3
   0   7   8 0.50164 0.86338   4
   4  -8  -8 9.80069 1.32964   3
  -4   8   8 12.0769 1.45244   2
   4   4   8 9.69979 1.23180   2
   4   4   8 11.4733 1.50053   4
   4   4  -8 11.2828 1.48534   2
   8  -4   8 8.47982 1.18657   4
  -4  -4  -8 10.5653 1.36722   3
   3   5   8 7.86422 1.27916   4
  -5  -3  -8 11.3336 1.32296   3
   8  -5  -8 10.6158 1.22220   3
   5   3  -8 10.3372 1.47680   2
   8  -3   8 10.4604 1.31881   4
   3   5   8 11.9504 1.38230   2
  -5   8   8 10.5259 1.37468   2
   3  -8  -8 9.04243 1.26357   3
  -3   8   8 8.56607 1.46085   2
  -3  -5  -8 11.4668 1.39896   3
   3   5  -8 9.96865 1.40145   2
   5  -8  -8 7.12041 1.15987   3
   5   3   8 9.60026 1.49927   4
  -3   8   8 8.68869 1.25543   4
   2  -8  -8 4.90233 1.15628   3
  -2   8  -8 5.99766 1.10998   2
   2   6   8 5.44481 1.26901   2
  -6  -2  -8 6.48064 1.16800   3
   2   6   8 5.80436 1.17841   4
   8  -2   8 5.92589 1.29266   4
   8  -6  -8 7.46190 1.19878   3
   6   2  -8 6.52153 1.23976   2
  -6   8   8 6.32677 1.22171   2
   6   2   8 4.89909 1.19748   4
  -2   8   8 3.56012 1.10389   4
   2   6  -8 7.61694 1.39219   2
  -2  -6  -8 7.62100 1.39846   3
  -2   8   8 5.50825 1.28383   2
   6  -8  -8 4.78915 1.10965   3
  -7   8   8 5.51284 1.28510   2
   1   7   8 6.06137 1.33390   2
  -7  -1  -8 5.54610 1.08729   3
   7   1  -8 5.05275 1.29570   2
   8  -7  -8 4.56816 1.12223   3
  -1   8  -8 6.97722 1.31376   2
   1  -8  -8 8.34269 1.45557   3
   1   7   8 6.62678 1.27650   4
   8  -1   8 5.70453 1.27872   4
   7  -8  -8 7.56590 1.18415   3
  -1   8   8 6.73740 1.20104   4
   8  -1  -8 6.22685 1.34143   2
  -1  -7  -8 8.82878 1.38983   3
   7   1   8 2.62609 1.22171   4
  -1   8   8 4.65610 1.28571   2
   1   7  -8 3.88031 1.19611   2
   0   8   8 2.41177 1.08494   4
   8   0  -8 4.52101 1.36495   2
   8   0   8 2.72880 1.18528   4
   0   8  -8 2.50548 1.23400   2
   0  -8  -8 3.99158 1.29565   3
   0   8   8 2.92310 1.20374   2
   9  -5  -8 0.13427 0.85341   3
   9  -4   8 0.64184 1.01832   4
  -5   9   8 0.68550 1.03033   2
  -5  -4  -8 0.44572 0.95892   3
   4   5   8 -0.2781 0.87627   2
   4  -9  -8 -0.3160 0.98818   3
   4   5   8 -0.6959 0.93528   4
   5   4  -8 -0.6280 1.06669   2
   5  -9  -8 -0.4557 0.97834   3
  -4  -5  -8 -0.3315 0.96391   3
  -4   9   8 0.71820 1.06956   2
   5   4   8 0.04464 1.14303   4
   4   5  -8 -0.0900 1.01062   2
  -6  -3  -8 4.26855 1.24608   3
   3   6   8 8.17518 1.43639   2
  -6   9   8 6.56151 1.43922   2
   3  -9  -8 5.76204 1.28430   3
   9  -3   8 5.80914 1.36492   4
   9  -6  -8 6.47122 1.25187   3
   3   6   8 7.73015 1.48661   4
   6   3  -8 5.68396 1.33939   2
   6   3   8 6.82372 1.42201   4
   3   6  -8 8.36301 1.41933   2
   6  -9  -8 3.56945 1.09282   3
  -3   9   8 5.29918 1.34821   2
  -3  -6  -8 7.99449 1.49986   3
   0   0  -9 0.29722 0.43729   3
   0   0  -9 -0.3019 0.99224   1
   0   0   9 -0.1037 0.40444   4
   0   0   9 0.16003 1.03765   1
   0   0   9 0.95841 1.10360   1
  -1   1   9 42.0439 3.01022   1
   1   0  -9 44.6919 1.67758   3
   1  -1  -9 44.4173 1.68107   3
   1   0   9 49.1559 1.73752   4
  -1   0   9 55.0723 2.82698   1
   0   1  -9 46.8697 2.04697   1
  -1   0   9 51.5914 2.70164   1
   0  -1  -9 49.2570 1.72271   3
   0   1   9 51.1697 3.21723   1
  -1   1  -9 41.4706 2.23354   1
  -1   0  -9 45.1545 2.85541   1
   1  -1   9 47.9026 2.37470   1
   1   0  -9 48.7725 2.62410   1
   0   1  -9 44.4558 1.60565   3
  -1   1   9 53.9610 3.18926   1
  -1   1  -9 45.8657 1.54924   3
   0   1   9 47.8685 1.78371   4
   1  -1   9 48.8493 2.43007   1
   1  -1   9 47.6942 1.64737   4
   0  -1   9 46.2831 2.11014   1
  -1   0  -9 48.2274 1.62060   3
   0  -1  -9 48.1078 3.14843   1
   0   1   9 48.2075 1.62317   2
   1   0   9 45.8150 2.87859   1
   0   1   9 49.2934 3.25460   1
   0  -1   9 49.4777 1.66943   4
  -1   0   9 46.5472 1.71683   4
  -1   1   9 48.6822 1.79300   4
   1  -1  -9 45.4691 3.01023   1
   0  -1   9 47.3278 2.06727   1
   1   1   9 0.62808 0.56691   4
  -2   1   9 -0.5062 1.18192   1
  -2   1  -9 0.05101 1.19095   1
   2  -1   9 -0.9624 0.99692   1
   2  -1  -9 -0.3792 0.43468   3
   1   1   9 -0.0047 0.35568   2
   1  -2  -9 0.63951 0.51059   3
   1  -2   9 0.37073 0.42220   4
  -1  -1  -9 1.43700 1.67035   1
  -1  -1  -9 0.20782 0.50587   3
  -2   1   9 -0.3614 1.31816   1
  -1   2  -9 -0.6055 0.35908   3
   1   1   9 -1.8129 1.46205   1
  -1   2   9 0.44284 0.50986   4
   1   1  -9 0.37747 0.82294   1
   1  -2  -9 0.37945 1.52728   1
  -1  -1   9 0.95009 0.77099   1
   1   1   9 -0.2650 1.39089   1
  -1  -1   9 -0.7132 0.72890   1
  -1   2   9 -0.4850 0.39959   2
  -2   1  -9 0.22975 0.38283   3
  -1   2   9 -0.6398 1.49165   1
   2  -1  -9 0.61787 1.30794   1
   2  -1   9 0.14590 0.42107   4
   2  -1   9 0.43097 1.14784   1
  -1   2   9 -0.1373 1.34690   1
   2  -2   9 190.880 4.91697   1
   2   0  -9 177.476 5.67141   1
  -2   0  -9 184.061 6.27782   1
   2  -2  -9 192.457 6.74541   1
  -2   0   9 175.590 5.63232   1
   2   0   9 176.522 6.17263   1
   2   0   9 183.505 3.86302   2
  -2   2   9 191.919 4.46802   4
   0  -2  -9 193.964 4.36272   3
  -2   0   9 186.676 5.70101   1
  -2   2  -9 193.587 4.90820   1
   2  -2  -9 190.622 4.34848   3
  -2   2   9 183.783 6.70952   1
   2   0   9 175.046 6.21357   1
   2  -2   9 186.134 4.08185   4
   0   2   9 182.654 4.39888   4
  -2   2  -9 188.984 3.94685   3
   0  -2  -9 193.716 6.91469   1
   0   2   9 183.918 4.21411   2
  -2   0  -9 183.868 4.13113   3
   0   2   9 193.235 6.93321   1
   0   2   9 198.508 7.01320   1
   2  -2   9 197.146 4.90108   1
  -2   2   9 178.074 6.64318   1
   2   0   9 184.194 4.31815   4
  -3   1   9 31.1803 2.88844   1
  -2   3   9 28.5139 3.29852   1
  -2   3   9 31.3692 1.54125   2
   3  -1   9 28.8494 1.39368   4
   3  -2  -9 33.7132 3.26231   1
  -2  -1  -9 28.4485 3.06098   1
   1   2   9 31.1273 1.39701   2
  -2   3   9 32.4725 1.56655   4
   1   2   9 32.0483 3.35227   1
   1  -3  -9 30.0489 1.52019   3
  -1   3  -9 34.0977 1.29968   2
   2  -3   9 31.7102 1.18325   4
   3  -1   9 24.2086 2.53782   1
   1  -3  -9 26.2570 3.32924   1
  -2  -1  -9 30.4704 1.39834   3
  -3   2  -9 30.2153 1.14052   3
   3  -2  -9 31.0542 1.47813   3
   1   2   9 31.2159 1.56505   4
  -3   2   9 38.9302 3.38634   1
  -1  -2  -9 25.0478 3.10410   1
  -2   3  -9 28.2624 1.11343   3
  -2  -1   9 31.9386 2.20064   1
  -1   3   9 33.0263 1.60626   4
   3  -2   9 31.2166 2.39535   1
  -1   3   9 27.5140 3.39675   1
  -2   3  -9 30.2791 1.11075   2
  -1   3   9 32.1879 3.39645   1
   3  -2   9 30.1170 1.33979   4
   2   1   9 32.9752 1.27092   2
   2  -3  -9 28.2611 3.18940   1
   2   1   9 32.3464 3.16744   1
   2   1   9 32.4583 1.53278   4
  -3   1  -9 30.1030 1.23163   3
   2  -3  -9 31.1482 1.50473   3
  -1  -2  -9 29.3727 1.44955   3
  -1   3   9 30.9770 1.50411   2
  -2  -1   9 32.6137 2.20979   1
  -3   3  -9 64.5168 1.73273   3
   0  -3  -9 66.0068 2.31553   3
  -3   0  -9 72.8194 2.11235   3
   3  -3  -9 68.0498 4.55248   1
   3   0   9 66.4949 2.26286   4
   0   3   9 64.7039 2.21812   2
   0   3  -9 69.4693 2.15186   2
   0   3   9 60.5668 4.57644   1
   0  -3  -9 68.5892 4.81051   1
   3   0   9 66.4950 4.13479   1
   3   0   9 65.3661 1.74667   2
   3  -3   9 67.9546 2.85522   1
   3  -3  -9 67.4364 2.31463   3
   0   3   9 67.6590 2.33549   4
   3  -3   9 66.5713 1.92053   4
  -3   3   9 65.0005 4.50283   1
  -3   0   9 68.0944 3.72646   1
   2   2   9 -0.9692 1.86763   1
  -2  -2   9 0.67593 0.95801   1
   2   2   9 -0.5997 0.43107   2
   2   2  -9 0.08155 0.54229   2
  -2   4  -9 0.67688 0.40751   2
   2  -4  -9 0.18706 0.56403   3
  -4   2  -9 -0.0053 0.36182   3
   2   2   9 -0.2161 0.56111   4
   4  -2   9 -0.2384 1.43009   1
  -2  -2  -9 0.75327 2.24682   1
   2  -4  -9 0.60642 2.02377   1
  -2   4   9 -0.0220 0.60544   4
   4  -2   9 -0.4180 0.41654   4
  -2   4   9 -0.4619 0.53928   2
  -2   4   9 -0.3814 1.93820   1
  -2  -2  -9 -0.0150 0.57352   3
  -4   2   9 -0.5479 1.74182   1
  -3   4   9 3.36028 0.84929   2
  -4   1   9 3.15306 1.87829   1
   4  -3  -9 2.61657 0.81594   3
   1   3   9 3.47175 0.70650   2
  -3   4   9 1.88605 0.69053   4
   1   3   9 4.01709 0.84888   4
   1  -4  -9 4.41186 0.82752   3
  -1   4  -9 2.41888 0.57225   2
   1  -4  -9 2.68622 2.22064   1
  -3   4   9 1.34093 2.34566   1
   1   3   9 3.47117 2.51547   1
  -3  -1  -9 2.88891 0.70648   3
   4  -1   9 3.04035 0.76457   4
   4  -1   9 0.42870 2.00691   1
   3  -4  -9 1.38328 2.48665   1
  -1   4   9 3.18388 0.74012   2
   3   1   9 2.86629 2.18274   1
   3   1   9 3.16961 0.75400   4
  -1   4   9 1.22668 2.10242   1
   3  -4  -9 3.18204 0.75131   3
  -4   1  -9 1.43432 0.51690   3
  -1  -3  -9 4.00795 0.79057   3
  -4   3   9 2.17256 2.12545   1
  -1  -3  -9 1.67224 2.37982   1
   3   1   9 2.56437 0.53224   2
   4  -3   9 2.25133 0.55896   4
  -1   4   9 2.54353 0.77537   4
   1   3  -9 2.86591 0.73246   2
  -3  -1   9 3.58764 1.51202   1
   4  -3   9 1.72230 1.38867   1
   4  -4   9 48.2335 1.58953   4
   4   0   9 50.9481 4.32755   1
   4  -4  -9 52.5287 2.10954   3
   4  -4   9 52.9818 2.90921   1
   0  -4  -9 54.2150 4.93284   1
   0  -4  -9 50.9545 2.12953   3
  -4   4   9 43.9989 4.53141   1
  -4   0  -9 50.6369 1.83334   3
  -4   4   9 50.6955 2.15607   2
   4   0   9 50.2725 2.09695   4
   0   4   9 54.8444 4.87774   1
   0   4  -9 51.1621 1.96947   2
  -4   0   9 45.1175 3.65937   1
   0   4   9 50.6157 2.11701   4
   0   4   9 48.8834 2.07014   2
   2  -5  -9 3.26494 2.79146   1
  -2  -3   9 -0.2828 0.95475   1
   5  -2   9 0.33629 2.18962   1
  -3   5   9 1.55138 0.76960   4
  -3   5   9 1.26552 2.43359   1
   2   3   9 0.51174 0.60102   2
   3   2  -9 1.52737 0.81858   2
  -2   5  -9 0.26845 0.47104   2
   2   3   9 0.92543 0.76598   4
   5  -3  -9 0.52308 0.70588   3
   5  -2   9 0.25824 0.53816   4
   2  -5  -9 1.44275 0.81790   3
  -5   2   9 0.29188 2.02729   1
  -3  -2  -9 1.52262 0.75269   3
  -3   5   9 -0.3297 0.67071   2
   2   3   9 0.16713 2.69476   1
  -5   3   9 3.20333 2.56640   1
   5  -3   9 0.17746 1.69066   1
  -2  -3  -9 1.44875 2.86936   1
   3   2   9 0.26710 2.26317   1
   3   2   9 0.30486 0.50455   2
  -2   5   9 1.29169 2.68017   1
   5  -3   9 0.56263 0.53038   4
   3  -5  -9 3.55358 2.64801   1
  -2  -3  -9 1.20935 0.73842   3
  -2   5   9 0.73128 0.66691   2
   2   3  -9 -0.6067 0.68506   2
   3  -5  -9 0.62702 0.71239   3
  -3  -2   9 -0.0157 1.29872   1
  -2   5   9 0.68916 0.66199   4
   3   2   9 1.19392 0.78978   4
   1   4   9 14.1988 1.26054   2
  -4   5   9 17.5138 1.44523   2
   4  -5   9 15.6530 1.65143   1
   1   4   9 16.4269 1.37785   4
   5  -1   9 17.0076 1.34762   4
   1  -5  -9 14.7689 1.28082   3
   5  -1   9 13.0016 3.19714   1
   1  -5  -9 17.6833 3.81357   1
   5  -4  -9 14.1679 1.23284   3
  -4   5   9 9.14854 3.23556   1
  -4  -1  -9 13.8041 1.13605   3
  -5   1   9 13.6169 2.86309   1
  -1   5  -9 16.4296 1.17615   2
  -1   5   9 6.18519 3.14154   1
  -1   5   9 14.7549 1.26495   4
  -5   4   9 16.1283 3.48046   1
   4   1   9 14.0887 1.33288   4
   5  -4   9 14.5140 2.34993   1
   4   1   9 14.5305 3.39043   1
  -1  -4  -9 15.6862 1.37827   3
   1   4  -9 12.7877 1.20413   2
  -4  -1   9 13.9779 2.49473   1
  -1   5   9 15.3341 1.30099   2
   5  -4   9 15.3376 1.00409   4
  -1  -4  -9 12.8810 3.62167   1
  -5   1  -9 14.7385 0.98170   3
   4  -5  -9 14.7588 1.27780   3
   5  -5  -9 23.6749 1.56264   3
   0   5  -9 23.3228 1.45960   2
   5   0   9 25.5511 1.70543   4
   0   5   9 26.9150 1.70690   2
  -5   5   9 23.6897 1.66179   2
   0   5   9 24.3171 1.57864   4
  -5   0   9 23.2464 3.43207   1
   5   0   9 27.5554 4.04719   1
   0  -5  -9 18.6289 4.18563   1
  -5   0  -9 19.6220 1.23195   3
   0   5   9 24.5855 4.17610   1
   0  -5  -9 20.8487 1.62426   3
   5  -5   9 26.7717 2.69644   1
  -5   5   9 18.6300 4.15495   1
   3  -6  -9 -0.0666 0.84921   3
   3   3   9 -0.5870 0.82732   4
   3   3   9 -0.0236 3.28880   1
   3   3  -9 -0.4832 0.66788   2
   3  -6  -9 -1.6193 2.74976   1
  -3   6   9 0.28987 2.82664   1
   3   3   9 -0.2114 0.58067   2
  -3  -3   9 -0.0768 1.49662   1
  -3  -3  -9 0.90249 0.79636   3
  -3   6   9 1.05056 0.80977   4
  -3   6   9 -0.3871 0.81513   2
   6  -3   9 -0.2887 0.61931   4
  -2  -4   9 7.53143 1.51366   1
  -2   6  -9 7.79836 0.93278   2
   2   4   9 8.49051 1.06305   2
   4   2  -9 8.25131 1.18123   2
  -4  -2  -9 6.52803 1.01718   3
   2   4   9 8.78883 3.54821   1
   2   4   9 7.40516 1.15818   4
  -4   6   9 9.67622 1.25106   2
   6  -4  -9 7.89870 1.11609   3
   2  -6  -9 6.88483 1.08939   3
   2  -6  -9 5.88490 3.43754   1
  -4   6   9 9.85412 3.82092   1
   6  -2   9 6.11869 0.98840   4
   4   2   9 7.47224 1.18657   4
  -2  -4  -9 7.78392 1.14754   3
   4  -6  -9 7.19905 1.09457   3
   6  -4   9 7.70985 0.89616   4
   2   4  -9 7.64953 1.14486   2
  -2   6   9 7.82232 1.22394   2
  -2   6   9 7.82236 1.07844   4
  -2   6   9 7.16558 3.34522   1
  -4  -2   9 3.63361 2.04537   1
   1   5   9 -0.8024 3.12632   1
   1  -6  -9 0.53818 0.94469   3
   1  -6  -9 -1.9972 3.57541   1
  -1   6  -9 0.44245 0.69876   2
   6  -1   9 1.64627 0.92799   4
  -5   6   9 -0.1909 0.74051   2
   1   5   9 0.49561 0.85451   2
   1   5   9 1.54987 0.94840   4
   5  -6   9 0.81255 1.51884   1
   6  -5  -9 0.92638 0.73368   3
   5   1  -9 -0.3409 0.86271   2
  -5  -1  -9 1.35320 0.69901   3
   1   5  -9 0.34748 0.75579   2
  -1   6   9 0.66833 3.72518   1
  -1   6   9 0.12944 0.80718   2
  -1  -5  -9 1.24347 0.89436   3
   5  -6  -9 0.24420 0.73367   3
  -1   6   9 0.59039 0.87763   4
   5   1   9 1.20253 0.97282   4
   0   6  -9 2.09302 0.84408   2
   0   6   9 2.65744 1.02894   2
   0  -6  -9 -0.8969 0.85171   3
  -6   0  -9 0.88901 0.65554   3
   6  -6  -9 1.22557 0.79852   3
   6   0   9 2.25134 0.91397   4
   0   6   9 2.49836 0.99136   4
   7  -4  -9 2.31278 0.90275   3
   7  -3   9 2.71391 0.89233   4
   4   3  -9 3.98121 1.14323   2
   3  -7  -9 3.75624 1.08511   3
   3   4   9 4.51701 1.03076   2
   3   4   9 5.19812 1.20052   4
  -4   7   9 5.01065 1.21097   2
  -4  -3  -9 3.26786 0.94073   3
  -3   7   9 6.30986 1.17368   4
   4  -7  -9 3.94541 1.03013   3
   7  -4   9 4.38989 0.95609   4
   4   3   9 5.52536 0.96025   2
  -3   7   9 4.22316 1.08116   2
  -3  -4  -9 3.15253 1.12688   3
   4   3   9 2.12854 1.05831   4
   3   4  -9 4.79077 1.06198   2
   2   5   9 10.6360 1.41187   4
   2  -7  -9 11.3829 1.36771   3
   2  -7  -9 13.3753 5.28061   1
  -5   7   9 10.9004 1.43466   2
   7  -2   9 13.4446 1.41789   4
  -2   7  -9 12.0196 1.20430   2
   5  -7   9 8.57417 1.91045   1
  -5  -2  -9 12.5495 1.32922   3
   7  -5  -9 9.37598 1.26622   3
   2   5   9 9.12358 1.28654   2
   5   2  -9 9.56835 1.40519   2
   2   5  -9 10.9676 1.32897   2
   5  -7  -9 12.9865 1.41980   3
  -2  -5  -9 11.4861 1.46122   3
   5   2   9 10.5753 1.40835   4
  -2   7   9 9.53559 1.27720   4
  -2   7   9 11.3245 1.38275   2
   1   6   9 1.21719 0.99053   4
   7  -1   9 -1.3426 0.76848   4
   1  -7  -9 1.05045 0.97174   3
   6   1  -9 1.14825 0.91077   2
  -6  -1  -9 -0.2276 0.80378   3
  -1   7  -9 -0.3748 0.72342   2
   7  -6  -9 1.13424 0.93701   3
   1   6   9 0.95368 0.91127   2
  -6   7   9 0.79940 1.03512   2
   6   1   9 0.12192 0.86958   4
  -1  -6  -9 -0.1051 0.82298   3
   1   6  -9 0.04347 0.96788   2
   6  -7  -9 0.24426 0.86206   3
  -1   7   9 -0.4249 0.79962   4
  -1   7   9 1.39115 0.96753   2
   0  -7  -9 1.00025 1.02480   3
   7  -7  -9 1.43948 0.94802   3
   0   7  -9 0.11433 0.86381   2
   0   7   9 1.48622 1.04644   2
   7   0   9 -0.3254 0.93350   4
   7   0  -9 0.73223 0.98608   2
   0   7   9 0.31849 0.89840   4
  -4   8   9 -0.2943 0.98934   2
   4   4   9 0.28069 0.89024   2
   4  -8  -9 0.34238 0.86755   3
   8  -4   9 0.21835 0.83586   4
  -4  -4  -9 0.29517 0.95161   3
   4   4  -9 -0.1742 0.91513   2
   4   4   9 -0.2668 0.87768   4
  -5  -3  -9 0.26211 0.89012   3
  -5   8   9 -0.6681 0.87801   2
   5   3  -9 0.89203 1.00373   2
   8  -5  -9 -0.9296 0.79706   3
   3  -8  -9 0.66263 0.95600   3
   8  -3   9 -0.8952 0.91723   4
   3   5   9 0.97244 0.98412   4
   3   5   9 -0.0145 0.94553   2
  -3   8   9 -0.4801 1.07205   2
  -3   8   9 -0.0245 0.99254   4
   3   5  -9 1.10839 1.06936   2
   5   3   9 0.22633 1.03380   4
  -3  -5  -9 -0.7608 0.94247   3
   5  -8  -9 -0.0895 0.84446   3
   8  -2   9 0.66540 0.95913   4
   8  -6  -9 1.79474 0.97639   3
   2   6   9 -0.1370 0.93658   2
   6   2  -9 1.12847 1.15648   2
   2   6   9 0.86599 1.13866   4
  -6   8   9 1.66544 1.11088   2
   2  -8  -9 0.32327 1.07121   3
  -6  -2  -9 1.45983 0.94847   3
   6   2   9 1.22993 1.11951   4
  -2   8   9 1.27933 1.05970   4
  -2  -6  -9 1.30277 1.04728   3
  -2   8   9 -0.3565 1.10429   2
   6  -8  -9 0.56317 0.88575   3
   2   6  -9 -0.0318 0.98782   2
   1   7   9 -0.4900 1.04725   4
   1  -8  -9 1.08759 1.04606   3
   7   1  -9 0.28136 1.16875   2
   1   7   9 0.04177 0.96998   2
  -7   8   9 0.58915 1.10263   2
   8  -7  -9 1.41988 1.00666   3
  -1   8  -9 1.61509 1.12577   2
   8  -1   9 0.57706 1.04071   4
   7  -8  -9 0.57143 1.01200   3
  -1   8   9 1.21707 0.98498   4
   1   7  -9 1.19932 1.13755   2
   7   1   9 0.94815 1.23324   4
  -1   8   9 0.56619 1.04569   2
   8  -1  -9 1.64539 1.08414   2
  -1  -7  -9 1.20203 1.24231   3
  -5  -4  -9 0.47485 1.07151   3
   4  -9  -9 0.08435 1.03051   3
   4   5   9 0.70169 1.15982   4
   5   4  -9 0.80672 1.11535   2
   9  -5  -9 0.58759 0.96096   3
  -5   9   9 -0.2211 1.05601   2
   5   4   9 0.26079 1.08025   4
  -4  -5  -9 1.80529 1.15427   3
   4   5  -9 0.63833 1.25092   2
   5  -9  -9 0.95041 1.02036   3
  -4   9   9 -1.3010 1.12623   2
   0   0  10 256.417 6.96529   1
   0   0  10 257.770 7.43172   1
   0   0  10 248.969 5.53694   4
   0   0 -10 234.363 5.04490   3
  -1   0  10 79.8631 2.46881   4
   1  -1 -10 77.9330 2.39244   3
   0  -1  10 86.8381 3.04756   1
  -1   1  10 76.0348 3.99628   1
  -1   0 -10 80.2736 2.31846   3
   1  -1  10 83.8614 2.42128   4
   0   1  10 88.8651 4.32316   1
   1   0  10 84.5574 3.92699   1
   0   1 -10 79.0391 2.30203   3
  -1   0  10 76.4479 3.50026   1
  -1   1 -10 77.2215 2.23570   3
   1  -1  10 78.9833 3.21817   1
   0  -1  10 85.0535 2.42307   4
   1   0 -10 77.5106 2.35111   3
   0  -1 -10 78.8750 2.39027   3
   0  -1  10 79.8002 2.94937   1
   0   1  10 80.6434 2.55076   4
   1  -1  10 85.2974 3.40998   1
  -1   1  10 80.5152 2.56171   4
   1   0  10 81.5279 2.48979   4
  -1   2  10 133.813 5.71010   1
   1  -2  10 121.217 3.07562   4
   2  -1  10 123.149 4.61163   1
  -1   2 -10 104.785 2.69232   3
  -1  -1 -10 104.814 2.91738   3
   1   1  10 120.548 3.00765   2
   2  -1 -10 107.026 2.97651   3
  -1   2  10 123.581 3.26053   2
   2  -1  10 117.349 3.17229   4
  -1  -1  10 124.358 3.80309   1
  -2   1 -10 105.528 2.70251   3
  -1  -1  10 122.158 3.74803   1
   1  -2 -10 107.811 3.01084   3
   1   1  10 132.164 5.51994   1
  -1   2  10 122.131 3.37822   4
  -2   1  10 118.223 5.06126   1
   1   1  10 127.364 3.38266   4
  -2   0 -10 303.287 6.18496   3
   0  -2 -10 290.354 6.32465   3
   2   0  10 315.526 6.65950   4
   2  -2  10 313.262 7.12176   1
   2  -2  10 296.358 6.35730   4
  -2   2 -10 301.182 5.95852   3
  -2   2  10 312.364 6.76921   4
   0   2  10 308.131 6.46867   2
   2   0  10 311.505 8.87798   1
  -2   0  10 293.694 8.07106   1
   0   2  10 310.447 6.74401   4
   2  -2 -10 304.330 6.41049   3
   0   2  10 312.371 9.55935   1
  -2   2  10 313.671 9.45024   1
   3  -1  10 126.703 5.29286   1
   3  -1  10 123.848 3.37203   4
   1   2  10 126.072 3.27254   2
  -3   1  10 118.697 5.38113   1
   1   2  10 128.522 3.55769   4
  -2   3  10 127.487 3.58415   4
  -2  -1 -10 117.307 3.17451   3
  -2   3  10 131.633 6.26667   1
   1  -3 -10 128.133 3.42999   3
  -3   2 -10 119.895 2.84549   3
   3  -2 -10 118.547 3.33659   3
  -2   3  10 130.110 3.49496   2
   2  -3  10 127.334 3.06235   4
  -1   3 -10 121.382 3.00713   2
   2   1  10 119.820 5.81982   1
  -1   3  10 127.577 3.42850   2
  -2   3 -10 119.128 2.81852   2
  -3   2  10 118.689 5.75530   1
   3  -2  10 130.344 4.74745   1
  -1  -2 -10 118.583 3.31148   3
  -2   3 -10 119.786 2.85173   3
   3  -2  10 126.219 3.25822   4
  -1   3  10 131.820 3.59156   4
  -2  -1  10 118.667 4.21631   1
   2   1  10 123.075 3.06280   2
  -1   3  10 134.325 6.27000   1
   2   1  10 135.369 3.58562   4
   2  -3 -10 124.110 3.40968   3
  -3   1 -10 120.031 2.96333   3
   3  -3 -10 100.602 3.02046   3
   0   3  10 106.178 3.08078   2
   3  -3  10 109.899 3.66563   1
   0   3  10 112.381 6.08990   1
   3   0  10 107.035 2.55082   2
  -3   3  10 101.098 5.71940   1
   3   0  10 107.999 3.18127   4
   0   3  10 113.306 3.28420   4
   0   3 -10 100.088 2.80914   2
  -3   0  10 105.087 4.78528   1
   0  -3 -10 99.2988 3.03820   3
   3   0  10 115.057 5.55002   1
  -3   3 -10 95.4806 2.38236   3
  -3   0 -10 100.410 2.74134   3
   3  -3  10 105.616 2.76706   4
  -4   2 -10 13.5129 0.85060   3
  -2   4 -10 13.6277 0.87854   2
  -2  -2  10 19.9944 1.68501   1
  -2   4  10 20.5300 1.41833   2
  -4   2  10 20.8196 3.08486   1
   4  -2  10 18.5831 1.21168   4
  -2   4  10 18.8441 1.42573   4
   2   2  10 17.4671 1.14607   2
   2  -4 -10 12.9741 1.20388   3
   2   2  10 21.8133 1.47756   4
  -2  -2 -10 15.2509 1.22651   3
  -2   4  10 18.4192 3.34728   1
   4  -2  10 24.2188 2.77953   1
   2   2  10 18.0836 3.37881   1
   4  -1  10 35.8998 3.58960   1
   4  -1  10 35.5511 1.70987   4
  -3  -1 -10 30.9250 1.55413   3
   1   3  10 36.1250 1.83588   4
   1  -4 -10 29.4695 1.67079   3
  -4   1  10 36.3444 3.54284   1
  -3   4  10 34.7738 4.11781   1
  -3   4  10 36.6925 1.86066   4
   4  -3 -10 29.5229 1.62362   3
   1   3  10 31.2278 1.59392   2
  -1   4 -10 28.8131 1.39554   2
  -3   4  10 36.8823 1.80902   2
   3   1  10 32.8562 1.36536   2
  -4   3  10 44.2329 4.20906   1
  -4   1 -10 28.4796 1.30910   3
  -1   4  10 39.4434 4.35267   1
   3   1  10 38.2748 1.83161   4
  -1   4  10 35.6654 1.77155   2
  -1  -3 -10 29.9459 1.64941   3
  -3  -1  10 34.9459 2.76162   1
  -1   4  10 37.2433 1.84885   4
   4  -3  10 31.4470 2.67366   1
   3  -4 -10 27.7673 1.60756   3
   4  -3  10 35.2920 1.50903   4
   3   1  10 35.2034 3.84471   1
   1   3 -10 32.2967 1.61687   2
   0   4  10 74.4655 5.62901   1
   4  -4 -10 80.3526 2.78010   3
  -4   0  10 88.3924 4.96981   1
   0   4  10 82.3682 2.89305   4
  -4   4  10 84.7115 5.89757   1
   0   4 -10 79.4103 2.58598   2
   4   0  10 83.7207 2.87102   4
  -4   0 -10 80.4555 2.46170   3
   4  -4  10 89.5608 3.63761   1
   0  -4 -10 83.1819 2.83441   3
   0   4  10 84.4416 2.84097   2
   4   0  10 89.5606 5.57672   1
  -2   5 -10 1.65437 0.57677   2
   2   3  10 2.44525 0.90315   4
   2   3  10 -1.9867 2.40390   1
  -5   2  10 2.46214 2.45136   1
  -3   5  10 1.30174 2.86862   1
   2   3  10 2.75131 0.77413   2
  -3   5  10 4.01728 0.96996   2
   5  -2  10 1.81419 2.10843   1
   3   2 -10 2.01420 0.77533   2
   2  -5 -10 0.72941 0.77864   3
   5  -2  10 1.73775 0.68770   4
   5  -3 -10 2.89624 0.92021   3
  -3  -2 -10 1.22323 0.69782   3
  -3   5  10 2.88736 0.88360   4
   2   3 -10 2.55043 0.89614   2
   5  -3  10 1.74922 0.62652   4
   3   2  10 2.70235 0.68058   2
   5  -3  10 1.39138 1.99847   1
  -2   5  10 3.94956 0.96243   4
  -2   5  10 1.76408 0.78264   2
  -5   3  10 4.52120 2.85280   1
  -2   5  10 5.77942 3.33148   1
   3   2  10 3.16785 0.89716   4
   3  -5 -10 2.08013 0.78608   3
   3   2  10 3.50490 3.05711   1
  -3  -2  10 5.68181 1.71208   1
  -2  -3 -10 2.42478 0.83005   3
   1   4  10 31.4398 1.74805   2
   1   4  10 32.0219 4.62330   1
   5  -4 -10 26.9904 1.63382   3
   1   4  10 27.5322 1.73049   4
  -4  -1 -10 28.6369 1.55823   3
   1  -5 -10 22.8114 1.60517   3
   5  -1  10 29.8654 1.73568   4
  -1   5 -10 28.0715 1.47779   2
  -4   5  10 32.4162 1.88093   2
  -1   5  10 30.3346 4.61758   1
  -4  -1  10 28.7433 3.14158   1
   4   1  10 30.3976 1.79288   4
   5  -4  10 26.2200 2.85708   1
  -5   1 -10 24.4067 1.30817   3
  -1   5  10 28.6275 1.77120   2
  -1   5  10 30.7257 1.82486   4
  -1  -4 -10 26.1951 1.70425   3
   4  -5 -10 26.8956 1.66437   3
   1   4 -10 26.7005 1.60891   2
   0   5  10 68.3819 2.71686   4
   0  -5 -10 65.4048 2.63208   3
   5  -5 -10 58.9225 2.45777   3
   5   0  10 71.7752 2.79478   4
   0   5  10 72.1607 2.74378   2
   0   5 -10 62.5557 2.38430   2
   5  -5  10 60.9446 3.58728   1
  -5   0 -10 61.8572 2.20293   3
  -3   6  10 20.6474 1.66962   2
  -3  -3 -10 17.0785 1.43432   3
   3   3  10 17.0382 1.31893   2
   6  -3  10 17.7815 1.37223   4
   3  -6 -10 16.4102 1.51339   3
  -3  -3  10 16.5964 2.24151   1
   3   3 -10 18.4668 1.49706   2
  -3   6  10 16.2923 1.42507   4
   3   3  10 19.2232 1.63472   4
   2   4  10 36.4176 2.05569   4
  -4   6  10 35.1526 2.07332   2
   2  -6 -10 34.6641 2.01911   3
   4   2 -10 34.5786 2.03072   2
   6  -2  10 37.5043 1.96166   4
   2   4  10 36.4665 1.90838   2
   6  -4 -10 35.0033 1.93657   3
  -4  -2 -10 35.1882 1.87753   3
   4  -6 -10 32.3883 1.93587   3
   4   2  10 36.9206 2.09850   4
   2   4 -10 34.0453 1.98204   2
  -2   6  10 35.6490 2.09525   2
  -2  -4 -10 31.3763 1.88621   3
  -2   6  10 35.3364 2.01686   4
   1   5  10 24.3414 1.76197   2
   1  -6 -10 26.5072 1.82702   3
   5  -6  10 23.5452 2.27450   1
   6  -5 -10 24.4999 1.71418   3
  -5   6  10 28.9758 1.94530   2
   6  -1  10 25.1199 1.80128   4
   1   5  10 28.0818 1.86746   4
   5   1 -10 28.2155 1.88588   2
  -1   6 -10 24.1264 1.56167   2
  -5  -1 -10 24.3061 1.53704   3
  -1  -5 -10 24.5911 1.75047   3
   5   1  10 28.9625 1.96351   4
  -1   6  10 25.7920 1.79509   4
  -1   6  10 24.4177 1.81067   2
   5  -6 -10 22.7693 1.65973   3
   1   5 -10 24.2822 1.71517   2
   0   6 -10 5.03274 1.02780   2
   6   0  10 7.38646 1.28463   4
   6  -6 -10 6.06610 1.09639   3
   0   6  10 5.52175 1.20200   2
   0  -6 -10 3.16989 1.07291   3
   0   6  10 7.28803 1.27536   4
   7  -4 -10 26.9406 1.85826   3
   3   4  10 28.2242 1.81023   2
   7  -3  10 29.0745 1.82841   4
  -4  -3 -10 26.1394 1.82886   3
   3   4  10 28.8114 2.03449   4
  -4   7  10 28.3444 2.03766   2
   4   3 -10 26.0051 1.93104   2
   3  -7 -10 25.8402 1.89429   3
  -3  -4 -10 26.2979 1.90298   3
  -3   7  10 29.2835 1.94908   4
   3   4 -10 25.1470 1.86560   2
   4   3  10 26.0319 1.95420   4
  -3   7  10 22.5620 1.89345   2
   4  -7 -10 25.1146 1.84839   3
   2   5  10 18.6802 1.72858   4
   2   5  10 14.5198 1.53699   2
  -5  -2 -10 17.0638 1.49362   3
   2  -7 -10 11.9764 1.45139   3
  -5   7  10 20.0437 1.76665   2
   7  -5 -10 14.8864 1.44568   3
   7  -2  10 14.1819 1.55560   4
   5   2 -10 15.6685 1.61344   2
   2   5 -10 16.4839 1.64539   2
  -2  -5 -10 14.6456 1.60873   3
   5  -7 -10 12.7635 1.47245   3
   5   2  10 19.3872 1.77543   4
  -2   7  10 15.2036 1.63866   2
  -2   7  10 20.7043 1.71712   4
  -1   7 -10 1.58560 0.89751   2
   1   6  10 2.45942 1.13095   2
   7  -6 -10 3.43339 1.06061   3
  -6  -1 -10 1.57172 0.93105   3
   6   1 -10 2.17652 1.20263   2
   1   6  10 2.05105 1.03206   4
  -6   7  10 3.13404 1.23369   2
   7  -1  10 1.77860 1.10141   4
   1  -7 -10 2.01872 1.07720   3
  -1   7  10 1.14419 1.05466   2
   6   1  10 0.16544 1.02859   4
  -1  -6 -10 1.65882 1.03243   3
   1   6 -10 2.05107 0.98147   2
  -1   7  10 3.30040 1.15725   4
   6  -7 -10 1.81924 1.06796   3
   7   0 -10 -1.0801 0.88284   2
   0   7  10 1.12489 1.03709   2
   7   0  10 1.75303 1.23719   4
   0  -7 -10 0.56559 1.18158   3
   0   7  10 0.86934 0.98808   4
   0   7 -10 -0.7989 0.97583   2
   7  -7 -10 0.16378 1.00378   3
  -4  -4 -10 2.23809 1.05872   3
  -4   8  10 4.68199 1.30249   2
   4   4  10 3.52928 1.27625   4
   4   4 -10 2.67105 1.12051   2
   4  -8 -10 4.82158 1.20915   3
   8  -4 -10 2.53553 1.19800   3
  -5  -3 -10 5.42375 1.19158   3
   8  -5 -10 4.03735 1.17065   3
   3   5  10 2.33123 1.01610   2
   3  -8 -10 3.05783 1.11315   3
   8  -3  10 3.84964 1.09612   4
   3   5  10 4.82140 1.26295   4
  -5   8  10 2.20720 1.09034   2
   5   3 -10 4.45633 1.29944   2
  -3  -5 -10 3.51422 1.23820   3
   5  -8 -10 3.97820 1.20464   3
  -3   8  10 2.94762 1.30429   2
   5   3  10 6.11483 1.29934   4
   3   5 -10 3.33333 1.15996   2
  -3   8  10 2.89325 1.09207   4
   2   6  10 3.54177 1.19439   4
   2  -8 -10 3.34129 1.22307   3
  -6   8  10 7.54151 1.48721   2
  -6  -2 -10 6.79535 1.25738   3
   8  -2  10 5.12679 1.26954   4
   6   2 -10 6.43894 1.43356   2
   8  -6 -10 5.71487 1.25373   3
   2   6  10 6.45262 1.32419   2
   2   6 -10 6.46031 1.46437   2
   6   2  10 8.11656 1.49478   4
  -2   8  10 7.15784 1.38482   2
   6  -8 -10 6.43424 1.27039   3
  -2   8  10 4.71459 1.30054   4
  -2  -6 -10 4.67466 1.32309   3
   0   0  11 0.22245 1.34007   1
   0   0  11 -0.0068 0.51203   4
   0   0 -11 0.34584 0.61805   3
  -1   0  11 14.9517 1.17363   4
  -1   1  11 15.7882 1.21697   4
  -1   1  11 14.8652 2.26714   1
   0  -1 -11 17.7245 1.20938   3
  -1   1 -11 16.0098 1.08575   3
   1  -1  11 13.4217 1.06639   4
   0   1  11 16.1552 1.20645   4
  -1   0 -11 15.1679 1.08746   3
  -1   0  11 17.8106 2.05026   1
   0  -1  11 15.6548 1.11421   4
   1  -1 -11 16.6764 1.21934   3
   1   0  11 15.4481 2.21902   1
   1  -1  11 14.1367 1.73405   1
   0   1 -11 15.9784 1.10176   3
   0  -1  11 15.6522 1.60660   1
   1   0 -11 15.3383 1.14964   3
   1   0  11 17.4979 1.23865   4
   0   1  11 14.1935 2.38001   1
   2  -1  11 -0.0281 1.40558   1
   1   1  11 0.49737 0.50507   2
   1  -2 -11 0.35002 0.71913   3
   1  -2  11 0.59055 0.51492   4
  -2   1  11 -0.4542 1.51640   1
  -1  -1 -11 -0.2989 0.61885   3
   1   1  11 0.80509 0.77315   4
  -2   1 -11 -0.6075 0.52807   3
  -1  -1  11 -0.2515 0.98630   1
   1   1  11 -0.1166 1.93506   1
  -1   2  11 -0.4588 0.65442   4
   2  -1 -11 -0.2477 0.66979   3
   2  -1  11 0.56585 0.65312   4
  -1   2  11 0.40409 1.77362   1
  -1   2 -11 0.26070 0.51371   3
   0   2  11 125.395 6.01159   1
   2  -2 -11 127.625 3.49776   3
   0   2  11 119.533 3.25439   2
  -2   2  11 135.265 6.00917   1
  -2   0  11 114.697 4.76364   1
   0   2  11 119.810 3.49555   4
   2  -2  11 120.832 3.19287   4
  -2   2  11 124.774 3.57417   4
  -2   2 -11 115.702 2.98124   3
   2   0  11 116.722 3.38230   4
  -2   0 -11 120.438 3.21570   3
   2   0  11 109.867 5.23469   1
   0  -2 -11 120.548 3.40822   3
   2  -2  11 120.107 3.86751   1
  -2   3  11 4.44520 0.91514   4
   1   2  11 1.94170 0.67181   2
   3  -1  11 3.24748 1.92650   1
  -2   3  11 4.05408 2.32235   1
   1   2  11 3.02775 0.86486   4
  -1   3 -11 2.55511 0.62696   2
   3  -1  11 2.96263 0.77541   4
   2  -3  11 3.64349 0.66215   4
  -2  -1 -11 4.05325 0.81496   3
  -3   2 -11 3.64087 0.63175   3
  -3   1  11 3.77444 2.01471   1
   1  -3 -11 3.89567 0.95565   3
   3  -2 -11 2.43854 0.79666   3
  -2   3  11 3.35702 0.91296   2
   1   2  11 2.29615 2.23136   1
  -2   3 -11 3.13362 0.59571   2
  -3   1 -11 4.03479 0.72368   3
   3  -2  11 4.11821 0.74600   4
  -1   3  11 2.92613 0.92027   4
  -1   3  11 2.89721 2.30053   1
  -1  -2 -11 4.63107 0.93786   3
  -1   3  11 4.12746 0.86846   2
  -2   3 -11 4.52796 0.66054   3
   2  -3 -11 4.31116 0.86784   3
   2   1  11 3.35700 0.95130   4
   2   1  11 0.53104 2.19763   1
   2   1  11 3.45732 0.66488   2
   3  -2  11 5.56360 1.69007   1
  -2  -1  11 5.15166 1.42558   1
  -3   2  11 3.63120 2.21411   1
  -3   0 -11 11.7296 1.04096   3
   3   0  11 11.1941 1.20679   4
  -3   0  11 10.0998 2.09597   1
   3   0  11 11.2205 2.76365   1
   0   3 -11 10.5567 1.02221   2
   3  -3 -11 11.1161 1.20107   3
   0  -3 -11 11.7890 1.21705   3
   3  -3  11 12.7803 0.98242   4
   0   3  11 12.3029 3.04791   1
  -3   3  11 13.3383 3.22768   1
   0   3  11 12.5330 1.14172   2
   3  -3  11 12.1497 1.47822   1
   0   3  11 12.5169 1.22389   4
   2   2  11 1.46971 2.77137   1
  -2   4  11 0.85413 0.71008   2
  -4   2  11 1.90931 2.22614   1
  -2   4  11 -0.3570 2.48447   1
   2  -4 -11 -0.1749 0.70138   3
   4  -2  11 0.30553 1.77231   1
  -2   4  11 -0.1066 0.68813   4
   2   2  11 0.37120 0.54876   2
  -2  -2 -11 -0.2931 0.70054   3
   4  -2 -11 0.27219 0.67781   3
   2   2  11 0.19586 0.68698   4
   4  -2  11 0.36646 0.61861   4
  -4   1  11 -0.2959 1.90293   1
  -3   4  11 1.73150 2.64466   1
   1   3  11 0.03863 0.81937   4
   4  -3 -11 0.61171 0.85690   3
   4  -1  11 1.59376 2.19774   1
   4  -1  11 2.18886 0.76374   4
  -3   4  11 1.81422 0.82387   4
   1   3  11 3.82040 2.85664   1
  -3  -1 -11 2.03513 0.73833   3
   1  -4 -11 1.99155 0.91782   3
   1   3  11 0.32796 0.68039   2
  -1   4 -11 1.10046 0.59924   2
  -3   4  11 -0.5240 0.73829   2
   4  -3  11 1.49750 0.60613   4
  -4   3  11 0.04824 2.25803   1
   1   3 -11 1.10198 0.79166   2
  -1   4  11 0.63101 0.77514   4
  -1   4  11 2.93914 0.89404   2
   3  -4 -11 1.80869 0.83872   3
  -3  -1  11 0.31735 1.43934   1
   3   1  11 1.47466 2.39386   1
  -4   1 -11 0.71247 0.57968   3
   3   1  11 0.73098 0.82384   4
  -1   4  11 0.60529 2.87194   1
   4  -3  11 -0.4182 1.46501   1
  -1  -3 -11 0.50567 0.72314   3
   4  -4  11 15.2449 1.80077   1
   4  -4 -11 21.4177 1.60518   3
  -4   0  11 18.8430 2.87965   1
   4   0  11 18.1322 1.50002   4
   0  -4 -11 20.4377 1.53180   3
   0   4  11 21.7922 1.60920   4
  -4   0 -11 20.5161 1.32683   3
   0   4  11 19.7168 1.45364   2
   0   4 -11 19.1342 1.38035   2
   2   3  11 1.41836 0.69635   2
  -3  -2 -11 1.03830 0.84806   3
  -3   5  11 1.18910 0.83243   4
   5  -2  11 1.47287 0.78174   4
   3   2 -11 2.83515 0.89815   2
   5  -3 -11 0.35273 0.88238   3
   2  -5 -11 1.27670 0.86475   3
   2   3  11 0.75826 0.88215   4
  -3   5  11 0.23125 0.81460   2
  -3  -2  11 0.11138 1.38620   1
   2   3 -11 1.35282 0.80866   2
   3  -5 -11 0.21245 0.83382   3
  -2  -3 -11 1.38810 0.92543   3
  -2   5  11 1.24856 0.81452   2
   3   2  11 0.18933 0.73050   4
   5  -3  11 1.92836 0.70574   4
  -2   5  11 -0.0008 0.76068   4
  -1   5 -11 4.69703 0.90518   2
   1   4  11 3.16522 1.05857   4
   5  -4 -11 3.30611 0.93770   3
  -4   5  11 5.74852 1.20466   2
   1   4  11 4.61284 1.02749   2
  -4  -1 -11 6.87488 1.02734   3
   1  -5 -11 3.02629 0.95720   3
   5  -1  11 5.11480 0.99674   4
   4   1  11 5.23552 1.17973   4
   1   4 -11 5.32022 1.06793   2
  -1   5  11 4.56306 1.12059   2
   4  -5 -11 4.65601 1.01986   3
  -1  -4 -11 5.84263 1.13045   3
  -1   5  11 4.79788 1.10255   4
   5  -4  11 5.42336 2.04881   1
  -5   0 -11 6.20856 0.96846   3
   5  -5 -11 4.68279 1.03655   3
   5   0  11 7.91624 1.27896   4
   0   5  11 7.71684 1.25970   2
   0   5  11 4.75494 1.14801   4
   0  -5 -11 4.33161 1.08757   3
   0   5 -11 5.68526 1.05048   2
   5  -5  11 2.79175 1.65624   1
   3   3  11 -0.2175 0.84418   4
   6  -3  11 0.42662 0.78092   4
  -3   6  11 1.06774 0.93554   2
   6  -3 -11 -0.9613 0.77042   3
   3   3 -11 1.30455 0.94567   2
  -3  -3 -11 0.01384 0.92391   3
  -3   6  11 0.25099 0.91211   4
   3  -6 -11 0.62461 0.92650   3
   2  -6 -11 3.27904 1.17177   3
   6  -2  11 5.07899 1.06058   4
   6  -4 -11 0.60148 0.90546   3
   2   4  11 4.08230 1.00896   2
  -4  -2 -11 3.62670 0.97977   3
   2   4  11 2.89328 1.04055   4
   4   2 -11 3.82728 1.08882   2
  -4   6  11 4.33084 1.09476   2
  -2   6  11 6.61966 1.26330   4
   2   4 -11 2.71300 1.05470   2
   4  -6 -11 4.42765 1.08000   3
  -2  -4 -11 4.75985 1.19979   3
  -2   6  11 4.54427 1.23875   2
   4   2  11 4.34497 1.22237   4
  -5  -1 -11 1.77838 0.86089   3
   1  -6 -11 -0.1417 1.05315   3
   5   1 -11 0.00038 1.04848   2
   1   5  11 -0.1530 0.89215   4
  -1   6 -11 0.71559 0.76627   2
  -5   6  11 -0.1343 0.89944   2
   6  -5 -11 0.83571 1.04508   3
   1   5  11 0.94097 0.90866   2
   6  -1  11 2.13580 0.98265   4
  -1   6  11 1.70658 1.06422   4
   5  -6 -11 2.21710 0.98377   3
  -1  -5 -11 0.77291 0.96071   3
   1   5 -11 1.50660 0.99740   2
  -1   6  11 0.46439 0.91313   2
   5   1  11 0.93219 0.96146   4
   0   6  11 0.29849 0.93477   2
   0   6  11 0.07685 0.90205   4
   0   6 -11 0.10854 0.86475   2
   6   0  11 -0.6058 0.92064   4
   0  -6 -11 0.33470 0.97729   3
   6  -6 -11 -0.0057 0.90297   3
  -4   7  11 1.47787 1.04515   2
  -4  -3 -11 0.19999 1.04537   3
   4   3 -11 0.38054 0.95118   2
   3   4  11 0.53066 1.06886   4
   3   4  11 0.41859 0.94228   2
   7  -3  11 1.18226 0.98937   4
   7  -4 -11 2.27693 1.14767   3
   3  -7 -11 1.79357 1.15381   3
  -3   7  11 -0.5238 1.03452   2
  -3  -4 -11 0.86600 0.99819   3
   3   4 -11 2.18930 1.07248   2
  -3   7  11 -0.2948 1.00733   4
   4  -7 -11 0.73967 0.99099   3
   4   3  11 1.65824 1.08202   4
  -5   7  11 3.73679 1.18576   2
   2   5  11 1.34474 0.99200   2
   2  -7 -11 3.09450 1.16539   3
   7  -2  11 4.61378 1.21058   4
   5   2 -11 2.71060 1.25802   2
   7  -5 -11 2.59197 1.05758   3
   2   5  11 5.86772 1.27316   4
  -5  -2 -11 3.24330 1.11620   3
  -2   7  11 6.14604 1.43830   2
   5  -7 -11 1.76637 1.18625   3
   5   2  11 6.55593 1.33986   4
  -2  -5 -11 2.83087 1.08377   3
  -2   7  11 3.83253 1.17912   4
   2   5 -11 5.89151 1.31830   2
  -6   7  11 0.53867 1.14870   2
   1   6  11 2.75161 1.18867   2
   1  -7 -11 1.41184 1.16581   3
   1   6  11 1.66255 1.05715   4
   7  -6 -11 0.79899 0.96439   3
   7  -1  11 2.11013 1.06959   4
   6   1 -11 1.14038 1.21740   2
   1   6 -11 1.13893 0.99702   2
  -1   7  11 1.39949 1.11891   4
   6  -7 -11 2.26927 1.04929   3
  -1   7  11 -0.6760 1.02630   2
  -1  -6 -11 1.65002 1.08820   3
   6   1  11 1.76378 1.09200   4
   0   7  11 2.64304 1.17216   4
   7   0 -11 0.23918 1.12187   2
   7  -7 -11 0.46461 1.15525   3
   0  -7 -11 0.61872 1.24404   3
   7   0  11 -0.2017 1.05699   4
   0   7  11 0.52955 1.17984   2
   0   7 -11 -0.6008 0.98351   2
   4   4  11 0.23987 1.23630   4
   4   4 -11 -0.2416 1.14133   2
  -4  -4 -11 -0.5366 1.09036   3
   4  -8 -11 -0.7759 1.00082   3
  -4   8  11 -0.5210 1.03032   2
   8  -4 -11 0.50018 1.12715   3
   3   5  11 -0.3822 1.22246   4
  -5  -3 -11 1.29561 1.01747   3
   8  -3  11 0.71865 1.00393   4
   3  -8 -11 1.34385 1.18752   3
  -5   8  11 2.55777 1.21490   2
   8  -5 -11 -0.2984 0.94584   3
   5   3 -11 -0.2483 1.05813   2
  -3  -5 -11 -0.1534 1.00890   3
   5  -8 -11 -0.5649 1.06161   3
  -3   8  11 0.14868 1.19513   2
  -3   8  11 -0.4562 1.14195   4
   3   5 -11 -0.4618 1.14571   2
   5   3  11 0.81030 1.25684   4
   0   0  12 271.455 7.72098   1
   0   0  12 265.806 6.09823   4
   0   0 -12 276.497 6.04295   3
   0   1  12 131.070 3.70886   4
   1  -1  12 135.335 4.59937   1
   0  -1 -12 128.655 3.53011   3
   1  -1 -12 135.193 3.60887   3
  -1   1 -12 121.840 3.32103   3
  -1   1  12 116.117 5.44123   1
   0   1  12 124.355 5.65569   1
   0  -1  12 126.078 4.09965   1
   1   0 -12 128.898 3.53265   3
  -1   0  12 135.903 5.05834   1
   0  -1  12 127.659 3.51509   4
  -1   1  12 128.337 3.70160   4
   1   0  12 134.742 3.68055   4
   1  -1  12 127.469 3.51815   4
  -1   0 -12 122.577 3.37684   3
   1   0  12 129.367 5.34720   1
   0   1 -12 124.735 3.40734   3
  -1   2  12 215.266 8.25334   1
   1  -2 -12 230.342 5.38893   3
  -2   1  12 222.425 7.59628   1
   1   1 -12 224.711 5.25609   3
  -1  -1 -12 225.473 5.25656   3
   1   1  12 232.133 8.21455   1
   2  -1  12 228.551 7.04297   1
  -1   2 -12 226.069 5.00280   3
   2  -1  12 226.223 5.32919   4
  -1  -1  12 222.886 5.82784   1
  -2   1 -12 225.105 4.99472   3
  -1   2  12 237.309 5.64043   4
   1  -2  12 216.881 5.13568   4
   1   1  12 239.201 5.56965   4
   2  -1 -12 215.623 5.29434   3
   2   0 -12 205.379 4.99149   3
  -2   2 -12 193.802 4.54319   3
  -2   2  12 203.186 7.92639   1
   0   2  12 224.007 5.40058   4
   2  -2  12 209.570 5.57079   1
   2  -2  12 211.946 4.93613   4
   0   2  12 223.773 8.33330   1
  -2   0 -12 207.803 4.82858   3
   0  -2 -12 205.105 5.02175   3
  -2   0  12 215.190 6.76438   1
   0   2 -12 210.290 4.82326   3
   0   2  12 200.987 4.94018   2
   2  -2 -12 207.478 5.06041   3
   2   0  12 192.408 7.24164   1
   2   0  12 210.604 5.15623   4
  -2   2  12 216.901 5.34471   4
   1  -3 -12 108.623 3.39463   3
  -1   3 -12 108.848 2.98658   3
  -3   2 -12 112.060 2.90166   3
   3  -1  12 116.171 5.48190   1
   1   2  12 122.096 3.63085   4
  -2   3  12 120.797 3.66225   4
  -1   3 -12 112.222 3.00549   2
   1   2  12 115.853 3.23079   2
   2  -3  12 114.413 3.07409   4
  -2  -1 -12 108.782 3.20695   3
   3  -2 -12 106.469 3.39034   3
   3  -1  12 113.552 3.37615   4
  -3   1  12 113.590 5.54076   1
  -3   2  12 117.619 6.17415   1
   3  -1 -12 115.583 3.44024   3
  -1   3  12 110.971 3.54046   4
  -1   3  12 107.463 3.33821   2
  -1  -2 -12 115.356 3.39211   3
  -2  -1  12 115.909 4.19293   1
   3  -2  12 112.448 3.23684   4
   2   1  12 111.122 3.00751   2
   2   1  12 96.9919 5.86642   1
   2  -3 -12 105.168 3.35864   3
  -3   1 -12 106.444 2.97457   3
   2   1  12 119.379 3.57587   4
  -2   3 -12 101.716 2.83428   3
   3  -2  12 115.117 4.70224   1
  -3   0  12 122.651 5.34532   1
   0  -3 -12 133.904 3.83906   3
   3   0  12 127.393 3.71377   4
   3  -3 -12 120.194 3.72721   3
   0   3 -12 129.896 3.48089   2
   3  -3  12 119.304 3.29245   4
   0   3  12 125.488 3.60049   2
  -3   0 -12 117.540 3.32678   3
   0   3  12 125.487 3.82781   4
  -2  -2 -12 58.9855 2.40072   3
   2   2  12 54.8744 2.05817   2
   2  -4 -12 55.5963 2.45001   3
  -2   4  12 60.9468 2.48392   2
   4  -2  12 52.3400 2.18254   4
  -2   4  12 54.5456 2.50133   4
   2   2  12 54.3941 2.47013   4
   4  -2 -12 61.0073 2.50971   3
   4  -2  12 49.2612 3.90102   1
   1   3  12 54.4883 2.21231   2
  -3  -1 -12 49.6464 2.11837   3
   4  -3 -12 49.5988 2.29582   3
   1  -4 -12 54.8332 2.46621   3
   1   3  12 51.3468 2.37712   4
   4  -1  12 50.2617 2.22316   4
  -1   4 -12 47.1457 1.93779   2
  -3   4  12 54.7305 2.47780   4
  -1  -3 -12 54.8000 2.37090   3
   4  -3  12 53.2136 3.36939   1
   3  -4 -12 55.2035 2.39490   3
  -3  -1  12 51.6152 3.34054   1
   1   3 -12 53.1219 2.25197   2
  -1   4  12 46.7318 2.24532   2
  -1   4  12 52.0157 2.45490   4
   4  -3  12 47.6522 1.96433   4
   3   1  12 51.3024 2.35902   4
   0   4  12 80.6486 3.08065   4
   0   4  12 79.5356 2.91688   2
   4   0  12 78.1842 2.96388   4
   4  -4 -12 79.7410 2.97749   3
   0   4 -12 74.1977 2.62754   2
  -4   0 -12 74.9569 2.54816   3
   0  -4 -12 76.5086 2.94898   3
   5  -3 -12 32.6610 2.01336   3
  -3   5  12 33.9797 2.03203   2
   5  -2  12 36.4561 1.92233   4
   3   2 -12 36.9381 2.04454   2
   2   3  12 31.5014 1.75183   2
  -3   5  12 35.9674 2.13483   4
   2  -5 -12 30.3342 1.96972   3
   2   3  12 31.4908 2.04121   4
  -3  -2 -12 33.4078 1.91900   3
   5  -3  12 32.4434 1.74553   4
   2   3 -12 30.9438 1.91463   2
   5  -2 -12 34.6231 2.04064   3
   3  -5 -12 31.1595 1.94865   3
  -2   5  12 34.3718 2.06801   2
  -2   5  12 35.3197 2.09868   4
   3   2  12 35.3687 2.08799   4
  -2  -3 -12 35.3505 1.98911   3
  -3  -2  12 31.8868 2.50439   1
   5  -1  12 48.3577 2.36562   4
   5  -4 -12 49.2112 2.44651   3
   1   4  12 54.2277 2.39968   2
  -1   5 -12 56.7201 2.23485   2
  -4  -1 -12 55.2534 2.31486   3
   1  -5 -12 56.4416 2.62916   3
   1   4  12 56.8773 2.63062   4
   1   4 -12 59.7032 2.47532   2
   4   1  12 52.8539 2.49386   4
  -1   5  12 55.8187 2.59035   4
   4  -5 -12 56.1843 2.60531   3
  -1  -4 -12 57.5971 2.58794   3
  -1   5  12 50.4697 2.46909   2
   0   5 -12 31.4825 1.83256   2
   0   5  12 33.3224 2.05040   2
   0   5  12 36.5401 2.23171   4
   5  -5 -12 29.3283 1.95597   3
   5   0  12 31.2420 2.07860   4
   0  -5 -12 36.6617 2.18614   3
   3   3 -12 37.0230 2.13343   2
  -3   6  12 35.5362 2.24452   4
   6  -3  12 32.8584 1.92238   4
   6  -3 -12 32.4935 2.08601   3
  -3   6  12 37.9559 2.26782   2
   3  -6 -12 33.1148 2.19713   3
   3   3  12 35.3138 2.26704   4
  -3  -3 -12 35.4775 2.10543   3
   2   4  12 34.9883 1.99728   2
   6  -4 -12 29.7646 2.04043   3
   4   2 -12 36.3147 2.19324   2
  -4  -2 -12 30.2783 1.88608   3
   2   4  12 36.9050 2.27728   4
   2  -6 -12 32.1247 2.13464   3
  -4   6  12 32.0428 2.14771   2
   6  -2  12 33.2617 2.04256   4
  -2   6  12 31.8373 2.12055   4
  -2  -4 -12 29.0938 2.01284   3
   4  -6 -12 33.6381 2.17467   3
   4   2  12 33.7057 2.22597   4
   2   4 -12 33.7212 2.10933   2
  -2   6  12 30.6787 2.09088   2
   6  -5 -12 19.7282 1.73294   3
   1  -6 -12 17.2310 1.78968   3
   1   5  12 16.6293 1.62704   2
   6  -1  12 16.9200 1.68484   4
  -5  -1 -12 16.5874 1.49400   3
   5   1 -12 17.0458 1.72978   2
   1   5  12 19.0341 1.75368   4
  -1   6  12 15.3891 1.72104   4
   5   1  12 17.3588 1.78914   4
   5  -6 -12 18.4511 1.67551   3
  -1  -5 -12 17.2684 1.74632   3
  -1   6  12 18.7932 1.78645   2
   1   5 -12 18.1241 1.59265   2
   0  -6 -12 9.44344 1.58296   3
   0   6 -12 10.0534 1.32555   2
   6  -6 -12 11.6948 1.50481   3
   0   6  12 12.7617 1.54458   2
   6   0  12 12.8324 1.57902   4
   0   6  12 9.51795 1.51769   4
   3   4  12 20.1032 1.93189   4
  -4   7  12 18.0957 1.89745   2
  -4  -3 -12 13.4829 1.57593   3
   3  -7 -12 16.0668 1.75761   3
   7  -3  12 13.5169 1.56779   4
   4   3 -12 13.1896 1.61969   2
   7  -4 -12 13.9304 1.61924   3
   4  -7 -12 15.7970 1.66376   3
  -3  -4 -12 16.4094 1.70660   3
   4   3  12 13.7051 1.71920   4
  -3   7  12 15.3922 1.78028   2
   7  -3 -12 12.6697 1.67693   3
   3   4 -12 13.0386 1.58289   2
  -3   7  12 17.6707 1.80696   4
   2  -7 -12 11.6474 1.58370   3
   2   5  12 13.8174 1.72708   4
  -5   7  12 12.6596 1.64153   2
   2   5  12 13.7824 1.60054   2
   5   2 -12 15.3917 1.70020   2
   7  -2  12 14.5704 1.64827   4
   7  -5 -12 12.8912 1.60869   3
  -5  -2 -12 13.9650 1.47895   3
  -2   7  12 16.9933 1.81897   4
  -2  -5 -12 11.6417 1.59139   3
   2   5 -12 16.2697 1.75231   2
   5   2  12 13.3843 1.71747   4
  -2   7  12 16.3211 1.74715   2
   5  -7 -12 14.8903 1.70555   3
   1   6  12 5.84989 1.39534   2
   6   1 -12 6.47832 1.46521   2
   7  -1  12 2.37828 1.14450   4
   1   6  12 6.57907 1.50395   4
   7  -6 -12 3.52354 1.18962   3
   1  -7 -12 3.19438 1.24202   3
   1   6 -12 1.39959 1.16605   2
   6   1  12 3.06419 1.31654   4
  -1   7  12 1.62762 1.15588   4
   6  -7 -12 3.94434 1.33690   3
  -1   7  12 3.95716 1.36917   2
  -1  -6 -12 5.57904 1.46270   3
   0   0 -13 1.04144 0.70316   3
   0   0  13 1.02505 0.78588   4
   0   0  13 0.57092 1.70876   1
   1  -1  13 4.89502 0.89658   4
   1  -1 -13 5.17504 1.04030   3
  -1   0 -13 4.10694 0.86814   3
   1   0  13 3.07819 1.97988   1
   1   0  13 4.01795 0.93675   4
   0   1  13 2.67705 2.16357   1
  -1   0  13 3.70737 1.82259   1
  -1   1  13 6.41688 1.13592   4
   0   1  13 4.10319 1.01144   4
   0  -1  13 6.25863 1.46633   1
  -1   1  13 3.63609 2.20758   1
   0  -1 -13 4.05562 0.96119   3
   0  -1  13 5.87840 0.93516   4
   1   0 -13 4.43337 0.90253   3
   1  -1  13 3.82224 1.57968   1
   0   1 -13 3.56943 0.87872   3
  -1   1 -13 3.76291 0.79814   3
  -1  -1  13 0.35066 1.17403   1
   2  -1  13 0.56868 0.68251   4
  -2   1 -13 0.81644 0.64782   3
  -2   1  13 1.58780 2.07866   1
  -1   2 -13 -0.1375 0.66383   3
   1   1  13 -1.0945 0.79818   4
   1  -2 -13 0.60183 0.78335   3
   1  -2  13 0.59300 0.62678   4
   1   1 -13 0.15264 0.67274   3
  -1   2  13 -0.7848 0.71773   4
   2  -1 -13 -0.1081 0.78509   3
  -1  -1 -13 -0.0622 0.71059   3
   2  -1  13 -0.2117 1.66704   1
  -2   2 -13 11.1346 1.03137   3
   0   2 -13 13.3987 1.18323   3
  -2   0  13 16.7675 2.41158   1
   2  -2  13 13.6809 1.65253   1
   2   0 -13 13.9276 1.35287   3
   2  -2 -13 13.6176 1.40530   3
   2   0  13 11.8055 1.28040   4
   0  -2 -13 14.7396 1.41875   3
   0   2  13 11.9561 1.32226   4
  -2   0 -13 12.8040 1.23027   3
  -2   2  13 11.9095 1.34926   4
   2  -2  13 15.6122 1.23340   4
  -2  -1 -13 4.02695 0.97046   3
  -1   3 -13 4.40591 0.82063   3
   1   2  13 5.93443 1.12511   4
   1  -3 -13 6.57613 1.07936   3
   3  -2 -13 4.93484 1.12693   3
  -2   3  13 3.65369 1.00793   4
   1   2  13 4.87126 0.91186   2
   3  -1  13 3.85977 0.89294   4
  -1  -2 -13 4.37271 1.07950   3
   2  -3 -13 4.08961 0.99218   3
  -2  -1  13 5.65807 1.55502   1
  -3   1 -13 4.85173 0.85255   3
   2   1  13 4.80688 1.09141   4
   3  -2  13 3.92976 0.85230   4
   3  -2  13 3.61797 1.79363   1
   3  -1 -13 5.03967 1.11506   3
  -1   3  13 4.08285 0.93530   2
  -1   3  13 2.94468 1.09341   4
  -3   0 -13 5.01569 0.94461   3
   3  -3 -13 2.53971 1.09543   3
   0   3  13 2.37540 0.86005   2
   3   0  13 3.15649 0.93510   4
   0  -3 -13 4.93067 1.05719   3
   0   3  13 3.90228 1.07433   4
   0   3 -13 2.98786 0.83039   2
  -2   4  13 0.26030 0.92378   2
   2  -4 -13 0.66501 0.98491   3
   2   2  13 1.71745 1.03825   4
   4  -2  13 -0.3469 0.74237   4
  -2  -2 -13 -0.4197 0.73163   3
  -2   4  13 -0.3356 0.98263   4
   4  -2 -13 -0.9890 0.73263   3
  -3  -1 -13 0.89088 0.79651   3
   1   3  13 1.06049 0.76357   2
   1   3  13 0.16908 1.03095   4
   4  -1  13 0.43018 0.82042   4
   1  -4 -13 0.43812 0.86955   3
   4  -3 -13 -0.5966 0.90018   3
   4  -1 -13 0.70896 0.99159   3
   3  -4 -13 0.04137 0.84551   3
   1   3 -13 0.84448 0.89742   2
  -1  -3 -13 0.16178 0.74937   3
  -1   4  13 1.47580 0.88406   2
  -3  -1  13 1.11897 1.73293   1
   3   1  13 1.72786 1.01477   4
   4  -3  13 0.80061 1.73395   1
  -1   4  13 0.46729 0.91787   4
   4   0  13 1.55055 0.94585   4
  -4   0 -13 2.30344 0.88468   3
   4  -4 -13 3.10906 1.07667   3
   0   4  13 1.40564 0.87561   2
   0   4 -13 1.74038 0.91004   2
   0   4  13 1.38834 1.05559   4
   0  -4 -13 3.97885 1.09225   3
  -3  -2 -13 -0.2433 0.88178   3
  -3   5  13 -0.1278 0.90495   2
   5  -3 -13 1.11590 1.05569   3
  -3   5  13 0.84015 1.03317   4
   2   3  13 -1.7504 0.94163   4
   3   2 -13 0.93052 0.91087   2
   2  -5 -13 -0.5992 0.95527   3
   5  -2  13 -0.4929 0.75046   4
   2   3 -13 0.06122 0.89325   2
   3  -5 -13 0.40161 0.96384   3
   5  -2 -13 0.08710 0.87709   3
  -2   5  13 0.43166 0.99985   4
  -2  -3 -13 -1.1986 0.77032   3
  -2   5  13 0.42956 0.85420   2
   3   2  13 -0.2834 0.93588   4
   1   4  13 -0.3960 0.76495   2
   1  -5 -13 0.56715 0.98850   3
   5  -1  13 1.44334 1.00496   4
   5  -4 -13 1.46656 1.02999   3
   1   4  13 1.39514 1.00248   4
  -4  -1 -13 1.40127 0.87145   3
   4  -5 -13 -0.0637 0.89538   3
   4   1  13 2.36276 1.03041   4
  -1  -4 -13 2.19800 1.01489   3
  -1   5  13 0.34222 1.01092   4
  -1   5  13 1.40463 0.94685   2
   1   4 -13 1.62157 1.02759   2
   0   5 -13 4.61117 1.08466   2
   5   0  13 6.02688 1.23974   4
   5  -5 -13 5.56527 1.29763   3
   0   5  13 4.49653 1.32497   4
   0   5  13 4.44037 1.22046   2
   0  -5 -13 3.14844 1.27568   3
   6  -3 -13 0.01830 1.14713   3
  -3   6  13 -1.2057 0.93974   4
   3  -6 -13 0.06042 0.98675   3
   3   3  13 1.08604 1.18562   4
   3   3 -13 -0.8676 1.02846   2
  -3   6  13 0.20119 1.04506   2
  -3  -3 -13 -0.5486 0.86480   3
  -4   6  13 1.42179 1.23775   2
  -4  -2 -13 1.00251 1.04388   3
   6  -2  13 -0.6446 0.87270   4
   2  -6 -13 0.62653 1.15353   3
   6  -4 -13 0.72074 1.06967   3
   2   4  13 -0.7665 1.04251   4
   4   2 -13 -1.1532 0.93457   2
  -2   6  13 0.53836 1.07820   2
   4  -6 -13 0.28567 1.04505   3
   4   2  13 0.15440 0.99365   4
  -2  -4 -13 0.55405 1.11241   3
  -2   6  13 0.82670 1.05158   4
   2   4 -13 0.27540 0.97004   2
   1  -6 -13 0.77992 1.07792   3
   6  -5 -13 2.70881 1.19475   3
   1   5  13 2.22015 1.12955   4
   5   1 -13 2.79517 1.30808   2
   1   5  13 0.90390 0.95332   2
   6  -1  13 1.64213 1.11020   4
   1   5 -13 2.32353 1.05007   2
  -1   6  13 1.89717 1.21330   2
  -1   6  13 4.32366 1.25002   4
   5   1  13 -1.1003 1.02843   4
  -1  -5 -13 1.76057 1.12159   3
   5  -6 -13 0.09804 1.08024   3
   6  -6 -13 0.58544 1.19308   3
   0  -6 -13 1.04387 1.22760   3
   0   6  13 -0.2857 1.17368   4
   0   6  13 -0.8745 1.06535   2
   6   0  13 0.87435 1.20688   4
   0   0 -14 81.1107 2.85180   3
   0   0  14 72.3242 2.74426   4
   0   0  14 70.2262 4.20977   1
  -1   1  14 35.7579 2.04190   4
   1  -1  14 34.0429 2.74070   1
   0   1  14 37.8933 2.08639   4
  -1   0 -14 40.7126 1.96123   3
  -1   1 -14 42.0541 1.92924   3
   0  -1  14 40.3673 2.50199   1
   1   0 -14 37.6866 2.01346   3
   1  -1 -14 37.9816 2.02931   3
   1  -1  14 36.7240 1.93935   4
   0   1 -14 38.2410 1.94317   3
   0  -1 -14 40.6403 2.03915   3
   1   0  14 35.8927 1.98008   4
  -1   0  14 33.5830 3.09364   1
   1  -2  14 12.6165 1.20613   4
   2  -1 -14 13.2272 1.39352   3
   1  -2 -14 14.5446 1.48241   3
  -1  -1 -14 11.5053 1.26654   3
   1   1 -14 12.6195 1.26993   3
  -1   2  14 13.3197 1.47113   4
   1   1  14 11.2149 1.35706   4
   2  -1  14 12.5788 1.30160   4
  -1   2 -14 11.7028 1.16240   3
  -2   1 -14 15.5664 1.27194   3
   2   0  14 15.1570 1.44934   4
   2  -2 -14 11.9662 1.35606   3
  -2   0 -14 14.0859 1.32725   3
   0   2  14 14.7464 1.49150   4
   0   2 -14 13.1546 1.23836   3
   0  -2 -14 13.5803 1.44836   3
   2   0 -14 14.4388 1.38725   3
   2  -2  14 9.04515 1.10542   4
   2   1 -14 14.0624 1.43525   3
   3  -2 -14 15.7693 1.57438   3
   3  -1  14 13.3747 1.37038   4
  -2  -1 -14 14.2572 1.41064   3
   1   2  14 14.7787 1.48945   4
  -2   3  14 14.4028 1.56924   4
  -1   3 -14 14.2490 1.21924   3
   1  -3 -14 12.2003 1.46058   3
   2  -3 -14 15.8233 1.60130   3
   3  -1 -14 15.1117 1.52956   3
  -1  -2 -14 14.3359 1.46512   3
   2   1  14 12.4619 1.45722   4
   1   2 -14 16.0437 1.42097   3
   3  -2  14 12.3135 1.25341   4
  -1   3  14 11.7696 1.40687   4
   0  -3 -14 7.20403 1.22125   3
  -3   0 -14 6.14870 1.03545   3
   3   0  14 5.43734 1.10752   4
   3   0 -14 7.01382 1.18598   3
   0   3  14 6.91469 1.22810   4
   0   3  14 5.22863 1.02378   2
   3  -3 -14 4.80619 1.21885   3
   0   3 -14 5.86208 1.00345   2
   0   3 -14 4.76273 0.94266   3
   2  -4 -14 21.6140 1.80012   3
  -2  -2 -14 18.9625 1.62791   3
   4  -2 -14 23.5419 1.85490   3
  -2   4  14 16.0967 1.69888   4
   4  -2  14 16.9844 1.44561   4
   2   2  14 15.2307 1.63481   4
  -3  -1 -14 18.1310 1.51085   3
   1   3  14 15.2160 1.38783   2
   1  -4 -14 17.3712 1.69983   3
   4  -3 -14 16.8245 1.68344   3
   4  -1  14 14.2740 1.45881   4
   1   3  14 15.3625 1.65394   4
  -1   4  14 16.6061 1.58894   2
  -1  -3 -14 14.9923 1.53329   3
   4  -1 -14 18.2895 1.69002   3
   3   1  14 12.9641 1.49295   4
   3  -4 -14 16.8646 1.63900   3
   1   3 -14 14.4790 1.43194   2
  -1   4  14 16.4838 1.66250   4
   4  -4 -14 8.21352 1.47034   3
   0  -4 -14 9.47282 1.47912   3
   0   4 -14 8.32323 1.21346   2
   4   0  14 10.7127 1.40004   4
   0   4  14 8.61112 1.32637   2
   0   4  14 12.1357 1.59396   4
   2  -5 -14 17.2095 1.73450   3
   2   3  14 17.6526 1.75426   4
   5  -3 -14 18.5473 1.78280   3
   5  -2  14 15.0302 1.49786   4
   3   2 -14 20.4183 1.82000   2
  -3   5  14 15.8024 1.68176   4
  -3  -2 -14 16.2797 1.58813   3
  -2   5  14 15.0915 1.75358   4
   3   2  14 19.3461 1.84996   4
  -2  -3 -14 18.0478 1.76139   3
   5  -2 -14 19.7131 1.81154   3
  -2   5  14 15.0527 1.62726   2
   3  -5 -14 15.4263 1.79066   3
   2   3 -14 15.1417 1.62688   2
   1   4  14 2.48763 1.12702   4
   1   4  14 1.07802 0.93714   2
  -4  -1 -14 3.11215 1.01652   3
   5  -4 -14 2.62054 1.23946   3
   1  -5 -14 3.02593 1.29084   3
   5  -1  14 2.64880 1.06459   4
   4   1  14 3.82193 1.15118   4
  -1   5  14 3.47142 1.32025   4
  -1   5  14 4.08935 1.14352   2
   4  -5 -14 1.86699 1.08938   3
  -1  -4 -14 2.02572 1.15900   3
   1   4 -14 4.62644 1.19462   2
   0   5  14 3.87268 1.39138   4
   0   5  14 2.19696 1.16235   2
   5  -5 -14 4.89221 1.41578   3
   5   0  14 2.47977 1.19279   4
   0  -5 -14 4.78377 1.37056   3
  -3   6  14 3.20037 1.30390   4
   3   3 -14 1.23214 1.12017   2
   3  -6 -14 2.87113 1.25178   3
   6  -3 -14 4.24015 1.29547   3
   3   3  14 3.84759 1.36842   4
  -3  -3 -14 2.85146 1.12439   3
  -3   6  14 2.50462 1.27898   2
   6  -2  14 5.03008 1.23355   4
  -4  -2 -14 4.65182 1.23291   3
   4   2 -14 5.43902 1.45630   2
   2  -6 -14 4.28032 1.29322   3
   2   4  14 5.01406 1.44739   4
   6  -4 -14 4.52012 1.29687   3
  -2   6  14 0.93852 1.08297   2
   6  -2 -14 5.40903 1.33011   3
  -2   6  14 5.35332 1.35583   4
   4   2  14 1.60947 1.29602   4
   2   4 -14 4.20958 1.26698   2
   4  -6 -14 3.23255 1.37480   3
  -2  -4 -14 6.78260 1.46159   3
   0   0  15 0.47188 0.83480   4
   0   0 -15 1.39254 0.94622   3
  -1   1 -15 0.21745 0.80260   3
  -1   0 -15 -0.4579 0.76523   3
   1   0 -15 -0.3108 0.80752   3
   1   0  15 -0.4222 0.88318   4
  -1   1  15 -0.1764 0.90362   4
   1  -1  15 0.83275 0.81167   4
   0   1  15 -0.3015 0.85451   4
   0   1 -15 0.82583 0.83653   3
   0  -1 -15 0.32106 0.79100   3
   1  -1 -15 0.15731 0.90976   3
   1   1  15 0.59080 0.91813   4
   1  -2 -15 1.60450 0.94636   3
  -1   2  15 -0.1221 0.87954   4
  -1   2 -15 -0.5192 0.72127   3
  -1  -1 -15 -0.5888 0.83268   3
  -2   1 -15 0.25594 0.74274   3
   2  -1 -15 -0.2714 0.80550   3
   1   1 -15 -1.0341 0.82499   3
   2  -1  15 -0.5696 0.74992   4
   2  -2 -15 7.59041 1.30146   3
   2   0  15 7.53067 1.25806   4
   2   0 -15 5.79374 1.12240   3
   0   2  15 5.40718 1.16165   4
   0   2 -15 5.51209 1.04206   3
  -2   0 -15 5.46113 1.10596   3
   0  -2 -15 7.38351 1.22097   3
   2  -2  15 7.41114 1.11694   4
  -2  -1 -15 0.63525 0.94489   3
   3  -2 -15 -0.1239 0.99591   3
   1  -3 -15 -0.0271 0.98082   3
  -2   3  15 1.68482 1.15624   4
   3  -1  15 0.37414 0.83692   4
   1   2  15 0.79053 1.00610   4
   2   1 -15 1.06716 0.90889   3
   2  -3 -15 0.81745 0.94256   3
   1   2 -15 -0.1189 0.83884   3
  -1  -2 -15 1.34516 1.06581   3
  -1   3  15 0.48562 0.95655   4
   2   1  15 1.17775 0.98398   4
   3  -1 -15 0.15965 1.02764   3
   3  -2  15 0.15253 0.77269   4
   0   3  15 1.05257 1.02187   4
   3  -3 -15 0.81284 0.98685   3
   3   0  15 1.58966 0.96374   4
   3   0 -15 1.56797 1.05752   3
   0  -3 -15 0.66803 1.03843   3
   0   3 -15 1.05653 0.81882   3
  -2  -2 -15 0.12331 0.94926   3
   2  -4 -15 0.10469 1.02613   3
   2   2 -15 0.22979 1.03525   2
   4  -2  15 0.18642 0.85094   4
   4  -2 -15 -0.7034 0.86889   3
  -2   4  15 -0.5255 1.08261   4
   2   2  15 -0.7841 0.90631   4
   1   3  15 -0.3216 0.99819   4
   4  -1  15 -0.2690 0.85735   4
   4  -3 -15 1.08796 1.01678   3
  -3  -1 -15 0.30817 0.83054   3
   1  -4 -15 -0.0228 0.95066   3
  -1   4  15 1.66157 1.06529   2
   1   3 -15 0.22548 0.88824   2
   3  -4 -15 0.30923 1.16642   3
   4  -1 -15 -0.1787 0.92660   3
   3   1  15 0.88197 1.08485   4
  -1   4  15 1.23980 1.10447   4
  -1  -3 -15 2.02777 1.08237   3
   4   0  15 2.33696 1.13148   4
   0   4  15 0.67814 0.94792   2
   4  -4 -15 1.50596 1.23516   3
   0  -4 -15 2.32751 1.12449   3
   0   4  15 5.30150 1.43239   4
   4   0 -15 3.26408 1.27112   3
   2  -5 -15 0.32920 1.14924   3
   2   3  15 1.24985 1.12412   4
  -3  -2 -15 -0.2820 1.06054   3
   3   2 -15 -0.5804 1.05911   2
   5  -3 -15 -0.4156 1.03276   3
   3  -5 -15 -0.1656 1.08609   3
   5  -2 -15 0.46015 1.19287   3
  -2  -3 -15 1.11442 1.16404   3
  -2   5  15 -0.5991 1.09683   2
   3   2  15 -0.3239 1.10892   4
   2   3 -15 2.04989 1.13290   2
  -2   5  15 1.17179 1.12952   4
   0   0 -16 9.57447 1.35563   3
   0   0  16 13.6012 1.56533   4
   1   0  16 7.90976 1.34430   4
  -1   1 -16 7.97729 1.23137   3
   1  -1  16 6.26346 1.19963   4
   1  -1 -16 7.98486 1.31150   3
   0   1  16 4.82938 1.17061   4
   0   1 -16 6.90779 1.20399   3
  -1   0 -16 7.79265 1.27037   3
   1   0 -16 6.77359 1.20490   3
   0  -1 -16 6.67724 1.20018   3
  -1  -1 -16 4.31956 1.11778   3
   1   1  16 1.99438 1.07919   4
   1  -2 -16 4.78427 1.17678   3
   2  -1  16 2.84954 1.10568   4
   2  -1 -16 3.34633 1.21028   3
  -1   2  16 5.47675 1.29751   4
   1   1 -16 3.92678 1.07755   3
  -2   0 -16 4.66212 1.14977   3
   2   0  16 6.39214 1.28558   4
   2   0 -16 5.13620 1.27987   3
   0   2 -16 6.68795 1.21036   3
   0   2  16 8.77625 1.49539   4
   2  -2 -16 6.91267 1.32966   3
   0  -2 -16 7.35905 1.40487   3
   1   2  16 3.88436 1.27853   4
  -2  -1 -16 4.29556 1.10600   3
   2   1 -16 2.01983 1.03856   3
   3  -2 -16 1.80880 1.21045   3
   1  -3 -16 2.88721 1.14585   3
   3  -1  16 4.10255 1.18871   4
  -1  -2 -16 4.13999 1.16898   3
  -1   3  16 2.60727 1.29975   4
   1   2 -16 1.42241 0.97172   3
   2  -3 -16 2.06527 1.09085   3
   3  -1 -16 2.29183 1.15812   3
   2   1  16 3.00274 1.17030   4
   0   3  16 4.69097 1.39931   4
   0  -3 -16 2.89230 1.15961   3
   3   0  16 2.53881 1.17535   4
   3  -3 -16 2.72210 1.18128   3
   3   0 -16 2.35666 1.08408   3
   0   0  17 -1.3870 1.05265   4
   0   0 -17 -0.6621 0.99759   3
   1   0  17 1.28739 1.08022   4
   1  -1  17 0.56767 1.07685   4
   1   0 -17 0.00551 1.10133   3
   0   1  17 -0.6792 0.97325   4
   0  -1 -17 -0.1060 0.96602   3
   0   1 -17 -0.2117 0.90707   3
  -1   0 -17 0.31756 0.95885   3
   1  -1 -17 0.20094 1.02117   3
   0   0   0    0.00    0.00   0
;
_shelx_res_checksum              42721
_shelx_res_file
;
TITL l0671e
CELL 0.71073 8.21539 8.21539 13.19723 90.0 90.0 120.0
ZERR       2 0.00035 0.00035  0.00084  0.0  0.0   0.0
LATT -1
SYMM x-y, x, z+0.5
SYMM -y, x-y, z
SYMM -x, -y, z+0.5
SYMM y-x, -x, z
SYMM y, y-x, z+0.5
SYMM y, x, z+0.5
SYMM y-x, y, z
SYMM -x, y-x, z+0.5
SYMM -y, -x, z
SYMM x-y, -y, z+0.5
SYMM x, x-y, z
SFAC C H Cl Fe N
UNIT 16 40 8 2 2
TEMP 17
L.S. 15
FMAP 2
PLAN -20
ACTA
BOND $H
CONF
DFIX 1.52 0.01 N1 C1 N1 C3 N1 C5 N1 C7
DFIX 2.50 0.01 C1 C3 C1 C5 C1 C7 C3 C5 C3 C7 C5 C7
DFIX 1.51 0.01 C1 C2 C3 C4 C5 C6 C7 C8
DFIX 2.57 0.01 N1 C2 N1 C4 N1 C6 N1 C8
ISOR 0.01 $C
WGHT    0.043800    0.020000
EXTI    0.028971
FVAR       0.92808
N1    5    0.666667    0.333333    0.250909    10.16667    0.05341    0.05341 =
         0.04750    0.00000    0.00000    0.02670
PART -1
C1    1    0.506393    0.135109    0.232852    10.16667    0.06247    0.05879 =
         0.07924   -0.00256   -0.00761    0.02236
AFIX  23
H1A   2    0.391368    0.128422    0.256430    10.16667   -1.20000
H1B   2    0.493908    0.113242    0.160310    10.16667   -1.20000
AFIX   0
C2    1    0.520746   -0.021568    0.281198    10.16667    0.04908    0.05356 =
         0.09035    0.03441    0.03238    0.03143
AFIX  33
H2A   2    0.410453   -0.139124    0.265494    10.16667   -1.50000
H2B   2    0.531095   -0.004009    0.353316    10.16667   -1.50000
H2C   2    0.629918   -0.022302    0.255868    10.16667   -1.50000
AFIX   0
C3    1    0.849273    0.319337    0.264957    10.16667    0.05892    0.07331 =
         0.08898    0.01528    0.01044    0.03963
AFIX  23
H3A   2    0.814997    0.197509    0.293482    10.16667   -1.20000
H3B   2    0.905544    0.328062    0.199109    10.16667   -1.20000
AFIX   0
C4    1    0.991754    0.470369    0.332629    10.16667    0.08429    0.03119 =
         0.08905   -0.02424   -0.03337    0.04483
AFIX  33
H4A   2    1.099785    0.455110    0.338944    10.16667   -1.50000
H4B   2    0.937654    0.461204    0.398332    10.16667   -1.50000
H4C   2    1.028911    0.591347    0.303874    10.16667   -1.50000
AFIX   0
C5    1    0.642806    0.422098    0.343529    10.16667    0.06891    0.05810 =
         0.05536   -0.01781    0.00742    0.02197
AFIX  23
H5A   2    0.761445    0.481555    0.379743    10.16667   -1.20000
H5B   2    0.551355    0.322789    0.386645    10.16667   -1.20000
AFIX   0
C6    1    0.582118    0.565378    0.330315    10.16667    0.07316    0.10303 =
         0.08943   -0.01301    0.00947    0.05068
AFIX  33
H6A   2    0.571299    0.610912    0.395520    10.16667   -1.50000
H6B   2    0.462619    0.508651    0.296586    10.16667   -1.50000
H6C   2    0.673609    0.668239    0.290384    10.16667   -1.50000
AFIX   0
C7    1    0.697273    0.454369    0.158873    10.16667    0.05046    0.06210 =
         0.06176    0.01795    0.00177    0.03162
AFIX  23
H7A   2    0.585826    0.464901    0.149319    10.16667   -1.20000
H7B   2    0.800699    0.579459    0.173257    10.16667   -1.20000
AFIX   0
C8    1    0.738862    0.389582    0.060241    10.16667    0.09975    0.08873 =
         0.05322   -0.00325    0.00278    0.05520
AFIX  33
H8A   2    0.757771    0.478332    0.007792    10.16667   -1.50000
H8B   2    0.634961    0.268682    0.042588    10.16667   -1.50000
H8C   2    0.850316    0.380509    0.067584    10.16667   -1.50000
AFIX   0
PART 0
FE1   4    0.000000    0.000000    0.508187    10.16667    0.06677    0.06677 =
         0.06128    0.00000    0.00000    0.03339
CL1   3    0.000000    0.000000    0.342596    10.16667    0.10895    0.10895 =
         0.06058    0.00000    0.00000    0.05448
CL2   3   -0.145297    0.145297    0.562312    10.50000    0.11343    0.11343 =
         0.10177   -0.00799    0.00799    0.07665
HKLF 4
REM  l0671e
REM R1 =  0.0231 for     630 Fo > 4sig(Fo)  and  0.0268 for all     723 data
REM     89 parameters refined using     67 restraints
END
WGHT      0.0448      0.0210
REM Highest difference peak  0.165,  deepest hole -0.119,  1-sigma level  0.032
Q1    1   0.6667  0.3333  0.4066  10.16667  0.05    0.16
Q2    1   0.3333 -0.3333  0.2084  10.16667  0.05    0.14
Q3    1   0.4913 -0.0174  0.2443  10.50000  0.05    0.13
Q4    1   0.7640 -0.1180  0.0151  10.50000  0.05    0.13
Q5    1   0.7979 -0.1011  0.0948  10.50000  0.05    0.13
Q6    1   0.5084  0.0169  0.2076  10.50000  0.05    0.11
Q7    1   0.4148  0.2074  0.3475  10.50000  0.05    0.10
Q8    1   0.3333 -0.3333  0.3363  10.16667  0.05    0.10
Q9    1   0.6493 -0.1754  0.1650  10.50000  0.05    0.10
Q10   1   1.0000  0.0000 -0.0841  10.16667  0.05    0.09
Q11   1   0.9407  0.0593 -0.1307  10.50000  0.05    0.07
Q12   1   0.5697 -0.2151  0.2843  10.50000  0.05    0.06
Q13   1   0.2933 -0.1564  0.2565  11.00000  0.05    0.06
Q14   1   0.9127  0.0873 -0.0609  10.50000  0.05    0.06
Q15   1   0.3579 -0.2842  0.4040  10.50000  0.05    0.06
Q16   1   0.9340  0.0660 -0.0109  10.50000  0.05    0.05
Q17   1   0.7732 -0.1134 -0.0640  10.50000  0.05    0.05
Q18   1   0.4219 -0.1563  0.3763  10.50000  0.05    0.05
Q19   1   1.2077  0.4154  0.3978  10.50000  0.05    0.05
Q20   1   0.6667  0.3333  0.1227  10.16667  0.05    0.05
;
_shelxl_version_number           .2013
#END Tags that were not found in dictionaries
loop_
_space_group_symop_operation_xyz
'x, y, z'
'x-y, x, z+1/2'
'-y, x-y, z'
'-x, -y, z+1/2'
'-x+y, -x, z'
'y, -x+y, z+1/2'
'y, x, z+1/2'
'-x+y, y, z'
'-x, -x+y, z+1/2'
'-y, -x, z'
'x-y, -y, z+1/2'
'x, x-y, z'
loop_
_atom_site_type_symbol
_atom_site_label
_atom_site_fract_x
_atom_site_fract_y
_atom_site_fract_z
_atom_site_U_iso_or_equiv
_atom_site_adp_type
_atom_site_calc_flag
_atom_site_occupancy
_atom_site_disorder_assembly
_atom_site_disorder_group
N N1 0.6667 0.3333 0.2509(4) 0.0514(9) Uani d 1 . .
C C1 0.506(2) 0.1351(13) 0.2329(13) 0.070(5) Uani d 0.1667 A -1
H H1A 0.3914 0.1284 0.2564 0.084 Uiso calc 0.1667 A -1
H H1B 0.4939 0.1132 0.1603 0.084 Uiso calc 0.1667 A -1
C C2 0.521(4) -0.0216(18) 0.2812(14) 0.062(7) Uani d 0.1667 A -1
H H2A 0.4105 -0.1391 0.2655 0.093 Uiso calc 0.1667 A -1
H H2B 0.5311 -0.0040 0.3533 0.093 Uiso calc 0.1667 A -1
H H2C 0.6299 -0.0223 0.2559 0.093 Uiso calc 0.1667 A -1
C C3 0.8493(18) 0.319(2) 0.2650(13) 0.071(5) Uani d 0.1667 A -1
H H3A 0.8150 0.1975 0.2935 0.085 Uiso calc 0.1667 A -1
H H3B 0.9055 0.3281 0.1991 0.085 Uiso calc 0.1667 A -1
C C4 0.992(3) 0.470(3) 0.333(3) 0.061(10) Uani d 0.1667 A -1
H H4A 1.0998 0.4551 0.3389 0.092 Uiso calc 0.1667 A -1
H H4B 0.9377 0.4612 0.3983 0.092 Uiso calc 0.1667 A -1
H H4C 1.0289 0.5913 0.3039 0.092 Uiso calc 0.1667 A -1
C C5 0.643(2) 0.422(2) 0.3435(8) 0.065(5) Uani d 0.1667 A -1
H H5A 0.7614 0.4816 0.3797 0.078 Uiso calc 0.1667 A -1
H H5B 0.5514 0.3228 0.3866 0.078 Uiso calc 0.1667 A -1
C C6 0.582(6) 0.565(5) 0.330(3) 0.086(12) Uani d 0.1667 A -1
H H6A 0.5713 0.6109 0.3955 0.128 Uiso calc 0.1667 A -1
H H6B 0.4626 0.5087 0.2966 0.128 Uiso calc 0.1667 A -1
H H6C 0.6736 0.6682 0.2904 0.128 Uiso calc 0.1667 A -1
C C7 0.6973(19) 0.4544(16) 0.1589(7) 0.057(4) Uani d 0.1667 A -1
H H7A 0.5858 0.4649 0.1493 0.068 Uiso calc 0.1667 A -1
H H7B 0.8007 0.5795 0.1733 0.068 Uiso calc 0.1667 A -1
C C8 0.739(2) 0.390(5) 0.0602(7) 0.077(7) Uani d 0.1667 A -1
H H8A 0.7578 0.4783 0.0078 0.115 Uiso calc 0.1667 A -1
H H8B 0.6350 0.2687 0.0426 0.115 Uiso calc 0.1667 A -1
H H8C 0.8503 0.3805 0.0676 0.115 Uiso calc 0.1667 A -1
Fe Fe1 0.0000 0.0000 0.50819(8) 0.0649(3) Uani d 1 . .
Cl Cl1 0.0000 0.0000 0.34260(12) 0.0928(8) Uani d 1 . .
Cl Cl2 -0.14530(8) 0.14530(8) 0.56231(13) 0.1007(4) Uani d 1 . .
loop_
_atom_site_aniso_label
_atom_site_aniso_U_11
_atom_site_aniso_U_22
_atom_site_aniso_U_33
_atom_site_aniso_U_12
_atom_site_aniso_U_13
_atom_site_aniso_U_23
N1 0.0534(12) 0.0534(12) 0.047(2) 0.0267(6) 0.000 0.000
C1 0.062(8) 0.059(8) 0.079(10) 0.022(6) -0.008(7) -0.003(7)
C2 0.049(15) 0.054(8) 0.090(12) 0.031(7) 0.032(10) 0.034(7)
C3 0.059(8) 0.073(8) 0.089(11) 0.040(7) 0.010(8) 0.015(9)
C4 0.084(14) 0.03(2) 0.089(15) 0.045(10) -0.033(11) -0.024(10)
C5 0.069(11) 0.058(10) 0.055(6) 0.022(9) 0.007(5) -0.018(6)
C6 0.07(2) 0.10(3) 0.089(18) 0.05(2) 0.009(14) -0.013(15)
C7 0.050(9) 0.062(6) 0.062(6) 0.032(5) 0.002(5) 0.018(5)
C8 0.100(11) 0.089(15) 0.053(4) 0.055(9) 0.003(6) -0.003(9)
Fe1 0.0668(4) 0.0668(4) 0.0613(5) 0.03339(18) 0.000 0.000
Cl1 0.1090(13) 0.1090(13) 0.0606(13) 0.0545(6) 0.000 0.000
Cl2 0.1134(7) 0.1134(7) 0.1018(7) 0.0767(7) 0.0080(3) -0.0080(3)
loop_
_atom_type_symbol
_atom_type_description
_atom_type_scat_dispersion_real
_atom_type_scat_dispersion_imag
_atom_type_scat_source
C C 0.0033 0.0016 'International Tables Vol C Tables 4.2.6.8 and 6.1.1.4'
H H 0.0000 0.0000 'International Tables Vol C Tables 4.2.6.8 and 6.1.1.4'
Cl Cl 0.1484 0.1585 'International Tables Vol C Tables 4.2.6.8 and 6.1.1.4'
Fe Fe 0.3463 0.8444 'International Tables Vol C Tables 4.2.6.8 and 6.1.1.4'
N N 0.0061 0.0033 'International Tables Vol C Tables 4.2.6.8 and 6.1.1.4'
loop_
_diffrn_orient_matrix_type
_diffrn_orient_matrix_UB_11
_diffrn_orient_matrix_UB_12
_diffrn_orient_matrix_UB_13
_diffrn_orient_matrix_UB_21
_diffrn_orient_matrix_UB_22
_diffrn_orient_matrix_UB_23
_diffrn_orient_matrix_UB_31
_diffrn_orient_matrix_UB_32
_diffrn_orient_matrix_UB_33
'Nonius RMAT' -0.1081025 -0.1109448 -0.0330182 0.0870893 -0.0431466 -0.0249854
-0.0219582 -0.0747162 0.0634565
loop_
_geom_angle_atom_site_label_1
_geom_angle_atom_site_label_2
_geom_angle_atom_site_label_3
_geom_angle_site_symmetry_1
_geom_angle_site_symmetry_3
_geom_angle
_geom_angle_publ_flag
C5 N1 C7 . . 111.0(6) ?
C5 N1 C1 . . 113.6(9) ?
C7 N1 C1 . . 110.5(8) ?
C5 N1 C3 . . 107.7(8) ?
C7 N1 C3 . . 107.0(8) ?
C1 N1 C3 . . 106.7(7) ?
C2 C1 N1 . . 117.3(11) ?
C2 C1 H1A . . 108.0 ?
N1 C1 H1A . . 108.0 ?
C2 C1 H1B . . 108.0 ?
N1 C1 H1B . . 108.0 ?
H1A C1 H1B . . 107.2 ?
C1 C2 H2A . . 109.5 ?
C1 C2 H2B . . 109.5 ?
H2A C2 H2B . . 109.5 ?
C1 C2 H2C . . 109.5 ?
H2A C2 H2C . . 109.5 ?
H2B C2 H2C . . 109.5 ?
C4 C3 N1 . . 112.8(11) ?
C4 C3 H3A . . 109.0 ?
N1 C3 H3A . . 109.0 ?
C4 C3 H3B . . 109.0 ?
N1 C3 H3B . . 109.0 ?
H3A C3 H3B . . 107.8 ?
C3 C4 H4A . . 109.5 ?
C3 C4 H4B . . 109.5 ?
H4A C4 H4B . . 109.5 ?
C3 C4 H4C . . 109.5 ?
H4A C4 H4C . . 109.5 ?
H4B C4 H4C . . 109.5 ?
N1 C5 C6 . . 117.8(13) ?
N1 C5 H5A . . 107.9 ?
C6 C5 H5A . . 107.9 ?
N1 C5 H5B . . 107.9 ?
C6 C5 H5B . . 107.9 ?
H5A C5 H5B . . 107.2 ?
C5 C6 H6A . . 109.5 ?
C5 C6 H6B . . 109.5 ?
H6A C6 H6B . . 109.5 ?
C5 C6 H6C . . 109.5 ?
H6A C6 H6C . . 109.5 ?
H6B C6 H6C . . 109.5 ?
C8 C7 N1 . . 117.0(13) ?
C8 C7 H7A . . 108.0 ?
N1 C7 H7A . . 108.0 ?
C8 C7 H7B . . 108.0 ?
N1 C7 H7B . . 108.0 ?
H7A C7 H7B . . 107.3 ?
C7 C8 H8A . . 109.5 ?
C7 C8 H8B . . 109.5 ?
H8A C8 H8B . . 109.5 ?
C7 C8 H8C . . 109.5 ?
H8A C8 H8C . . 109.5 ?
H8B C8 H8C . . 109.5 ?
Cl1 Fe1 Cl2 . 5 109.06(6) ?
Cl1 Fe1 Cl2 . 3 109.06(5) ?
Cl2 Fe1 Cl2 5 3 109.88(5) ?
Cl1 Fe1 Cl2 . . 109.06(5) y
Cl2 Fe1 Cl2 5 . 109.88(5) ?
Cl2 Fe1 Cl2 3 . 109.88(5) y
loop_
_geom_bond_atom_site_label_1
_geom_bond_atom_site_label_2
_geom_bond_site_symmetry_2
_geom_bond_distance
_geom_bond_publ_flag
N1 C5 . 1.486(9) ?
N1 C7 . 1.509(9) ?
N1 C1 . 1.516(10) ?
N1 C3 . 1.572(10) ?
C1 C2 . 1.493(13) ?
C1 H1A . 0.9700 ?
C1 H1B . 0.9700 ?
C2 H2A . 0.9600 ?
C2 H2B . 0.9600 ?
C2 H2C . 0.9600 ?
C3 C4 . 1.502(13) ?
C3 H3A . 0.9700 ?
C3 H3B . 0.9700 ?
C4 H4A . 0.9600 ?
C4 H4B . 0.9600 ?
C4 H4C . 0.9600 ?
C5 C6 . 1.500(14) ?
C5 H5A . 0.9700 ?
C5 H5B . 0.9700 ?
C6 H6A . 0.9600 ?
C6 H6B . 0.9600 ?
C6 H6C . 0.9600 ?
C7 C8 . 1.509(15) ?
C7 H7A . 0.9700 ?
C7 H7B . 0.9700 ?
C8 H8A . 0.9600 ?
C8 H8B . 0.9600 ?
C8 H8C . 0.9600 ?
Fe1 Cl1 . 2.1853(18) y
Fe1 Cl2 5 2.1874(12) ?
Fe1 Cl2 3 2.1874(12) ?
Fe1 Cl2 . 2.1874(12) y
loop_
_geom_torsion_atom_site_label_1
_geom_torsion_atom_site_label_2
_geom_torsion_atom_site_label_3
_geom_torsion_atom_site_label_4
_geom_torsion
C5 N1 C1 C2 -88.2(16)
C7 N1 C1 C2 146.3(15)
C3 N1 C1 C2 30(2)
C5 N1 C3 C4 -28(2)
C7 N1 C3 C4 91(2)
C1 N1 C3 C4 -150.6(19)
C7 N1 C5 C6 22(2)
C1 N1 C5 C6 -103(2)
C3 N1 C5 C6 139(2)
C5 N1 C7 C8 175.4(11)
C1 N1 C7 C8 -57.7(14)
C3 N1 C7 C8 58.1(13)
