#------------------------------------------------------------------------------
#$Date: 2015-07-29 04:42:08 +0300 (Wed, 29 Jul 2015) $
#$Revision: 152603 $
#$URL: svn://www.crystallography.net/cod/cif/2/02/00/2020067.cif $
#------------------------------------------------------------------------------
#
# This file is available in the Crystallography Open Database (COD),
# http://www.crystallography.net/. The original data for this entry
# were provided by IUCr Journals, http://journals.iucr.org/.
#
# The file may be used within the scientific community so long as
# proper attribution is given to the journal article from which the
# data were obtained.
#
data_2020067
loop_
_publ_author_name
'Subbulakshmi, Karanth N.'
'Narayana, Badiadka'
'Yathirajan, Hemmige S.'
'Akkurt, Mehmet'
'\,Celik, \"Omer'
'Ersanl\?i, Cem C\"uneyt'
'Glidewell, Christopher'
_publ_section_title
;
 Dihydrooxazolones and dihydroimidazolones derived from acylglycines:
 syntheses, molecular strctures and supramolecular assembly
;
_journal_coeditor_code           SK3595
_journal_issue                   8
_journal_name_full               'Acta Crystallographica Section C'
_journal_page_first
;
;
_journal_paper_doi               10.1107/S2053229615013637
_journal_volume                  71
_journal_year                    2015
_chemical_formula_iupac          'C17 H13 N O2'
_chemical_formula_moiety         'C17 H13 N O2'
_chemical_formula_sum            'C17 H13 N O2'
_chemical_formula_weight         263.28
_chemical_name_systematic
;
4-Benzylidene-2-(4-methylphenyl)-1,3-oxazol-5(4<i>H</i>)-one
;
_space_group_crystal_system      triclinic
_space_group_IT_number           2
_space_group_name_Hall           '-P 1'
_space_group_name_H-M_alt        'P -1'
_symmetry_space_group_name_Hall  '-P 1'
_symmetry_space_group_name_H-M   'P -1'
_atom_sites_solution_hydrogens   geom
_audit_creation_method           SHELXL2014
_cell_angle_alpha                109.136(4)
_cell_angle_beta                 109.397(4)
_cell_angle_gamma                97.320(4)
_cell_formula_units_Z            2
_cell_length_a                   7.9940(4)
_cell_length_b                   9.0648(4)
_cell_length_c                   10.7692(6)
_cell_measurement_reflns_used    3867
_cell_measurement_temperature    296(2)
_cell_measurement_theta_max      30.596
_cell_measurement_theta_min      2.183
_cell_volume                     670.52(7)
_computing_cell_refinement
;
SAINT (Bruker, 2007)
;
_computing_data_collection
;
APEX2 (Bruker, 2007)
;
_computing_data_reduction
;
SAINT (Bruker, 2007)
;
_computing_molecular_graphics
;
PLATON (Spek, 2009)
;
_computing_publication_material
;
SHELXL2014 (Sheldrick, 2015) and PLATON (Spek, 2009)
;
_computing_structure_refinement
;
SHELXL2014 (Sheldrick, 2015)
;
_computing_structure_solution
;
SHELXS97 (Sheldrick, 2008)
;
_diffrn_ambient_temperature      296(2)
_diffrn_measured_fraction_theta_full 0.963
_diffrn_measured_fraction_theta_max 0.958
_diffrn_measurement_device_type  'Bruker APEXII CCD'
_diffrn_measurement_method       '\f and \w scans'
_diffrn_radiation_monochromator  graphite
_diffrn_radiation_type           MoK\a
_diffrn_radiation_wavelength     0.71073
_diffrn_reflns_av_R_equivalents  0.0429
_diffrn_reflns_limit_h_max       10
_diffrn_reflns_limit_h_min       -10
_diffrn_reflns_limit_k_max       11
_diffrn_reflns_limit_k_min       -11
_diffrn_reflns_limit_l_max       13
_diffrn_reflns_limit_l_min       -13
_diffrn_reflns_number            10476
_diffrn_reflns_theta_full        25.242
_diffrn_reflns_theta_max         26.548
_diffrn_reflns_theta_min         2.183
_diffrn_standards_number         0
_exptl_absorpt_coefficient_mu    0.086
_exptl_absorpt_correction_type   none
_exptl_crystal_colour            yellow
_exptl_crystal_density_diffrn    1.304
_exptl_crystal_description       block
_exptl_crystal_F_000             276
_exptl_crystal_size_max          0.200
_exptl_crystal_size_mid          0.150
_exptl_crystal_size_min          0.150
_refine_diff_density_max         0.156
_refine_diff_density_min         -0.205
_refine_ls_extinction_method     none
_refine_ls_goodness_of_fit_ref   1.002
_refine_ls_hydrogen_treatment    constr
_refine_ls_matrix_type           full
_refine_ls_number_parameters     182
_refine_ls_number_reflns         2677
_refine_ls_number_restraints     0
_refine_ls_restrained_S_all      1.002
_refine_ls_R_factor_all          0.0940
_refine_ls_R_factor_gt           0.0515
_refine_ls_shift/su_max          0.000
_refine_ls_shift/su_mean         0.000
_refine_ls_structure_factor_coef Fsqd
_refine_ls_weighting_details
'w=1/[\s^2^(Fo^2^)+(0.0761P)^2^+0.0683P] where P=(Fo^2^+2Fc^2^)/3'
_refine_ls_weighting_scheme      calc
_refine_ls_wR_factor_gt          0.1257
_refine_ls_wR_factor_ref         0.1503
_reflns_number_gt                1604
_reflns_number_total             2677
_reflns_threshold_expression     'I > 2\s(I)'
_cod_data_source_file            sk3595sup1.cif
_cod_data_source_block           I
_cod_original_cell_volume        670.52(6)
_cod_database_code               2020067
_shelx_space_group_comment
;
The symmetry employed for this shelxl refinement is uniquely defined
by the following loop, which should always be used as a source of
symmetry information in preference to the above space-group names.
They are only intended as comments.
;
_shelx_estimated_absorpt_t_min   0.983
_shelx_estimated_absorpt_t_max   0.987
_shelx_hkl_file
;
  -1   0   0   35.05    1.11
  -1   0   0   38.45    0.98
  -1   0   0   35.23    1.39
  -1   0   0   35.93    1.73
  -1   0   0   35.96    0.98
   1   0   0   37.71    1.00
   1   0   0   40.27    1.08
   1   0   0   37.13    1.73
   1   0   0   37.05    0.98
   1   0   0   34.26    2.04
  -2   0   0    3.06    0.11
  -2   0   0    2.82    0.11
  -2   0   0    3.29    0.23
  -2   0   0    2.86    0.16
  -2   0   0    2.87    0.10
  -2   0   0    2.94    0.16
   2   0   0    3.09    0.10
   2   0   0    3.10    0.24
   2   0   0    3.71    0.31
   2   0   0    2.86    0.12
   2   0   0    2.86    0.11
   2   0   0    3.07    0.10
  -3   0   0    0.11    0.04
  -3   0   0    0.12    0.04
  -3   0   0    0.04    0.04
  -3   0   0    0.13    0.07
  -3   0   0    0.21    0.09
  -3   0   0    0.15    0.04
   3   0   0    0.03    0.17
   3   0   0    0.15    0.05
   3   0   0    0.13    0.03
   3   0   0    0.16    0.05
   3   0   0    0.15    0.03
  -4   0   0    6.30    0.42
  -4   0   0    6.08    0.32
  -4   0   0    6.33    0.21
  -4   0   0    5.93    0.23
  -4   0   0    6.06    0.21
  -4   0   0    6.07    0.22
   4   0   0    6.08    0.22
   4   0   0    6.19    0.24
   4   0   0    6.21    0.24
   4   0   0    6.07    0.22
   4   0   0    6.25    0.20
  -5   0   0    0.35    0.07
  -5   0   0    0.22    0.15
  -5   0   0    0.18    0.06
  -5   0   0    0.26    0.10
  -5   0   0    0.32    0.07
  -5   0   0    0.27    0.06
  -5   0   0    0.28    0.06
   5   0   0    0.31    0.06
   5   0   0    0.20    0.07
   5   0   0    0.25    0.05
   5   0   0    0.16    0.08
  -6   0   0    0.80    0.22
  -6   0   0    0.97    0.10
  -6   0   0    1.16    0.18
  -6   0   0    0.80    0.10
  -6   0   0    1.01    0.12
   6   0   0    0.96    0.09
   6   0   0    0.92    0.13
   6   0   0    1.08    0.11
   6   0   0    1.01    0.11
  -7   0   0   -0.01    0.08
  -7   0   0   -0.13    0.08
  -7   0   0    0.01    0.12
   7   0   0   -0.08    0.11
   7   0   0    0.01    0.06
  -8   0   0   -0.01    0.09
  -8   0   0   -0.12    0.13
  -8   0   0    0.06    0.11
   8   0   0    0.13    0.07
   8   0   0    0.06    0.13
  -9   0   0    0.16    0.11
  -9   0   0    0.15    0.14
  -9   0   0    0.10    0.16
   9   0   0    0.37    0.09
   9   0   0    0.31    0.17
 -10   0   0   -0.12    0.18
 -10   0   0    0.02    0.11
  10   0   0    0.12    0.10
  10   0   0   -0.34    0.17
  10  -1   0    0.32    0.18
  10  -1   0    0.00    0.09
 -10   1   0    0.28    0.12
 -10   1   0   -0.16    0.19
   9  -1   0    0.46    0.17
   9  -1   0    0.56    0.10
  -9   1   0    0.49    0.14
  -9   1   0    0.21    0.19
  -9   1   0    0.35    0.12
   8  -1   0    0.06    0.07
   8  -1   0    0.04    0.13
  -8   1   0    0.03    0.15
  -8   1   0   -0.05    0.09
  -8   1   0    0.03    0.11
   7  -1   0    1.70    0.17
   7  -1   0    1.42    0.12
  -7   1   0    1.51    0.23
  -7   1   0    1.02    0.29
  -7   1   0    1.74    0.15
  -7   1   0    1.57    0.18
   6  -1   0   -0.04    0.08
   6  -1   0    0.03    0.06
   6  -1   0   -0.10    0.09
   6  -1   0   -0.02    0.05
  -6   1   0    0.06    0.07
  -6   1   0    0.00    0.07
  -6   1   0    0.08    0.13
  -6   1   0   -0.06    0.17
  -6   1   0    0.01    0.11
   5  -1   0    0.78    0.07
   5  -1   0    0.81    0.07
   5  -1   0    0.73    0.10
   5  -1   0    0.71    0.08
   5  -1   0    0.77    0.08
  -5   1   0    0.92    0.16
  -5   1   0    0.88    0.09
  -5   1   0    0.76    0.08
  -5   1   0    0.76    0.09
  -5   1   0    0.61    0.18
  -5   1   0    0.67    0.15
   4  -1   0   28.37    0.80
   4  -1   0   29.15    0.79
   4  -1   0   28.31    0.76
   4  -1   0   28.03    0.88
   4  -1   0   28.80    0.85
  -4   1   0   28.67    0.77
  -4   1   0   28.36    0.88
  -4   1   0   28.31    1.16
  -4   1   0   28.91    1.46
  -4   1   0   28.98    0.83
  -4   1   0   29.15    0.80
   3  -1   0    6.07    0.23
   3  -1   0    6.34    0.20
   3  -1   0    5.89    0.39
   3  -1   0    6.46    0.20
   3  -1   0    6.42    0.19
  -3   1   0    6.33    0.20
  -3   1   0    6.16    0.21
  -3   1   0    6.35    0.22
  -3   1   0    6.34    0.32
  -3   1   0    6.56    0.41
  -3   1   0    6.31    0.21
   2  -1   0    1.25    0.07
   2  -1   0    1.04    0.21
   2  -1   0    1.33    0.06
   2  -1   0    1.26    0.07
   2  -1   0    1.32    0.06
  -2   1   0    1.32    0.07
  -2   1   0    1.23    0.24
  -2   1   0    1.29    0.11
  -2   1   0    1.20    0.16
  -2   1   0    1.39    0.07
  -2   1   0    1.29    0.07
   1  -1   0   85.38    2.38
   1  -1   0   81.67    2.16
   1  -1   0   88.67    2.38
  -1   1   0   79.29    3.13
  -1   1   0   75.16    3.82
  -1   1   0   78.50    2.16
  -1   1   0   78.76    2.37
  -1   1   0   85.22    2.18
   0  -1   0   40.18    1.64
   0  -1   0   44.67    1.17
   0  -1   0   42.71    1.27
   0   1   0   45.27    1.27
   0   1   0   44.80    1.16
  -1  -1   0   18.42    0.52
  -1  -1   0   17.63    0.58
  -1  -1   0   17.65    0.91
  -1  -1   0   18.71    0.50
  -1  -1   0   17.84    0.83
   1   1   0   20.91    0.92
   1   1   0   18.98    0.50
   1   1   0   20.77    0.57
   1   1   0   20.87    0.52
  -2  -1   0   43.23    1.16
  -2  -1   0   42.77    1.28
  -2  -1   0   43.15    2.06
  -2  -1   0   41.99    1.16
  -2  -1   0   43.65    1.12
  -2  -1   0   41.52    1.65
   2   1   0   44.05    1.12
   2   1   0   44.26    1.17
   2   1   0   44.68    2.07
   2   1   0   43.05    1.29
  -3  -1   0    9.02    0.27
  -3  -1   0    9.06    0.50
  -3  -1   0    8.71    0.26
  -3  -1   0    8.52    0.27
  -3  -1   0    8.69    0.30
  -3  -1   0    8.55    0.39
   3   1   0    8.89    0.26
   3   1   0    8.64    0.31
   3   1   0    9.10    0.52
   3   1   0    8.80    0.28
  -4  -1   0   10.81    0.49
  -4  -1   0   10.92    0.32
  -4  -1   0   10.80    0.34
  -4  -1   0   11.51    0.53
  -4  -1   0   11.05    0.62
  -4  -1   0   10.97    0.34
   4   1   0   10.85    0.36
   4   1   0   10.61    0.34
   4   1   0   10.64    0.38
   4   1   0   10.68    0.32
  -5  -1   0    0.01    0.05
  -5  -1   0   -0.03    0.06
  -5  -1   0    0.03    0.05
  -5  -1   0   -0.11    0.12
  -5  -1   0    0.05    0.06
  -5  -1   0   -0.02    0.07
   5   1   0    0.08    0.08
   5   1   0    0.04    0.07
   5   1   0    0.02    0.04
   5   1   0    0.07    0.05
  -6  -1   0    0.85    0.15
  -6  -1   0    0.88    0.11
  -6  -1   0    0.82    0.09
  -6  -1   0    0.70    0.21
  -6  -1   0    0.92    0.11
   6   1   0    0.74    0.11
   6   1   0    1.00    0.14
   6   1   0    0.88    0.11
   6   1   0    0.87    0.09
  -7  -1   0    0.20    0.09
  -7  -1   0    0.50    0.12
  -7  -1   0    0.34    0.12
  -7  -1   0   -0.27    0.24
   7   1   0    0.50    0.08
   7   1   0    0.11    0.13
  -8  -1   0    0.25    0.10
  -8  -1   0    0.02    0.12
  -8  -1   0   -0.11    0.09
   8   1   0    0.00    0.08
   8   1   0   -0.23    0.12
  -9  -1   0    0.18    0.14
  -9  -1   0    0.00    0.10
  -9  -1   0   -0.21    0.13
   9   1   0   -0.02    0.09
   9   1   0   -0.33    0.15
 -10  -1   0    0.04    0.10
  10   1   0    0.03    0.10
  10   1   0   -0.09    0.18
  10  -2   0   -0.33    0.16
 -10   2   0   -0.11    0.24
 -10   2   0   -0.05    0.11
   9  -2   0    0.07    0.08
   9  -2   0    0.02    0.15
  -9   2   0   -0.02    0.10
  -9   2   0    0.14    0.12
  -9   2   0   -0.23    0.19
   8  -2   0    0.52    0.09
   8  -2   0    0.61    0.15
  -8   2   0    0.46    0.12
  -8   2   0    0.68    0.12
  -8   2   0    0.64    0.22
   7  -2   0    0.06    0.08
   7  -2   0   -0.05    0.06
   7  -2   0    0.10    0.11
  -7   2   0    0.08    0.09
  -7   2   0   -0.23    0.21
  -7   2   0   -0.11    0.15
  -7   2   0    0.03    0.09
   6  -2   0    3.67    0.16
   6  -2   0    3.61    0.18
   6  -2   0    3.30    0.17
   6  -2   0    3.86    0.21
  -6   2   0    3.35    0.37
  -6   2   0    3.53    0.34
  -6   2   0    3.76    0.46
  -6   2   0    3.44    0.31
  -6   2   0    3.68    0.20
  -6   2   0    3.76    0.18
   5  -2   0    0.45    0.06
   5  -2   0    0.52    0.07
   5  -2   0    0.47    0.09
   5  -2   0    0.50    0.08
   5  -2   0    0.53    0.08
  -5   2   0    0.56    0.08
  -5   2   0    0.53    0.07
  -5   2   0    0.39    0.19
  -5   2   0    0.46    0.14
  -5   2   0    0.44    0.08
  -5   2   0    0.38    0.40
   4  -2   0    1.53    0.10
   4  -2   0    1.73    0.10
   4  -2   0    1.60    0.12
   4  -2   0    1.60    0.08
   4  -2   0    1.63    0.08
  -4   2   0    1.59    0.10
  -4   2   0    1.48    0.11
  -4   2   0    1.77    0.20
  -4   2   0    1.60    0.28
  -4   2   0    1.80    0.28
  -4   2   0    1.68    0.10
   3  -2   0    1.06    0.09
   3  -2   0    1.19    0.07
   3  -2   0    1.19    0.06
   3  -2   0    1.10    0.17
   3  -2   0    1.08    0.08
  -3   2   0    1.17    0.08
  -3   2   0    1.21    0.08
  -3   2   0    1.22    0.08
  -3   2   0    1.03    0.08
  -3   2   0    0.96    0.16
  -3   2   0    1.08    0.15
  -3   2   0    1.13    0.07
   2  -2   0    0.71    0.06
   2  -2   0    0.73    0.05
   2  -2   0    0.60    0.10
   2  -2   0    0.75    0.10
   2  -2   0    0.74    0.06
  -2   2   0    0.79    0.06
  -2   2   0    0.54    0.17
  -2   2   0    0.60    0.06
  -2   2   0    0.81    0.05
  -2   2   0    0.73    0.06
  -2   2   0    0.73    0.10
   1  -2   0    0.84    0.04
   1  -2   0    0.84    0.05
   1  -2   0    0.66    0.09
   1  -2   0    0.80    0.05
  -1   2   0    0.79    0.05
  -1   2   0    0.88    0.05
  -1   2   0    0.76    0.05
  -1   2   0    1.25    0.31
  -1   2   0    0.51    0.15
   0  -2   0   24.26    0.61
   0  -2   0   22.78    0.90
   0  -2   0   22.37    0.70
   0  -2   0   24.26    0.65
   0   2   0   23.87    0.64
   0   2   0   23.19    0.70
   0   2   0   24.38    1.40
   0   2   0   22.74    0.62
  -1  -2   0    0.57    0.05
  -1  -2   0    0.65    0.06
  -1  -2   0    0.58    0.05
  -1  -2   0    0.54    0.06
   1   2   0    0.24    0.15
   1   2   0    0.53    0.05
   1   2   0    0.50    0.06
   1   2   0    0.54    0.05
  -2  -2   0    0.31    0.04
  -2  -2   0    0.56    0.14
  -2  -2   0    0.44    0.09
  -2  -2   0    0.33    0.05
   2   2   0    0.35    0.04
   2   2   0    0.39    0.09
   2   2   0    0.37    0.06
  -3  -2   0    4.25    0.23
  -3  -2   0    4.25    0.15
  -3  -2   0    4.17    0.16
  -3  -2   0    4.35    0.21
  -3  -2   0    4.46    0.29
  -3  -2   0    4.25    0.18
   3   2   0    4.13    0.19
   3   2   0    3.96    0.17
   3   2   0    4.12    0.15
   3   2   0    4.04    0.32
  -4  -2   0    0.81    0.09
  -4  -2   0    0.80    0.08
  -4  -2   0    0.97    0.10
  -4  -2   0    0.84    0.08
  -4  -2   0    0.84    0.12
  -4  -2   0    0.87    0.20
  -4  -2   0    0.91    0.08
   4   2   0    0.83    0.10
   4   2   0    0.88    0.09
   4   2   0    0.92    0.09
   4   2   0    0.85    0.08
  -5  -2   0    1.11    0.10
  -5  -2   0    1.08    0.37
  -5  -2   0    0.90    0.13
  -5  -2   0    0.96    0.23
  -5  -2   0    1.03    0.10
   5   2   0    0.97    0.13
   5   2   0    0.81    0.10
   5   2   0    0.93    0.10
   5   2   0    0.86    0.09
  -6  -2   0   -0.21    0.17
  -6  -2   0    0.06    0.09
  -6  -2   0   -0.12    0.07
  -6  -2   0    0.08    0.09
   6   2   0    0.09    0.11
   6   2   0   -0.05    0.06
  -7  -2   0   -0.02    0.08
  -7  -2   0    0.01    0.10
  -7  -2   0   -0.02    0.10
   7   2   0   -0.09    0.14
   7   2   0    0.00    0.07
  -8  -2   0    1.03    0.22
  -8  -2   0    0.89    0.12
  -8  -2   0    1.20    0.17
   8   2   0    1.02    0.13
   8   2   0    1.12    0.20
  -9  -2   0    0.03    0.10
  -9  -2   0    0.09    0.14
   9   2   0    0.08    0.10
   9   2   0   -0.10    0.17
  10  -3   0   -0.19    0.15
 -10   3   0   -0.02    0.12
 -10   3   0   -0.56    0.24
   9  -3   0    0.03    0.08
   9  -3   0   -0.10    0.13
  -9   3   0    0.00    0.10
  -9   3   0   -0.19    0.22
   8  -3   0    0.01    0.07
   8  -3   0    0.11    0.13
  -8   3   0    0.30    0.12
  -8   3   0   -0.01    0.10
  -8   3   0    0.02    0.19
   7  -3   0    0.81    0.12
   7  -3   0    0.71    0.09
   7  -3   0    0.76    0.13
  -7   3   0    0.18    0.26
  -7   3   0    0.70    0.12
  -7   3   0    0.62    0.21
  -7   3   0    0.71    0.12
   6  -3   0    0.37    0.08
   6  -3   0    0.51    0.11
   6  -3   0    0.38    0.06
   6  -3   0    0.47    0.08
  -6   3   0    0.23    0.22
  -6   3   0    0.39    0.12
  -6   3   0    0.49    0.10
  -6   3   0    0.32    0.18
  -6   3   0    0.36    0.09
   5  -3   0    0.23    0.05
   5  -3   0    0.29    0.07
   5  -3   0    0.26    0.07
   5  -3   0    0.29    0.07
   5  -3   0    0.28    0.05
  -5   3   0    0.23    0.06
  -5   3   0    0.37    0.08
  -5   3   0    0.34    0.15
  -5   3   0    0.19    0.18
  -5   3   0    0.25    0.10
   4  -3   0    0.20    0.04
   4  -3   0    0.28    0.04
   4  -3   0    0.26    0.07
   4  -3   0    0.21    0.06
   4  -3   0    0.22    0.06
  -4   3   0    0.30    0.12
  -4   3   0    0.23    0.06
  -4   3   0    0.31    0.06
  -4   3   0    0.24    0.14
  -4   3   0    0.21    0.05
  -4   3   0    0.28    0.07
  -4   3   0    0.22    0.17
   3  -3   0   12.95    0.43
   3  -3   0   13.00    0.40
   3  -3   0   12.17    0.74
   3  -3   0   13.41    0.37
   3  -3   0   13.65    0.41
  -3   3   0   13.16    0.39
  -3   3   0   13.26    0.79
  -3   3   0   13.33    0.38
  -3   3   0   13.76    0.59
  -3   3   0   13.21    0.42
  -3   3   0   12.37    0.84
  -3   3   0   13.19    0.38
   2  -3   0    2.57    0.21
   2  -3   0    2.76    0.13
   2  -3   0    3.10    0.11
   2  -3   0    2.96    0.10
  -2   3   0    2.94    0.11
  -2   3   0    2.19    0.22
  -2   3   0    2.78    0.11
  -2   3   0    2.77    0.19
  -2   3   0    2.97    0.11
  -2   3   0    3.01    0.12
   1  -3   0    8.55    0.24
   1  -3   0    8.64    0.44
   1  -3   0    8.72    0.28
   1  -3   0    8.61    0.25
  -1   3   0    8.17    0.27
  -1   3   0    8.32    0.25
  -1   3   0    8.35    0.24
  -1   3   0    8.30    0.52
  -1   3   0    8.01    0.36
  -1   3   0    7.33    0.44
   0  -3   0   15.28    0.64
   0  -3   0   15.86    0.49
   0  -3   0   16.15    0.45
   0  -3   0   15.87    0.43
   0   3   0   16.00    0.44
   0   3   0   16.24    0.95
   0   3   0   16.31    0.50
   0   3   0   15.90    0.50
  -1  -3   0    1.27    0.07
  -1  -3   0    1.21    0.09
  -1  -3   0    1.03    0.08
  -1  -3   0    1.21    0.07
   1   3   0    1.36    0.17
   1   3   0    1.26    0.09
   1   3   0    1.20    0.07
  -2  -3   0    0.95    0.07
  -2  -3   0    1.00    0.10
  -2  -3   0    1.18    0.15
  -2  -3   0    1.05    0.09
  -2  -3   0    1.03    0.08
   2   3   0    0.96    0.09
   2   3   0    0.87    0.08
   2   3   0    1.14    0.08
   2   3   0    0.88    0.16
  -3  -3   0   -0.08    0.05
  -3  -3   0    0.07    0.08
  -3  -3   0    0.05    0.05
  -3  -3   0    0.05    0.05
  -3  -3   0   -0.16    0.08
  -3  -3   0    0.06    0.05
  -3  -3   0    0.06    0.04
   3   3   0    0.08    0.06
   3   3   0    0.06    0.04
   3   3   0    0.03    0.04
   3   3   0   -0.01    0.06
  -4  -3   0    1.37    0.13
  -4  -3   0    1.44    0.37
  -4  -3   0    1.38    0.12
  -4  -3   0    1.27    0.13
  -4  -3   0    1.34    0.11
  -4  -3   0    1.32    0.11
  -4  -3   0    1.52    0.12
   4   3   0    1.26    0.11
   4   3   0    1.31    0.10
   4   3   0    1.27    0.11
   4   3   0    1.44    0.15
  -5  -3   0    0.31    0.29
  -5  -3   0    0.39    0.07
  -5  -3   0    0.30    0.08
  -5  -3   0    0.35    0.09
  -5  -3   0    0.41    0.10
   5   3   0    0.39    0.08
   5   3   0    0.39    0.11
   5   3   0    0.37    0.09
  -6  -3   0    0.12    0.16
  -6  -3   0    0.04    0.09
  -6  -3   0   -0.33    0.29
  -6  -3   0    0.01    0.08
   6   3   0   -0.01    0.07
   6   3   0   -0.06    0.12
  -7  -3   0    0.19    0.09
  -7  -3   0    0.27    0.12
  -7  -3   0   -0.20    0.33
  -7  -3   0    0.23    0.12
   7   3   0    0.72    0.18
   7   3   0    0.19    0.09
  -8  -3   0    0.12    0.10
  -8  -3   0    0.39    0.14
   8   3   0    0.18    0.10
   8   3   0    0.07    0.18
  -9  -3   0    0.34    0.15
  -9  -3   0    0.12    0.11
   9   3   0   -0.19    0.18
   9   3   0    0.03    0.10
  10  -4   0   -0.14    0.42
 -10   4   0   -0.38    0.27
 -10   4   0    0.11    0.12
   9  -4   0    0.48    0.36
   9  -4   0    0.24    0.08
  -9   4   0   -0.01    0.26
  -9   4   0    0.17    0.11
   8  -4   0    0.30    0.08
   8  -4   0    0.35    0.20
  -8   4   0    0.28    0.11
  -8   4   0    0.35    0.11
  -8   4   0    0.34    0.24
   7  -4   0    1.47    0.12
   7  -4   0    1.51    0.32
   7  -4   0    1.60    0.16
  -7   4   0    1.75    0.18
  -7   4   0    1.59    0.15
  -7   4   0    1.12    0.32
  -7   4   0    1.59    0.27
   6  -4   0    6.12    0.52
   6  -4   0    5.38    0.21
   6  -4   0    5.94    0.26
  -6   4   0    6.01    0.24
  -6   4   0    5.52    0.23
  -6   4   0    5.71    0.27
  -6   4   0    5.80    0.43
  -6   4   0    6.06    0.58
   5  -4   0    2.11    0.11
   5  -4   0    2.14    0.13
   5  -4   0    2.34    0.16
   5  -4   0    2.18    0.11
  -5   4   0    1.92    0.40
  -5   4   0    2.42    0.15
  -5   4   0    2.07    0.71
  -5   4   0    2.10    0.12
  -5   4   0    1.98    0.32
  -5   4   0    2.39    0.15
   4  -4   0    3.22    0.13
   4  -4   0    3.12    0.13
   4  -4   0    3.16    0.15
   4  -4   0    3.30    0.17
  -4   4   0    3.11    0.14
  -4   4   0    3.25    0.15
  -4   4   0    3.37    0.34
  -4   4   0    3.15    0.15
  -4   4   0    3.26    0.16
  -4   4   0    3.46    0.27
   3  -4   0   28.41    0.83
   3  -4   0   29.35    0.86
   3  -4   0   28.46    0.77
   3  -4   0   28.20    0.89
  -3   4   0   29.80    0.81
  -3   4   0   29.59    0.79
  -3   4   0   29.39    1.46
  -3   4   0   29.53    0.81
  -3   4   0   29.28    1.18
  -3   4   0   28.61    0.89
   2  -4   0    1.80    0.08
   2  -4   0    1.58    0.10
   2  -4   0    1.71    0.16
   2  -4   0    1.58    0.10
   2  -4   0    1.74    0.08
  -2   4   0    1.46    0.19
  -2   4   0    1.73    0.09
  -2   4   0    1.69    0.16
  -2   4   0    1.68    0.11
  -2   4   0    1.82    0.24
  -2   4   0    1.71    0.09
  -2   4   0    1.70    0.15
   1  -4   0    1.79    0.09
   1  -4   0    1.80    0.10
   1  -4   0    1.73    0.08
   1  -4   0    1.97    0.10
  -1   4   0    1.76    0.09
  -1   4   0    1.67    0.10
  -1   4   0    1.62    0.17
  -1   4   0    1.69    0.13
  -1   4   0    1.74    0.12
   0  -4   0    0.00    0.03
   0  -4   0   -0.01    0.03
   0  -4   0   -0.02    0.03
   0  -4   0    0.02    0.05
   0  -4   0    0.02    0.03
   0   4   0   -0.04    0.04
   0   4   0    0.03    0.04
   0   4   0   -0.02    0.04
   0   4   0   -0.12    0.17
   0   4   0    0.07    0.04
  -1  -4   0   12.18    0.39
  -1  -4   0   11.98    0.34
  -1  -4   0   12.32    0.37
  -1  -4   0   11.53    0.40
  -1  -4   0   11.71    0.51
   1   4   0   12.46    0.40
   1   4   0   12.09    0.35
   1   4   0   11.62    0.45
  -2  -4   0   21.11    0.58
  -2  -4   0   21.14    0.61
  -2  -4   0   20.89    0.67
  -2  -4   0   21.22    0.63
  -2  -4   0   21.31    0.65
  -2  -4   0   20.91    0.86
   2   4   0   20.49    0.60
   2   4   0   20.75    0.65
   2   4   0   20.11    0.67
   2   4   0   21.79    0.59
  -3  -4   0    3.21    0.14
  -3  -4   0    3.26    0.15
  -3  -4   0    3.28    0.15
  -3  -4   0    3.24    0.18
  -3  -4   0    3.27    0.17
  -3  -4   0    3.33    0.20
   3   4   0    3.25    0.19
   3   4   0    3.31    0.15
   3   4   0    3.17    0.16
   3   4   0    3.08    0.16
  -4  -4   0    1.90    0.15
  -4  -4   0    2.00    0.26
  -4  -4   0    1.76    0.16
  -4  -4   0    1.48    0.12
  -4  -4   0    1.57    0.22
   4   4   0    1.84    0.15
   4   4   0    1.75    0.12
   4   4   0    1.63    0.15
   4   4   0    1.73    0.17
  -5  -4   0    0.05    0.08
  -5  -4   0   -0.07    0.06
  -5  -4   0    0.02    0.07
  -5  -4   0   -0.16    0.10
   5   4   0    0.04    0.11
   5   4   0    0.03    0.07
  -6  -4   0    0.24    0.19
  -6  -4   0    0.21    0.08
  -6  -4   0    0.16    0.10
  -6  -4   0   -0.05    0.14
   6   4   0    0.05    0.07
   6   4   0    0.29    0.15
  -7  -4   0    0.13    0.09
  -7  -4   0    0.00    0.22
   7   4   0   -0.04    0.15
   7   4   0    0.06    0.09
  -8  -4   0    0.09    0.14
  -8  -4   0    0.13    0.10
   8   4   0    0.26    0.11
   8   4   0    0.21    0.19
  10  -5   0   -0.09    0.16
 -10   5   0    0.08    0.12
 -10   5   0   -0.55    0.29
   9  -5   0    0.07    0.14
   9  -5   0   -0.04    0.07
  -9   5   0    0.13    0.12
  -9   5   0   -0.34    0.26
   8  -5   0   -0.02    0.12
   8  -5   0    0.14    0.07
  -8   5   0    0.08    0.11
  -8   5   0    0.11    0.11
  -8   5   0   -0.04    0.24
   7  -5   0    1.38    0.16
   7  -5   0    1.03    0.10
  -7   5   0    0.84    0.30
  -7   5   0    0.95    0.13
  -7   5   0    0.74    0.25
  -7   5   0    1.31    0.15
   6  -5   0    0.95    0.13
   6  -5   0    0.92    0.09
   6  -5   0    0.89    0.12
  -6   5   0    1.03    0.57
  -6   5   0    0.98    0.13
  -6   5   0    0.75    0.37
  -6   5   0    0.91    0.13
  -6   5   0    0.93    0.10
   5  -5   0    0.21    0.05
   5  -5   0    0.19    0.07
   5  -5   0    0.25    0.08
  -5   5   0    0.25    0.27
  -5   5   0    0.22    0.08
  -5   5   0    0.35    0.08
  -5   5   0    0.17    0.16
  -5   5   0    0.16    0.18
  -5   5   0    0.27    0.09
  -5   5   0    0.13    0.06
   4  -5   0    0.39    0.06
   4  -5   0    0.44    0.06
   4  -5   0    0.44    0.07
   4  -5   0    0.39    0.08
  -4   5   0    0.37    0.07
  -4   5   0    0.40    1.14
  -4   5   0    0.31    0.06
  -4   5   0    0.40    0.30
  -4   5   0    0.32    0.14
  -4   5   0    0.40    0.07
   3  -5   0    2.41    0.13
   3  -5   0    2.43    0.14
   3  -5   0    2.27    0.22
   3  -5   0    2.37    0.11
  -3   5   0    2.20    0.12
  -3   5   0    2.36    0.27
  -3   5   0    2.49    0.13
  -3   5   0    2.23    0.13
  -3   5   0    2.23    0.21
  -3   5   0    2.33    0.14
  -3   5   0    2.25    0.29
   2  -5   0    4.55    0.29
   2  -5   0    4.08    0.15
   2  -5   0    4.23    0.15
   2  -5   0    4.18    0.19
   2  -5   0    4.24    0.18
  -2   5   0    4.25    0.16
  -2   5   0    4.15    0.41
  -2   5   0    3.94    0.16
  -2   5   0    4.21    0.25
  -2   5   0    4.14    0.19
   1  -5   0   19.48    0.60
   1  -5   0   18.36    0.53
   1  -5   0   18.72    0.58
   1  -5   0   18.82    0.51
  -1   5   0   18.55    0.54
  -1   5   0   18.94    0.53
  -1   5   0   18.07    1.23
  -1   5   0   18.30    0.60
  -1   5   0   19.17    0.78
   0  -5   0    5.33    0.21
   0  -5   0    5.16    0.21
   0  -5   0    5.09    0.18
   0  -5   0    4.97    0.18
   0   5   0    4.95    0.19
   0   5   0    5.40    0.27
   0   5   0    4.77    0.21
   0   5   0    5.28    0.19
  -1  -5   0    2.74    0.14
  -1  -5   0    2.82    0.12
  -1  -5   0    2.80    0.15
  -1  -5   0    2.63    0.15
  -1  -5   0    2.98    0.19
   1   5   0    2.61    0.24
   1   5   0    2.86    0.16
   1   5   0    2.82    0.14
  -2  -5   0   -0.01    0.05
  -2  -5   0    0.03    0.10
  -2  -5   0    0.01    0.05
  -2  -5   0   -0.03    0.05
  -2  -5   0   -0.05    0.05
  -2  -5   0   -0.02    0.07
   2   5   0    0.00    0.04
   2   5   0   -0.03    0.05
   2   5   0   -0.02    0.06
   2   5   0    0.06    0.07
  -3  -5   0    0.07    0.06
  -3  -5   0    0.07    0.06
  -3  -5   0    0.10    0.07
  -3  -5   0    0.11    0.06
  -3  -5   0    0.10    0.06
  -3  -5   0    0.03    0.07
   3   5   0    0.04    0.06
   3   5   0   -0.09    0.07
   3   5   0   -0.06    0.08
  -4  -5   0    0.14    0.10
  -4  -5   0    0.14    0.07
  -4  -5   0    0.28    0.09
   4   5   0    0.16    0.07
   4   5   0    0.36    0.12
  -5  -5   0    1.90    0.14
  -5  -5   0    2.34    0.20
   5   5   0    1.65    0.14
   5   5   0    1.97    0.21
  -6  -5   0    0.09    0.08
  -6  -5   0    0.01    0.11
   6   5   0    0.00    0.15
   6   5   0    0.03    0.08
  -7  -5   0    0.34    0.31
  -7  -5   0    0.31    0.10
   7   5   0    0.28    0.18
   7   5   0    0.17    0.10
  -8  -5   0    0.40    0.16
  -8  -5   0    0.16    0.10
   8   5   0   -0.08    0.20
   8   5   0    0.09    0.11
  10  -6   0   -0.22    0.15
 -10   6   0   -0.07    0.12
   9  -6   0   -0.01    0.13
  -9   6   0   -0.52    0.28
  -9   6   0   -0.06    0.12
   8  -6   0    0.01    0.12
   8  -6   0   -0.04    0.07
  -8   6   0   -0.28    0.25
  -8   6   0    0.03    0.11
   7  -6   0   -0.06    0.10
   7  -6   0    0.02    0.06
  -7   6   0    0.04    0.11
  -7   6   0   -0.15    0.22
  -7   6   0    0.05    0.10
   6  -6   0    2.21    0.13
   6  -6   0    2.71    0.21
   6  -6   0    2.36    0.18
  -6   6   0    2.53    0.18
  -6   6   0    2.68    0.20
  -6   6   0    2.07    0.75
  -6   6   0    2.62    0.42
   5  -6   0    2.84    0.14
   5  -6   0    3.27    0.21
   5  -6   0    3.00    0.18
  -5   6   0    3.40    0.20
  -5   6   0    3.06    0.18
  -5   6   0    2.76    0.33
  -5   6   0    3.77    0.44
  -5   6   0    2.94    0.16
   4  -6   0    0.14    0.05
   4  -6   0    0.18    0.07
   4  -6   0    0.18    0.07
  -4   6   0    0.17    0.06
  -4   6   0    0.11    0.07
  -4   6   0    0.29    0.29
  -4   6   0    0.15    0.07
  -4   6   0    0.10    0.13
   3  -6   0    0.06    0.05
   3  -6   0    0.05    0.04
   3  -6   0    0.10    0.04
   3  -6   0    0.09    0.06
  -3   6   0    0.02    0.26
  -3   6   0    0.19    0.06
  -3   6   0    0.06    0.05
  -3   6   0    0.07    0.11
  -3   6   0    0.10    0.06
  -3   6   0   -0.04    0.10
   2  -6   0    1.21    0.09
   2  -6   0    1.04    0.08
   2  -6   0    1.17    0.11
   2  -6   0    1.25    0.12
  -2   6   0    1.30    0.16
  -2   6   0    1.33    0.10
  -2   6   0    1.84    0.33
  -2   6   0    1.27    0.12
  -2   6   0    1.14    0.10
   1  -6   0    1.05    0.08
   1  -6   0    1.16    0.11
   1  -6   0    1.14    0.11
   1  -6   0    1.04    0.09
  -1   6   0    1.13    0.11
  -1   6   0    1.03    0.10
  -1   6   0    1.15    0.09
  -1   6   0    1.41    0.34
  -1   6   0    1.18    0.14
   0  -6   0    0.58    0.07
   0  -6   0    0.66    0.09
   0  -6   0    0.51    0.07
   0  -6   0    0.74    0.09
   0   6   0    0.54    0.08
   0   6   0    0.68    0.08
   0   6   0    0.61    0.09
   0   6   0    0.68    0.09
   0   6   0    0.76    0.11
  -1  -6   0    1.63    0.15
  -1  -6   0    1.67    0.13
  -1  -6   0    1.46    0.11
  -1  -6   0    1.29    0.10
  -1  -6   0    1.50    0.13
   1   6   0    1.57    0.12
   1   6   0    1.46    0.21
   1   6   0    1.44    0.14
  -2  -6   0    2.60    0.16
  -2  -6   0    2.66    0.17
  -2  -6   0    2.83    0.20
  -2  -6   0    2.62    0.18
  -2  -6   0    2.37    0.13
   2   6   0    2.49    0.16
   2   6   0    2.67    0.19
   2   6   0    2.63    0.15
  -3  -6   0    0.33    0.10
  -3  -6   0    0.40    0.10
  -3  -6   0    0.23    0.07
   3   6   0    0.25    0.11
   3   6   0    0.31    0.08
  -4  -6   0    0.55    0.09
  -4  -6   0    1.11    0.15
   4   6   0    0.89    0.15
   4   6   0    0.81    0.11
  -5  -6   0    0.14    0.08
  -5  -6   0    0.03    0.11
   5   6   0   -0.06    0.07
   5   6   0    0.11    0.15
  -6  -6   0    0.52    0.10
  -6  -6   0    0.73    0.16
   6   6   0    0.53    0.11
   6   6   0    0.63    0.19
  -7  -6   0   -0.01    0.09
  -7  -6   0   -0.06    0.22
   7   6   0    0.05    0.11
   7   6   0   -0.14    0.18
  10  -7   0   -0.28    0.15
 -10   7   0   -0.11    0.13
 -10   7   0   -0.80    0.34
   9  -7   0    0.03    0.15
  -9   7   0   -0.21    0.33
  -9   7   0   -0.08    0.13
   8  -7   0    0.23    0.13
   8  -7   0    0.25    0.08
  -8   7   0    0.01    0.12
  -8   7   0    0.14    0.30
   7  -7   0    0.24    0.07
   7  -7   0    0.20    0.12
  -7   7   0    0.23    0.12
  -7   7   0   -0.17    0.28
  -7   7   0    0.22    0.12
   6  -7   0    0.05    0.10
   6  -7   0    0.03    0.06
  -6   7   0    0.04    0.10
  -6   7   0   -0.02    0.23
  -6   7   0   -0.05    0.11
  -6   7   0   -0.10    0.20
  -6   7   0   -0.01    0.09
   5  -7   0   -0.13    0.09
   5  -7   0   -0.09    0.05
   5  -7   0   -0.03    0.08
  -5   7   0    0.08    0.18
  -5   7   0    0.26    0.19
  -5   7   0   -0.04    0.09
  -5   7   0    0.08    0.07
  -5   7   0   -0.12    0.09
   4  -7   0    0.54    0.10
   4  -7   0    0.52    0.07
   4  -7   0    0.39    0.10
  -4   7   0    0.93    0.20
  -4   7   0    0.56    0.10
  -4   7   0    0.36    0.08
  -4   7   0    0.47    0.18
  -4   7   0    0.45    0.10
   3  -7   0    0.01    0.08
   3  -7   0   -0.05    0.05
   3  -7   0    0.02    0.07
  -3   7   0    0.35    0.14
  -3   7   0   -0.02    0.06
  -3   7   0    0.02    0.07
  -3   7   0   -0.05    0.07
  -3   7   0   -0.08    0.11
   2  -7   0    0.85    0.11
   2  -7   0    0.67    0.08
   2  -7   0    0.78    0.10
  -2   7   0    0.59    0.08
  -2   7   0    0.95    0.16
  -2   7   0    0.68    0.10
  -2   7   0    0.88    0.11
   1  -7   0    3.39    0.19
   1  -7   0    3.18    0.15
   1  -7   0    3.54    0.19
  -1   7   0    3.38    0.17
  -1   7   0    3.31    0.25
  -1   7   0    3.13    0.19
  -1   7   0    2.85    0.16
   0  -7   0    0.03    0.06
   0  -7   0    0.02    0.06
   0  -7   0   -0.11    0.07
   0   7   0    0.02    0.06
   0   7   0    0.09    0.07
   0   7   0    0.03    0.10
   0   7   0    0.05    0.09
  -1  -7   0    0.27    0.09
  -1  -7   0    0.25    0.08
  -1  -7   0    0.18    0.07
   1   7   0    0.22    0.08
   1   7   0    0.21    0.10
   1   7   0    0.37    0.11
   1   7   0    0.21    0.08
  -2  -7   0    5.00    0.21
  -2  -7   0    5.41    0.27
   2   7   0    4.70    0.23
   2   7   0    5.60    0.29
  -3  -7   0    0.04    0.07
  -3  -7   0   -0.02    0.09
   3   7   0    0.06    0.11
  -4  -7   0    0.28    0.12
  -4  -7   0    0.27    0.08
   4   7   0    0.07    0.09
   4   7   0    0.53    0.16
  -5  -7   0   -0.16    0.11
  -5  -7   0    0.16    0.09
   5   7   0    0.15    0.10
   5   7   0   -0.13    0.16
  -6  -7   0    0.22    0.15
  -6  -7   0    0.03    0.09
   6   7   0   -0.02    0.10
   6   7   0   -0.06    0.19
   9  -8   0   -0.36    0.14
  -9   8   0   -0.08    0.13
  -9   8   0   -0.42    0.35
   8  -8   0    0.24    0.14
  -8   8   0    0.02    0.33
  -8   8   0    0.29    0.14
   7  -8   0    0.10    0.07
   7  -8   0    0.13    0.13
  -7   8   0   -0.04    0.60
  -7   8   0    0.10    0.12
   6  -8   0    0.04    0.06
   6  -8   0    0.00    0.10
  -6   8   0    0.36    0.23
  -6   8   0   -0.12    0.11
  -6   8   0   -0.07    0.10
  -6   8   0    0.10    0.17
   5  -8   0    0.07    0.06
   5  -8   0   -0.11    0.09
  -5   8   0   -0.13    0.09
  -5   8   0    0.31    0.20
  -5   8   0    0.04    0.18
  -5   8   0   -0.06    0.08
   4  -8   0    2.32    0.13
   4  -8   0    2.32    0.20
   4  -8   0    2.44    0.19
  -4   8   0    2.38    0.17
  -4   8   0    2.45    0.30
  -4   8   0    2.32    0.21
   3  -8   0    0.35    0.12
   3  -8   0    0.59    0.13
   3  -8   0    0.55    0.09
  -3   8   0    0.74    0.18
  -3   8   0    0.65    0.12
  -3   8   0    0.45    0.12
   2  -8   0   13.68    0.50
   2  -8   0   13.22    0.49
   2  -8   0   13.26    0.42
  -2   8   0   13.94    0.67
  -2   8   0   13.77    0.44
  -2   8   0   12.37    0.59
  -2   8   0   14.41    0.51
   1  -8   0    4.18    0.24
   1  -8   0    3.85    0.18
   1  -8   0    4.46    0.24
  -1   8   0    4.45    0.25
  -1   8   0    3.94    0.21
  -1   8   0    4.42    0.30
   0  -8   0    0.66    0.09
   0  -8   0    0.63    0.12
   0  -8   0    0.74    0.13
   0   8   0    0.65    0.12
   0   8   0    0.61    0.11
  -1  -8   0    0.24    0.07
  -1  -8   0    0.22    0.10
   1   8   0    0.10    0.21
   1   8   0    0.06    0.08
  -2  -8   0    0.22    0.08
  -2  -8   0    0.13    0.11
   2   8   0    0.04    0.09
   2   8   0    0.11    0.12
  -3  -8   0    1.11    0.17
  -3  -8   0    0.76    0.10
   3   8   0    0.71    0.12
   3   8   0    0.96    0.17
  -4  -8   0    0.01    0.08
  -4  -8   0    0.05    0.12
   4   8   0    0.12    0.10
   4   8   0    0.05    0.16
  -5  -8   0    0.13    0.14
  -5  -8   0    0.05    0.09
   5   8   0    0.08    0.11
   5   8   0   -0.21    0.17
   6   8   0   -0.08    0.11
   9  -9   0    0.19    0.17
  -9   9   0   -0.22    0.13
  -9   9   0   -0.78    0.37
   8  -9   0    0.04    0.14
  -8   9   0   -0.03    0.14
  -8   9   0   -0.27    0.35
   7  -9   0    0.36    0.15
  -7   9   0    0.45    0.52
  -7   9   0    0.15    0.14
   6  -9   0    0.10    0.07
   6  -9   0   -0.09    0.12
  -6   9   0    0.41    0.24
  -6   9   0   -0.10    0.10
   5  -9   0    0.06    0.10
   5  -9   0    0.12    0.07
  -5   9   0    0.19    0.19
  -5   9   0    0.11    0.10
  -5   9   0    0.59    0.25
   4  -9   0    0.27    0.07
   4  -9   0    0.22    0.10
  -4   9   0    0.34    0.17
  -4   9   0    0.03    0.10
  -4   9   0    0.17    0.10
   3  -9   0    0.29    0.10
   3  -9   0    0.34    0.08
  -3   9   0    0.25    0.15
  -3   9   0    0.38    0.12
  -3   9   0    0.41    0.10
   2  -9   0    0.03    0.06
   2  -9   0    0.06    0.09
  -2   9   0    0.00    0.10
  -2   9   0    0.19    0.13
  -2   9   0    0.04    0.08
   1  -9   0    0.12    0.07
   1  -9   0    0.10    0.10
  -1   9   0    0.05    0.09
  -1   9   0    0.00    0.10
   0  -9   0    0.19    0.08
   0  -9   0    0.14    0.11
   0   9   0    0.27    0.12
   0   9   0    0.14    0.09
  -1  -9   0   -0.11    0.10
  -1  -9   0   -0.07    0.07
   1   9   0   -0.04    0.12
   1   9   0    0.16    0.09
  -2  -9   0    2.29    0.16
  -2  -9   0    3.19    0.34
   2   9   0    2.49    0.27
   2   9   0    1.97    0.17
  -3  -9   0    0.34    0.15
  -3  -9   0    0.16    0.09
   3   9   0    0.14    0.10
   3   9   0    0.22    0.16
  -4  -9   0   -0.03    0.09
  -4  -9   0   -0.04    0.13
   4   9   0   -0.12    0.09
   4   9   0    0.08    0.17
   8 -10   0    0.25    0.17
  -8  10   0   -0.51    0.37
  -8  10   0    0.21    0.15
   7 -10   0    0.22    0.16
  -7  10   0    0.31    0.15
  -7  10   0    0.15    0.54
   6 -10   0    0.07    0.11
  -6  10   0    0.11    0.25
  -6  10   0   -0.04    0.11
   5 -10   0    0.04    0.07
   5 -10   0    0.00    0.10
  -5  10   0   -0.07    0.11
  -5  10   0    0.07    0.21
   4 -10   0   -0.06    0.06
   4 -10   0    0.11    0.10
  -4  10   0    0.08    0.10
  -4  10   0    0.37    0.19
   3 -10   0   -0.04    0.07
   3 -10   0    0.01    0.10
  -3  10   0    0.15    0.10
   2 -10   0    0.26    0.08
   2 -10   0    0.16    0.11
  -2  10   0    0.34    0.13
  -2  10   0    0.31    0.11
   1 -10   0   -0.06    0.11
   1 -10   0    0.04    0.08
   1 -10   0   -0.03    0.10
  -1  10   0   -0.04    0.11
  -1  10   0   -0.05    0.09
   0 -10   0   -0.22    0.11
   0 -10   0    0.11    0.08
   0  10   0   -0.08    0.10
   0  10   0   -0.16    0.13
  -1 -10   0   -0.02    0.08
  -1 -10   0   -0.12    0.12
   1  10   0    0.07    0.10
   1  10   0   -0.04    0.15
  -2 -10   0    0.08    0.09
  -2 -10   0   -0.13    0.16
   2  10   0   -0.16    0.10
   2  10   0    0.10    0.16
  -3 -10   0    0.09    0.09
  -3 -10   0    0.17    0.16
   3  10   0    0.01    0.11
   3  10   0    0.04    0.17
   7 -11   0    0.00    0.13
  -7  11   0    0.10    0.15
  -7  11   0   -0.46    0.62
   6 -11   0   -0.07    0.12
  -6  11   0   -0.11    0.13
  -6  11   0    0.06    0.27
   5 -11   0    0.48    0.14
  -5  11   0    0.39    0.14
   4 -11   0   -0.08    0.11
  -4  11   0    0.10    0.12
   3 -11   0   -0.01    0.11
   3 -11   0    0.06    0.08
  -3  11   0   -0.15    0.11
   2 -11   0   -0.04    0.12
   2 -11   0   -0.13    0.10
   2 -11   0    0.08    0.08
  -2  11   0   -0.05    0.11
   1 -11   0    0.17    0.08
   1 -11   0    0.11    0.12
  -1  11   0   -0.03    0.11
   0 -11   0    0.03    0.08
   0 -11   0    0.11    0.14
   0  11   0    0.05    0.11
  -1 -11   0    0.22    0.09
  -1 -11   0    0.04    0.15
   1  11   0    0.09    0.12
   2  11   0   -0.01    0.12
   4 -12   0   -0.05    0.12
  -4  12   0   -0.04    0.13
   3 -12   0    0.17    0.14
  -3  12   0    0.06    0.13
   2 -12   0   -0.13    0.13
  -2  12   0    0.06    0.12
   1 -12   0    0.14    0.14
  -1  12   0    0.01    0.12
   0  12  -1   -0.09    0.12
   0 -12   1   -0.06    0.14
  -1  12  -1   -0.04    0.12
   1 -12   1   -0.03    0.13
  -2  12  -1    0.08    0.12
   2 -12   1    0.16    0.14
  -3  12  -1   -0.07    0.12
   3 -12   1    0.23    0.14
   3 -12   1   -0.04    0.11
  -4  12  -1    0.32    0.14
  -5  12  -1    0.09    0.14
   2  11  -1    0.06    0.12
  -2 -11   1    0.03    0.13
   1  11  -1   -0.11    0.11
  -1 -11   1   -0.05    0.16
   0  11  -1    0.10    0.11
   0 -11   1    0.09    0.12
  -1  11  -1   -0.02    0.10
   1 -11   1    0.01    0.11
  -2  11  -1    0.08    0.11
   2 -11   1   -0.04    0.11
   2 -11   1   -0.05    0.10
  -3  11  -1    0.02    0.11
   3 -11   1    0.02    0.09
  -4  11  -1    0.50    0.22
  -4  11  -1    0.14    0.12
   4 -11   1    0.22    0.11
  -5  11  -1    0.21    0.24
  -5  11  -1    0.04    0.12
   5 -11   1   -0.10    0.10
  -6  11  -1    0.33    0.31
  -6  11  -1   -0.07    0.13
   6 -11   1    0.00    0.11
  -7  11  -1   -0.22    0.38
  -7  11  -1    0.07    0.14
  -7  11  -1    0.04    0.15
   7 -11   1   -0.02    0.12
   4  10  -1   -0.05    0.11
  -4 -10   1   -0.02    0.14
   3  10  -1   -0.08    0.10
  -3 -10   1   -0.01    0.14
   2  10  -1    0.07    0.10
  -2 -10   1   -0.05    0.12
   1  10  -1   -0.06    0.09
  -1 -10   1    0.00    0.11
   0  10  -1    0.21    0.11
   0 -10   1    0.26    0.11
  -1  10  -1    0.09    0.10
   1 -10   1    0.21    0.11
  -2  10  -1   -0.10    0.09
  -2  10  -1    0.27    0.14
   2 -10   1    0.00    0.09
  -3  10  -1    0.30    0.16
  -3  10  -1    0.17    0.10
   3 -10   1    0.19    0.10
  -4  10  -1    0.02    0.10
  -4  10  -1    0.31    0.33
   4 -10   1    0.00    0.09
  -5  10  -1    0.22    0.21
  -5  10  -1   -0.05    0.11
   5 -10   1   -0.01    0.09
  -6  10  -1    0.06    0.12
  -6  10  -1    0.29    0.27
   6 -10   1    0.00    0.10
  -7  10  -1    0.10    0.14
  -7  10  -1   -0.06    0.36
  -7  10  -1    0.27    0.14
  -8  10  -1   -0.37    0.41
  -8  10  -1    0.20    0.16
   5   9  -1   -0.05    0.11
  -5  -9   1    0.18    0.15
   4   9  -1   -0.07    0.10
  -4  -9   1    0.09    0.08
  -4  -9   1    0.06    0.13
   3   9  -1    0.65    0.13
  -3  -9   1    0.88    0.16
  -3  -9   1    0.83    0.11
   2   9  -1    0.15    0.10
  -2  -9   1    0.27    0.19
  -2  -9   1    0.17    0.08
   1   9  -1    0.37    0.11
  -1  -9   1    0.54    0.09
  -1  -9   1    0.25    0.11
   0   9  -1    0.57    0.14
   0   9  -1    0.37    0.10
   0  -9   1    0.27    0.10
   0  -9   1    0.35    0.08
  -1   9  -1    0.50    0.14
  -1   9  -1    0.10    0.09
   1  -9   1    0.07    0.06
   1  -9   1    0.11    0.09
   1  -9   1    0.08    0.09
   1  -9   1    0.21    0.11
  -2   9  -1    2.54    1.18
  -2   9  -1    1.64    0.16
  -2   9  -1    2.01    0.24
   2  -9   1    1.61    0.11
   2  -9   1    1.47    0.17
   2  -9   1    1.60    0.18
  -3   9  -1    0.78    0.18
  -3   9  -1    0.60    0.12
   3  -9   1    0.46    0.13
   3  -9   1    0.57    0.11
  -4   9  -1   -0.05    0.09
  -4   9  -1    0.16    0.25
  -4   9  -1   -0.14    0.47
   4  -9   1    0.01    0.08
   4  -9   1   -0.08    0.10
  -5   9  -1    0.51    0.52
  -5   9  -1    0.05    0.10
  -5   9  -1    0.09    0.18
   5  -9   1   -0.01    0.08
  -6   9  -1    0.60    0.28
  -6   9  -1    0.79    0.14
   6  -9   1    0.68    0.14
  -7   9  -1    0.16    0.14
  -7   9  -1    0.14    0.12
  -7   9  -1   -0.18    0.32
   7  -9   1    0.11    0.13
  -8   9  -1   -0.43    0.34
  -8   9  -1   -0.01    0.14
  -9   9  -1    0.17    0.15
   6   8  -1    0.16    0.11
  -6  -8   1    0.02    0.09
  -6  -8   1   -0.02    0.16
   5   8  -1    0.11    0.18
   5   8  -1    0.00    0.10
  -5  -8   1    0.03    0.08
  -5  -8   1    0.01    0.13
   4   8  -1    0.63    0.12
   4   8  -1    0.72    0.17
  -4  -8   1    0.59    0.10
  -4  -8   1    0.64    0.15
   3   8  -1    2.73    0.19
   3   8  -1    3.23    0.26
  -3  -8   1    2.92    0.16
  -3  -8   1    3.15    0.24
   2   8  -1    0.19    0.12
   2   8  -1    0.12    0.09
  -2  -8   1    0.09    0.07
  -2  -8   1    0.09    0.10
   1   8  -1    0.07    0.10
   1   8  -1   -0.05    0.08
   1   8  -1    0.03    0.09
  -1  -8   1    0.01    0.07
  -1  -8   1    0.08    0.06
  -1  -8   1    0.04    0.07
   0   8  -1    0.63    0.11
   0   8  -1    0.52    0.15
   0   8  -1    0.68    0.11
   0   8  -1    0.58    0.10
   0  -8   1    0.64    0.11
   0  -8   1    0.74    0.08
   0  -8   1    0.63    0.13
   0  -8   1    0.69    0.11
  -1   8  -1    2.86    0.21
  -1   8  -1    2.77    0.26
  -1   8  -1    2.48    0.22
  -1   8  -1    3.77    0.38
  -1   8  -1    2.73    0.18
   1  -8   1    2.91    0.20
   1  -8   1    2.74    0.19
   1  -8   1    2.49    0.13
  -2   8  -1    2.87    0.20
  -2   8  -1    2.48    0.28
  -2   8  -1    2.76    0.18
  -2   8  -1    2.89    0.26
   2  -8   1    2.37    0.13
   2  -8   1    2.90    0.19
   2  -8   1    2.52    0.18
  -3   8  -1    2.73    0.18
  -3   8  -1    2.80    0.21
  -3   8  -1    2.66    0.21
  -3   8  -1    2.98    0.28
  -3   8  -1    2.85    0.50
   3  -8   1    2.74    0.13
   3  -8   1    2.70    0.19
   3  -8   1    2.92    0.20
  -4   8  -1    1.66    0.16
  -4   8  -1    1.46    0.14
  -4   8  -1    1.58    0.27
   4  -8   1    1.60    0.11
   4  -8   1    1.57    0.16
   4  -8   1    1.49    0.17
  -5   8  -1    0.49    0.25
  -5   8  -1    0.15    0.18
  -5   8  -1    0.15    0.10
   5  -8   1    0.07    0.10
   5  -8   1    0.10    0.10
  -6   8  -1    0.11    0.24
  -6   8  -1    0.06    0.10
   6  -8   1    0.03    0.10
   6  -8   1    0.03    0.11
  -7   8  -1    0.37    0.14
  -7   8  -1    0.12    0.44
   7  -8   1    0.21    0.13
  -8   8  -1   -0.45    0.32
  -8   8  -1   -0.13    0.13
   8  -8   1    0.01    0.12
  -9   8  -1   -0.78    0.35
  -9   8  -1   -0.14    0.14
   7   7  -1    0.02    0.10
   7   7  -1   -0.16    0.19
  -7  -7   1    0.14    0.09
  -7  -7   1    0.08    0.35
   6   7  -1    0.18    0.11
   6   7  -1    0.18    0.18
  -6  -7   1    0.50    0.16
  -6  -7   1    0.25    0.09
   5   7  -1    0.98    0.19
   5   7  -1    0.65    0.12
  -5  -7   1    0.93    0.16
  -5  -7   1    0.99    0.11
   4   7  -1    0.28    0.13
   4   7  -1    0.14    0.09
  -4  -7   1    0.17    0.08
  -4  -7   1    0.31    0.11
   3   7  -1    0.18    0.09
   3   7  -1    0.29    0.12
  -3  -7   1    0.23    0.07
  -3  -7   1    0.13    0.10
  -3  -7   1    0.19    0.10
   2   7  -1    0.02    0.07
   2   7  -1   -0.08    0.09
   2   7  -1    0.11    0.08
  -2  -7   1    0.11    0.07
  -2  -7   1   -0.01    0.06
  -2  -7   1    0.02    0.09
  -2  -7   1    0.02    0.05
  -2  -7   1    0.00    0.08
   1   7  -1    1.18    0.13
   1   7  -1    1.24    0.11
   1   7  -1    1.09    0.12
   1   7  -1    1.23    0.16
  -1  -7   1    1.23    0.10
  -1  -7   1    1.46    0.14
  -1  -7   1    1.34    0.17
  -1  -7   1    1.24    0.10
  -1  -7   1    1.43    0.13
   0   7  -1    0.90    0.14
   0   7  -1    0.80    0.10
   0   7  -1    0.79    0.09
   0   7  -1    0.98    0.35
   0   7  -1    0.99    0.11
   0   7  -1    1.11    0.17
   0  -7   1    0.85    0.08
   0  -7   1    0.79    0.10
   0  -7   1    0.74    0.10
   0  -7   1    0.82    0.10
  -1   7  -1    0.06    0.06
  -1   7  -1    0.16    0.07
  -1   7  -1    0.04    0.07
  -1   7  -1    0.23    0.12
  -1   7  -1    0.12    0.09
   1  -7   1    0.10    0.07
   1  -7   1    0.04    0.06
   1  -7   1    0.17    0.05
  -2   7  -1   -0.07    0.06
  -2   7  -1   -0.19    0.27
  -2   7  -1   -0.01    0.06
  -2   7  -1   -0.04    0.11
  -2   7  -1    0.21    0.15
  -2   7  -1   -0.03    0.09
   2  -7   1   -0.06    0.05
   2  -7   1    0.01    0.06
   2  -7   1    0.00    0.04
  -3   7  -1    0.33    0.07
  -3   7  -1    0.51    0.09
  -3   7  -1    0.53    0.09
  -3   7  -1    0.26    0.13
  -3   7  -1    0.82    0.19
   3  -7   1    0.46    0.06
   3  -7   1    0.32    0.08
   3  -7   1    0.50    0.09
  -4   7  -1    0.28    0.09
  -4   7  -1    0.22    0.09
  -4   7  -1    0.35    0.17
  -4   7  -1    0.14    0.07
  -4   7  -1    0.12    0.24
   4  -7   1    0.26    0.06
   4  -7   1    0.32    0.09
   4  -7   1    0.17    0.08
  -5   7  -1    0.93    0.13
  -5   7  -1    1.50    0.54
  -5   7  -1    0.98    0.23
  -5   7  -1    1.16    0.52
  -5   7  -1    0.86    0.10
  -5   7  -1    0.95    0.12
   5  -7   1    1.01    0.13
   5  -7   1    1.07    0.13
  -6   7  -1   -0.05    0.09
  -6   7  -1    0.00    0.11
  -6   7  -1    0.06    0.24
  -6   7  -1    0.35    2.04
  -6   7  -1   -0.11    0.20
   6  -7   1    0.09    0.10
   6  -7   1    0.13    0.10
  -7   7  -1   -0.08    0.40
  -7   7  -1    0.18    0.12
   7  -7   1   -0.05    0.10
   7  -7   1    0.03    0.11
  -8   7  -1   -0.14    0.12
  -8   7  -1   -0.22    0.30
   8  -7   1   -0.02    0.11
  -9   7  -1    0.36    0.14
  -9   7  -1   -0.31    0.33
   8   6  -1   -0.04    0.19
   8   6  -1    0.06    0.11
  -8  -6   1    0.16    0.15
  -8  -6   1    0.05    0.10
   7   6  -1    0.34    0.19
   7   6  -1    0.42    0.12
  -7  -6   1    0.27    0.28
  -7  -6   1    0.16    0.09
   6   6  -1    0.44    0.10
   6   6  -1    0.58    0.17
  -6  -6   1    0.32    0.09
  -6  -6   1    0.74    0.21
   5   6  -1    0.72    0.16
   5   6  -1    0.62    0.11
  -5  -6   1    0.61    0.09
  -5  -6   1    0.84    0.14
   4   6  -1    1.78    0.18
   4   6  -1    1.40    0.13
  -4  -6   1    1.53    0.17
  -4  -6   1    1.41    0.12
  -4  -6   1    1.57    0.18
   3   6  -1    0.15    0.07
   3   6  -1    0.12    0.08
   3   6  -1    0.28    0.10
  -3  -6   1    0.17    0.12
  -3  -6   1    0.16    0.07
  -3  -6   1    0.29    0.10
  -3  -6   1    0.20    0.08
  -3  -6   1    0.20    0.07
   2   6  -1    0.59    0.09
   2   6  -1    0.75    0.09
   2   6  -1    0.78    0.11
  -2  -6   1    0.74    0.08
  -2  -6   1    0.60    0.07
  -2  -6   1    0.68    0.12
  -2  -6   1    0.46    0.08
  -2  -6   1    0.70    0.10
   1   6  -1    0.88    0.09
   1   6  -1    1.12    0.69
   1   6  -1    0.83    0.39
   1   6  -1    0.94    0.10
  -1  -6   1    0.83    0.10
  -1  -6   1    0.71    0.09
  -1  -6   1    0.84    0.08
  -1  -6   1    0.86    0.08
  -1  -6   1    0.92    0.13
  -1  -6   1    0.92    0.08
   0   6  -1    1.29    0.12
   0   6  -1    1.45    0.12
   0   6  -1    1.39    0.11
   0   6  -1    1.41    0.14
   0   6  -1    1.75    0.18
   0   6  -1    1.76    0.52
   0  -6   1    1.18    0.09
   0  -6   1    1.49    0.12
   0  -6   1    1.42    0.12
   0  -6   1    1.16    0.09
  -1   6  -1    0.18    0.06
  -1   6  -1    0.23    0.10
  -1   6  -1    0.30    0.11
  -1   6  -1    0.16    0.06
  -1   6  -1    0.18    0.23
  -1   6  -1    0.15    0.08
   1  -6   1    0.27    0.05
   1  -6   1    0.24    0.06
   1  -6   1    0.12    0.05
   1  -6   1    0.25    0.04
  -2   6  -1    3.06    0.23
  -2   6  -1    2.96    0.15
  -2   6  -1    3.11    0.14
  -2   6  -1    3.05    0.16
  -2   6  -1    3.18    0.35
   2  -6   1    2.81    0.30
   2  -6   1    3.16    0.16
   2  -6   1    2.97    0.12
   2  -6   1    3.05    0.16
  -3   6  -1    0.11    0.06
  -3   6  -1    0.05    0.10
  -3   6  -1    0.07    0.05
  -3   6  -1    0.03    0.22
  -3   6  -1    0.32    0.13
  -3   6  -1    0.08    0.06
   3  -6   1    0.06    0.05
   3  -6   1    0.04    0.04
   3  -6   1    0.10    0.04
   3  -6   1    0.01    0.06
  -4   6  -1    2.67    0.17
  -4   6  -1    2.73    0.35
  -4   6  -1    2.37    0.29
  -4   6  -1    2.26    0.14
  -4   6  -1    2.50    0.15
   4  -6   1    2.31    0.15
   4  -6   1    2.35    0.11
   4  -6   1    2.72    0.17
  -5   6  -1   10.27    0.60
  -5   6  -1   10.10    0.35
  -5   6  -1   10.60    0.41
  -5   6  -1   10.69    0.36
  -5   6  -1   11.30    0.82
   5  -6   1   10.55    0.39
   5  -6   1   10.09    0.32
   5  -6   1   11.16    0.40
  -6   6  -1    0.57    0.11
  -6   6  -1    0.41    0.22
  -6   6  -1    0.65    0.12
  -6   6  -1    0.94    0.41
  -6   6  -1    0.44    0.09
  -6   6  -1    0.48    0.26
   6  -6   1    0.56    0.07
   6  -6   1    0.55    0.12
   6  -6   1    0.77    0.12
  -7   6  -1    0.37    0.46
  -7   6  -1    0.10    0.11
  -7   6  -1   -0.15    0.24
   7  -6   1    0.07    0.10
   7  -6   1    0.04    0.10
  -8   6  -1    0.06    0.28
  -8   6  -1   -0.02    0.11
   8  -6   1    0.20    0.12
  -9   6  -1    0.37    0.14
  -9   6  -1    0.26    0.33
   9  -6   1    0.67    0.15
 -10   6  -1    0.12    0.14
 -10   6  -1   -0.83    0.32
  10  -6   1    0.11    0.15
   8   5  -1   -0.11    0.18
   8   5  -1    0.13    0.11
  -8  -5   1   -0.06    0.09
  -8  -5   1    0.08    0.13
   7   5  -1    0.00    0.09
   7   5  -1    0.19    0.17
  -7  -5   1    0.21    0.09
  -7  -5   1   -0.10    0.12
   6   5  -1   -0.09    0.13
   6   5  -1    0.09    0.08
  -6  -5   1    0.09    0.11
  -6  -5   1    0.02    0.15
  -6  -5   1    0.11    0.07
  -6  -5   1    0.34    0.25
   5   5  -1    0.79    0.14
   5   5  -1    0.42    0.09
  -5  -5   1    0.31    0.28
  -5  -5   1    0.48    0.12
  -5  -5   1    0.56    0.11
  -5  -5   1    0.40    0.08
   4   5  -1    1.06    0.11
   4   5  -1    1.33    0.15
   4   5  -1    1.17    0.12
  -4  -5   1    0.99    0.10
  -4  -5   1    1.11    0.13
  -4  -5   1    1.07    0.18
  -4  -5   1    1.10    0.12
  -4  -5   1    1.20    0.15
  -4  -5   1    1.20    0.10
   3   5  -1    0.92    0.10
   3   5  -1    0.91    0.11
   3   5  -1    0.97    0.10
  -3  -5   1    0.98    0.18
  -3  -5   1    0.99    0.13
  -3  -5   1    0.88    0.10
  -3  -5   1    1.10    0.19
  -3  -5   1    0.95    0.09
  -3  -5   1    0.92    0.11
   2   5  -1    0.17    0.06
   2   5  -1    0.13    0.09
   2   5  -1    0.11    0.07
  -2  -5   1    0.12    0.05
  -2  -5   1    0.14    0.13
  -2  -5   1    0.24    0.07
  -2  -5   1    0.22    0.05
  -2  -5   1    0.19    0.06
  -2  -5   1    0.21    0.05
  -2  -5   1    0.22    0.06
   1   5  -1   14.75    0.42
   1   5  -1   13.86    0.41
   1   5  -1   14.42    0.46
  -1  -5   1   13.70    0.41
  -1  -5   1   13.90    0.39
  -1  -5   1   14.57    0.46
  -1  -5   1   13.93    0.46
  -1  -5   1   13.92    0.75
  -1  -5   1   13.12    0.46
  -1  -5   1   13.56    0.60
   0   5  -1    3.57    0.25
   0   5  -1    3.34    0.14
   0   5  -1    3.55    0.16
   0   5  -1    3.04    0.20
   0   5  -1    3.36    0.24
   0   5  -1    3.50    0.14
   0  -5   1    3.48    0.21
   0  -5   1    3.12    0.12
   0  -5   1    3.49    0.15
   0  -5   1    3.11    0.13
   0  -5   1    3.65    0.16
  -1   5  -1   17.27    1.03
  -1   5  -1   17.06    0.55
  -1   5  -1   16.32    0.90
  -1   5  -1   18.20    0.90
  -1   5  -1   16.81    0.50
  -1   5  -1   17.25    0.49
  -1   5  -1   17.65    0.74
   1  -5   1   18.45    0.56
   1  -5   1   16.79    0.49
   1  -5   1   17.67    0.47
   1  -5   1   18.47    0.90
   1  -5   1   16.76    0.54
  -2   5  -1   -0.07    0.04
  -2   5  -1    0.02    0.14
  -2   5  -1    0.01    0.04
  -2   5  -1   -0.04    0.06
  -2   5  -1   -0.03    0.04
   2  -5   1    0.00    0.05
   2  -5   1   -0.06    0.04
   2  -5   1   -0.05    0.04
   2  -5   1    0.00    0.03
  -3   5  -1    1.98    0.12
  -3   5  -1    1.94    0.20
  -3   5  -1    2.02    0.27
  -3   5  -1    1.98    0.11
  -3   5  -1    2.01    0.11
   3  -5   1    2.00    0.12
   3  -5   1    1.86    0.09
   3  -5   1    1.74    0.12
   3  -5   1    2.01    0.09
  -4   5  -1    0.25    0.07
  -4   5  -1    0.35    0.06
  -4   5  -1    0.26    0.14
  -4   5  -1    0.45    0.23
  -4   5  -1    0.40    0.07
   4  -5   1    0.35    0.05
   4  -5   1    0.43    0.07
   4  -5   1    0.43    0.05
   4  -5   1    0.46    0.08
  -5   5  -1    3.38    0.18
  -5   5  -1    3.28    0.34
  -5   5  -1    3.26    0.16
  -5   5  -1    3.40    0.20
  -5   5  -1    3.93    0.44
   5  -5   1    3.44    0.19
   5  -5   1    3.30    0.18
   5  -5   1    3.38    0.14
  -6   5  -1   -0.20    0.32
  -6   5  -1   -0.04    0.08
  -6   5  -1   -0.22    0.54
  -6   5  -1    0.04    0.07
  -6   5  -1   -0.01    0.10
  -6   5  -1    0.09    0.40
   6  -5   1    0.00    0.08
   6  -5   1   -0.04    0.05
   6  -5   1   -0.03    0.09
  -7   5  -1    0.53    0.25
  -7   5  -1    0.83    0.13
   7  -5   1    1.05    0.14
   7  -5   1    0.87    0.13
  -8   5  -1   -0.34    0.24
  -8   5  -1   -0.05    0.11
   8  -5   1    0.00    0.12
  -9   5  -1    0.28    0.13
  -9   5  -1   -0.41    0.28
   9  -5   1   -0.03    0.13
 -10   5  -1    0.25    0.13
 -10   5  -1   -0.26    0.31
  10  -5   1   -0.06    0.15
   9   4  -1    0.12    0.11
   9   4  -1    0.17    0.20
  -9  -4   1    0.25    0.16
  -9  -4   1    0.12    0.10
   8   4  -1   -0.02    0.09
   8   4  -1   -0.08    0.18
  -8  -4   1    0.02    0.09
  -8  -4   1    0.12    0.14
   7   4  -1   -0.02    0.08
   7   4  -1    0.07    0.14
  -7  -4   1    0.08    0.11
  -7  -4   1    0.09    0.08
  -7  -4   1    0.18    0.12
   6   4  -1    0.54    0.14
   6   4  -1    0.24    0.09
  -6  -4   1    0.45    0.14
  -6  -4   1    0.33    0.08
  -6  -4   1    0.31    0.11
  -6  -4   1    0.01    0.13
   5   4  -1   -0.09    0.08
   5   4  -1    0.05    0.10
   5   4  -1    0.04    0.06
  -5  -4   1   -0.05    0.11
  -5  -4   1   -0.04    0.07
  -5  -4   1    0.14    0.06
  -5  -4   1    0.07    0.08
  -5  -4   1   -0.01    0.06
  -5  -4   1    0.12    0.08
   4   4  -1    1.82    0.17
   4   4  -1    1.73    0.14
   4   4  -1    1.81    0.12
  -4  -4   1    1.88    0.16
  -4  -4   1    1.76    0.22
  -4  -4   1    1.73    0.14
  -4  -4   1    1.99    0.15
  -4  -4   1    1.74    0.11
  -4  -4   1    1.82    0.12
  -4  -4   1    1.80    0.11
   3   4  -1    1.05    0.11
   3   4  -1    1.03    0.11
   3   4  -1    1.16    0.09
  -3  -4   1    1.05    0.08
  -3  -4   1    1.22    0.12
  -3  -4   1    1.04    0.29
  -3  -4   1    1.15    0.11
  -3  -4   1    1.09    0.09
  -3  -4   1    1.25    0.09
  -3  -4   1    1.04    0.11
   2   4  -1    0.28    0.05
   2   4  -1    0.28    0.09
   2   4  -1    0.21    0.07
   2   4  -1    0.23    0.09
  -2  -4   1    0.24    0.05
  -2  -4   1    0.28    0.07
  -2  -4   1    0.21    0.04
  -2  -4   1    0.18    0.11
  -2  -4   1    0.26    0.08
  -2  -4   1    0.21    0.05
  -2  -4   1    0.25    0.06
   1   4  -1    4.44    0.28
   1   4  -1    4.69    0.18
   1   4  -1    4.21    0.16
   1   4  -1    4.42    0.41
   1   4  -1    4.99    0.16
  -1  -4   1    4.85    0.29
  -1  -4   1    4.42    0.15
  -1  -4   1    4.46    0.17
  -1  -4   1    4.16    0.18
  -1  -4   1    4.27    0.15
  -1  -4   1    4.54    0.18
  -1  -4   1    4.36    0.23
   0   4  -1    9.44    0.31
   0   4  -1    9.27    0.42
   0   4  -1    9.97    0.32
   0   4  -1    9.61    0.28
   0   4  -1    9.23    0.54
   0   4  -1    9.21    0.50
   0  -4   1    8.76    0.42
   0  -4   1    9.64    0.27
   0  -4   1    9.50    0.28
   0  -4   1    9.24    0.31
  -1   4  -1    2.71    0.11
  -1   4  -1    2.45    0.17
  -1   4  -1    2.53    0.21
  -1   4  -1    2.59    0.11
  -1   4  -1    2.89    0.13
   1  -4   1    2.93    0.13
   1  -4   1    2.66    0.12
   1  -4   1    2.65    0.12
   1  -4   1    2.97    0.21
   1  -4   1    2.78    0.10
  -2   4  -1    0.91    0.07
  -2   4  -1    0.69    0.17
  -2   4  -1    0.75    0.08
  -2   4  -1    0.84    0.07
  -2   4  -1    0.78    0.12
   2  -4   1    0.81    0.13
   2  -4   1    0.91    0.07
   2  -4   1    0.85    0.09
   2  -4   1    0.95    0.05
   2  -4   1    0.91    0.08
  -3   4  -1   15.79    0.69
  -3   4  -1   15.94    0.45
  -3   4  -1   15.38    0.46
  -3   4  -1   15.79    0.84
  -3   4  -1   15.82    0.50
  -3   4  -1   15.23    0.44
   3  -4   1   15.46    0.50
   3  -4   1   15.00    0.44
   3  -4   1   15.71    0.49
   3  -4   1   15.99    0.43
  -4   4  -1    3.14    0.15
  -4   4  -1    2.85    0.18
  -4   4  -1    3.05    0.43
  -4   4  -1    3.02    0.14
  -4   4  -1    3.06    0.26
   4  -4   1    2.96    0.12
   4  -4   1    3.06    0.16
   4  -4   1    3.09    0.15
   4  -4   1    2.89    0.12
  -5   4  -1    5.86    0.23
  -5   4  -1    6.34    0.53
  -5   4  -1    5.90    0.40
  -5   4  -1    5.90    0.24
  -5   4  -1    5.77    0.23
  -5   4  -1    6.12    0.26
   5  -4   1    5.98    0.25
   5  -4   1    5.94    0.20
   5  -4   1    6.02    0.26
  -6   4  -1   -0.05    0.07
  -6   4  -1   -0.02    0.22
  -6   4  -1    0.08    0.09
  -6   4  -1   -0.01    0.07
  -6   4  -1   -0.13    0.18
   6  -4   1    0.00    0.05
   6  -4   1   -0.05    0.10
   6  -4   1   -0.05    0.07
  -7   4  -1    1.40    0.28
  -7   4  -1    1.77    0.17
  -7   4  -1    1.03    0.32
   7  -4   1    1.78    0.11
   7  -4   1    1.61    0.17
   7  -4   1    1.68    0.42
  -8   4  -1    0.08    0.11
  -8   4  -1    0.30    0.25
  -8   4  -1    1.23    0.46
   8  -4   1    0.20    0.33
  -9   4  -1   -0.09    0.12
  -9   4  -1   -0.09    0.25
   9  -4   1   -0.06    0.30
 -10   4  -1   -0.09    0.12
  10  -4   1   -0.10    0.17
   9   3  -1    0.09    0.20
   9   3  -1    0.02    0.10
  -9  -3   1    0.15    0.10
  -9  -3   1    0.32    0.15
   8   3  -1    0.55    0.19
   8   3  -1    0.49    0.10
  -8  -3   1    0.67    0.15
  -8  -3   1    0.58    0.16
  -8  -3   1    0.53    0.11
   7   3  -1   -0.16    0.12
   7   3  -1    0.01    0.07
  -7  -3   1    0.04    0.09
  -7  -3   1    0.01    0.10
  -7  -3   1   -0.37    0.25
  -7  -3   1    0.06    0.08
   6   3  -1    0.09    0.06
   6   3  -1   -0.03    0.11
  -6  -3   1   -0.09    0.07
  -6  -3   1   -0.20    0.22
  -6  -3   1    0.04    0.07
  -6  -3   1    0.01    0.08
   5   3  -1    0.85    0.13
   5   3  -1    0.82    0.09
   5   3  -1    0.78    0.11
  -5  -3   1    0.76    0.24
  -5  -3   1    0.78    0.09
  -5  -3   1    0.83    0.13
  -5  -3   1    0.79    0.08
  -5  -3   1    1.04    0.25
  -5  -3   1    0.69    0.10
   4   3  -1    7.07    0.24
   4   3  -1    6.81    0.29
   4   3  -1    6.50    0.25
  -4  -3   1    7.44    0.49
  -4  -3   1    7.04    0.27
  -4  -3   1    6.80    0.24
  -4  -3   1    7.06    0.39
  -4  -3   1    7.24    0.23
  -4  -3   1    7.29    0.28
  -4  -3   1    6.84    0.35
   3   3  -1    0.04    0.05
   3   3  -1    0.07    0.04
   3   3  -1    0.08    0.05
   3   3  -1    0.04    0.09
   2   3  -1   -0.04    0.04
   2   3  -1    0.06    0.06
   2   3  -1   -0.06    0.04
   2   3  -1   -0.03    0.03
  -2  -3   1    0.00    0.09
  -2  -3   1   -0.01    0.03
  -2  -3   1    0.01    0.03
  -2  -3   1   -0.05    0.03
  -2  -3   1   -0.04    0.05
  -2  -3   1   -0.06    0.03
  -2  -3   1    0.05    0.04
   1   3  -1    0.31    0.07
   1   3  -1    0.40    0.05
   1   3  -1    0.36    0.05
   1   3  -1    0.26    0.04
  -1  -3   1    0.39    0.06
  -1  -3   1    0.38    0.04
  -1  -3   1    0.30    0.04
  -1  -3   1    0.34    0.04
  -1  -3   1    0.34    0.04
  -1  -3   1    0.24    0.06
   0   3  -1    0.15    0.04
   0   3  -1    0.13    0.04
   0   3  -1    0.13    0.03
   0   3  -1    0.12    0.05
   0   3  -1    0.15    0.05
   0  -3   1    0.17    0.03
   0  -3   1    0.15    0.03
   0  -3   1    0.21    0.03
   0  -3   1    0.23    0.05
  -1   3  -1   40.72    2.10
  -1   3  -1   44.64    1.18
  -1   3  -1   45.67    1.30
  -1   3  -1   45.25    1.15
  -1   3  -1   42.07    1.70
   1  -3   1   44.29    2.10
   1  -3   1   44.14    1.30
   1  -3   1   44.28    1.20
   1  -3   1   44.81    1.13
  -2   3  -1   14.01    0.39
  -2   3  -1   12.70    0.71
  -2   3  -1   14.29    0.43
  -2   3  -1   13.93    0.38
  -2   3  -1   13.43    0.39
  -2   3  -1   13.82    0.59
   2  -3   1   13.97    0.38
   2  -3   1   13.28    0.71
   2  -3   1   13.41    0.43
   2  -3   1   13.77    0.42
   2  -3   1   14.37    0.37
  -3   3  -1    2.55    0.13
  -3   3  -1    2.49    0.35
  -3   3  -1    2.81    0.12
  -3   3  -1    2.46    0.20
  -3   3  -1    2.58    0.33
  -3   3  -1    2.67    0.12
   3  -3   1    2.60    0.10
   3  -3   1    2.91    0.13
   3  -3   1    2.80    0.10
   3  -3   1    2.81    0.35
   3  -3   1    2.63    0.13
  -4   3  -1    2.69    0.14
  -4   3  -1    2.74    0.24
  -4   3  -1    2.67    0.14
  -4   3  -1    2.83    0.32
  -4   3  -1    2.84    0.14
  -4   3  -1    2.72    0.24
  -4   3  -1    2.85    0.13
   4  -3   1    2.81    0.11
   4  -3   1    2.71    0.26
   4  -3   1    2.73    0.13
   4  -3   1    2.64    0.11
  -5   3  -1    1.78    0.35
  -5   3  -1    1.78    0.13
  -5   3  -1    2.25    0.14
  -5   3  -1    2.10    0.60
  -5   3  -1    1.88    0.14
   5  -3   1    2.15    0.15
   5  -3   1    2.19    0.13
   5  -3   1    2.09    0.10
   5  -3   1    1.86    0.10
  -6   3  -1    3.86    0.51
  -6   3  -1    3.80    0.86
  -6   3  -1    4.27    0.20
  -6   3  -1    4.34    0.37
  -6   3  -1    4.19    0.22
   6  -3   1    4.23    0.16
   6  -3   1    4.41    0.23
   6  -3   1    4.33    0.21
  -7   3  -1    3.99    0.47
  -7   3  -1    3.20    0.37
  -7   3  -1    3.24    0.20
  -7   3  -1    2.34    0.40
  -7   3  -1    3.38    0.23
   7  -3   1    3.34    0.23
   7  -3   1    3.22    0.20
   7  -3   1    3.17    0.15
  -8   3  -1    0.03    0.10
  -8   3  -1   -0.18    0.19
   8  -3   1    0.10    0.12
  -9   3  -1   -0.18    0.23
  -9   3  -1   -0.12    0.11
   9  -3   1   -0.06    0.13
 -10   3  -1   -0.45    0.26
 -10   3  -1    0.08    0.12
  10  -3   1   -0.24    0.16
  10   2  -1   -0.05    0.10
  10   2  -1   -0.02    0.19
 -10  -2   1    0.14    0.21
 -10  -2   1    0.05    0.11
 -10  -2   1   -0.13    0.15
   9   2  -1    0.49    0.11
   9   2  -1    0.22    0.17
  -9  -2   1    0.47    0.54
  -9  -2   1    0.31    0.11
  -9  -2   1    0.38    0.14
   8   2  -1    0.41    0.09
   8   2  -1    0.61    0.16
  -8  -2   1    0.44    0.13
  -8  -2   1    0.32    0.10
  -8  -2   1    0.28    0.14
   7   2  -1    0.04    0.13
   7   2  -1    0.04    0.07
  -7  -2   1    0.05    0.10
  -7  -2   1   -0.17    0.17
  -7  -2   1    0.17    0.10
  -7  -2   1    0.11    0.08
   6   2  -1    0.25    0.07
   6   2  -1    0.21    0.11
   6   2  -1    0.14    0.09
  -6  -2   1    0.30    0.09
  -6  -2   1    0.30    0.07
  -6  -2   1    0.28    0.08
  -6  -2   1    0.18    0.17
  -6  -2   1    0.31    0.10
   5   2  -1    4.64    0.21
   5   2  -1    5.09    0.22
   5   2  -1    5.02    0.54
   5   2  -1    4.81    0.25
   5   2  -1    4.78    0.19
  -5  -2   1    4.83    0.27
  -5  -2   1    5.07    0.25
  -5  -2   1    5.21    0.29
  -5  -2   1    4.82    0.22
  -5  -2   1    5.01    0.19
  -5  -2   1    5.12    0.22
  -5  -2   1    4.88    0.19
  -5  -2   1    5.29    0.44
   4   2  -1    0.49    0.08
   4   2  -1    0.62    0.09
   4   2  -1    0.66    0.07
  -4  -2   1    0.69    0.10
  -4  -2   1    0.66    0.14
  -4  -2   1    0.75    0.17
  -4  -2   1    0.62    0.07
  -4  -2   1    0.58    0.13
  -4  -2   1    0.71    0.09
  -4  -2   1    0.59    0.06
   3   2  -1    6.12    0.42
   3   2  -1    6.19    0.38
   3   2  -1    6.04    0.23
   3   2  -1    5.95    0.19
   3   2  -1    6.03    0.21
  -3  -2   1    5.83    0.20
  -3  -2   1    5.94    0.20
  -3  -2   1    6.12    0.22
  -3  -2   1    5.85    0.38
  -3  -2   1    6.00    0.56
  -3  -2   1    5.90    0.22
  -3  -2   1    5.81    0.19
   2   2  -1   -0.02    0.03
   2   2  -1   -0.13    0.13
   2   2  -1   -0.07    0.04
   2   2  -1    0.04    0.03
   2   2  -1   -0.06    0.04
   2   2  -1    0.11    0.09
  -2  -2   1    0.03    0.05
  -2  -2   1   -0.02    0.03
  -2  -2   1   -0.01    0.03
  -2  -2   1    0.01    0.03
  -2  -2   1    0.00    0.03
  -2  -2   1   -0.01    0.03
   1   2  -1  163.06    3.94
   1   2  -1  160.23    6.97
   1   2  -1  160.81    4.33
  -1  -2   1  150.97    3.79
  -1  -2   1  144.69    3.97
  -1  -2   1  141.99    5.59
  -1  -2   1  147.06    3.96
  -1  -2   1  134.50    4.37
  -1  -2   1  137.90    6.97
   0   2  -1   10.54    0.60
   0   2  -1   11.68    0.61
   0   2  -1   12.84    0.33
   0   2  -1   13.45    0.38
   0  -2   1   12.66    0.50
  -1   2  -1    1.03    0.05
  -1   2  -1    1.00    0.08
  -1   2  -1    0.75    0.08
   1  -2   1    0.93    0.10
  -2   2  -1   14.51    0.61
  -2   2  -1   15.04    0.45
  -2   2  -1   14.79    0.40
  -2   2  -1   13.60    0.74
  -2   2  -1   14.32    0.41
   2  -2   1   13.96    0.77
   2  -2   1   14.26    0.42
   2  -2   1   14.35    0.45
   2  -2   1   15.14    0.38
  -3   2  -1    7.88    0.40
  -3   2  -1    8.11    0.25
  -3   2  -1    7.99    0.24
  -3   2  -1    8.16    0.27
  -3   2  -1    8.07    0.25
  -3   2  -1    7.68    0.49
   3  -2   1    7.86    0.28
   3  -2   1    7.88    0.24
   3  -2   1    8.13    0.26
   3  -2   1    8.23    0.24
   3  -2   1    7.73    0.46
   3  -2   1    8.50    0.23
  -4   2  -1    0.14    0.30
  -4   2  -1    0.25    0.06
  -4   2  -1    0.28    0.29
  -4   2  -1    0.28    0.06
  -4   2  -1    0.24    0.05
  -4   2  -1    0.27    0.05
   4  -2   1    0.32    0.04
   4  -2   1    0.31    0.05
   4  -2   1    0.16    0.05
   4  -2   1    0.26    0.04
   4  -2   1    0.21    0.06
  -5   2  -1    2.64    0.15
  -5   2  -1    2.53    0.39
  -5   2  -1    2.75    0.15
  -5   2  -1    2.83    0.16
  -5   2  -1    2.46    0.26
   5  -2   1    2.65    0.11
   5  -2   1    2.64    0.16
   5  -2   1    2.67    0.14
   5  -2   1    2.36    0.13
  -6   2  -1    2.45    0.18
  -6   2  -1    2.06    0.15
  -6   2  -1    2.35    0.29
  -6   2  -1    2.19    0.26
  -6   2  -1    2.05    0.34
   6  -2   1    2.29    0.18
   6  -2   1    2.48    0.14
   6  -2   1    2.33    0.16
   6  -2   1    2.53    0.12
  -7   2  -1   -0.08    0.09
  -7   2  -1   -0.20    0.09
  -7   2  -1   -0.03    0.15
   7  -2   1   -0.16    0.08
   7  -2   1    0.01    0.06
   7  -2   1   -0.19    0.10
  -8   2  -1    0.12    0.19
  -8   2  -1    0.29    0.11
   8  -2   1    0.31    0.08
   8  -2   1    0.41    0.14
  -9   2  -1    0.05    0.11
   9  -2   1   -0.10    0.14
 -10   2  -1   -0.49    0.21
 -10   2  -1    0.12    0.12
  10  -2   1    0.14    0.17
  10   1  -1    0.07    0.10
  10   1  -1   -0.04    0.18
 -10  -1   1   -0.03    0.17
 -10  -1   1    0.08    0.15
 -10  -1   1   -0.01    0.10
   9   1  -1   -0.03    0.08
   9   1  -1    0.13    0.16
  -9  -1   1    0.21    0.10
  -9  -1   1    0.10    0.13
  -9  -1   1   -0.03    0.14
   8   1  -1   -0.09    0.12
   8   1  -1    0.01    0.07
  -8  -1   1    0.00    0.09
  -8  -1   1   -0.06    0.11
  -8  -1   1   -0.03    0.10
   7   1  -1   -0.06    0.06
   7   1  -1   -0.02    0.12
  -7  -1   1   -0.03    0.08
  -7  -1   1   -0.04    0.08
  -7  -1   1   -0.02    0.09
  -7  -1   1   -0.34    0.34
   6   1  -1    0.49    0.12
   6   1  -1    0.43    0.07
   6   1  -1    0.44    0.10
  -6  -1   1    0.54    0.09
  -6  -1   1    0.48    0.09
  -6  -1   1    0.51    0.08
  -6  -1   1    0.51    0.16
  -6  -1   1    0.48    0.12
  -6  -1   1    0.43    0.12
  -6  -1   1    0.23    0.17
   5   1  -1    2.84    0.15
   5   1  -1    3.08    0.18
   5   1  -1    2.87    0.16
   5   1  -1    2.98    0.14
   5   1  -1    3.13    0.16
  -5  -1   1    3.02    0.15
  -5  -1   1    2.87    0.16
  -5  -1   1    3.12    0.32
  -5  -1   1    3.10    0.15
  -5  -1   1    3.26    0.16
  -5  -1   1    3.13    0.22
  -5  -1   1    3.01    0.14
   4   1  -1    1.98    0.14
   4   1  -1    2.19    0.33
   4   1  -1    2.09    0.10
   4   1  -1    2.12    0.13
   4   1  -1    2.18    0.10
  -4  -1   1    2.10    0.12
  -4  -1   1    2.22    0.12
  -4  -1   1    2.00    0.23
  -4  -1   1    2.20    0.11
  -4  -1   1    2.04    0.16
  -4  -1   1    2.14    0.10
  -4  -1   1    2.05    0.10
  -4  -1   1    2.04    0.12
   3   1  -1    8.39    0.25
   3   1  -1    8.36    0.29
   3   1  -1    8.52    0.25
   3   1  -1    8.31    0.26
   3   1  -1    8.20    0.48
   3   1  -1    8.03    0.56
  -3  -1   1    8.15    0.37
  -3  -1   1    8.49    0.30
  -3  -1   1    8.58    0.30
  -3  -1   1    8.60    0.48
  -3  -1   1    8.33    0.24
  -3  -1   1    8.38    0.25
   2   1  -1   54.79    1.35
   2   1  -1   52.66    1.40
   2   1  -1   53.25    2.48
   2   1  -1   53.62    1.54
   2   1  -1   51.61    1.40
  -2  -1   1   49.38    1.99
  -2  -1   1   51.48    2.60
  -2  -1   1   52.52    1.39
  -2  -1   1   50.59    1.60
  -2  -1   1   52.07    1.43
  -2  -1   1   52.29    1.34
   1   1  -1    1.05    0.04
   1   1  -1    1.02    0.05
   1   1  -1    1.29    0.16
  -1  -1   1    1.02    0.07
  -1  -1   1    1.11    0.09
   0   1  -1   13.71    0.66
   0   1  -1   13.41    0.65
   0  -1   1   13.01    0.65
   0  -1   1   13.97    0.53
  -1   1  -1  250.51   12.08
  -1   1  -1  264.98    9.65
   1  -1   1  259.42   12.12
  -2   1  -1   24.09    0.72
  -2   1  -1   24.55    0.66
  -2   1  -1   24.14    0.95
  -2   1  -1   23.29    1.18
  -2   1  -1   24.68    0.66
   2  -1   1   23.38    1.17
   2  -1   1   22.96    0.72
   2  -1   1   24.79    0.62
   2  -1   1   23.65    0.65
  -3   1  -1    6.25    0.19
  -3   1  -1    5.84    0.19
  -3   1  -1    6.02    0.35
  -3   1  -1    6.06    0.20
  -3   1  -1    6.29    0.47
  -3   1  -1    5.72    0.21
   3  -1   1    5.76    0.19
   3  -1   1    6.24    0.21
   3  -1   1    5.66    0.22
   3  -1   1    5.89    0.18
   3  -1   1    5.96    0.39
  -4   1  -1    5.28    0.19
  -4   1  -1    5.19    0.31
  -4   1  -1    5.05    0.41
  -4   1  -1    4.85    0.20
  -4   1  -1    5.09    0.18
  -4   1  -1    5.10    0.19
   4  -1   1    5.23    0.21
   4  -1   1    5.00    0.20
   4  -1   1    5.10    0.17
   4  -1   1    4.91    0.18
  -5   1  -1    3.36    0.26
  -5   1  -1    3.30    0.15
  -5   1  -1    3.17    0.17
  -5   1  -1    3.22    0.16
  -5   1  -1    3.16    0.39
   5  -1   1    3.01    0.15
   5  -1   1    3.32    0.14
   5  -1   1    3.32    0.16
   5  -1   1    3.48    0.19
  -6   1  -1   -0.01    0.12
  -6   1  -1    0.05    0.08
  -6   1  -1   -0.04    0.06
  -6   1  -1   -0.02    0.08
  -6   1  -1   -0.27    0.18
   6  -1   1    0.01    0.09
   6  -1   1    0.01    0.06
   6  -1   1    0.00    0.08
   6  -1   1   -0.02    0.06
  -7   1  -1    0.01    0.09
  -7   1  -1   -0.08    0.09
  -7   1  -1   -0.15    0.14
   7  -1   1    0.03    0.08
   7  -1   1   -0.03    0.06
   7  -1   1   -0.12    0.11
  -8   1  -1   -0.04    0.10
  -8   1  -1   -0.14    0.15
   8  -1   1   -0.09    0.12
   8  -1   1   -0.03    0.07
  -9   1  -1   -0.16    0.17
  -9   1  -1   -0.20    0.10
   9  -1   1    0.26    0.15
 -10   1  -1   -0.19    0.19
 -10   1  -1    0.02    0.12
  10  -1   1    0.07    0.17
  10   0  -1    0.06    0.18
  10   0  -1   -0.02    0.09
 -10   0   1    0.15    0.14
 -10   0   1   -0.29    0.17
 -10   0   1    0.15    0.11
   9   0  -1    0.04    0.15
   9   0  -1    0.08    0.08
  -9   0   1   -0.02    0.09
  -9   0   1   -0.14    0.13
  -9   0   1   -0.05    0.12
   8   0  -1   -0.08    0.06
   8   0  -1   -0.10    0.13
  -8   0   1   -0.19    0.10
  -8   0   1   -0.08    0.13
  -8   0   1    0.00    0.08
   7   0  -1    0.09    0.11
   7   0  -1    0.16    0.07
  -7   0   1    0.10    0.12
  -7   0   1    0.25    0.09
  -7   0   1   -0.22    0.18
  -7   0   1    0.11    0.08
   6   0  -1    2.27    0.12
   6   0  -1    2.24    0.18
   6   0  -1    1.93    0.15
   6   0  -1    2.23    0.14
   6   0  -1    2.24    0.14
  -6   0   1    2.13    0.15
  -6   0   1    2.31    0.16
  -6   0   1    2.31    0.13
  -6   0   1    2.29    0.23
  -6   0   1    2.36    0.15
  -6   0   1    2.23    0.14
  -6   0   1    1.98    0.34
   5   0  -1    2.07    0.11
   5   0  -1    1.86    0.14
   5   0  -1    1.96    0.15
   5   0  -1    1.90    0.12
   5   0  -1    1.84    0.34
   5   0  -1    1.98    0.11
  -5   0   1    2.00    0.13
  -5   0   1    2.12    0.29
  -5   0   1    2.21    0.19
  -5   0   1    2.07    0.12
  -5   0   1    1.93    0.11
  -5   0   1    2.07    0.20
  -5   0   1    1.94    0.13
   4   0  -1    7.24    0.22
   4   0  -1    7.36    0.27
   4   0  -1    7.33    0.26
   4   0  -1    7.15    0.24
   4   0  -1    6.60    0.52
  -4   0   1    7.13    0.26
  -4   0   1    7.36    0.36
  -4   0   1    7.09    0.24
  -4   0   1    7.34    0.26
  -4   0   1    7.35    0.23
  -4   0   1    7.42    0.34
  -4   0   1    7.27    0.45
   3   0  -1    2.72    0.32
   3   0  -1    2.63    0.13
   3   0  -1    2.79    0.11
   3   0  -1    2.71    0.12
   3   0  -1    2.92    0.10
   3   0  -1    2.49    0.26
  -3   0   1    2.74    0.11
  -3   0   1    2.67    0.10
  -3   0   1    2.79    0.16
  -3   0   1    2.57    0.12
  -3   0   1    2.77    0.24
  -3   0   1    2.68    0.17
   2   0  -1    0.48    0.18
   2   0  -1    0.27    0.08
   2   0  -1    0.21    0.04
   2   0  -1    0.16    0.03
   2   0  -1    0.17    0.03
  -2   0   1    0.15    0.03
  -2   0   1    0.20    0.05
  -2   0   1    0.17    0.03
  -2   0   1    0.26    0.07
  -2   0   1    0.14    0.03
  -2   0   1    0.14    0.03
   1   0  -1    7.34    0.36
  -1   0   1    7.07    0.29
  -1   0   1    7.44    0.36
   0   0   1    4.22    0.17
  -1   0  -1   34.42    1.64
  -1   0  -1   33.29    1.28
  -1   0  -1   34.31    0.90
  -1   0  -1   32.23    1.00
   1   0   1   33.58    0.99
   1   0   1   33.04    1.61
  -2   0  -1   39.63    1.85
  -2   0  -1   38.06    1.00
  -2   0  -1   37.33    1.04
  -2   0  -1   37.83    1.14
  -2   0  -1   39.54    1.04
  -2   0  -1   37.34    1.48
   2   0   1   39.44    1.84
   2   0   1   37.03    1.14
   2   0   1   39.64    0.99
   2   0   1   38.14    1.03
  -3   0  -1    2.71    0.18
  -3   0  -1    2.62    0.12
  -3   0  -1    2.86    0.26
  -3   0  -1    2.70    0.11
  -3   0  -1    2.69    0.15
  -3   0  -1    2.63    0.12
   3   0   1    2.64    0.10
   3   0   1    2.75    0.26
   3   0   1    2.57    0.12
   3   0   1    2.75    0.12
   3   0   1    2.54    0.14
  -4   0  -1   12.92    0.38
  -4   0  -1   12.59    0.72
  -4   0  -1   12.83    0.39
  -4   0  -1   12.76    0.39
  -4   0  -1   12.61    0.57
  -4   0  -1   13.04    0.53
   4   0   1   12.97    0.37
   4   0   1   12.88    0.38
   4   0   1   12.79    0.41
   4   0   1   12.74    0.43
  -5   0  -1    0.66    0.08
  -5   0  -1    0.64    0.09
  -5   0  -1    0.79    0.09
  -5   0  -1    0.66    0.13
  -5   0  -1    0.64    0.19
   5   0   1    0.61    0.10
   5   0   1    0.71    0.09
   5   0   1    0.72    0.07
  -6   0  -1   -0.27    0.16
  -6   0  -1    0.09    0.08
  -6   0  -1    0.14    0.12
  -6   0  -1    0.07    0.06
  -6   0  -1    0.09    0.07
   6   0   1    0.08    0.08
   6   0   1    0.04    0.06
   6   0   1    0.05    0.07
   6   0   1   -0.05    0.09
  -7   0  -1    0.62    0.17
  -7   0  -1    0.81    0.12
  -7   0  -1    0.64    0.12
   7   0   1    0.70    0.14
   7   0   1    0.74    0.09
   7   0   1    0.87    0.13
  -8   0  -1    0.36    0.11
  -8   0  -1    0.21    0.16
   8   0   1    0.13    0.08
   8   0   1    0.30    0.15
  -9   0  -1    0.02    0.11
  -9   0  -1   -0.17    0.14
   9   0   1   -0.01    0.16
 -10   0  -1    0.06    0.12
  10   0   1   -0.01    0.17
  10  -1  -1    0.00    0.09
  10  -1  -1   -0.04    0.16
 -10   1   1    0.09    0.14
 -10   1   1    0.05    0.11
 -10   1   1   -0.04    0.21
   9  -1  -1   -0.15    0.14
   9  -1  -1    0.01    0.08
  -9   1   1   -0.09    0.18
  -9   1   1    0.10    0.09
  -9   1   1    0.09    0.12
   8  -1  -1    1.47    0.18
   8  -1  -1    1.46    0.12
  -8   1   1    1.41    0.16
  -8   1   1    1.05    0.23
   7  -1  -1    2.51    0.15
   7  -1  -1    2.57    0.18
   7  -1  -1    3.04    0.23
  -7   1   1    2.28    0.34
  -7   1   1    2.74    0.20
  -7   1   1    2.51    0.16
  -7   1   1    2.70    0.16
  -7   1   1    2.93    0.29
   6  -1  -1    0.07    0.05
   6  -1  -1    0.11    0.06
   6  -1  -1    0.04    0.04
   6  -1  -1   -0.03    0.07
   6  -1  -1    0.00    0.08
  -6   1   1    0.12    0.07
  -6   1   1    0.04    0.05
  -6   1   1    0.15    0.07
  -6   1   1   -0.17    0.15
  -6   1   1    0.06    0.06
  -6   1   1    0.13    0.12
  -6   1   1    0.01    0.07
   5  -1  -1    6.91    0.27
   5  -1  -1    6.79    0.25
   5  -1  -1    6.68    0.23
   5  -1  -1    6.85    0.22
   5  -1  -1    6.80    0.25
  -5   1   1    7.03    0.49
  -5   1   1    6.78    0.26
  -5   1   1    6.85    0.26
  -5   1   1    6.97    0.23
  -5   1   1    7.10    0.24
  -5   1   1    6.97    0.38
  -5   1   1    6.51    0.23
   4  -1  -1    1.40    0.08
   4  -1  -1    1.55    0.10
   4  -1  -1    1.27    0.28
   4  -1  -1    1.48    0.11
   4  -1  -1    1.41    0.08
  -4   1   1    1.51    0.24
  -4   1   1    1.32    0.09
  -4   1   1    1.57    0.16
  -4   1   1    1.45    0.09
  -4   1   1    1.37    0.09
  -4   1   1    1.34    0.08
   3  -1  -1    1.05    0.06
   3  -1  -1    1.16    0.08
   3  -1  -1    1.04    0.06
   3  -1  -1    1.00    0.09
   3  -1  -1    0.79    0.14
  -3   1   1    1.02    0.14
  -3   1   1    0.98    0.07
  -3   1   1    1.02    0.07
  -3   1   1    1.22    0.21
  -3   1   1    0.89    0.07
  -3   1   1    1.13    0.08
   2  -1  -1    2.59    0.23
   2  -1  -1    3.09    0.11
   2  -1  -1    2.87    0.12
   2  -1  -1    3.09    0.12
   2  -1  -1    3.11    0.10
  -2   1   1    2.88    0.11
  -2   1   1    3.00    0.17
  -2   1   1    2.75    0.11
  -2   1   1    3.09    0.23
  -2   1   1    3.07    0.10
  -2   1   1    2.91    0.10
   1  -1  -1  166.76    4.13
   1  -1  -1  176.94    4.14
   1  -1  -1  146.93    4.62
  -1   1   1  159.59    4.16
  -1   1   1  149.85    5.90
  -1   1   1  160.34    3.98
  -1   1   1  144.27    4.54
  -1   1   1  152.52    3.98
  -1   1   1  150.33    4.13
   0  -1  -1    7.27    0.19
   0  -1  -1    5.90    0.21
   0   1   1    6.47    0.22
   0   1   1    7.08    0.19
  -1  -1  -1    1.30    0.07
  -1  -1  -1    1.23    0.07
  -1  -1  -1    1.43    0.07
   1   1   1    1.48    0.07
   1   1   1    1.42    0.06
   1   1   1    1.31    0.08
  -2  -1  -1    0.13    0.04
  -2  -1  -1    0.08    0.04
  -2  -1  -1    0.15    0.05
  -2  -1  -1    0.21    0.07
  -2  -1  -1    0.15    0.04
   2   1   1    0.13    0.05
   2   1   1    0.13    0.03
   2   1   1    0.10    0.05
  -3  -1  -1   13.58    0.39
  -3  -1  -1   13.21    0.44
  -3  -1  -1   13.92    0.72
  -3  -1  -1   13.60    0.40
  -3  -1  -1   13.59    0.40
  -3  -1  -1   13.42    0.57
   3   1   1   13.30    0.45
   3   1   1   13.64    0.40
   3   1   1   13.79    0.38
   3   1   1   13.78    0.43
   3   1   1   13.88    0.88
  -4  -1  -1    0.66    0.11
  -4  -1  -1    0.51    0.14
  -4  -1  -1    0.57    0.14
  -4  -1  -1    0.65    0.07
  -4  -1  -1    0.59    0.08
   4   1   1    0.77    0.08
   4   1   1    0.56    0.08
   4   1   1    0.55    0.06
   4   1   1    0.57    0.09
  -5  -1  -1    0.23    0.07
  -5  -1  -1    0.32    0.15
  -5  -1  -1    0.33    0.10
  -5  -1  -1    0.35    0.07
  -5  -1  -1    0.17    0.15
   5   1   1    0.24    0.06
   5   1   1    0.30    0.07
   5   1   1    0.27    0.08
   5   1   1    0.30    0.10
  -6  -1  -1    0.74    0.12
  -6  -1  -1    0.66    0.14
  -6  -1  -1    0.71    0.10
  -6  -1  -1    0.25    0.20
  -6  -1  -1    0.80    0.11
   6   1   1    0.80    0.09
   6   1   1    0.85    0.14
   6   1   1    0.44    0.10
   6   1   1    0.67    0.11
  -7  -1  -1    2.53    0.21
  -7  -1  -1    2.17    0.17
  -7  -1  -1    2.14    0.23
  -7  -1  -1    1.79    0.35
   7   1   1    2.10    0.14
   7   1   1    2.58    0.23
  -8  -1  -1    0.07    0.13
  -8  -1  -1    0.05    0.10
   8   1   1    0.09    0.08
   8   1   1    0.08    0.14
  -9  -1  -1    0.06    0.11
   9   1   1    0.00    0.16
  10  -2  -1    0.07    0.09
  10  -2  -1   -0.16    0.16
 -10   2   1   -0.13    0.10
 -10   2   1   -0.42    0.22
 -10   2   1    0.22    0.14
   9  -2  -1    0.36    0.16
   9  -2  -1    0.34    0.09
  -9   2   1    0.64    0.14
  -9   2   1    0.19    0.22
  -9   2   1    0.39    0.11
   8  -2  -1    1.10    0.11
   8  -2  -1    1.34    0.17
  -8   2   1    1.12    0.24
  -8   2   1    1.26    0.15
   7  -2  -1    1.26    0.15
   7  -2  -1    1.07    0.10
   7  -2  -1    1.17    0.13
  -7   2   1    1.10    0.21
  -7   2   1    1.19    0.12
  -7   2   1    1.17    0.12
  -7   2   1    1.24    0.14
  -7   2   1    0.83    0.27
   6  -2  -1    2.86    0.14
   6  -2  -1    2.74    0.16
   6  -2  -1    2.92    0.16
   6  -2  -1    3.32    0.19
   6  -2  -1    2.92    0.14
  -6   2   1    2.73    0.27
  -6   2   1    3.01    0.17
  -6   2   1    3.14    0.41
  -6   2   1    3.09    0.17
  -6   2   1    3.16    0.16
  -6   2   1    3.24    0.17
  -6   2   1    3.09    0.15
   5  -2  -1    2.89    0.15
   5  -2  -1    3.06    0.17
   5  -2  -1    2.92    0.13
   5  -2  -1    2.98    0.13
   5  -2  -1    2.89    0.14
  -5   2   1    2.80    0.37
  -5   2   1    3.13    0.15
  -5   2   1    3.02    0.14
  -5   2   1    3.00    0.16
  -5   2   1    2.85    0.13
  -5   2   1    2.83    0.15
  -5   2   1    2.97    0.25
   4  -2  -1    6.67    0.21
   4  -2  -1    6.36    0.25
   4  -2  -1    6.46    0.20
   4  -2  -1    6.31    0.22
  -4   2   1    6.37    0.21
  -4   2   1    6.51    0.21
  -4   2   1    6.68    0.22
  -4   2   1    6.43    0.45
  -4   2   1    6.78    0.36
  -4   2   1    6.20    0.24
   3  -2  -1   29.93    0.76
   3  -2  -1   29.15    0.79
   3  -2  -1   29.06    1.14
   3  -2  -1   30.70    1.65
   3  -2  -1   27.11    1.44
   3  -2  -1   27.44    0.87
  -3   2   1   27.88    0.87
  -3   2   1   29.08    0.79
  -3   2   1   29.00    0.79
  -3   2   1   28.51    0.76
  -3   2   1   28.74    1.23
  -3   2   1   28.33    1.47
   2  -2  -1    4.30    0.17
   2  -2  -1    3.66    0.27
   2  -2  -1    4.15    0.15
   2  -2  -1    4.24    0.39
   2  -2  -1    4.62    0.13
   2  -2  -1    4.61    0.14
  -2   2   1    4.26    0.16
  -2   2   1    4.36    0.15
  -2   2   1    4.20    0.23
  -2   2   1    3.77    0.28
  -2   2   1    4.41    0.14
  -2   2   1    4.63    0.14
   1  -2  -1    0.30    0.04
   1  -2  -1    0.39    0.04
   1  -2  -1    0.39    0.03
  -1   2   1    0.23    0.06
  -1   2   1    0.34    0.04
  -1   2   1    0.33    0.04
  -1   2   1    0.39    0.04
  -1   2   1    0.36    0.04
   0  -2  -1    0.13    0.03
   0  -2  -1    0.16    0.03
   0  -2  -1    0.12    0.03
   0   2   1    0.15    0.03
   0   2   1    0.18    0.03
   0   2   1    0.12    0.03
   0   2   1    0.11    0.07
  -1  -2  -1    9.09    0.31
  -1  -2  -1    9.64    0.37
  -1  -2  -1    9.10    0.38
  -1  -2  -1    9.79    0.27
  -1  -2  -1    9.26    0.31
   1   2   1    9.98    0.29
   1   2   1   10.03    0.27
   1   2   1    9.65    0.32
  -2  -2  -1   10.19    0.30
  -2  -2  -1    9.35    0.43
  -2  -2  -1   10.24    0.29
  -2  -2  -1    9.79    0.33
   2   2   1    9.68    0.34
   2   2   1    9.74    0.32
   2   2   1    9.98    0.30
   2   2   1    9.92    0.29
  -3  -2  -1    7.58    0.34
  -3  -2  -1    7.41    0.24
  -3  -2  -1    7.53    0.33
  -3  -2  -1    7.67    0.25
  -3  -2  -1    7.39    0.28
   3   2   1    7.56    0.24
   3   2   1    7.35    0.25
   3   2   1    7.65    0.29
   3   2   1    7.56    0.48
   3   2   1    7.38    0.27
  -4  -2  -1    0.51    0.09
  -4  -2  -1    0.40    0.23
  -4  -2  -1    0.49    0.07
  -4  -2  -1    0.39    0.09
  -4  -2  -1    0.53    0.08
   4   2   1    0.51    0.08
   4   2   1    0.55    0.10
   4   2   1    0.47    0.07
   4   2   1    0.46    0.08
  -5  -2  -1    0.28    0.07
  -5  -2  -1    0.27    0.09
  -5  -2  -1    0.12    0.30
  -5  -2  -1    0.36    0.08
  -5  -2  -1    0.24    0.08
   5   2   1    0.15    0.07
   5   2   1    0.12    0.08
   5   2   1    0.30    0.07
   5   2   1    0.20    0.10
  -6  -2  -1    1.05    0.12
  -6  -2  -1    1.06    0.16
  -6  -2  -1    0.91    0.38
  -6  -2  -1    1.21    0.27
   6   2   1    1.27    0.15
   6   2   1    1.01    0.17
   6   2   1    1.13    0.11
  -7  -2  -1    0.18    0.12
  -7  -2  -1    0.27    0.10
  -7  -2  -1    0.35    0.12
   7   2   1    0.21    0.08
   7   2   1    0.35    0.15
  -8  -2  -1    0.00    0.10
   8   2   1    0.02    0.09
   8   2   1    0.04    0.15
  -9  -2  -1    0.12    0.11
   9   2   1   -0.15    0.17
  11  -3  -1    0.03    0.09
 -11   3   1    0.11    0.12
  10  -3  -1    0.10    0.09
  10  -3  -1   -0.21    0.15
 -10   3   1   -0.20    0.12
 -10   3   1    0.21    0.11
 -10   3   1   -0.33    0.24
   9  -3  -1    0.33    0.15
   9  -3  -1    0.09    0.08
  -9   3   1    0.04    0.10
  -9   3   1    0.27    0.13
  -9   3   1   -0.07    0.23
   8  -3  -1    0.79    0.15
   8  -3  -1    0.50    0.09
  -8   3   1    0.53    0.21
  -8   3   1    0.58    0.12
   7  -3  -1    1.00    0.15
   7  -3  -1    0.90    0.10
  -7   3   1    1.23    0.14
  -7   3   1    0.61    0.26
  -7   3   1    1.21    0.24
  -7   3   1    1.10    0.12
   6  -3  -1    0.09    0.05
   6  -3  -1    0.08    0.08
   6  -3  -1    0.16    0.05
   6  -3  -1    0.22    0.09
   6  -3  -1    0.10    0.06
  -6   3   1    0.10    0.07
  -6   3   1    0.11    0.14
  -6   3   1    0.10    0.07
  -6   3   1    0.24    0.06
  -6   3   1    0.17    0.08
  -6   3   1   -0.12    0.20
   5  -3  -1    5.71    0.19
   5  -3  -1    5.47    0.21
   5  -3  -1    5.70    0.22
   5  -3  -1    5.21    0.19
   5  -3  -1    5.63    0.24
  -5   3   1    5.55    0.23
  -5   3   1    5.46    0.47
  -5   3   1    5.16    0.20
  -5   3   1    5.34    0.21
  -5   3   1    5.50    0.21
  -5   3   1    5.06    0.35
  -5   3   1    5.42    0.23
   4  -3  -1    0.50    0.11
   4  -3  -1    0.65    0.06
   4  -3  -1    0.65    0.08
   4  -3  -1    0.70    0.08
   4  -3  -1    0.69    0.08
  -4   3   1    0.78    0.08
  -4   3   1    0.76    0.08
  -4   3   1    0.58    0.06
  -4   3   1    0.61    0.07
  -4   3   1    0.66    0.24
  -4   3   1    0.53    0.07
  -4   3   1    0.67    0.34
   3  -3  -1    6.38    0.39
   3  -3  -1    6.58    0.23
   3  -3  -1    6.43    0.24
   3  -3  -1    6.48    0.20
   3  -3  -1    6.42    0.25
  -3   3   1    6.84    0.35
  -3   3   1    6.74    0.21
  -3   3   1    6.13    0.42
  -3   3   1    6.64    0.21
  -3   3   1    6.53    0.24
  -3   3   1    6.68    0.22
   2  -3  -1   32.67    0.98
   2  -3  -1   34.00    0.85
   2  -3  -1   33.65    0.88
   2  -3  -1   29.55    1.55
  -2   3   1   31.69    0.85
  -2   3   1   30.67    1.56
  -2   3   1   32.95    0.88
  -2   3   1   32.49    0.88
  -2   3   1   32.72    0.97
  -2   3   1   32.67    1.27
   1  -3  -1    7.30    0.22
   1  -3  -1    7.60    0.21
   1  -3  -1    7.15    0.25
  -1   3   1    7.14    0.22
  -1   3   1    7.22    0.23
  -1   3   1    7.09    0.31
  -1   3   1    6.71    0.22
  -1   3   1    7.07    0.25
   0  -3  -1    7.41    0.21
   0  -3  -1    6.42    0.24
   0  -3  -1    7.31    0.22
   0   3   1    7.36    0.24
   0   3   1    6.62    0.24
   0   3   1    7.64    0.31
   0   3   1    7.34    0.22
  -1  -3  -1    2.83    0.15
  -1  -3  -1    2.97    0.12
  -1  -3  -1    3.11    0.12
  -1  -3  -1    2.88    0.14
  -1  -3  -1    2.88    0.13
   1   3   1    2.83    0.13
   1   3   1    3.14    0.12
   1   3   1    2.86    0.14
   1   3   1    2.75    0.12
  -2  -3  -1    0.37    0.06
  -2  -3  -1    0.39    0.06
  -2  -3  -1    0.43    0.06
  -2  -3  -1    0.34    0.06
   2   3   1    0.41    0.06
   2   3   1    0.39    0.06
   2   3   1    0.33    0.07
   2   3   1    0.39    0.05
  -3  -3  -1    0.85    0.08
  -3  -3  -1    0.61    0.09
  -3  -3  -1    0.72    0.08
  -3  -3  -1    1.01    0.10
   3   3   1    0.76    0.08
   3   3   1    0.75    0.09
   3   3   1    0.70    0.08
   3   3   1    0.76    0.10
  -4  -3  -1    2.35    0.14
  -4  -3  -1    2.40    0.14
  -4  -3  -1    2.41    0.18
  -4  -3  -1    2.67    0.16
   4   3   1    2.41    0.19
   4   3   1    2.33    0.15
   4   3   1    2.34    0.13
   4   3   1    2.33    0.15
  -5  -3  -1    0.39    0.08
  -5  -3  -1    0.40    0.10
  -5  -3  -1    0.36    0.09
  -5  -3  -1    0.40    0.10
   5   3   1    0.18    0.09
   5   3   1    0.38    0.12
   5   3   1    0.37    0.08
   5   3   1    0.24    0.08
  -6  -3  -1   -0.05    0.13
  -6  -3  -1   -0.05    0.08
  -6  -3  -1    0.03    0.08
  -6  -3  -1   -0.28    0.31
   6   3   1    0.07    0.13
   6   3   1   -0.09    0.07
  -7  -3  -1    1.71    0.37
  -7  -3  -1    1.57    0.15
   7   3   1    1.97    0.24
   7   3   1    1.56    0.14
  -8  -3  -1   -0.05    0.10
   8   3   1   -0.17    0.16
   8   3   1   -0.13    0.08
  10  -4  -1    0.13    0.08
  10  -4  -1   -0.05    0.32
 -10   4   1    0.11    0.11
 -10   4   1   -0.27    0.26
 -10   4   1   -0.13    0.14
   9  -4  -1    0.24    0.17
   9  -4  -1    0.06    0.08
  -9   4   1    0.16    0.25
  -9   4   1    0.13    0.11
  -9   4   1    0.36    0.13
   8  -4  -1    0.08    0.07
   8  -4  -1    0.06    0.13
  -8   4   1   -0.04    0.21
  -8   4   1    0.01    0.10
  -8   4   1    0.03    0.10
   7  -4  -1    1.38    0.18
   7  -4  -1    1.58    0.12
  -7   4   1    1.41    0.27
  -7   4   1    1.88    0.18
  -7   4   1    1.44    0.14
  -7   4   1    0.97    0.31
   6  -4  -1    5.11    0.23
   6  -4  -1    5.91    0.55
   6  -4  -1    5.19    0.24
   6  -4  -1    4.80    0.20
  -6   4   1    5.37    0.40
  -6   4   1    5.70    0.26
  -6   4   1    4.84    0.21
  -6   4   1    5.86    0.54
  -6   4   1    5.60    0.23
   5  -4  -1    0.55    0.06
   5  -4  -1    0.52    0.06
   5  -4  -1    0.62    0.08
   5  -4  -1    0.62    0.09
   5  -4  -1    0.56    0.09
  -5   4   1    0.72    0.10
  -5   4   1    0.68    0.18
  -5   4   1    0.42    0.07
  -5   4   1    0.36    0.20
  -5   4   1    0.37    0.08
  -5   4   1    0.69    0.09
  -5   4   1    0.53    0.08
   4  -4  -1    1.26    0.10
   4  -4  -1    1.13    0.31
   4  -4  -1    1.07    0.11
   4  -4  -1    1.18    0.08
  -4   4   1    1.03    0.10
  -4   4   1    1.38    0.11
  -4   4   1    1.25    0.10
  -4   4   1    1.16    0.20
  -4   4   1    1.42    0.20
  -4   4   1    1.16    0.11
  -4   4   1    1.17    0.11
  -4   4   1    1.11    0.09
   3  -4  -1    4.36    0.16
   3  -4  -1    4.23    0.29
   3  -4  -1    4.44    0.19
   3  -4  -1    4.34    0.15
   3  -4  -1    4.14    0.19
  -3   4   1    4.07    0.26
  -3   4   1    4.19    0.19
  -3   4   1    4.26    0.48
  -3   4   1    4.34    0.16
  -3   4   1    4.42    0.16
  -3   4   1    4.32    0.17
  -3   4   1    4.21    0.18
   2  -4  -1   15.36    0.43
   2  -4  -1   14.14    0.49
   2  -4  -1   15.47    0.42
   2  -4  -1   13.82    0.76
  -2   4   1   15.40    0.44
  -2   4   1   15.64    0.64
  -2   4   1   15.08    0.48
  -2   4   1   15.13    0.78
  -2   4   1   15.33    0.43
  -2   4   1   14.90    0.45
   1  -4  -1   10.59    0.30
   1  -4  -1    9.87    0.35
   1  -4  -1   10.77    0.31
  -1   4   1   10.45    0.31
  -1   4   1   10.14    0.44
  -1   4   1    9.73    0.34
  -1   4   1   10.17    0.31
   0  -4  -1    0.13    0.05
   0  -4  -1    0.06    0.04
   0  -4  -1    0.09    0.05
   0   4   1    0.09    0.05
   0   4   1    0.09    0.05
   0   4   1    0.15    0.05
   0   4   1    0.20    0.05
   0   4   1    0.12    0.04
  -1  -4  -1    5.40    0.19
  -1  -4  -1    5.65    0.20
  -1  -4  -1    5.49    0.22
  -1  -4  -1    5.62    0.22
  -1  -4  -1    5.57    0.26
   1   4   1    5.81    0.22
   1   4   1    5.53    0.21
   1   4   1    5.38    0.23
   1   4   1    5.70    0.19
  -2  -4  -1    2.79    0.15
  -2  -4  -1    2.92    0.14
  -2  -4  -1    2.79    0.13
  -2  -4  -1    2.88    0.16
   2   4   1    2.65    0.16
   2   4   1    2.92    0.13
   2   4   1    2.88    0.15
   2   4   1    2.70    0.14
  -3  -4  -1    5.51    0.29
  -3  -4  -1    5.49    0.22
  -3  -4  -1    6.46    0.27
  -3  -4  -1    5.39    0.21
   3   4   1    5.34    0.22
   3   4   1    5.45    0.24
   3   4   1    5.52    0.26
   3   4   1    5.48    0.21
  -4  -4  -1    0.13    0.07
  -4  -4  -1    0.11    0.08
  -4  -4  -1    0.05    0.07
  -4  -4  -1    0.06    0.06
   4   4   1    0.12    0.10
   4   4   1    0.19    0.07
   4   4   1    0.03    0.08
   4   4   1    0.21    0.08
  -5  -4  -1    0.46    0.11
  -5  -4  -1    0.31    0.09
   5   4   1    0.27    0.08
   5   4   1    0.49    0.14
  -6  -4  -1    0.15    0.09
  -6  -4  -1    0.27    0.12
   6   4   1    0.11    0.09
   6   4   1    0.16    0.15
  -7  -4  -1    0.01    0.18
  -7  -4  -1    0.02    0.09
   7   4   1   -0.01    0.09
   7   4   1   -0.09    0.17
  -8  -4  -1    0.00    0.09
   8   4   1   -0.09    0.18
  10  -5  -1    0.10    0.17
  10  -5  -1    0.11    0.08
 -10   5   1    0.24    0.16
 -10   5   1   -0.11    0.11
 -10   5   1   -0.01    0.28
   9  -5  -1    0.03    0.07
   9  -5  -1   -0.17    0.14
  -9   5   1   -0.03    0.12
  -9   5   1    0.10    0.11
  -9   5   1   -0.25    0.24
   8  -5  -1    0.52    0.09
   8  -5  -1    0.62    0.15
  -8   5   1    0.55    0.13
  -8   5   1    0.58    0.12
  -8   5   1    0.53    0.26
   7  -5  -1    2.30    0.14
   7  -5  -1    3.04    0.23
  -7   5   1    2.58    0.35
  -7   5   1    1.69    0.35
  -7   5   1    2.29    0.18
  -7   5   1    2.89    0.21
   6  -5  -1    2.53    0.14
   6  -5  -1    2.89    0.21
  -6   5   1    2.60    0.15
  -6   5   1    2.07    0.34
  -6   5   1    2.77    0.33
  -6   5   1    2.88    0.18
  -6   5   1    2.93    0.19
   5  -5  -1    0.84    0.11
   5  -5  -1    0.92    0.10
   5  -5  -1    0.80    0.15
   5  -5  -1    0.72    0.07
  -5   5   1    0.99    0.28
  -5   5   1    0.94    0.49
  -5   5   1    0.92    0.11
  -5   5   1    0.82    0.08
  -5   5   1    0.87    0.11
   4  -5  -1    1.61    0.12
   4  -5  -1    1.56    0.13
   4  -5  -1    1.39    0.09
   4  -5  -1    1.30    0.11
  -4   5   1    1.67    0.30
  -4   5   1    1.38    0.20
  -4   5   1    1.58    0.13
  -4   5   1    1.44    0.12
  -4   5   1    1.65    0.12
  -4   5   1    1.43    0.10
  -4   5   1    1.39    0.12
   3  -5  -1    0.07    0.04
   3  -5  -1    0.10    0.05
   3  -5  -1    0.01    0.04
   3  -5  -1   -0.01    0.05
  -3   5   1    0.06    0.05
  -3   5   1   -0.03    0.05
  -3   5   1   -0.03    0.05
  -3   5   1    0.10    0.11
  -3   5   1    0.01    0.05
  -3   5   1    0.05    0.05
  -3   5   1   -0.04    0.10
   2  -5  -1    1.06    0.08
   2  -5  -1    1.05    0.10
   2  -5  -1    1.04    0.08
   2  -5  -1    1.11    0.09
  -2   5   1    0.99    0.09
  -2   5   1    1.02    0.10
  -2   5   1    1.09    0.09
  -2   5   1    1.09    0.09
  -2   5   1    0.99    0.09
  -2   5   1    0.95    0.14
   1  -5  -1    0.43    0.07
   1  -5  -1    0.42    0.06
   1  -5  -1    0.61    0.08
   1  -5  -1    0.38    0.05
  -1   5   1    0.43    0.07
  -1   5   1    0.48    0.08
  -1   5   1    0.35    0.06
  -1   5   1    0.35    0.06
  -1   5   1    0.42    0.07
   0  -5  -1    0.19    0.06
   0  -5  -1    0.11    0.05
   0  -5  -1    0.19    0.05
   0  -5  -1    0.22    0.05
   0   5   1    0.17    0.05
   0   5   1    0.16    0.06
   0   5   1    0.18    0.06
   0   5   1    0.13    0.06
   0   5   1    0.16    0.08
  -1  -5  -1    0.12    0.06
  -1  -5  -1    0.05    0.05
  -1  -5  -1    0.08    0.05
  -1  -5  -1    0.02    0.10
  -1  -5  -1    0.06    0.05
  -1  -5  -1    0.09    0.06
   1   5   1    0.08    0.10
   1   5   1    0.06    0.05
   1   5   1   -0.02    0.06
   1   5   1    0.10    0.06
  -2  -5  -1    0.64    0.10
  -2  -5  -1    0.54    0.09
  -2  -5  -1    0.45    0.07
   2   5   1    0.53    0.10
   2   5   1    0.48    0.08
   2   5   1    0.48    0.08
   2   5   1    0.48    0.08
  -3  -5  -1    1.28    0.12
  -3  -5  -1    1.44    0.26
  -3  -5  -1    1.40    0.12
  -3  -5  -1    1.44    0.15
   3   5   1    1.46    0.13
   3   5   1    1.37    0.12
   3   5   1    1.55    0.16
   3   5   1    1.41    0.12
  -4  -5  -1    2.05    0.15
  -4  -5  -1    1.90    0.19
   4   5   1    1.90    0.14
   4   5   1    2.25    0.22
  -5  -5  -1    1.84    0.15
  -5  -5  -1    2.29    0.22
   5   5   1    2.07    0.23
   5   5   1    1.66    0.15
  -6  -5  -1    0.47    0.10
  -6  -5  -1    0.45    0.14
   6   5   1    0.58    0.19
   6   5   1    0.52    0.11
  -7  -5  -1    0.19    0.10
   7   5   1    0.22    0.18
   7   5   1    0.20    0.10
  10  -6  -1   -0.04    0.08
  10  -6  -1   -0.01    0.16
 -10   6   1   -0.07    0.12
 -10   6   1   -0.42    0.30
   9  -6  -1   -0.01    0.14
   9  -6  -1   -0.07    0.07
  -9   6   1    0.04    0.11
  -9   6   1   -0.20    0.12
  -9   6   1   -0.25    0.28
   8  -6  -1    0.02    0.07
   8  -6  -1   -0.02    0.12
  -8   6   1    0.12    0.11
  -8   6   1    0.18    0.11
  -8   6   1   -0.12    0.25
   7  -6  -1    0.37    0.08
   7  -6  -1    0.68    0.14
  -7   6   1    0.55    0.12
  -7   6   1    0.51    0.12
  -7   6   1    0.54    0.24
   6  -6  -1    0.50    0.08
   6  -6  -1    0.63    0.13
  -6   6   1    0.58    0.12
  -6   6   1    0.56    0.11
  -6   6   1    0.39    0.31
  -6   6   1    0.73    0.45
   5  -6  -1    1.80    0.15
   5  -6  -1    1.68    0.17
   5  -6  -1    1.66    0.11
  -5   6   1    1.57    0.13
  -5   6   1    1.96    0.18
  -5   6   1    1.89    0.26
  -5   6   1    2.31    0.40
  -5   6   1    1.89    0.14
  -5   6   1    1.82    0.16
   4  -6  -1    0.13    0.07
   4  -6  -1    0.02    0.07
   4  -6  -1    0.08    0.05
   4  -6  -1    0.00    0.05
  -4   6   1    0.05    0.14
  -4   6   1    0.07    0.07
  -4   6   1    0.16    0.06
  -4   6   1    0.10    0.07
  -4   6   1    0.17    0.16
   3  -6  -1    0.02    0.06
   3  -6  -1    0.08    0.05
   3  -6  -1    0.11    0.05
   3  -6  -1    0.01    0.07
  -3   6   1    0.09    0.07
  -3   6   1    0.02    0.11
  -3   6   1    0.15    0.06
  -3   6   1    0.14    0.07
  -3   6   1    0.36    0.13
  -3   6   1    0.08    0.08
  -3   6   1    0.14    0.06
   2  -6  -1    4.46    0.18
   2  -6  -1    4.16    0.17
   2  -6  -1    4.74    0.22
   2  -6  -1    4.34    0.20
  -2   6   1    4.21    0.20
  -2   6   1    4.45    0.27
  -2   6   1    4.11    0.21
  -2   6   1    4.26    0.23
  -2   6   1    4.35    0.18
  -2   6   1    4.41    0.20
   1  -6  -1    3.40    0.18
   1  -6  -1    3.04    0.14
   1  -6  -1    2.86    0.14
   1  -6  -1    3.09    0.17
  -1   6   1    2.95    0.16
  -1   6   1    2.80    0.15
  -1   6   1    3.29    0.21
  -1   6   1    3.04    0.15
  -1   6   1    3.25    0.18
   0  -6  -1    0.05    0.05
   0  -6  -1   -0.08    0.05
   0  -6  -1    0.01    0.05
   0  -6  -1   -0.07    0.05
   0   6   1    0.01    0.06
   0   6   1   -0.01    0.06
   0   6   1    0.02    0.05
   0   6   1    0.08    0.12
   0   6   1    0.11    0.06
  -1  -6  -1    0.13    0.07
  -1  -6  -1    0.07    0.06
   1   6   1    0.08    0.06
   1   6   1    0.12    0.06
   1   6   1    0.09    0.07
   1   6   1    0.10    0.08
   1   6   1    0.05    0.08
  -2  -6  -1    2.18    0.17
  -2  -6  -1    1.78    0.13
   2   6   1    1.89    0.14
   2   6   1    1.70    0.15
   2   6   1    2.24    0.19
  -3  -6  -1    1.23    0.24
  -3  -6  -1    0.95    0.10
   3   6   1    1.22    0.12
   3   6   1    1.00    0.15
  -4  -6  -1    0.56    0.09
  -4  -6  -1    0.73    0.14
   4   6   1    0.41    0.10
   4   6   1    0.64    0.16
  -5  -6  -1    0.12    0.12
  -5  -6  -1   -0.08    0.07
   5   6   1    0.10    0.09
   5   6   1   -0.03    0.15
  -6  -6  -1    0.30    0.14
  -6  -6  -1    0.13    0.09
   6   6   1    0.36    0.19
   6   6   1    0.29    0.11
  -7  -6  -1   -0.08    0.08
   7   6   1   -0.18    0.18
   7   6   1    0.10    0.11
  10  -7  -1   -0.03    0.17
  10  -7  -1   -0.14    0.08
 -10   7   1   -0.08    0.12
   9  -7  -1    0.12    0.15
   9  -7  -1    0.02    0.08
  -9   7   1   -0.08    0.11
  -9   7   1   -0.36    0.30
  -9   7   1   -0.14    0.14
   8  -7  -1    0.08    0.08
   8  -7  -1    0.00    0.13
  -8   7   1    0.08    0.13
  -8   7   1   -0.15    0.10
  -8   7   1   -0.12    0.26
   7  -7  -1    0.09    0.07
   7  -7  -1    0.05    0.11
  -7   7   1    0.30    0.25
  -7   7   1    0.04    0.10
  -7   7   1   -0.01    0.11
   6  -7  -1    0.53    0.08
   6  -7  -1    0.57    0.13
  -6   7   1    0.75    0.24
  -6   7   1    0.21    0.60
  -6   7   1    0.32    0.12
  -6   7   1    0.67    0.40
   5  -7  -1    2.15    0.14
   5  -7  -1    2.91    0.21
  -5   7   1    3.19    0.43
  -5   7   1    2.38    0.31
  -5   7   1    2.50    0.20
  -5   7   1    2.51    0.17
   4  -7  -1    3.65    0.17
   4  -7  -1    3.69    0.24
  -4   7   1    3.78    0.23
  -4   7   1    4.86    0.63
  -4   7   1    3.84    0.19
  -4   7   1    3.50    0.20
  -4   7   1    3.91    0.33
   3  -7  -1    4.80    0.20
   3  -7  -1    5.45    0.27
  -3   7   1    5.23    0.26
  -3   7   1    5.10    0.22
  -3   7   1    4.79    0.21
  -3   7   1    5.12    0.50
   2  -7  -1    2.40    0.13
   2  -7  -1    2.70    0.19
  -2   7   1    2.38    0.15
  -2   7   1    2.45    0.19
  -2   7   1    2.33    0.23
  -2   7   1    2.42    0.15
   1  -7  -1    1.84    0.12
   1  -7  -1    2.11    0.17
  -1   7   1    1.88    0.17
  -1   7   1    1.68    0.16
  -1   7   1    2.25    0.19
  -1   7   1    1.91    0.14
   0  -7  -1    0.85    0.13
   0  -7  -1    0.88    0.09
   0   7   1    0.87    0.13
   0   7   1    0.81    0.10
   0   7   1    0.67    0.10
  -1  -7  -1    5.62    0.27
  -1  -7  -1    4.94    0.21
   1   7   1    4.91    0.22
   1   7   1    5.60    0.29
  -2  -7  -1    0.75    0.10
  -2  -7  -1    0.84    0.13
   2   7   1    1.41    0.16
   2   7   1    0.89    0.11
  -3  -7  -1    0.13    0.12
  -3  -7  -1    0.09    0.07
   3   7   1   -0.03    0.08
   3   7   1    0.13    0.13
  -4  -7  -1   -0.07    0.07
  -4  -7  -1   -0.01    0.12
   4   7   1    0.02    0.15
   4   7   1   -0.03    0.09
  -5  -7  -1    0.02    0.08
  -5  -7  -1    0.07    0.14
   5   7   1   -0.09    0.10
   5   7   1   -0.08    0.18
  -6  -7  -1    0.10    0.09
  -6  -7  -1    0.09    0.15
   6   7   1   -0.03    0.18
   6   7   1    0.01    0.11
   9  -8  -1   -0.21    0.15
   9  -8  -1    0.07    0.08
  -9   8   1   -0.21    0.33
  -9   8   1   -0.09    0.13
   8  -8  -1    0.21    0.09
   8  -8  -1    0.03    0.14
  -8   8   1   -0.22    0.29
  -8   8   1    0.36    0.17
  -8   8   1    0.12    0.13
   7  -8  -1   -0.01    0.07
   7  -8  -1    0.02    0.12
  -7   8   1    0.17    0.12
  -7   8   1   -0.46    0.22
  -7   8   1    0.04    0.12
   6  -8  -1   -0.02    0.06
   6  -8  -1    0.07    0.12
  -6   8   1   -0.25    0.55
  -6   8   1   -0.12    0.09
  -6   8   1    0.01    0.10
  -6   8   1   -0.15    0.10
  -6   8   1   -0.07    0.32
   5  -8  -1    0.16    0.11
   5  -8  -1    0.10    0.06
  -5   8   1    0.18    0.20
  -5   8   1    0.17    0.09
  -5   8   1    0.19    0.19
  -5   8   1    0.04    0.10
   4  -8  -1   -0.02    0.06
   4  -8  -1   -0.02    0.10
  -4   8   1    0.56    0.27
  -4   8   1    0.04    0.09
  -4   8   1    0.01    0.16
  -4   8   1    0.03    0.09
   3  -8  -1    0.65    0.09
   3  -8  -1    0.62    0.11
  -3   8   1    0.56    0.10
  -3   8   1    0.67    0.23
  -3   8   1    0.78    0.12
   2  -8  -1    0.01    0.06
   2  -8  -1    0.02    0.08
  -2   8   1    0.05    0.09
  -2   8   1    0.18    0.12
  -2   8   1    0.06    0.08
   1  -8  -1    0.19    0.09
   1  -8  -1    0.17    0.07
  -1   8   1    0.15    0.10
  -1   8   1    0.17    0.08
   0  -8  -1    1.07    0.11
   0  -8  -1    1.32    0.16
   0  -8  -1    1.69    0.17
   0   8   1    1.05    0.15
   0   8   1    1.06    0.12
  -1  -8  -1    0.87    0.11
  -1  -8  -1    1.10    0.14
   1   8   1    1.08    0.12
   1   8   1    0.99    0.17
  -2  -8  -1    0.46    0.13
  -2  -8  -1    0.17    0.08
   2   8   1    0.37    0.10
   2   8   1    0.39    0.15
  -3  -8  -1    0.23    0.13
  -3  -8  -1    0.24    0.08
   3   8   1    0.38    0.16
   3   8   1    0.12    0.10
  -4  -8  -1   -0.14    0.13
  -4  -8  -1   -0.09    0.08
   4   8   1    0.19    0.17
   4   8   1   -0.07    0.09
  -5  -8  -1    0.09    0.09
  -5  -8  -1    0.18    0.16
   5   8   1   -0.11    0.18
   5   8   1    0.00    0.10
   9  -9  -1    0.21    0.19
  -9   9   1    0.06    0.13
  -9   9   1   -0.61    0.35
   8  -9  -1    0.00    0.15
   8  -9  -1    0.10    0.08
  -8   9   1   -0.43    0.31
  -8   9   1    0.04    0.13
   7  -9  -1    0.05    0.14
   7  -9  -1    0.18    0.08
  -7   9   1    0.06    0.14
  -7   9   1   -0.18    0.27
  -7   9   1   -0.15    0.12
   6  -9  -1    0.03    0.13
   6  -9  -1   -0.02    0.07
  -6   9   1   -0.33    0.27
  -6   9   1   -0.02    0.12
  -6   9   1    0.10    0.12
  -6   9   1    0.02    0.10
   5  -9  -1    0.01    0.10
   5  -9  -1   -0.06    0.06
  -5   9   1    0.10    0.20
  -5   9   1   -0.01    0.09
  -5   9   1   -0.03    0.10
   4  -9  -1    0.30    0.11
   4  -9  -1    0.04    0.07
  -4   9   1    0.06    0.11
  -4   9   1    0.00    0.09
  -4   9   1    0.21    0.17
   3  -9  -1    0.07    0.07
   3  -9  -1    0.31    0.11
  -3   9   1    0.31    0.12
  -3   9   1    0.15    0.10
   2  -9  -1    0.40    0.11
   2  -9  -1    0.31    0.08
  -2   9   1    0.28    0.10
  -2   9   1    0.43    0.12
   1  -9  -1    0.16    0.08
   1  -9  -1    0.35    0.12
  -1   9   1    0.10    0.11
  -1   9   1    0.04    0.09
   0  -9  -1    0.00    0.07
   0  -9  -1   -0.11    0.10
   0   9   1   -0.11    0.08
   0   9   1   -0.10    0.13
  -1  -9  -1    0.05    0.08
  -1  -9  -1    0.04    0.11
   1   9   1    0.10    0.14
   1   9   1   -0.04    0.09
  -2  -9  -1    0.07    0.13
  -2  -9  -1    0.11    0.08
   2   9   1   -0.15    0.14
   2   9   1    0.22    0.11
  -3  -9  -1    0.11    0.09
  -3  -9  -1    0.02    0.15
   3   9   1    0.13    0.10
   3   9   1    0.05    0.16
  -4  -9  -1    0.03    0.09
  -4  -9  -1   -0.13    0.14
   4   9   1   -0.15    0.10
   4   9   1    0.14    0.18
   8 -10  -1   -0.03    0.17
  -8  10   1   -0.50    0.34
  -8  10   1   -0.20    0.13
   7 -10  -1   -0.10    0.15
   7 -10  -1   -0.04    0.08
  -7  10   1    0.04    0.14
  -7  10   1   -0.24    0.27
   6 -10  -1    0.22    0.12
   6 -10  -1    0.21    0.09
  -6  10   1    0.06    0.12
  -6  10   1    0.21    0.17
  -6  10   1   -0.09    0.39
  -6  10   1    0.32    0.14
   5 -10  -1    0.39    0.09
   5 -10  -1    0.37    0.13
  -5  10   1    0.36    0.15
  -5  10   1    0.39    0.12
   4 -10  -1    0.05    0.07
   4 -10  -1   -0.09    0.10
  -4  10   1   -0.02    0.10
  -4  10   1    0.01    0.13
   3 -10  -1    0.01    0.10
   3 -10  -1    0.07    0.07
  -3  10   1    0.04    0.10
  -3  10   1   -0.10    0.12
   2 -10  -1    0.05    0.08
   2 -10  -1    0.07    0.11
  -2  10   1   -0.10    0.11
  -2  10   1   -0.08    0.09
   1 -10  -1    0.09    0.13
   1 -10  -1    0.09    0.12
   1 -10  -1    0.00    0.07
  -1  10   1   -0.09    0.12
  -1  10   1    0.12    0.10
   0 -10  -1    0.12    0.13
   0 -10  -1    0.09    0.09
   0  10   1    0.21    0.16
   0  10   1    0.06    0.10
  -1 -10  -1   -0.21    0.12
  -1 -10  -1    0.00    0.08
   1  10   1   -0.01    0.17
   1  10   1   -0.09    0.10
  -2 -10  -1    0.16    0.27
  -2 -10  -1    0.21    0.09
   2  10   1    0.36    0.17
   2  10   1   -0.14    0.10
   3  10   1   -0.06    0.11
   6 -11  -1    0.43    0.10
   6 -11  -1    0.60    0.16
  -6  11   1    0.37    0.15
  -6  11   1    0.48    0.15
   5 -11  -1    0.10    0.12
   5 -11  -1    0.37    0.09
  -5  11   1    0.02    0.13
  -5  11   1    0.19    0.18
   4 -11  -1    0.24    0.13
   4 -11  -1    0.28    0.09
  -4  11   1    0.13    0.12
  -4  11   1    0.60    0.18
   3 -11  -1    0.07    0.08
   3 -11  -1   -0.08    0.11
  -3  11   1   -0.02    0.14
  -3  11   1   -0.12    0.11
   2 -11  -1    0.17    0.09
   2 -11  -1    0.22    0.14
  -2  11   1    0.31    0.15
  -2  11   1    0.11    0.12
   1 -11  -1    0.03    0.09
   1 -11  -1    0.05    0.13
  -1  11   1    0.26    0.17
  -1  11   1   -0.06    0.11
   0 -11  -1    0.22    0.10
   0 -11  -1    0.41    0.15
   0  11   1    0.09    0.11
   0  11   1    0.04    0.18
  -1 -11  -1    0.02    0.09
  -1 -11  -1    0.17    0.16
   1  11   1    0.07    0.19
   1  11   1   -0.02    0.12
   1  12  -2   -0.02    0.12
   0  12  -2   -0.08    0.12
  -1  12  -2   -0.04    0.11
  -2  12  -2    0.08    0.12
  -3  12  -2    0.17    0.13
  -4  12  -2    0.48    0.31
  -4  12  -2   -0.18    0.12
  -5  12  -2    0.07    0.14
  -5  12  -2    0.24    0.26
   3  11  -2    0.00    0.11
  -3 -11   2    0.00    0.14
   2  11  -2   -0.09    0.11
   1  11  -2    0.02    0.11
  -1 -11   2   -0.08    0.12
   0  11  -2    0.24    0.12
   0 -11   2    0.15    0.11
  -1  11  -2   -0.09    0.11
  -2  11  -2    0.28    0.15
  -2  11  -2   -0.03    0.11
  -3  11  -2   -0.04    0.11
  -3  11  -2    0.41    0.18
  -4  11  -2    0.32    0.22
  -4  11  -2    0.02    0.12
  -5  11  -2   -0.06    0.12
  -5  11  -2    0.36    0.26
  -6  11  -2    0.32    0.32
  -6  11  -2    0.18    0.14
  -7  11  -2   -0.09    0.14
  -7  11  -2   -0.17    0.36
  -7  11  -2    0.06    0.15
   4  10  -2    0.64    0.14
  -4 -10   2    0.86    0.17
   3  10  -2    0.02    0.11
  -3 -10   2    0.10    0.12
   2  10  -2    0.22    0.12
  -2 -10   2    0.01    0.11
   1  10  -2    0.09    0.11
  -1 -10   2    0.17    0.13
   0  10  -2   -0.02    0.10
   0  10  -2    0.42    0.15
   0 -10   2    0.10    0.10
  -1  10  -2    1.37    0.16
  -1  10  -2    2.40    0.57
  -1  10  -2    1.79    0.24
   1 -10   2    1.44    0.16
   1 -10   2    1.67    0.19
  -2  10  -2    0.16    0.13
  -2  10  -2    0.05    0.10
   2 -10   2    0.00    0.12
  -3  10  -2   -0.03    0.10
  -3  10  -2    0.29    0.16
   3 -10   2   -0.06    0.11
  -4  10  -2    0.93    0.55
  -4  10  -2    0.26    0.18
  -4  10  -2   -0.06    0.10
   4 -10   2    0.03    0.12
  -5  10  -2    0.01    0.11
  -5  10  -2    0.39    0.23
   5 -10   2    0.35    0.15
  -6  10  -2   -0.11    0.27
  -6  10  -2    0.08    0.13
  -7  10  -2    0.00    0.13
  -7  10  -2    0.20    0.15
  -7  10  -2    0.17    0.34
  -8  10  -2   -0.48    0.91
  -8  10  -2   -0.10    0.15
   5   9  -2    0.11    0.11
  -5  -9   2    0.03    0.13
   4   9  -2   -0.08    0.10
   3   9  -2    0.31    0.11
  -3  -9   2    0.34    0.12
   2   9  -2    0.44    0.42
   2   9  -2    0.50    0.11
  -2  -9   2    0.50    0.12
   1   9  -2    1.04    0.13
   1   9  -2    1.00    0.18
  -1  -9   2    0.74    0.12
  -1  -9   2    1.04    0.13
   0   9  -2    6.64    0.30
   0   9  -2    7.08    0.44
   0  -9   2    7.63    0.31
   0  -9   2    6.60    0.32
  -1   9  -2    1.73    0.23
  -1   9  -2    1.50    0.15
   1  -9   2    1.56    0.17
   1  -9   2    1.50    0.15
  -2   9  -2    2.67    0.27
  -2   9  -2    2.47    0.18
  -2   9  -2    2.47    0.19
   2  -9   2    2.08    0.19
  -3   9  -2    0.21    0.15
  -3   9  -2   -0.28    0.08
   3  -9   2   -0.03    0.10
  -4   9  -2    0.19    0.10
  -4   9  -2    0.02    0.15
   4  -9   2    0.14    0.11
  -5   9  -2    0.02    0.11
  -5   9  -2   -0.16    0.17
   5  -9   2   -0.07    0.11
  -6   9  -2    0.53    0.14
  -6   9  -2    0.71    0.29
  -6   9  -2    1.96    0.60
   6  -9   2    0.69    0.15
  -7   9  -2   -0.22    0.12
  -7   9  -2    0.14    0.14
  -7   9  -2    0.14    0.31
  -8   9  -2   -0.54    0.72
  -8   9  -2    0.02    0.14
   6   8  -2    0.09    0.11
  -6  -8   2    0.27    0.29
   5   8  -2    0.08    0.10
  -5  -8   2    0.23    0.12
   4   8  -2    0.59    0.12
  -4  -8   2    1.03    0.15
   3   8  -2    0.00    0.09
  -3  -8   2    0.04    0.08
  -3  -8   2   -0.01    0.10
  -3  -8   2    0.01    0.09
   2   8  -2    0.12    0.09
   2   8  -2    0.07    0.12
   2   8  -2   -0.06    0.34
  -2  -8   2    0.09    0.08
  -2  -8   2    0.15    0.11
  -2  -8   2    0.11    0.08
   1   8  -2    0.07    0.11
   1   8  -2    0.18    0.12
   1   8  -2    0.18    0.09
   1   8  -2    0.10    0.09
  -1  -8   2    0.24    0.08
  -1  -8   2    0.15    0.12
  -1  -8   2    0.13    0.08
   0   8  -2    0.15    0.09
   0   8  -2    0.13    0.12
   0   8  -2    0.24    0.12
   0   8  -2    0.18    0.12
   0  -8   2    0.20    0.07
   0  -8   2    0.24    0.09
  -1   8  -2    0.19    0.11
  -1   8  -2    0.01    0.08
  -1   8  -2   -0.02    0.33
  -1   8  -2    0.01    0.13
  -1   8  -2    0.37    0.16
   1  -8   2   -0.01    0.07
   1  -8   2   -0.07    0.07
  -2   8  -2    0.79    0.10
  -2   8  -2    0.73    0.16
  -2   8  -2    0.86    0.11
   2  -8   2    0.72    0.11
  -3   8  -2    0.41    0.10
  -3   8  -2    0.52    0.16
  -3   8  -2    0.61    0.36
  -3   8  -2    0.35    0.08
   3  -8   2    0.27    0.10
  -4   8  -2    0.16    0.07
  -4   8  -2    0.14    0.10
  -4   8  -2    0.06    0.15
  -4   8  -2    0.31    0.39
   4  -8   2    0.05    0.08
   4  -8   2    0.01    0.09
  -5   8  -2    0.40    0.26
  -5   8  -2    0.20    0.10
  -5   8  -2    0.18    0.19
  -5   8  -2    0.51    1.29
   5  -8   2    0.25    0.11
   5  -8   2    0.20    0.10
  -6   8  -2    0.50    0.26
  -6   8  -2    0.43    0.13
   6  -8   2    0.38    0.13
  -7   8  -2   -0.08    0.27
  -7   8  -2   -0.30    0.11
  -7   8  -2    0.02    0.13
   7  -8   2   -0.15    0.11
  -8   8  -2    0.10    0.37
  -8   8  -2    0.11    0.15
  -9   8  -2   -0.19    0.38
  -9   8  -2   -0.02    0.15
   7   7  -2   -0.08    0.10
  -7  -7   2    0.20    0.14
   6   7  -2    0.28    0.10
  -6  -7   2    0.71    0.33
   5   7  -2   -0.04    0.08
  -5  -7   2    0.01    0.07
  -5  -7   2   -0.09    0.11
  -5  -7   2    0.03    0.10
   4   7  -2    1.22    0.13
  -4  -7   2    1.31    0.19
  -4  -7   2    1.40    0.15
  -4  -7   2    1.20    0.11
  -4  -7   2    1.25    0.23
  -4  -7   2    0.93    0.13
   3   7  -2    0.47    0.12
   3   7  -2    0.31    0.09
   3   7  -2    0.51    0.10
  -3  -7   2    0.45    0.10
  -3  -7   2    0.41    0.12
  -3  -7   2    0.25    0.13
  -3  -7   2    0.37    0.09
   2   7  -2    0.20    0.08
   2   7  -2    0.35    0.08
   2   7  -2    0.26    0.10
   2   7  -2    0.33    0.11
  -2  -7   2    0.21    0.08
  -2  -7   2    0.26    0.08
  -2  -7   2    0.25    0.11
  -2  -7   2    0.42    0.13
   1   7  -2    3.09    0.19
   1   7  -2    3.45    0.29
   1   7  -2    2.80    0.16
   1   7  -2    2.70    0.57
   1   7  -2    3.13    0.16
  -1  -7   2    3.22    0.17
  -1  -7   2    3.04    0.23
  -1  -7   2    3.00    0.18
   0   7  -2    4.07    0.19
   0   7  -2    4.28    0.21
   0   7  -2    4.17    0.18
   0   7  -2    4.04    0.27
   0   7  -2    4.53    0.32
   0  -7   2    4.13    0.20
   0  -7   2    4.06    0.19
  -1   7  -2    0.08    0.08
  -1   7  -2   -0.02    0.06
  -1   7  -2    0.15    0.09
  -1   7  -2    0.26    0.12
  -1   7  -2    0.05    0.06
   1  -7   2    0.08    0.06
   1  -7   2   -0.01    0.05
  -2   7  -2    0.08    0.07
  -2   7  -2    0.08    0.05
  -2   7  -2   -0.10    0.08
  -2   7  -2    0.04    0.07
  -2   7  -2    0.20    0.12
   2  -7   2    0.04    0.06
  -3   7  -2    1.59    0.22
  -3   7  -2    1.56    0.13
  -3   7  -2    1.67    0.12
  -3   7  -2    2.17    0.34
   3  -7   2    1.50    0.13
  -4   7  -2    4.81    0.46
  -4   7  -2    4.32    0.21
  -4   7  -2    4.08    0.19
  -4   7  -2    4.07    0.36
   4  -7   2    3.93    0.22
  -5   7  -2    0.05    0.07
  -5   7  -2    0.30    0.30
  -5   7  -2    0.10    0.10
  -5   7  -2    0.04    0.17
   5  -7   2   -0.05    0.09
  -6   7  -2    0.17    0.11
  -6   7  -2    0.20    0.23
   6  -7   2    0.25    0.10
   6  -7   2    0.38    0.11
  -7   7  -2    0.27    0.13
  -7   7  -2    0.12    0.39
   7  -7   2    0.12    0.11
  -8   7  -2    0.07    0.14
  -8   7  -2   -0.31    0.30
  -9   7  -2   -0.02    0.14
  -9   7  -2   -0.34    0.35
   8   6  -2   -0.03    0.10
  -8  -6   2    0.03    0.14
   7   6  -2    0.13    0.10
  -7  -6   2    0.19    0.13
  -7  -6   2    0.16    0.08
   6   6  -2   -0.09    0.08
  -6  -6   2    0.02    0.07
  -6  -6   2   -0.06    0.10
  -6  -6   2    0.04    0.18
   5   6  -2    0.01    0.08
   5   6  -2   -0.03    0.11
  -5  -6   2    0.04    0.27
  -5  -6   2    0.11    0.09
  -5  -6   2    0.08    0.07
  -5  -6   2   -0.04    0.13
   4   6  -2   -0.12    0.07
   4   6  -2   -0.12    0.33
   4   6  -2   -0.03    0.09
   4   6  -2   -0.05    0.08
  -4  -6   2   -0.09    0.06
  -4  -6   2    0.04    0.08
  -4  -6   2    0.08    0.08
  -4  -6   2    0.00    0.05
  -4  -6   2    0.00    0.11
  -4  -6   2    0.02    0.06
   3   6  -2    1.96    0.14
   3   6  -2    2.07    0.18
   3   6  -2    2.35    0.16
  -3  -6   2    2.53    0.20
  -3  -6   2    1.93    0.16
  -3  -6   2    2.17    0.11
  -3  -6   2    2.41    0.16
  -3  -6   2    2.17    0.12
  -3  -6   2    2.22    0.38
   2   6  -2    2.41    0.14
   2   6  -2    2.07    0.16
   2   6  -2    2.47    0.51
   2   6  -2    2.24    0.14
  -2  -6   2    2.37    0.15
  -2  -6   2    2.46    0.15
  -2  -6   2    2.29    0.19
  -2  -6   2    2.34    0.11
  -2  -6   2    2.20    0.10
  -2  -6   2    2.35    0.24
   1   6  -2    4.17    0.18
   1   6  -2    4.48    0.20
   1   6  -2    4.54    0.17
   1   6  -2    3.70    0.48
   1   6  -2    4.55    0.31
  -1  -6   2    3.92    0.26
  -1  -6   2    3.72    0.19
  -1  -6   2    4.30    0.19
   0   6  -2    1.81    0.21
   0   6  -2    1.70    0.12
   0   6  -2    1.83    0.12
   0   6  -2    1.84    0.17
   0   6  -2    1.88    0.11
   0  -6   2    1.90    0.12
   0  -6   2    1.93    0.12
  -1   6  -2    4.97    0.19
  -1   6  -2    4.76    0.19
  -1   6  -2    5.10    0.36
  -1   6  -2    5.00    0.30
  -1   6  -2    4.95    0.21
   1  -6   2    5.23    0.20
   1  -6   2    5.30    0.21
  -2   6  -2    0.46    0.12
  -2   6  -2    0.44    0.07
  -2   6  -2    0.53    0.07
  -2   6  -2    0.60    0.15
  -2   6  -2    0.49    0.14
   2  -6   2    0.42    0.07
  -3   6  -2    0.03    0.10
  -3   6  -2    0.08    0.05
  -3   6  -2    0.15    0.13
  -3   6  -2    0.10    0.06
  -3   6  -2    0.09    0.06
   3  -6   2    0.07    0.06
  -4   6  -2    5.36    0.21
  -4   6  -2    5.06    0.22
  -4   6  -2    5.24    0.25
  -4   6  -2    5.11    0.37
  -4   6  -2    5.77    0.47
   4  -6   2    5.08    0.23
  -5   6  -2    0.52    0.11
  -5   6  -2    0.74    0.09
  -5   6  -2    0.60    0.20
  -5   6  -2    0.86    0.50
   5  -6   2    0.70    0.11
  -6   6  -2    2.68    0.19
  -6   6  -2    2.75    0.49
  -6   6  -2    2.65    0.37
  -6   6  -2    2.75    0.17
  -6   6  -2    2.46    0.18
   6  -6   2    2.87    0.19
   6  -6   2    2.50    0.19
  -7   6  -2    0.09    0.64
  -7   6  -2   -0.03    0.11
  -7   6  -2    0.56    0.44
   7  -6   2    0.10    0.10
  -8   6  -2    0.49    0.53
  -8   6  -2   -0.14    0.29
  -8   6  -2   -0.07    0.12
   8  -6   2    0.06    0.11
  -9   6  -2   -0.62    0.32
  -9   6  -2    0.19    0.14
   9   5  -2   -0.08    0.10
  -9  -5   2    0.02    0.15
   8   5  -2   -0.13    0.09
  -8  -5   2    0.02    0.09
  -8  -5   2    0.18    0.14
   7   5  -2   -0.07    0.08
   7   5  -2   -0.04    0.16
  -7  -5   2   -0.10    0.10
  -7  -5   2    0.00    0.10
  -7  -5   2   -0.11    0.07
   6   5  -2    0.31    0.13
   6   5  -2    0.25    0.09
  -6  -5   2    0.38    0.24
  -6  -5   2    0.20    0.07
  -6  -5   2    0.21    0.11
  -6  -5   2    0.10    0.16
   5   5  -2    1.57    0.16
   5   5  -2    1.65    0.14
   5   5  -2    2.02    0.21
  -5  -5   2    2.30    0.18
  -5  -5   2    1.76    0.12
  -5  -5   2    1.90    0.20
  -5  -5   2    1.58    0.16
  -5  -5   2    1.50    0.47
   4   5  -2    1.30    0.14
   4   5  -2    1.33    0.12
   4   5  -2    1.30    0.12
  -4  -5   2    1.24    0.13
  -4  -5   2    1.14    0.09
  -4  -5   2    1.52    0.17
  -4  -5   2    1.35    0.14
  -4  -5   2    1.35    0.10
  -4  -5   2    1.51    0.23
   3   5  -2    2.13    0.15
   3   5  -2    2.05    0.14
   3   5  -2    2.16    0.12
  -3  -5   2    2.05    0.23
  -3  -5   2    2.00    0.14
  -3  -5   2    2.12    0.11
  -3  -5   2    1.98    0.13
  -3  -5   2    2.08    0.26
  -3  -5   2    2.08    0.10
   2   5  -2    0.86    0.46
   2   5  -2    0.79    0.10
   2   5  -2    0.87    0.08
  -2  -5   2    0.76    0.09
  -2  -5   2    0.70    0.07
  -2  -5   2    0.90    0.11
  -2  -5   2    0.89    0.15
  -2  -5   2    0.65    0.06
  -2  -5   2    0.78    0.08
   1   5  -2    1.14    0.08
   1   5  -2    1.20    0.10
  -1  -5   2    1.03    0.09
  -1  -5   2    0.97    0.12
  -1  -5   2    1.22    0.16
   0   5  -2    9.03    0.32
   0   5  -2    9.45    0.28
   0   5  -2    9.27    0.53
   0  -5   2    9.41    0.32
   0  -5   2    9.37    0.31
  -1   5  -2   20.15    0.66
  -1   5  -2   21.28    0.60
  -1   5  -2   20.95    0.58
  -1   5  -2   21.42    1.09
  -1   5  -2   21.66    0.90
   1  -5   2   22.27    0.64
  -2   5  -2   13.86    0.46
  -2   5  -2   14.16    0.77
  -2   5  -2   13.63    0.63
  -2   5  -2   14.33    0.40
  -2   5  -2   14.29    0.41
   2  -5   2   13.73    0.44
  -3   5  -2    0.39    0.06
  -3   5  -2    0.40    0.06
  -3   5  -2    0.31    0.06
  -3   5  -2    0.31    0.12
  -3   5  -2    0.36    0.14
   3  -5   2    0.46    0.07
  -4   5  -2   16.74    0.88
  -4   5  -2   17.37    0.61
  -4   5  -2   17.61    0.58
  -4   5  -2   18.74    1.00
  -4   5  -2   17.55    0.51
   4  -5   2   16.61    0.56
  -5   5  -2    0.81    0.23
  -5   5  -2    0.55    0.10
  -5   5  -2    0.62    0.08
  -5   5  -2    0.45    0.19
   5  -5   2    0.66    0.10
  -6   5  -2   -0.02    0.19
  -6   5  -2    0.19    0.31
  -6   5  -2    0.01    0.10
  -6   5  -2    0.03    0.07
  -6   5  -2   -0.10    0.26
   6  -5   2    0.05    0.09
  -7   5  -2    0.22    0.24
  -7   5  -2    0.63    0.12
   7  -5   2    0.37    0.12
  -8   5  -2    0.00    0.12
  -8   5  -2   -0.17    0.26
   8  -5   2    0.00    0.12
  -9   5  -2   -0.42    0.30
  -9   5  -2    0.13    0.13
 -10   5  -2   -0.80    0.31
 -10   5  -2    0.09    0.14
   9   4  -2    0.04    0.10
  -9  -4   2    0.37    0.15
  -9  -4   2    0.17    0.10
   8   4  -2   -0.06    0.16
   8   4  -2    0.09    0.09
  -8  -4   2   -0.05    0.08
  -8  -4   2    0.10    0.12
  -8  -4   2    0.04    0.12
   7   4  -2    0.12    0.08
   7   4  -2    0.14    0.14
  -7  -4   2    0.01    0.10
  -7  -4   2    0.07    0.07
  -7  -4   2    0.01    0.09
   6   4  -2    0.08    0.07
   6   4  -2   -0.21    0.11
  -6  -4   2    0.03    0.13
  -6  -4   2   -0.04    0.08
  -6  -4   2   -0.02    0.07
  -6  -4   2   -0.04    0.09
  -6  -4   2   -0.02    0.06
   5   4  -2    0.14    0.07
   5   4  -2    0.11    0.10
   5   4  -2    0.07    0.08
  -5  -4   2    0.17    0.06
  -5  -4   2    0.11    0.07
  -5  -4   2    0.10    0.13
  -5  -4   2   -0.04    0.10
  -5  -4   2    0.02    0.08
  -5  -4   2    0.11    0.06
   4   4  -2    0.23    0.06
   4   4  -2    0.21    0.08
   4   4  -2    0.28    0.08
  -4  -4   2    0.19    0.06
  -4  -4   2    0.24    0.08
  -4  -4   2    0.10    0.09
  -4  -4   2    0.25    0.06
  -4  -4   2    0.29    0.05
  -4  -4   2    0.27    0.07
   3   4  -2    0.05    0.04
   3   4  -2    0.03    0.06
   3   4  -2    0.00    0.06
  -3  -4   2    0.08    0.04
  -3  -4   2    0.08    0.05
  -3  -4   2    0.12    0.08
  -3  -4   2    0.04    0.05
  -3  -4   2    0.01    0.04
  -3  -4   2    0.09    0.06
  -3  -4   2    0.03    0.05
   2   4  -2    1.24    0.11
   2   4  -2    1.40    0.17
   2   4  -2    1.35    0.08
   2   4  -2    1.52    0.10
  -2  -4   2    1.07    0.09
  -2  -4   2    1.42    0.16
  -2  -4   2    1.38    0.10
  -2  -4   2    1.42    0.07
  -2  -4   2    1.36    0.14
   1   4  -2    0.55    0.05
   1   4  -2    0.64    0.10
   1   4  -2    0.61    0.10
   1   4  -2    0.68    0.07
  -1  -4   2    0.62    0.06
  -1  -4   2    0.47    0.10
  -1  -4   2    0.57    0.09
  -1  -4   2    0.53    0.06
   0   4  -2    0.13    0.04
   0   4  -2    0.09    0.06
   0   4  -2    0.10    0.06
   0   4  -2    0.14    0.03
   0  -4   2    0.15    0.04
   0  -4   2    0.08    0.05
  -1   4  -2    5.44    0.36
  -1   4  -2    5.86    0.19
  -1   4  -2    5.55    0.30
  -1   4  -2    5.97    0.21
   1  -4   2    6.54    0.21
   1  -4   2    6.23    0.36
  -2   4  -2    5.91    0.53
  -2   4  -2    6.08    0.19
  -2   4  -2    6.04    0.22
  -2   4  -2    5.70    0.31
  -2   4  -2    6.37    0.19
   2  -4   2    6.19    0.21
  -3   4  -2    0.05    0.04
  -3   4  -2    0.09    0.04
  -3   4  -2    0.06    0.04
  -3   4  -2    0.07    0.22
  -3   4  -2    0.03    0.09
  -3   4  -2    0.16    0.11
   3  -4   2    0.05    0.05
  -4   4  -2    0.24    0.16
  -4   4  -2    0.10    0.12
  -4   4  -2    0.16    0.06
  -4   4  -2    0.17    0.06
  -4   4  -2    0.21    0.06
   4  -4   2    0.19    0.06
  -5   4  -2    2.18    0.15
  -5   4  -2    2.40    0.15
  -5   4  -2    2.31    0.15
  -5   4  -2    2.68    0.41
  -5   4  -2    2.30    0.29
  -5   4  -2    2.42    0.21
   5  -4   2    2.23    0.16
   5  -4   2    2.35    0.15
  -6   4  -2    1.19    0.13
  -6   4  -2    0.64    0.34
  -6   4  -2    1.27    0.50
  -6   4  -2    1.15    0.52
   6  -4   2    0.96    0.12
  -7   4  -2    0.60    0.12
  -7   4  -2    0.46    0.23
   7  -4   2    0.42    0.11
  -8   4  -2    1.16    0.45
  -8   4  -2    0.01    0.11
  -8   4  -2   -0.26    0.22
   8  -4   2    0.01    0.11
  -9   4  -2   -0.50    0.25
  -9   4  -2   -0.12    0.12
 -10   4  -2   -0.10    0.13
  10   3  -2    0.05    0.11
 -10  -3   2    0.16    0.10
   9   3  -2   -0.05    0.18
   9   3  -2   -0.02    0.09
  -9  -3   2    0.01    0.09
  -9  -3   2   -0.10    0.13
  -9  -3   2    0.04    0.13
   8   3  -2    0.15    0.08
   8   3  -2    0.07    0.16
  -8  -3   2    0.03    0.11
  -8  -3   2   -0.16    0.07
  -8  -3   2   -0.03    0.10
   7   3  -2    0.01    0.12
   7   3  -2    0.18    0.08
  -7  -3   2    0.09    0.09
  -7  -3   2   -0.05    0.08
  -7  -3   2   -0.28    0.29
  -7  -3   2    0.13    0.07
   6   3  -2    0.05    0.07
   6   3  -2    0.00    0.09
   6   3  -2   -0.21    0.10
  -6  -3   2    0.05    0.07
  -6  -3   2   -0.04    0.07
  -6  -3   2    0.07    0.08
  -6  -3   2    0.04    0.08
  -6  -3   2   -0.03    0.06
  -6  -3   2   -0.24    0.22
  -6  -3   2   -0.01    0.12
   5   3  -2    0.00    0.05
   5   3  -2   -0.10    0.32
   5   3  -2   -0.04    0.07
   5   3  -2    0.00    0.08
  -5  -3   2    0.00    0.05
  -5  -3   2    0.00    0.06
  -5  -3   2   -0.02    0.06
  -5  -3   2   -0.01    0.05
  -5  -3   2    0.02    0.13
  -5  -3   2    0.05    0.09
   4   3  -2    0.86    0.10
   4   3  -2    0.92    0.25
   4   3  -2    0.86    0.08
   4   3  -2    0.78    0.09
  -4  -3   2    1.06    0.19
  -4  -3   2    0.80    0.07
  -4  -3   2    0.74    0.06
  -4  -3   2    0.88    0.12
  -4  -3   2    0.77    0.09
  -4  -3   2    1.02    0.19
  -4  -3   2    0.81    0.07
   3   3  -2    0.81    0.08
   3   3  -2    0.98    0.13
   3   3  -2    0.94    0.09
   3   3  -2    0.97    0.09
   3   3  -2    1.04    0.20
  -3  -3   2    1.31    0.16
  -3  -3   2    0.73    0.07
  -3  -3   2    0.74    0.07
  -3  -3   2    0.81    0.08
  -3  -3   2    0.92    0.09
  -3  -3   2    0.98    0.10
  -3  -3   2    1.12    0.11
   2   3  -2   11.72    0.34
   2   3  -2   11.46    0.75
   2   3  -2   12.82    0.46
   2   3  -2   12.06    0.42
   2   3  -2   12.32    0.34
  -2  -3   2   11.52    0.51
  -2  -3   2   12.27    0.38
  -2  -3   2   11.43    0.38
  -2  -3   2   11.43    0.63
   1   3  -2    3.21    0.12
   1   3  -2    3.65    0.13
   1   3  -2    3.32    0.13
   1   3  -2    3.75    0.24
  -1  -3   2    3.08    0.24
  -1  -3   2    3.16    0.13
  -1  -3   2    3.05    0.18
   0   3  -2    0.11    0.05
   0   3  -2    0.15    0.06
   0  -3   2    0.15    0.05
   0  -3   2    0.19    0.03
  -1   3  -2    4.15    0.23
  -1   3  -2    3.95    0.28
   1  -3   2    4.49    0.15
   1  -3   2    4.10    0.26
  -2   3  -2    8.37    0.24
  -2   3  -2    7.59    0.50
  -2   3  -2    8.25    0.39
  -2   3  -2    8.26    0.27
   2  -3   2    7.91    0.46
   2  -3   2    8.31    0.26
  -3   3  -2   11.22    0.33
  -3   3  -2   10.78    0.36
  -3   3  -2   11.10    0.68
  -3   3  -2   10.76    0.33
  -3   3  -2   10.71    0.63
  -3   3  -2   11.14    0.32
   3  -3   2   11.15    0.35
  -4   3  -2    4.21    0.31
  -4   3  -2    4.23    0.17
  -4   3  -2    4.12    0.18
  -4   3  -2    4.60    0.39
  -4   3  -2    4.45    0.17
   4  -3   2    4.32    0.18
  -5   3  -2    0.45    0.30
  -5   3  -2    0.40    0.09
  -5   3  -2    0.19    0.48
  -5   3  -2    0.37    0.08
  -5   3  -2    0.34    0.07
   5  -3   2    0.47    0.08
   5  -3   2    0.27    0.08
  -6   3  -2    4.15    0.38
  -6   3  -2    3.89    0.52
  -6   3  -2    4.50    0.37
  -6   3  -2    4.43    0.21
   6  -3   2    4.23    0.22
   6  -3   2    4.32    0.23
  -7   3  -2    0.22    0.19
  -7   3  -2   -0.01    0.10
  -7   3  -2   -0.48    0.25
   7  -3   2    0.17    0.10
   7  -3   2    0.10    0.10
  -8   3  -2    0.40    0.13
  -8   3  -2    0.19    0.22
   8  -3   2    0.52    0.13
   8  -3   2    0.41    0.12
  -9   3  -2    0.07    0.12
  -9   3  -2   -0.09    0.24
 -10   3  -2    0.04    0.13
  10   2  -2   -0.31    0.17
  10   2  -2    0.14    0.10
 -10  -2   2    0.01    0.14
 -10  -2   2   -0.11    0.20
 -10  -2   2    0.08    0.10
   9   2  -2   -0.15    0.17
   9   2  -2   -0.07    0.08
  -9  -2   2    0.09    0.44
  -9  -2   2   -0.01    0.13
  -9  -2   2    0.04    0.09
   8   2  -2    0.07    0.08
   8   2  -2   -0.08    0.15
  -8  -2   2    0.25    0.11
  -8  -2   2    0.10    0.15
  -8  -2   2   -0.03    0.08
   7   2  -2    0.08    0.07
   7   2  -2   -0.11    0.12
  -7  -2   2    0.03    0.10
  -7  -2   2   -0.01    0.07
  -7  -2   2   -0.23    0.16
  -7  -2   2   -0.15    0.08
   6   2  -2    1.19    0.11
   6   2  -2    1.38    0.13
   6   2  -2    1.47    0.15
  -6  -2   2    1.30    0.14
  -6  -2   2    1.17    0.11
  -6  -2   2    1.54    0.24
  -6  -2   2    1.37    0.14
  -6  -2   2    1.38    0.14
  -6  -2   2    1.34    0.17
   5   2  -2    1.52    0.13
   5   2  -2    1.46    0.10
   5   2  -2    1.81    0.15
  -5  -2   2    1.66    0.11
  -5  -2   2    1.54    0.16
  -5  -2   2    1.57    0.12
  -5  -2   2    1.40    0.12
  -5  -2   2    1.51    0.10
  -5  -2   2    1.79    0.25
  -5  -2   2    1.60    0.19
  -5  -2   2    1.59    0.12
   4   2  -2    4.82    0.17
   4   2  -2    4.98    0.18
  -4  -2   2    4.00    0.63
  -4  -2   2    5.36    0.36
  -4  -2   2    5.49    0.20
  -4  -2   2    4.57    0.20
  -4  -2   2    4.51    0.26
  -4  -2   2    4.43    0.16
  -4  -2   2    4.65    0.44
   3   2  -2   -0.03    0.04
   3   2  -2   -0.04    0.07
   3   2  -2    0.02    0.03
   3   2  -2    0.02    0.04
   3   2  -2    0.08    0.05
  -3  -2   2   -0.04    0.12
  -3  -2   2   -0.02    0.03
  -3  -2   2    0.04    0.04
  -3  -2   2   -0.03    0.03
  -3  -2   2    0.01    0.06
  -3  -2   2   -0.02    0.03
  -3  -2   2    0.00    0.03
   2   2  -2   59.79    1.52
   2   2  -2   56.27    1.68
   2   2  -2   56.11    2.71
   2   2  -2   58.60    1.87
  -2  -2   2   54.23    2.71
  -2  -2   2   56.72    2.18
  -2  -2   2   57.57    1.62
   1   2  -2  400.95   17.73
  -1  -2   2  359.01   17.61
  -1  -2   2  370.41   14.34
   0   2  -2   13.38    0.69
   0   2  -2   13.82    0.70
   0  -2   2   14.36    0.56
  -1   2  -2    0.65    0.10
  -1   2  -2    0.59    0.08
   1  -2   2    0.54    0.09
  -2   2  -2   63.15    2.36
  -2   2  -2   60.57    1.67
  -2   2  -2   61.33    1.65
  -2   2  -2   62.22    2.94
   2  -2   2   61.90    1.74
   2  -2   2   60.10    2.93
  -3   2  -2   25.91    1.35
  -3   2  -2   26.08    0.72
  -3   2  -2   24.34    0.79
  -3   2  -2   26.16    0.71
  -3   2  -2   26.22    1.06
  -3   2  -2   26.27    0.69
   3  -2   2   25.77    0.76
   3  -2   2   25.89    1.34
  -4   2  -2    0.38    0.06
  -4   2  -2    0.34    0.16
  -4   2  -2    0.34    0.05
  -4   2  -2    0.51    0.07
  -4   2  -2    0.32    0.36
   4  -2   2    0.37    0.06
  -5   2  -2    1.23    0.12
  -5   2  -2    1.31    0.12
  -5   2  -2    1.57    0.22
  -5   2  -2    1.49    0.11
  -5   2  -2    1.15    0.24
   5  -2   2    1.39    0.11
  -6   2  -2    0.01    0.09
  -6   2  -2   -0.22    0.20
  -6   2  -2    0.05    0.15
  -6   2  -2   -0.08    0.06
   6  -2   2   -0.18    0.07
   6  -2   2   -0.26    0.08
  -7   2  -2    0.38    0.18
  -7   2  -2    0.71    0.12
  -7   2  -2   -0.02    0.24
   7  -2   2    0.53    0.12
   7  -2   2    0.62    0.12
  -8   2  -2    0.68    0.23
  -8   2  -2    0.74    0.13
   8  -2   2    0.82    0.17
   8  -2   2    0.99    0.16
  -9   2  -2   -0.09    0.20
  -9   2  -2    0.04    0.12
   9  -2   2   -0.02    0.14
 -10   2  -2   -0.06    0.12
 -10   2  -2   -0.53    0.20
  10   1  -2   -0.18    0.17
  10   1  -2    0.11    0.10
 -10  -1   2    0.20    0.21
 -10  -1   2    0.30    0.14
 -10  -1   2    0.07    0.10
   9   1  -2   -0.24    0.14
   9   1  -2    0.03    0.08
  -9  -1   2    0.03    0.12
  -9  -1   2   -0.10    0.09
  -9  -1   2   -0.06    0.14
   8   1  -2    0.28    0.08
   8   1  -2    0.31    0.14
  -8  -1   2    0.31    0.09
  -8  -1   2    0.04    0.10
  -8  -1   2    0.43    0.15
   7   1  -2   -0.17    0.11
   7   1  -2    0.12    0.07
  -7  -1   2    0.11    0.08
  -7  -1   2    0.17    0.09
  -7  -1   2   -0.14    0.25
  -7  -1   2    0.14    0.08
  -7  -1   2    0.02    0.10
   6   1  -2    3.09    0.18
   6   1  -2    3.41    0.52
   6   1  -2    2.76    0.14
   6   1  -2    3.29    0.21
  -6  -1   2    2.86    0.14
  -6  -1   2    2.62    0.16
  -6  -1   2    2.91    0.17
  -6  -1   2    3.15    0.62
  -6  -1   2    3.03    0.23
  -6  -1   2    3.11    0.17
   5   1  -2    0.35    0.30
   5   1  -2    0.32    0.08
   5   1  -2    0.23    0.05
   5   1  -2    0.33    0.08
  -5  -1   2    0.26    0.09
  -5  -1   2    0.38    0.09
  -5  -1   2    0.34    0.06
  -5  -1   2    0.27    0.06
  -5  -1   2    0.30    0.05
  -5  -1   2    0.35    0.29
  -5  -1   2    0.41    0.07
   4   1  -2    0.04    0.05
   4   1  -2    0.06    0.05
   4   1  -2    0.04    0.03
   4   1  -2    0.04    0.03
  -4  -1   2    0.10    0.04
  -4  -1   2   -0.01    0.04
  -4  -1   2    0.04    0.04
  -4  -1   2   -0.03    0.04
  -4  -1   2   -0.03    0.04
  -4  -1   2   -0.01    0.05
  -4  -1   2    0.05    0.03
  -4  -1   2   -0.07    0.16
   3   1  -2    0.06    0.05
   3   1  -2    0.07    0.08
   3   1  -2    0.09    0.03
   3   1  -2    0.13    0.05
   3   1  -2    0.13    0.03
  -3  -1   2    0.06    0.03
  -3  -1   2    0.12    0.05
  -3  -1   2    0.13    0.03
  -3  -1   2    0.06    0.03
  -3  -1   2    0.12    0.09
  -3  -1   2    0.18    0.05
  -3  -1   2    0.11    0.04
   2   1  -2  957.89   45.26
   2   1  -2  962.13   25.59
   2   1  -2 1000.00   25.75
  -2  -1   2  979.51   36.45
  -2  -1   2  945.98   45.26
   1   1  -2   54.05    2.57
  -1  -1   2   53.81    2.59
  -1  -1   2   56.11    2.07
   0   1  -2   12.92    0.62
   0   1  -2   12.26    0.61
   0  -1   2   12.79    0.49
   0  -1   2   11.63    0.61
  -1   1  -2    2.66    0.14
  -1   1  -2    2.43    0.21
   1  -1   2    2.73    0.18
  -2   1  -2   -0.03    0.03
  -2   1  -2   -0.08    0.16
  -2   1  -2    0.01    0.07
  -2   1  -2    0.04    0.03
   2  -1   2   -0.11    0.06
   2  -1   2    0.00    0.03
  -3   1  -2   14.37    0.41
  -3   1  -2   14.64    0.43
  -3   1  -2   14.26    0.57
  -3   1  -2   14.66    0.43
  -3   1  -2   14.98    0.81
  -3   1  -2   15.37    1.19
   3  -1   2   14.94    0.46
   3  -1   2   15.15    0.78
  -4   1  -2    2.79    0.13
  -4   1  -2    2.64    0.13
  -4   1  -2    2.75    0.23
  -4   1  -2    2.90    0.33
  -4   1  -2    2.66    0.21
   4  -1   2    2.71    0.14
   4  -1   2    3.00    0.15
  -5   1  -2    1.22    0.19
  -5   1  -2    1.14    0.11
  -5   1  -2    1.21    0.12
  -5   1  -2    1.08    0.23
  -5   1  -2    1.24    0.11
   5  -1   2    1.31    0.11
   5  -1   2    1.28    0.13
  -6   1  -2   -0.27    0.18
  -6   1  -2   -0.04    0.12
  -6   1  -2    0.05    0.07
  -6   1  -2   -0.09    0.08
   6  -1   2   -0.01    0.07
   6  -1   2    0.02    0.09
  -7   1  -2    0.30    0.17
  -7   1  -2    0.34    0.11
   7  -1   2    0.48    0.13
   7  -1   2    0.42    0.11
  -8   1  -2   -0.03    0.11
  -8   1  -2   -0.20    0.14
   8  -1   2   -0.01    0.12
  -9   1  -2   -0.01    0.11
  -9   1  -2   -0.17    0.16
   9  -1   2    0.00    0.14
  10   0  -2   -0.04    0.09
  10   0  -2   -0.07    0.17
 -10   0   2    0.04    0.14
 -10   0   2   -0.14    0.10
 -10   0   2   -0.14    0.18
   9   0  -2    0.18    0.15
   9   0  -2    0.32    0.09
  -9   0   2    0.25    0.12
  -9   0   2    0.28    0.17
  -9   0   2    0.22    0.10
   8   0  -2   -0.02    0.07
   8   0  -2   -0.09    0.13
  -8   0   2    0.08    0.14
  -8   0   2   -0.06    0.08
  -8   0   2   -0.07    0.10
   7   0  -2    0.53    0.12
   7   0  -2    0.47    0.08
   7   0  -2    0.38    0.11
  -7   0   2    0.57    0.09
  -7   0   2    0.64    0.10
  -7   0   2    0.33    0.20
  -7   0   2    0.53    0.09
  -7   0   2    0.57    0.16
  -7   0   2    0.62    0.11
   6   0  -2    2.50    0.13
   6   0  -2    2.40    0.17
   6   0  -2    2.77    0.41
   6   0  -2    2.61    0.19
  -6   0   2    2.69    0.19
  -6   0   2    2.56    0.16
  -6   0   2    2.60    0.16
  -6   0   2    2.51    0.35
  -6   0   2    2.71    0.14
  -6   0   2    2.60    0.14
  -6   0   2    2.80    0.23
   5   0  -2    2.59    0.12
   5   0  -2    2.50    0.37
   5   0  -2    2.82    0.16
   5   0  -2    2.79    0.15
   5   0  -2    2.54    0.12
  -5   0   2    2.40    0.29
  -5   0   2    2.66    0.12
  -5   0   2    2.76    0.21
  -5   0   2    2.55    0.14
  -5   0   2    2.58    0.15
  -5   0   2    2.72    0.12
  -5   0   2    2.60    0.14
   4   0  -2    0.14    0.04
   4   0  -2    0.03    0.06
   4   0  -2    0.12    0.06
   4   0  -2    0.13    0.04
   4   0  -2    0.29    0.23
  -4   0   2    0.13    0.04
  -4   0   2    0.08    0.04
  -4   0   2    0.08    0.04
  -4   0   2    0.08    0.09
  -4   0   2    0.08    0.04
  -4   0   2    0.20    0.05
  -4   0   2    0.08    0.07
   3   0  -2    1.24    0.10
   3   0  -2    1.10    0.09
   3   0  -2    1.28    0.09
   3   0  -2    1.15    0.20
   3   0  -2    1.28    0.06
  -3   0   2    1.27    0.17
  -3   0   2    1.19    0.06
  -3   0   2    1.20    0.12
  -3   0   2    1.26    0.07
  -3   0   2    1.33    0.07
  -3   0   2    1.27    0.07
  -3   0   2    1.24    0.08
   2   0  -2   11.87    0.31
   2   0  -2   11.22    0.31
   2   0  -2   11.18    0.58
  -2   0   2   10.89    0.46
  -2   0   2   11.37    0.58
  -1   0   2   53.92    2.17
   0   0   2   77.59    2.90
  -1   0  -2    1.92    0.12
  -2   0  -2    9.63    0.32
  -2   0  -2    9.84    0.42
  -2   0  -2    9.64    0.29
   2   0   2   10.18    0.53
   2   0   2    9.96    0.31
  -3   0  -2    0.03    0.03
  -3   0  -2    0.02    0.04
  -3   0  -2    0.00    0.03
  -3   0  -2    0.04    0.07
  -3   0  -2    0.03    0.04
  -3   0  -2    0.05    0.11
   3   0   2    0.18    0.09
   3   0   2    0.04    0.05
   3   0   2   -0.01    0.03
  -4   0  -2    3.72    0.35
  -4   0  -2    3.76    0.17
  -4   0  -2    3.82    0.16
  -4   0  -2    3.90    0.25
  -4   0  -2    3.87    0.21
   4   0   2    3.75    0.18
   4   0   2    3.79    0.14
   4   0   2    3.78    0.17
  -5   0  -2    0.61    0.20
  -5   0  -2    0.91    0.14
  -5   0  -2    0.85    0.09
  -5   0  -2    0.80    0.15
  -5   0  -2    1.15    0.11
   5   0   2    0.90    0.10
   5   0   2    0.88    0.11
  -6   0  -2    0.14    0.08
  -6   0  -2    0.02    0.12
  -6   0  -2    0.01    0.09
   6   0   2    0.10    0.08
   6   0   2    0.09    0.10
  -7   0  -2    0.03    0.13
  -7   0  -2    0.05    0.10
   7   0   2    0.09    0.12
   7   0   2    0.19    0.10
  -8   0  -2    0.13    0.11
  -8   0  -2   -0.18    0.13
   8   0   2   -0.07    0.14
  -9   0  -2   -0.09    0.11
   9   0   2   -0.15    0.14
  11  -1  -2   -0.12    0.19
  11  -1  -2   -0.14    0.09
 -11   1   2   -0.13    0.11
 -11   1   2    0.16    0.16
 -11   1   2   -0.41    0.22
  10  -1  -2    0.05    0.09
  10  -1  -2   -0.25    0.16
 -10   1   2   -0.14    0.10
 -10   1   2   -0.21    0.21
 -10   1   2    0.11    0.13
   9  -1  -2    0.04    0.15
   9  -1  -2   -0.04    0.07
  -9   1   2    0.19    0.19
  -9   1   2    0.04    0.12
  -9   1   2    0.04    0.09
   8  -1  -2    1.18    0.17
   8  -1  -2    0.90    0.10
  -8   1   2    1.15    0.22
  -8   1   2    0.78    0.11
  -8   1   2    0.97    0.13
   7  -1  -2   -0.01    0.06
   7  -1  -2   -0.06    0.09
   7  -1  -2   -0.02    0.10
  -7   1   2    0.01    0.13
  -7   1   2    0.03    0.06
  -7   1   2    0.05    0.07
  -7   1   2    0.05    0.19
  -7   1   2    0.03    0.08
  -7   1   2    0.16    0.08
   6  -1  -2    0.55    0.10
   6  -1  -2    0.67    0.10
   6  -1  -2    0.57    0.07
  -6   1   2    0.67    0.09
  -6   1   2    0.69    0.07
  -6   1   2    0.53    0.08
  -6   1   2    0.51    0.18
  -6   1   2    0.70    0.08
  -6   1   2    0.60    0.09
  -6   1   2    0.69    0.15
   5  -1  -2    0.43    0.08
   5  -1  -2    0.60    0.09
   5  -1  -2    0.60    0.06
   5  -1  -2    0.56    0.06
  -5   1   2    0.31    0.15
  -5   1   2    0.54    0.07
  -5   1   2    0.60    0.07
  -5   1   2    0.69    0.13
  -5   1   2    0.61    0.07
  -5   1   2    0.65    0.08
  -5   1   2    0.55    0.06
   4  -1  -2    3.07    0.11
   4  -1  -2    2.96    0.14
   4  -1  -2    2.99    0.20
   4  -1  -2    3.10    0.15
  -4   1   2    2.89    0.13
  -4   1   2    2.90    0.20
  -4   1   2    2.81    0.14
  -4   1   2    2.83    0.11
  -4   1   2    2.89    0.12
  -4   1   2    2.93    0.12
  -4   1   2    2.97    0.28
   3  -1  -2    7.55    0.48
   3  -1  -2    7.83    0.24
   3  -1  -2    7.60    0.27
   3  -1  -2    7.79    0.24
   3  -1  -2    8.27    0.22
  -3   1   2    7.70    0.22
  -3   1   2    7.92    0.24
  -3   1   2    7.46    0.26
  -3   1   2    7.79    0.45
  -3   1   2    7.60    0.36
  -3   1   2    7.62    0.26
  -3   1   2    8.23    0.23
   2  -1  -2    0.98    0.07
   2  -1  -2    1.14    0.16
   2  -1  -2    1.08    0.05
   2  -1  -2    1.08    0.07
  -2   1   2    1.04    0.07
  -2   1   2    1.09    0.10
  -2   1   2    1.36    0.15
  -1   1   2    3.09    0.14
   0  -1  -2   -0.03    0.02
  -1  -1  -2   19.17    0.60
  -1  -1  -2   20.23    0.54
   1   1   2   19.67    0.58
  -2  -1  -2    0.80    0.07
  -2  -1  -2    0.91    0.07
  -2  -1  -2    0.87    0.08
  -2  -1  -2    0.90    0.07
   2   1   2    0.88    0.05
   2   1   2    0.79    0.09
   2   1   2    0.91    0.07
  -3  -1  -2    4.47    0.24
  -3  -1  -2    4.62    0.19
  -3  -1  -2    4.74    0.17
  -3  -1  -2    4.75    0.18
  -3  -1  -2    4.86    0.19
   3   1   2    4.71    0.20
   3   1   2    4.91    0.19
   3   1   2    4.79    0.16
   3   1   2    4.73    0.17
  -4  -1  -2   -0.09    0.11
  -4  -1  -2   -0.06    0.06
  -4  -1  -2   -0.07    0.05
  -4  -1  -2    0.01    0.05
  -4  -1  -2    0.02    0.04
   4   1   2    0.00    0.04
   4   1   2   -0.05    0.04
   4   1   2   -0.04    0.07
   4   1   2   -0.09    0.06
  -5  -1  -2   -0.21    0.14
  -5  -1  -2    0.02    0.06
  -5  -1  -2    0.04    0.07
  -5  -1  -2    0.03    0.07
  -5  -1  -2    0.03    0.08
   5   1   2    0.07    0.07
   5   1   2    0.12    0.09
   5   1   2    0.02    0.05
   5   1   2    0.07    0.07
  -6  -1  -2    4.66    0.22
  -6  -1  -2    4.63    0.31
  -6  -1  -2    3.62    0.47
   6   1   2    4.70    0.24
   6   1   2    4.72    0.27
  -7  -1  -2    0.12    0.10
  -7  -1  -2   -0.01    0.11
   7   1   2   -0.09    0.12
  -8  -1  -2    0.22    0.11
   8   1   2    0.09    0.15
  -9  -1  -2    0.10    0.12
  11  -2  -2    0.04    0.09
  11  -2  -2    0.15    0.19
 -11   2   2   -0.14    0.25
 -11   2   2    0.02    0.16
 -11   2   2    0.03    0.11
  10  -2  -2   -0.02    0.08
  10  -2  -2   -0.01    0.17
 -10   2   2    0.03    0.10
 -10   2   2   -0.01    0.13
 -10   2   2   -0.22    0.22
   9  -2  -2   -0.09    0.14
   9  -2  -2   -0.03    0.07
  -9   2   2    0.06    0.12
  -9   2   2   -0.15    0.19
  -9   2   2    0.00    0.09
   8  -2  -2    0.10    0.12
   8  -2  -2    0.07    0.07
  -8   2   2    0.26    0.18
  -8   2   2    0.06    0.09
  -8   2   2    0.12    0.10
   7  -2  -2    0.52    0.10
   7  -2  -2    0.56    0.08
   7  -2  -2    0.55    0.12
  -7   2   2    0.50    0.09
  -7   2   2    0.27    0.23
  -7   2   2    0.77    0.11
  -7   2   2    0.81    0.19
  -7   2   2    0.52    0.08
  -7   2   2    0.63    0.10
   6  -2  -2   -0.02    0.07
   6  -2  -2    0.01    0.05
   6  -2  -2    0.01    0.07
  -6   2   2    0.02    0.07
  -6   2   2    0.09    0.06
  -6   2   2    0.10    0.12
  -6   2   2    0.02    0.06
  -6   2   2   -0.03    0.17
  -6   2   2    0.01    0.05
  -6   2   2    0.09    0.06
   5  -2  -2    6.36    0.70
   5  -2  -2    6.34    0.21
   5  -2  -2    6.40    0.24
   5  -2  -2    6.78    0.26
   5  -2  -2    6.23    0.22
  -5   2   2    6.34    0.25
  -5   2   2    6.58    0.37
  -5   2   2    6.74    0.23
  -5   2   2    6.53    0.25
  -5   2   2    6.87    0.48
  -5   2   2    6.44    0.22
  -5   2   2    6.17    0.22
   4  -2  -2    5.41    0.28
   4  -2  -2    5.67    0.18
   4  -2  -2    5.08    0.22
   4  -2  -2    5.49    0.20
  -4   2   2    5.52    0.18
  -4   2   2    5.47    0.19
  -4   2   2    5.41    0.40
  -4   2   2    5.27    0.21
  -4   2   2    5.10    0.21
  -4   2   2    5.50    0.18
  -4   2   2    5.61    0.31
   3  -2  -2   11.80    0.32
   3  -2  -2   10.72    0.37
   3  -2  -2   11.63    0.33
   3  -2  -2   11.44    0.34
   3  -2  -2   10.63    0.64
  -3   2   2   10.89    0.36
  -3   2   2   11.23    0.36
  -3   2   2   11.14    0.32
  -3   2   2   11.36    0.33
  -3   2   2   11.51    0.63
  -3   2   2   11.58    0.33
  -3   2   2   11.31    0.50
   2  -2  -2   13.16    0.43
   2  -2  -2   13.90    0.39
   2  -2  -2   13.31    0.38
   2  -2  -2   13.77    0.37
  -2   2   2   13.46    0.37
  -2   2   2   13.53    0.38
  -2   2   2   12.96    0.42
  -2   2   2   13.32    0.56
  -2   2   2   13.65    0.38
   1  -2  -2    3.79    0.12
   1  -2  -2    3.31    0.14
   1  -2  -2    3.86    0.12
  -1   2   2    3.73    0.12
  -1   2   2    3.79    0.12
  -1   2   2    3.55    0.14
  -1   2   2    3.76    0.20
  -1   2   2    3.83    0.13
   0  -2  -2    6.99    0.25
   0  -2  -2    7.70    0.21
   0  -2  -2    7.48    0.23
   0   2   2    7.65    0.22
   0   2   2    7.07    0.24
   0   2   2    7.18    0.25
   0   2   2    7.45    0.21
  -1  -2  -2    2.09    0.09
  -1  -2  -2    1.97    0.11
  -1  -2  -2    2.22    0.10
   1   2   2    2.28    0.09
   1   2   2    2.25    0.10
   1   2   2    2.13    0.12
   1   2   2    2.15    0.11
  -2  -2  -2   16.56    0.48
  -2  -2  -2   16.54    0.46
  -2  -2  -2   15.86    0.52
  -2  -2  -2   15.82    0.75
   2   2   2   16.62    0.47
   2   2   2   16.71    0.45
   2   2   2   16.90    0.53
   2   2   2   16.21    0.51
  -3  -2  -2    0.21    0.06
  -3  -2  -2    0.32    0.06
  -3  -2  -2    0.25    0.06
   3   2   2    0.11    0.04
   3   2   2    0.24    0.06
   3   2   2    0.17    0.06
   3   2   2    0.27    0.08
  -4  -2  -2    0.66    0.09
  -4  -2  -2    0.54    0.08
  -4  -2  -2    0.65    0.08
  -4  -2  -2    0.64    0.10
   4   2   2    0.56    0.08
   4   2   2    0.63    0.10
   4   2   2    0.73    0.07
   4   2   2    0.55    0.08
  -5  -2  -2    0.14    0.08
  -5  -2  -2    0.07    0.08
  -5  -2  -2    0.08    0.08
  -5  -2  -2    0.18    0.12
   5   2   2    0.08    0.06
   5   2   2    0.07    0.11
   5   2   2    0.02    0.08
   5   2   2    0.07    0.07
  -6  -2  -2    0.04    0.33
  -6  -2  -2    0.68    0.12
  -6  -2  -2    0.60    0.15
   6   2   2    0.56    0.12
   6   2   2    0.81    0.16
   6   2   2    0.54    0.09
  -7  -2  -2    0.39    0.12
   7   2   2    0.26    0.14
  -8  -2  -2   -0.08    0.10
   8   2   2    0.20    0.16
  11  -3  -2   -0.14    0.18
  11  -3  -2    0.08    0.09
 -11   3   2    0.08    0.16
 -11   3   2   -0.29    0.26
 -11   3   2   -0.07    0.11
  10  -3  -2    0.00    0.16
  10  -3  -2    0.08    0.09
 -10   3   2    0.25    0.14
 -10   3   2   -0.36    0.24
 -10   3   2    0.14    0.11
   9  -3  -2    0.61    0.10
   9  -3  -2    0.65    0.17
  -9   3   2    0.47    0.24
  -9   3   2    0.60    0.12
  -9   3   2    0.75    0.15
   8  -3  -2    0.87    0.15
  -8   3   2    0.60    0.11
  -8   3   2    0.82    0.13
  -8   3   2    0.68    0.22
   7  -3  -2    1.71    0.12
   7  -3  -2    1.96    0.20
   7  -3  -2    1.54    0.16
  -7   3   2    2.01    0.27
  -7   3   2    1.38    0.28
  -7   3   2    1.86    0.15
  -7   3   2    1.35    0.12
  -7   3   2    1.93    0.17
   6  -3  -2    0.07    0.08
   6  -3  -2    0.10    0.05
   6  -3  -2    0.09    0.08
  -6   3   2    0.15    0.06
  -6   3   2    0.09    0.07
  -6   3   2    0.26    0.08
  -6   3   2    0.09    0.06
  -6   3   2   -0.02    0.18
  -6   3   2    0.04    0.14
  -6   3   2    0.20    0.07
   5  -3  -2    5.72    0.25
   5  -3  -2    5.89    0.22
   5  -3  -2    5.64    0.52
   5  -3  -2    5.46    0.34
   5  -3  -2    5.64    0.20
  -5   3   2    5.80    0.36
  -5   3   2    5.79    0.24
  -5   3   2    5.79    0.22
  -5   3   2    5.67    0.24
  -5   3   2    5.70    0.20
  -5   3   2    5.71    0.48
  -5   3   2    5.61    0.21
   4  -3  -2    0.54    0.06
   4  -3  -2    0.91    0.28
   4  -3  -2    0.65    0.06
   4  -3  -2    0.70    0.08
   4  -3  -2    0.60    0.10
  -4   3   2    0.70    0.07
  -4   3   2    0.48    0.07
  -4   3   2    0.48    0.07
  -4   3   2    0.55    0.06
  -4   3   2    0.54    0.13
  -4   3   2    0.54    0.16
  -4   3   2    0.56    0.08
   3  -3  -2    3.35    0.13
   3  -3  -2    3.32    0.14
   3  -3  -2    3.42    0.13
   3  -3  -2    3.41    0.24
   3  -3  -2    3.21    0.15
  -3   3   2    3.35    0.15
  -3   3   2    3.42    0.16
  -3   3   2    3.09    0.47
  -3   3   2    3.27    0.42
  -3   3   2    3.41    0.13
  -3   3   2    3.37    0.14
  -3   3   2    3.41    0.17
   2  -3  -2    0.03    0.03
   2  -3  -2   -0.04    0.03
   2  -3  -2   -0.02    0.04
  -2   3   2   -0.02    0.03
  -2   3   2    0.02    0.04
  -2   3   2   -0.05    0.05
  -2   3   2   -0.07    0.04
  -2   3   2   -0.01    0.07
  -2   3   2   -0.04    0.04
   1  -3  -2   13.89    0.37
   1  -3  -2   12.49    0.43
   1  -3  -2   13.59    0.46
  -1   3   2   13.42    0.38
  -1   3   2   13.41    0.37
  -1   3   2   14.17    0.42
  -1   3   2   12.80    0.42
  -1   3   2   12.61    0.42
  -1   3   2   13.65    0.56
   0  -3  -2   83.02    2.07
   0  -3  -2   82.34    2.16
   0  -3  -2   76.85    2.37
   0   3   2   80.14    2.29
   0   3   2   82.44    2.15
   0   3   2   78.05    2.39
   0   3   2   80.35    2.07
  -1  -3  -2    1.78    0.09
  -1  -3  -2    1.76    0.17
  -1  -3  -2    1.70    0.10
   1   3   2    1.66    0.10
   1   3   2    1.44    0.10
   1   3   2    1.58    0.08
   1   3   2    1.29    0.11
  -2  -3  -2    5.82    0.23
  -2  -3  -2    6.03    0.21
   2   3   2    5.93    0.21
   2   3   2    6.11    0.20
   2   3   2    6.13    0.25
   2   3   2    6.13    0.23
  -3  -3  -2    0.21    0.06
  -3  -3  -2    0.23    0.12
  -3  -3  -2    0.22    0.06
   3   3   2    0.26    0.06
   3   3   2    0.26    0.07
   3   3   2    0.26    0.09
   3   3   2    0.16    0.07
  -4  -3  -2    0.21    0.07
  -4  -3  -2    0.18    0.07
  -4  -3  -2    0.18    0.08
  -4  -3  -2    0.27    0.08
   4   3   2    0.27    0.07
   4   3   2    0.35    0.11
   4   3   2    0.26    0.08
   4   3   2    0.20    0.08
  -5  -3  -2    0.03    0.09
  -5  -3  -2    0.05    0.08
   5   3   2   -0.10    0.07
   5   3   2   -0.03    0.09
   5   3   2    0.11    0.12
  -6  -3  -2    0.75    0.12
   6   3   2    0.59    0.17
   6   3   2    0.88    0.10
  -7  -3  -2    0.16    0.11
   7   3   2   -0.07    0.15
  -8  -3  -2   -0.03    0.11
   8   3   2   -0.24    0.15
  11  -4  -2   -0.04    0.09
  11  -4  -2   -0.09    0.49
 -11   4   2   -0.21    0.16
 -11   4   2   -0.16    0.11
 -11   4   2   -0.55    0.27
  10  -4  -2    0.08    0.09
  10  -4  -2   -0.20    0.20
 -10   4   2    0.01    0.14
 -10   4   2   -0.01    0.11
 -10   4   2   -0.45    0.23
   9  -4  -2    0.12    0.08
   9  -4  -2    0.24    0.15
  -9   4   2    0.12    0.10
  -9   4   2    0.05    0.24
  -9   4   2    0.22    0.13
   8  -4  -2    0.15    0.13
   8  -4  -2    0.00    0.07
  -8   4   2   -0.09    0.20
  -8   4   2   -0.03    0.09
  -8   4   2    0.02    0.10
   7  -4  -2    1.64    0.18
   7  -4  -2    1.51    0.12
  -7   4   2    1.51    0.26
  -7   4   2    1.60    0.18
  -7   4   2    1.01    0.29
  -7   4   2    1.92    0.15
   6  -4  -2    0.04    0.05
   6  -4  -2   -0.04    0.23
   6  -4  -2   -0.05    0.08
  -6   4   2    0.35    0.17
  -6   4   2    0.06    0.07
  -6   4   2    0.19    0.21
  -6   4   2    0.06    0.07
  -6   4   2    0.21    0.08
  -6   4   2    0.08    0.06
   5  -4  -2    0.02    0.05
   5  -4  -2    0.04    0.04
   5  -4  -2   -0.08    0.10
   5  -4  -2   -0.06    0.07
  -5   4   2   -0.01    0.14
  -5   4   2   -0.01    0.05
  -5   4   2   -0.04    0.06
  -5   4   2    0.04    0.05
  -5   4   2   -0.07    0.17
  -5   4   2    0.00    0.06
  -5   4   2    0.00    0.05
   4  -4  -2    0.96    0.08
   4  -4  -2    0.89    0.10
   4  -4  -2    0.99    0.08
   4  -4  -2    1.09    0.10
  -4   4   2    0.97    0.38
  -4   4   2    0.77    0.25
  -4   4   2    0.91    0.09
  -4   4   2    1.04    0.10
  -4   4   2    0.92    0.09
  -4   4   2    0.90    0.09
  -4   4   2    0.94    0.10
   3  -4  -2   23.20    0.75
   3  -4  -2   24.39    0.68
   3  -4  -2   24.04    0.65
  -3   4   2   24.06    0.65
  -3   4   2   23.47    0.73
  -3   4   2   24.27    0.99
  -3   4   2   23.88    1.21
  -3   4   2   24.03    0.78
  -3   4   2   24.39    0.75
  -3   4   2   23.94    0.68
   2  -4  -2    4.25    0.15
   2  -4  -2    4.31    0.15
   2  -4  -2    3.89    0.18
  -2   4   2    4.05    0.17
  -2   4   2    4.07    0.15
  -2   4   2    4.16    0.15
  -2   4   2    4.20    0.15
  -2   4   2    4.02    0.17
  -2   4   2    3.98    0.23
   1  -4  -2    0.15    0.05
   1  -4  -2    0.19    0.08
   1  -4  -2    0.19    0.04
  -1   4   2    0.19    0.05
  -1   4   2    0.25    0.05
  -1   4   2    0.16    0.05
  -1   4   2    0.19    0.04
  -1   4   2    0.17    0.05
  -1   4   2    0.23    0.06
   0  -4  -2    2.36    0.13
   0  -4  -2    2.55    0.12
   0  -4  -2    2.43    0.11
   0   4   2    2.28    0.13
   0   4   2    2.33    0.14
   0   4   2    2.25    0.13
   0   4   2    2.35    0.11
  -1  -4  -2    0.55    0.08
  -1  -4  -2    0.45    0.06
   1   4   2    0.46    0.06
   1   4   2    0.51    0.08
   1   4   2    0.43    0.08
   1   4   2    0.45    0.07
  -2  -4  -2    1.93    0.12
  -2  -4  -2    1.94    0.13
   2   4   2    1.78    0.13
   2   4   2    1.85    0.11
   2   4   2    1.72    0.12
   2   4   2    1.95    0.15
  -3  -4  -2    6.69    0.34
  -3  -4  -2    6.00    0.23
   3   4   2    5.97    0.22
   3   4   2    5.79    0.26
   3   4   2    5.79    0.23
   3   4   2    6.00    0.28
  -4  -4  -2    1.11    0.12
  -4  -4  -2    1.22    0.14
   4   4   2    1.13    0.11
   4   4   2    1.12    0.14
   4   4   2    0.84    0.15
  -5  -4  -2    1.59    0.15
   5   4   2    2.06    0.21
   5   4   2    1.54    0.13
  -6  -4  -2    0.81    0.13
   6   4   2    0.79    0.18
   6   4   2    0.77    0.11
  -7  -4  -2   -0.04    0.10
   7   4   2    0.28    0.18
  10  -5  -2    0.06    0.08
  10  -5  -2   -0.09    0.16
 -10   5   2    0.05    0.15
 -10   5   2   -0.45    0.25
 -10   5   2   -0.09    0.11
   9  -5  -2    0.00    0.14
   9  -5  -2   -0.05    0.07
  -9   5   2   -0.31    0.23
  -9   5   2    0.07    0.12
  -9   5   2    0.02    0.10
   8  -5  -2    0.58    0.15
   8  -5  -2    0.55    0.09
  -8   5   2    0.33    0.10
  -8   5   2    0.72    0.14
  -8   5   2    0.33    0.23
   7  -5  -2    2.26    0.21
  -7   5   2    1.87    0.19
  -7   5   2    1.90    0.16
  -7   5   2    1.83    0.29
  -7   5   2    1.32    0.32
   6  -5  -2    0.06    0.06
   6  -5  -2    0.14    0.10
  -6   5   2    0.13    0.21
  -6   5   2    0.17    0.06
  -6   5   2    0.10    0.09
  -6   5   2    0.21    0.18
  -6   5   2    0.46    0.10
   5  -5  -2    0.27    0.06
   5  -5  -2    0.32    0.09
  -5   5   2    0.66    0.18
  -5   5   2    0.29    0.08
  -5   5   2    0.18    0.19
  -5   5   2    0.47    0.09
  -5   5   2    0.40    0.09
  -5   5   2    0.27    0.06
  -5   5   2    0.19    0.08
   4  -5  -2    0.04    0.05
   4  -5  -2    0.12    0.06
   4  -5  -2   -0.05    0.06
  -4   5   2    0.10    0.08
  -4   5   2    0.01    0.06
  -4   5   2    0.00    0.05
  -4   5   2    0.21    0.18
  -4   5   2    0.13    0.06
  -4   5   2    0.03    0.06
  -4   5   2   -0.03    0.07
  -4   5   2    0.06    0.13
   3  -5  -2    0.01    0.06
   3  -5  -2    0.05    0.05
  -3   5   2    0.00    0.05
  -3   5   2   -0.07    0.05
  -3   5   2    0.04    0.06
  -3   5   2    0.05    0.05
  -3   5   2    0.05    0.06
  -3   5   2    0.00    0.11
   2  -5  -2    2.10    0.11
   2  -5  -2    1.93    0.14
  -2   5   2    1.96    0.17
  -2   5   2    2.05    0.13
  -2   5   2    2.05    0.12
  -2   5   2    2.18    0.12
  -2   5   2    1.97    0.12
  -2   5   2    2.05    0.12
   1  -5  -2    0.06    0.05
   1  -5  -2   -0.04    0.04
  -1   5   2    0.04    0.06
  -1   5   2    0.05    0.05
  -1   5   2    0.00    0.05
  -1   5   2   -0.02    0.05
  -1   5   2   -0.02    0.10
  -1   5   2   -0.02    0.05
   0  -5  -2    4.12    0.17
   0  -5  -2    4.12    0.19
   0   5   2    4.46    0.19
   0   5   2    4.10    0.21
   0   5   2    4.26    0.17
   0   5   2    4.23    0.22
  -1  -5  -2    2.79    0.14
  -1  -5  -2    3.29    0.19
  -1  -5  -2    3.26    0.18
   1   5   2    2.94    0.17
   1   5   2    2.87    0.14
   1   5   2    3.00    0.15
   1   5   2    2.90    0.18
  -2  -5  -2    0.00    0.06
  -2  -5  -2    0.05    0.06
   2   5   2    0.00    0.06
   2   5   2   -0.03    0.07
   2   5   2   -0.10    0.08
   2   5   2    0.00    0.06
  -3  -5  -2   -0.03    0.07
  -3  -5  -2    0.05    0.10
   3   5   2    0.04    0.08
   3   5   2    0.03    0.11
   3   5   2    0.09    0.07
  -4  -5  -2    2.98    0.23
  -4  -5  -2    2.50    0.17
   4   5   2    2.47    0.16
   4   5   2    2.38    0.25
  -5  -5  -2    0.10    0.09
   5   5   2    0.17    0.09
   5   5   2    0.12    0.15
  -6  -5  -2    0.06    0.09
   6   5   2   -0.23    0.15
  -7  -5  -2    0.05    0.10
   7   5   2    0.01    0.19
  10  -6  -2   -0.18    0.15
  10  -6  -2    0.04    0.09
 -10   6   2   -0.08    0.11
 -10   6   2   -0.14    0.14
 -10   6   2   -0.60    0.28
   9  -6  -2   -0.01    0.08
   9  -6  -2    0.25    0.14
  -9   6   2    0.14    0.11
  -9   6   2    0.28    0.14
  -9   6   2   -0.08    0.26
   8  -6  -2    0.08    0.07
   8  -6  -2   -0.02    0.11
  -8   6   2   -0.41    0.22
  -8   6   2   -0.01    0.12
  -8   6   2    0.11    0.10
   7  -6  -2    0.15    0.07
   7  -6  -2    0.03    0.10
  -7   6   2    0.24    0.10
  -7   6   2    0.21    0.11
  -7   6   2   -0.05    0.20
   6  -6  -2    0.08    0.10
   6  -6  -2    0.05    0.06
  -6   6   2   -0.24    0.21
  -6   6   2   -0.09    0.18
  -6   6   2    0.07    0.15
  -6   6   2   -0.03    0.09
   5  -6  -2   -0.18    0.09
   5  -6  -2   -0.07    0.05
  -5   6   2   -0.08    0.09
  -5   6   2   -0.08    0.08
  -5   6   2   -0.08    0.09
  -5   6   2   -0.02    0.31
  -5   6   2   -0.07    0.38
   4  -6  -2    2.77    0.20
   4  -6  -2    2.81    0.14
  -4   6   2    2.70    0.16
  -4   6   2    3.03    0.19
  -4   6   2    2.67    0.28
  -4   6   2    2.56    0.15
  -4   6   2    2.70    0.17
   3  -6  -2   13.74    0.48
   3  -6  -2   12.80    0.40
  -3   6   2   13.17    0.40
  -3   6   2   13.51    0.47
  -3   6   2   12.50    0.41
  -3   6   2   13.51    0.62
  -3   6   2   12.96    0.41
  -3   6   2   13.28    0.46
   2  -6  -2    1.80    0.11
   2  -6  -2    1.68    0.15
  -2   6   2    1.84    0.27
  -2   6   2    1.89    0.14
  -2   6   2    1.70    0.12
  -2   6   2    1.75    0.15
  -2   6   2    1.75    0.14
  -2   6   2    1.81    0.12
   1  -6  -2    4.05    0.21
   1  -6  -2    3.69    0.17
  -1   6   2    3.91    0.23
  -1   6   2    3.61    0.19
  -1   6   2    3.67    0.17
  -1   6   2    3.70    0.30
  -1   6   2    3.93    0.20
   0  -6  -2    9.62    0.37
   0  -6  -2    9.47    0.31
   0   6   2    9.54    0.35
   0   6   2    9.02    0.31
   0   6   2    9.19    0.33
   0   6   2    9.36    0.39
  -1  -6  -2    0.34    0.09
  -1  -6  -2    0.25    0.08
  -1  -6  -2    0.29    0.10
   1   6   2    0.24    0.10
   1   6   2    0.29    0.08
   1   6   2    0.34    0.09
   1   6   2    0.23    0.08
  -2  -6  -2    0.22    0.09
  -2  -6  -2    0.24    0.07
   2   6   2    0.10    0.10
   2   6   2    0.05    0.07
   2   6   2    0.24    0.08
  -3  -6  -2   -0.14    0.12
  -3  -6  -2   -0.05    0.07
   3   6   2   -0.06    0.07
   3   6   2   -0.01    0.12
  -4  -6  -2   -0.05    0.07
  -4  -6  -2   -0.15    0.10
   4   6   2   -0.17    0.13
   4   6   2   -0.02    0.08
  -5  -6  -2    0.03    0.09
   5   6   2    0.09    0.09
   5   6   2    0.09    0.17
  -6  -6  -2    0.07    0.08
   6   6   2   -0.22    0.18
  10  -7  -2    0.21    0.17
  10  -7  -2   -0.04    0.09
 -10   7   2   -0.39    0.32
 -10   7   2    0.04    0.12
 -10   7   2   -0.07    0.17
   9  -7  -2    0.10    0.15
   9  -7  -2    0.12    0.09
  -9   7   2    0.24    0.15
  -9   7   2    0.05    0.11
  -9   7   2   -0.13    0.30
   8  -7  -2   -0.04    0.13
   8  -7  -2    0.11    0.08
  -8   7   2   -0.15    0.10
  -8   7   2    0.02    0.12
  -8   7   2   -0.21    0.24
   7  -7  -2    0.13    0.07
   7  -7  -2   -0.02    0.11
  -7   7   2    0.02    0.22
  -7   7   2    0.02    0.10
  -7   7   2    0.13    0.11
   6  -7  -2    0.54    0.13
   6  -7  -2    0.44    0.08
  -6   7   2    0.88    0.12
  -6   7   2    0.71    0.12
  -6   7   2    0.46    0.22
  -6   7   2    0.04    0.25
   5  -7  -2    0.04    0.10
   5  -7  -2   -0.02    0.06
  -5   7   2    0.01    0.08
  -5   7   2   -0.12    0.44
  -5   7   2   -0.09    0.32
  -5   7   2    0.01    0.10
  -5   7   2   -0.03    0.08
   4  -7  -2    6.41    0.25
   4  -7  -2    7.30    0.32
  -4   7   2    6.34    0.26
  -4   7   2    6.66    0.44
  -4   7   2    7.21    0.31
   3  -7  -2    4.57    0.19
   3  -7  -2    5.33    0.26
  -3   7   2    4.65    0.33
  -3   7   2    4.95    0.25
  -3   7   2    4.49    0.21
  -3   7   2    4.46    0.21
   2  -7  -2    0.02    0.08
   2  -7  -2    0.09    0.06
  -2   7   2    0.05    0.08
  -2   7   2    0.05    0.07
  -2   7   2    0.11    0.07
  -2   7   2    0.12    0.18
   1  -7  -2   -0.14    0.08
   1  -7  -2    0.03    0.06
  -1   7   2    0.02    0.07
  -1   7   2   -0.11    0.07
   0  -7  -2    0.66    0.09
   0  -7  -2    0.53    0.12
   0   7   2    0.56    0.24
   0   7   2    0.43    0.09
  -1  -7  -2    6.95    0.31
  -1  -7  -2    5.38    0.23
   1   7   2    6.23    0.32
   1   7   2    5.46    0.24
  -2  -7  -2   -0.09    0.07
  -2  -7  -2    0.08    0.10
   2   7   2    0.02    0.12
   2   7   2    0.02    0.08
  -3  -7  -2   -0.05    0.07
  -3  -7  -2   -0.04    0.21
   3   7   2   -0.16    0.13
   3   7   2   -0.11    0.08
  -4  -7  -2   -0.07    0.07
   4   7   2    0.03    0.17
   4   7   2    0.02    0.09
  -5  -7  -2   -0.04    0.08
   5   7   2   -0.08    0.17
   9  -8  -2    0.28    0.18
   9  -8  -2    0.33    0.10
  -9   8   2    0.12    0.12
  -9   8   2   -0.28    0.32
  -9   8   2    0.66    0.18
   8  -8  -2    0.13    0.15
   8  -8  -2    0.17    0.09
  -8   8   2    0.01    0.12
  -8   8   2   -0.16    0.27
  -8   8   2    0.22    0.16
   7  -8  -2    0.16    0.08
   7  -8  -2    0.01    0.12
  -7   8   2   -0.19    0.23
  -7   8   2    0.09    0.11
  -7   8   2    0.27    0.13
   6  -8  -2    0.09    0.07
   6  -8  -2    0.00    0.12
  -6   8   2    0.12    0.11
  -6   8   2   -0.09    0.21
  -6   8   2    0.07    0.12
   5  -8  -2    0.04    0.06
   5  -8  -2   -0.01    0.11
  -5   8   2    0.05    0.09
  -5   8   2   -0.03    0.10
  -5   8   2   -0.03    0.10
  -5   8   2   -0.06    0.21
   4  -8  -2    0.31    0.12
  -4   8   2    0.27    0.10
  -4   8   2    0.27    0.11
  -4   8   2    0.25    0.18
   3  -8  -2    0.04    0.09
   3  -8  -2    0.07    0.06
  -3   8   2    0.04    0.10
  -3   8   2    0.13    0.08
   2  -8  -2    0.21    0.07
   2  -8  -2    0.14    0.10
  -2   8   2    0.13    0.10
  -2   8   2    0.18    0.09
   1  -8  -2    0.07    0.10
   1  -8  -2    0.02    0.07
  -1   8   2    0.09    0.10
  -1   8   2   -0.09    0.08
   0  -8  -2    2.37    0.22
   0  -8  -2    2.12    0.15
   0  -8  -2    2.41    0.22
   0   8   2    2.61    0.22
   0   8   2    2.00    0.15
  -1  -8  -2    0.48    0.12
  -1  -8  -2    0.43    0.09
   1   8   2    0.45    0.10
   1   8   2    0.61    0.15
  -2  -8  -2   -0.09    0.11
  -2  -8  -2    0.04    0.08
   2   8   2   -0.07    0.08
   2   8   2    0.07    0.13
  -3  -8  -2    0.18    0.14
  -3  -8  -2    0.05    0.08
   3   8   2    0.19    0.16
   3   8   2    0.02    0.10
  -4  -8  -2    0.06    0.09
   4   8   2    0.08    0.10
   4   8   2   -0.06    0.17
   9  -9  -2   -0.05    0.18
   9  -9  -2   -0.03    0.09
  -9   9   2    0.04    0.17
  -9   9   2   -0.62    0.34
  -9   9   2   -0.16    0.12
   8  -9  -2    0.04    0.16
   8  -9  -2   -0.05    0.08
  -8   9   2    0.01    0.12
  -8   9   2   -0.52    0.29
  -8   9   2   -0.05    0.16
   7  -9  -2   -0.10    0.14
   7  -9  -2   -0.03    0.08
  -7   9   2    0.05    0.15
  -7   9   2   -0.32    0.24
  -7   9   2    0.04    0.12
   6  -9  -2    0.11    0.08
   6  -9  -2    0.16    0.14
  -6   9   2   -0.08    0.12
  -6   9   2    0.10    0.12
  -6   9   2    0.10    0.25
   5  -9  -2    0.30    0.12
   5  -9  -2    0.27    0.08
  -5   9   2    0.30    0.12
  -5   9   2    0.10    0.10
  -5   9   2    0.48    0.13
   4  -9  -2    0.21    0.07
   4  -9  -2    0.00    0.11
  -4   9   2    0.11    0.09
  -4   9   2    0.00    0.11
   3  -9  -2    0.06    0.10
   3  -9  -2   -0.02    0.07
  -3   9   2    0.09    0.11
  -3   9   2   -0.01    0.09
   2  -9  -2    0.02    0.07
   2  -9  -2    0.00    0.10
  -2   9   2   -0.12    0.09
  -2   9   2   -0.04    0.10
   1  -9  -2    0.05    0.07
   1  -9  -2   -0.03    0.10
  -1   9   2   -0.08    0.08
  -1   9   2    0.03    0.11
   0  -9  -2    0.15    0.07
   0  -9  -2    0.04    0.12
   0   9   2    0.07    0.09
   0   9   2    0.08    0.15
  -1  -9  -2    0.09    0.12
  -1  -9  -2    0.10    0.08
   1   9   2    0.01    0.15
   1   9   2    0.04    0.10
  -2  -9  -2    0.04    0.08
  -2  -9  -2    0.15    0.15
   2   9   2   -0.13    0.15
   2   9   2    0.06    0.10
  -3  -9  -2   -0.02    0.09
   3   9   2   -0.11    0.10
   3   9   2    0.17    0.17
   8 -10  -2   -0.20    0.08
  -8  10   2   -0.22    0.13
   7 -10  -2    0.49    0.20
   7 -10  -2    0.53    0.11
  -7  10   2    0.52    0.19
  -7  10   2   -0.03    0.13
   6 -10  -2    0.10    0.08
   6 -10  -2    0.09    0.13
  -6  10   2   -0.05    0.15
  -6  10   2   -0.01    0.13
   5 -10  -2    0.02    0.11
   5 -10  -2    0.04    0.08
  -5  10   2   -0.08    0.13
  -5  10   2   -0.06    0.11
  -5  10   2    0.27    0.13
   4 -10  -2    0.18    0.08
   4 -10  -2    0.13    0.12
  -4  10   2   -0.03    0.10
  -4  10   2   -0.01    0.13
   3 -10  -2    0.08    0.11
   3 -10  -2    0.11    0.08
  -3  10   2    0.02    0.12
  -3  10   2    0.11    0.11
   2 -10  -2   -0.04    0.08
   2 -10  -2   -0.01    0.11
  -2  10   2    0.03    0.10
  -2  10   2    0.09    0.12
   1 -10  -2    0.40    0.10
   1 -10  -2    0.45    0.15
   1 -10  -2    0.68    0.17
  -1  10   2    0.61    0.30
  -1  10   2    0.35    0.12
   0 -10  -2    0.02    0.08
   0 -10  -2    0.17    0.14
   0  10   2    0.08    0.16
   0  10   2   -0.05    0.10
  -1 -10  -2   -0.01    0.14
  -1 -10  -2    0.11    0.10
   1  10   2    0.17    0.16
   1  10   2    0.05    0.11
  -2 -10  -2    0.33    0.10
  -2 -10  -2    0.06    0.30
   2  10   2    0.43    0.19
   2  10   2   -0.05    0.10
   6 -11  -2    0.07    0.14
   6 -11  -2    0.14    0.09
  -6  11   2   -0.10    0.17
  -6  11   2    0.09    0.14
   5 -11  -2    0.51    0.16
   5 -11  -2    0.28    0.10
  -5  11   2    0.27    0.13
  -5  11   2    0.38    0.14
  -5  11   2    0.46    0.18
   4 -11  -2   -0.15    0.12
   4 -11  -2   -0.11    0.08
  -4  11   2   -0.06    0.11
  -4  11   2    0.35    0.16
   3 -11  -2    0.08    0.13
   3 -11  -2    0.04    0.09
  -3  11   2    0.22    0.15
  -3  11   2   -0.10    0.12
   2 -11  -2    0.28    0.10
   2 -11  -2    0.04    0.13
  -2  11   2    0.22    0.16
  -2  11   2    0.23    0.12
   1 -11  -2    0.31    0.16
   1 -11  -2    0.41    0.11
  -1  11   2    0.01    0.11
  -1  11   2    0.33    0.19
   0  11   2   -0.05    0.12
   1  12  -3    0.01    0.12
   0  12  -3   -0.02    0.13
  -1  12  -3   -0.16    0.12
  -2  12  -3    0.62    0.19
  -2  12  -3    0.18    0.14
  -3  12  -3    0.34    0.19
  -3  12  -3   -0.01    0.13
  -4  12  -3    0.52    0.26
  -4  12  -3   -0.08    0.12
  -5  12  -3   -0.10    0.13
  -5  12  -3    0.28    0.27
   3  11  -3    0.06    0.13
   2  11  -3    0.03    0.12
   1  11  -3    0.15    0.13
   0  11  -3    0.54    0.19
   0  11  -3    0.50    1.46
  -1  11  -3    0.23    0.14
  -1  11  -3    0.48    0.55
  -1  11  -3    0.13    0.12
   1 -11   3   -0.12    0.12
  -2  11  -3    0.34    0.16
  -2  11  -3    0.00    0.11
   2 -11   3    0.03    0.14
  -3  11  -3   -0.28    0.10
  -3  11  -3    0.38    0.17
   3 -11   3   -0.07    0.12
  -4  11  -3   -0.03    0.12
  -4  11  -3    0.36    0.21
  -4  11  -3    0.96    0.62
   4 -11   3    0.05    0.14
  -5  11  -3    0.44    0.27
  -5  11  -3   -0.06    0.13
  -5  11  -3    0.74    0.65
   5 -11   3    0.15    0.15
  -6  11  -3    0.83    0.35
  -6  11  -3   -0.24    0.13
  -7  11  -3   -0.28    0.14
   5  10  -3    0.14    0.12
   4  10  -3   -0.01    0.11
   3  10  -3   -0.05    0.11
   2  10  -3    0.27    0.12
  -2 -10   3    0.28    0.11
   1  10  -3    0.50    1.01
   1  10  -3    0.15    0.14
   1  10  -3   -0.02    0.10
  -1 -10   3   -0.03    0.09
   0  10  -3    1.33    0.16
   0  10  -3    1.95    0.26
   0 -10   3    1.85    0.19
  -1  10  -3    2.65    0.28
  -1  10  -3    1.94    0.19
   1 -10   3    2.16    0.22
  -2  10  -3    0.62    0.17
  -2  10  -3    0.36    0.12
   2 -10   3    0.14    0.13
  -3  10  -3   -0.06    0.11
  -3  10  -3    0.11    0.15
   3 -10   3   -0.03    0.11
  -4  10  -3    0.43    0.12
  -4  10  -3    1.26    0.58
  -4  10  -3    0.72    0.23
   4 -10   3    0.59    0.15
  -5  10  -3    0.27    0.24
  -5  10  -3   -0.02    0.12
  -5  10  -3    0.97    0.57
   5 -10   3    0.09    0.12
  -6  10  -3    0.45    0.30
  -6  10  -3    0.72    0.60
   6 -10   3    0.00    0.13
  -7  10  -3   -0.31    0.13
  -7  10  -3    0.26    0.16
  -7  10  -3    0.00    0.35
  -7  10  -3    1.35    0.68
  -8  10  -3   -0.03    0.16
   6   9  -3    0.23    0.12
  -6  -9   3    0.46    0.31
   5   9  -3    0.49    0.13
   4   9  -3    0.15    0.11
   3   9  -3    0.08    0.10
   3   9  -3    0.23    0.42
  -3  -9   3    0.18    0.13
  -3  -9   3   -0.05    0.08
   2   9  -3    0.07    0.12
   2   9  -3   -0.10    0.09
  -2  -9   3    0.01    0.09
  -2  -9   3   -0.02    0.12
   1   9  -3    0.45    0.11
   1   9  -3    1.04    0.90
   0   9  -3    0.26    0.10
   0   9  -3    0.64    0.15
   0   9  -3    0.39    0.09
   0   9  -3    0.27    0.14
   0  -9   3    0.35    0.11
  -1   9  -3    1.03    0.20
  -1   9  -3    0.84    0.12
  -1   9  -3    0.88    0.11
   1  -9   3    1.17    0.14
  -2   9  -3    1.35    0.14
  -2   9  -3    1.69    0.23
  -2   9  -3    1.60    0.14
   2  -9   3    1.26    0.15
  -3   9  -3    0.54    0.18
  -3   9  -3    0.23    0.08
  -3   9  -3    0.37    0.11
   3  -9   3    0.28    0.12
  -4   9  -3    0.02    0.10
  -4   9  -3    0.18    0.17
   4  -9   3    0.09    0.11
  -5   9  -3    0.62    0.25
  -5   9  -3    0.34    0.12
   5  -9   3    0.25    0.13
  -6   9  -3   -0.18    0.11
  -6   9  -3    0.01    0.26
   6  -9   3    0.13    0.13
  -7   9  -3    0.22    0.15
  -7   9  -3   -0.12    0.13
  -7   9  -3    0.25    0.33
   7  -9   3    0.04    0.13
  -8   9  -3    0.07    0.15
  -8   9  -3   -0.55    0.74
   7   8  -3    0.08    0.12
  -7  -8   3    0.22    0.13
   6   8  -3    0.01    0.11
  -6  -8   3    0.02    0.25
   5   8  -3    0.11    0.10
   5   8  -3    0.20    0.52
   4   8  -3    0.00    0.09
  -4  -8   3    0.13    0.15
  -4  -8   3    0.08    0.12
  -4  -8   3    0.11    0.09
   3   8  -3    0.17    0.09
  -3  -8   3    0.26    0.12
  -3  -8   3    0.16    0.09
  -3  -8   3    0.22    0.15
   2   8  -3    0.06    0.11
   2   8  -3   -0.06    0.26
   2   8  -3    0.01    0.08
  -2  -8   3   -0.02    0.09
  -2  -8   3   -0.04    0.07
   1   8  -3    0.23    0.12
   1   8  -3    0.20    0.08
   1   8  -3    0.30    0.07
   1   8  -3    0.22    0.11
  -1  -8   3    0.15    0.11
  -1  -8   3    0.11    0.07
   0   8  -3    0.10    0.08
   0   8  -3    0.10    0.10
   0   8  -3    0.10    0.10
   0   8  -3    0.00    0.07
   0  -8   3   -0.03    0.08
  -1   8  -3    0.49    0.18
  -1   8  -3    0.27    0.07
  -1   8  -3    0.32    0.09
  -1   8  -3    0.22    0.13
   1  -8   3    0.13    0.08
  -2   8  -3    0.05    0.07
  -2   8  -3    0.03    0.11
  -2   8  -3    0.04    0.06
  -2   8  -3    0.26    0.15
   2  -8   3    0.10    0.08
  -3   8  -3    1.32    0.13
  -3   8  -3    1.62    0.13
  -3   8  -3    1.33    0.22
   3  -8   3    1.58    0.15
  -4   8  -3    0.28    0.17
  -4   8  -3    0.07    0.07
  -4   8  -3    0.08    0.09
   4  -8   3    0.13    0.09
  -5   8  -3    0.12    0.08
  -5   8  -3    0.16    0.20
  -5   8  -3    0.07    0.10
   5  -8   3    0.09    0.10
  -6   8  -3   -0.09    0.23
  -6   8  -3   -0.04    0.11
   6  -8   3    0.04    0.11
  -7   8  -3    0.79    0.16
  -7   8  -3    0.59    0.32
  -7   8  -3    0.42    0.14
   7  -8   3    0.79    0.16
  -8   8  -3    0.04    0.65
  -8   8  -3    0.11    0.15
   8  -8   3    0.18    0.15
  -9   8  -3   -0.06    0.16
  -9   8  -3   -0.03    0.41
   8   7  -3   -0.05    0.11
   7   7  -3   -0.13    0.09
  -7  -7   3   -0.02    0.11
   6   7  -3    0.35    0.11
  -6  -7   3    0.47    0.15
  -6  -7   3    0.73    0.24
   5   7  -3    0.19    0.10
  -5  -7   3    0.20    0.12
  -5  -7   3    0.32    0.21
  -5  -7   3    0.17    0.15
  -5  -7   3    0.15    0.10
   4   7  -3    0.18    0.11
   4   7  -3    0.09    0.09
  -4  -7   3    0.10    0.10
  -4  -7   3    0.30    0.09
  -4  -7   3    0.15    0.14
  -4  -7   3    0.17    0.08
   3   7  -3   -0.04    0.07
   3   7  -3    0.14    0.17
  -3  -7   3    0.06    0.11
  -3  -7   3   -0.04    0.07
  -3  -7   3    0.05    0.09
   2   7  -3    1.47    0.13
   2   7  -3    1.18    0.11
   2   7  -3    1.71    0.22
  -2  -7   3    1.32    0.21
  -2  -7   3    1.35    0.14
  -2  -7   3    1.63    0.18
   1   7  -3    0.29    0.07
   1   7  -3    0.23    0.07
   1   7  -3    0.43    0.12
  -1  -7   3    0.36    0.08
  -1  -7   3    0.29    0.10
   0   7  -3    0.86    0.14
   0   7  -3    1.25    0.20
   0   7  -3    0.86    0.12
   0   7  -3    0.89    0.09
   0  -7   3    0.92    0.10
  -1   7  -3    0.19    0.10
  -1   7  -3    0.21    0.06
  -1   7  -3    0.04    0.06
  -1   7  -3    0.10    0.09
   1  -7   3    0.10    0.07
  -2   7  -3    0.26    0.06
  -2   7  -3    0.12    0.11
  -2   7  -3    0.18    0.07
  -2   7  -3    0.37    0.16
   2  -7   3    0.13    0.07
  -3   7  -3   15.29    0.76
  -3   7  -3   19.04    1.10
  -3   7  -3   15.79    0.48
  -3   7  -3   15.24    0.48
   3  -7   3   14.61    0.52
  -4   7  -3    0.25    0.18
  -4   7  -3    0.04    0.06
  -4   7  -3   -0.03    0.08
  -4   7  -3    0.06    0.15
   4  -7   3   -0.06    0.08
  -5   7  -3    0.05    0.07
  -5   7  -3    0.12    0.10
  -5   7  -3   -0.11    0.17
  -5   7  -3    0.43    0.27
   5  -7   3    0.05    0.09
  -6   7  -3   -0.13    0.10
  -6   7  -3    0.08    0.23
  -6   7  -3    0.15    0.08
   6  -7   3    0.09    0.10
  -7   7  -3    1.52    0.53
  -7   7  -3    0.28    0.14
  -7   7  -3   -0.02    0.27
   7  -7   3    0.31    0.12
  -8   7  -3   -0.49    0.32
  -8   7  -3   -0.03    0.14
   8  -7   3    0.06    0.13
  -9   7  -3   -0.91    0.35
  -9   7  -3    0.02    0.14
   8   6  -3    0.06    0.11
   7   6  -3    0.03    0.09
  -7  -6   3   -0.01    0.10
  -7  -6   3   -0.11    0.11
   6   6  -3    0.28    0.10
  -6  -6   3    0.18    0.12
  -6  -6   3    0.21    0.10
  -6  -6   3    0.03    0.10
   5   6  -3    0.07    0.08
   5   6  -3    0.08    0.38
  -5  -6   3   -0.05    0.26
  -5  -6   3   -0.11    0.11
  -5  -6   3    0.03    0.08
  -5  -6   3    0.08    0.18
   4   6  -3    0.06    0.13
   4   6  -3    0.13    0.07
  -4  -6   3    0.03    0.08
  -4  -6   3    0.06    0.07
  -4  -6   3   -0.01    0.10
  -4  -6   3    0.03    0.07
   3   6  -3    2.23    0.26
   3   6  -3    2.30    0.14
  -3  -6   3    2.49    0.16
  -3  -6   3    2.84    0.40
  -3  -6   3    2.71    0.21
   2   6  -3    0.07    0.05
   2   6  -3    0.06    0.05
   2   6  -3   -0.02    0.05
  -2  -6   3   -0.07    0.05
  -2  -6   3    0.00    0.08
  -2  -6   3    0.01    0.05
   1   6  -3   10.36    0.44
   1   6  -3   10.67    0.37
   1   6  -3   10.44    0.60
  -1  -6   3   10.81    0.51
   0   6  -3    0.78    0.07
   0   6  -3    0.55    0.07
   0   6  -3    0.65    0.12
   0   6  -3    0.69    0.08
   0   6  -3    0.63    0.13
   0  -6   3    0.89    0.14
   0  -6   3    0.69    0.08
  -1   6  -3    0.25    0.09
  -1   6  -3    0.32    0.06
  -1   6  -3    0.33    0.06
  -1   6  -3    0.27    0.06
  -1   6  -3    0.35    0.12
   1  -6   3    0.39    0.06
  -2   6  -3    4.57    0.20
  -2   6  -3    4.40    0.17
  -2   6  -3    4.34    0.30
  -2   6  -3    4.65    0.38
  -2   6  -3    4.59    0.18
   2  -6   3    4.50    0.19
  -3   6  -3    0.21    0.13
  -3   6  -3    0.38    0.06
  -3   6  -3    0.52    0.08
  -3   6  -3    0.44    0.17
   3  -6   3    0.62    0.09
  -4   6  -3    0.17    0.08
  -4   6  -3    0.15    0.14
  -4   6  -3    0.26    0.08
  -4   6  -3    0.31    0.16
   4  -6   3    0.10    0.08
  -5   6  -3    4.07    0.68
  -5   6  -3    2.69    0.18
  -5   6  -3    2.89    0.22
  -5   6  -3    2.99    0.34
   5  -6   3    2.64    0.18
  -6   6  -3    0.08    0.21
  -6   6  -3    0.01    0.11
  -6   6  -3    0.24    0.10
  -6   6  -3   -0.14    0.09
   6  -6   3    0.13    0.10
  -7   6  -3    0.33    0.13
  -7   6  -3    0.09    0.41
   7  -6   3    0.10    0.11
  -8   6  -3    0.05    0.32
  -8   6  -3    0.07    0.14
   8  -6   3    0.03    0.13
  -9   6  -3   -0.14    0.35
  -9   6  -3    0.19    0.15
   9   5  -3    0.01    0.11
  -9  -5   3    0.10    0.14
   8   5  -3   -0.05    0.09
  -8  -5   3   -0.02    0.12
  -8  -5   3    0.10    0.12
   7   5  -3    0.05    0.08
  -7  -5   3    0.05    0.10
  -7  -5   3   -0.04    0.09
   6   5  -3    0.73    0.11
   6   5  -3    0.97    0.53
  -6  -5   3    0.93    0.12
  -6  -5   3    0.50    0.11
  -6  -5   3    0.85    0.16
  -6  -5   3    0.76    0.29
   5   5  -3    0.05    0.09
   5   5  -3    0.06    0.07
  -5  -5   3   -0.05    0.07
  -5  -5   3   -0.03    0.08
  -5  -5   3   -0.05    0.14
  -5  -5   3    0.02    0.15
   4   5  -3    0.31    0.07
   4   5  -3    0.27    0.13
   4   5  -3    0.31    0.09
   4   5  -3    0.23    0.37
  -4  -5   3    0.28    0.10
  -4  -5   3    0.33    0.11
  -4  -5   3    0.21    0.12
  -4  -5   3    0.21    0.07
   3   5  -3    0.18    0.05
   3   5  -3    0.12    0.07
   3   5  -3    0.19    0.06
  -3  -5   3    0.14    0.09
  -3  -5   3    0.10    0.05
  -3  -5   3    0.09    0.07
   2   5  -3    0.94    0.08
   2   5  -3    0.98    0.10
   2   5  -3    0.93    0.10
  -2  -5   3    0.97    0.12
  -2  -5   3    0.88    0.14
  -2  -5   3    1.05    0.10
   1   5  -3   -0.04    0.03
   1   5  -3    0.04    0.04
   1   5  -3   -0.03    0.05
   1   5  -3   -0.02    0.04
  -1  -5   3    0.02    0.07
  -1  -5   3    0.01    0.05
  -1  -5   3    0.00    0.04
   0   5  -3    0.37    0.05
   0   5  -3    0.27    0.08
   0   5  -3    0.24    0.09
   0  -5   3    0.48    0.10
   0  -5   3    0.44    0.06
  -1   5  -3    9.10    0.44
  -1   5  -3    8.87    0.27
  -1   5  -3    8.32    0.30
  -1   5  -3    8.86    0.52
   1  -5   3    9.22    0.30
  -2   5  -3    2.70    0.22
  -2   5  -3    2.90    0.27
  -2   5  -3    2.82    0.14
  -2   5  -3    2.59    0.11
  -2   5  -3    2.84    0.12
   2  -5   3    2.65    0.13
  -3   5  -3    7.37    0.50
  -3   5  -3    7.64    0.24
  -3   5  -3    6.68    0.40
  -3   5  -3    6.52    0.64
  -3   5  -3    7.00    0.27
   3  -5   3    6.85    0.26
  -4   5  -3    1.07    0.10
  -4   5  -3    1.21    0.23
  -4   5  -3    1.19    0.25
  -4   5  -3    0.96    0.15
   4  -5   3    1.07    0.11
  -5   5  -3    5.48    0.23
  -5   5  -3    5.81    0.63
  -5   5  -3    4.64    0.37
  -5   5  -3    5.40    0.42
   5  -5   3    5.37    0.24
  -6   5  -3    3.34    0.20
  -6   5  -3    3.17    0.37
  -6   5  -3    2.72    0.92
  -6   5  -3    3.37    0.54
   6  -5   3    3.50    0.21
  -7   5  -3   -0.11    0.23
  -7   5  -3   -0.10    0.11
   7  -5   3   -0.05    0.09
  -8   5  -3   -0.28    0.26
  -8   5  -3    0.02    0.12
  -8   5  -3    0.80    0.46
   8  -5   3    0.05    0.12
  -9   5  -3    0.10    0.14
  -9   5  -3   -0.38    0.31
   9   4  -3    0.01    0.09
  -9  -4   3   -0.12    0.14
  -9  -4   3    0.17    0.13
   8   4  -3   -0.08    0.08
  -8  -4   3   -0.04    0.10
  -8  -4   3   -0.12    0.11
   7   4  -3    0.00    0.07
  -7  -4   3   -0.08    0.09
  -7  -4   3    0.09    0.08
  -7  -4   3    0.06    0.09
  -7  -4   3    0.02    0.10
   6   4  -3    3.03    0.55
   6   4  -3    1.54    0.15
   6   4  -3    1.53    0.13
  -6  -4   3    1.95    0.16
  -6  -4   3    1.87    0.21
  -6  -4   3    1.66    0.30
  -6  -4   3    1.92    0.16
   5   4  -3    0.26    0.10
   5   4  -3    0.13    0.09
   5   4  -3    0.10    0.06
   5   4  -3    0.60    0.29
  -5  -4   3    0.34    0.09
   4   4  -3    0.28    0.06
   4   4  -3    0.18    0.07
   4   4  -3    0.17    0.07
  -4  -4   3    0.25    0.11
  -4  -4   3    0.19    0.06
  -4  -4   3    0.31    0.09
   3   4  -3    0.35    0.05
   3   4  -3    0.40    0.07
   3   4  -3    0.30    0.06
  -3  -4   3    0.39    0.09
  -3  -4   3    0.54    0.07
  -3  -4   3    0.42    0.11
   2   4  -3    1.22    0.08
   2   4  -3    1.28    0.10
   2   4  -3    1.26    0.07
   2   4  -3    1.23    0.07
  -2  -4   3    1.51    0.16
  -2  -4   3    1.51    0.13
  -2  -4   3    1.34    0.10
   1   4  -3    2.04    0.09
   1   4  -3    1.76    0.08
   1   4  -3    1.80    0.17
  -1  -4   3    1.82    0.09
  -1  -4   3    1.61    0.18
  -1  -4   3    1.64    0.14
   0   4  -3    0.50    0.10
   0   4  -3    0.50    0.10
   0  -4   3    0.65    0.10
   0  -4   3    0.66    0.06
  -1   4  -3    0.99    0.12
  -1   4  -3    1.00    0.16
   1  -4   3    1.19    0.07
   1  -4   3    0.92    0.14
  -2   4  -3    2.66    0.20
  -2   4  -3    2.60    0.10
  -2   4  -3    2.30    0.29
   2  -4   3    2.47    0.12
  -3   4  -3    0.89    0.08
  -3   4  -3    0.82    0.17
  -3   4  -3    0.87    0.08
  -3   4  -3    0.69    0.07
  -3   4  -3    0.94    0.15
   3  -4   3    0.81    0.08
  -4   4  -3    5.90    0.71
  -4   4  -3    5.64    0.20
  -4   4  -3    5.67    0.21
  -4   4  -3    5.47    0.37
   4  -4   3    5.47    0.22
  -5   4  -3    6.97    0.26
  -5   4  -3    7.22    0.28
  -5   4  -3    7.61    0.60
  -5   4  -3    6.88    0.47
  -5   4  -3    7.15    0.27
   5  -4   3    7.04    0.28
  -6   4  -3    0.07    0.16
  -6   4  -3    0.04    0.45
  -6   4  -3   -0.14    0.09
  -6   4  -3   -0.10    0.47
   6  -4   3   -0.11    0.07
  -7   4  -3    0.32    0.22
  -7   4  -3    0.45    0.11
   7  -4   3    0.23    0.11
  -8   4  -3   -0.14    0.22
  -8   4  -3    0.11    0.12
   8  -4   3    0.09    0.11
  -9   4  -3    0.23    0.14
  -9   4  -3   -0.45    0.25
  10   3  -3    0.06    0.10
 -10  -3   3    0.36    0.16
 -10  -3   3   -0.04    0.18
   9   3  -3    0.05    0.09
  -9  -3   3    0.03    0.14
  -9  -3   3    0.06    0.13
   8   3  -3   -0.08    0.07
  -8  -3   3   -0.03    0.09
  -8  -3   3   -0.07    0.10
  -8  -3   3    0.04    0.07
   7   3  -3    0.75    0.10
   7   3  -3    0.90    0.57
  -7  -3   3    0.67    0.09
  -7  -3   3    0.71    0.11
  -7  -3   3    0.58    0.23
  -7  -3   3    0.74    0.13
  -7  -3   3    0.81    0.16
   6   3  -3    0.12    0.09
   6   3  -3    0.23    0.41
   6   3  -3   -0.01    0.10
   6   3  -3    0.04    0.06
  -6  -3   3   -0.01    0.06
  -6  -3   3   -0.08    0.13
  -6  -3   3    0.09    0.07
  -6  -3   3   -0.05    0.06
  -6  -3   3    0.08    0.08
   5   3  -3    3.49    0.20
   5   3  -3    3.48    0.18
   5   3  -3    3.23    0.15
  -5  -3   3    3.72    0.25
  -5  -3   3    3.57    0.18
  -5  -3   3    3.80    0.33
  -5  -3   3    3.37    0.18
   4   3  -3    2.31    0.11
   4   3  -3    2.34    0.13
   4   3  -3    2.49    0.15
  -4  -3   3    2.58    0.19
  -4  -3   3    2.46    0.14
  -4  -3   3    2.51    0.25
   3   3  -3   24.58    0.63
   3   3  -3   22.85    0.68
   3   3  -3   23.25    0.73
   3   3  -3   22.46    0.72
  -3  -3   3   23.61    0.96
  -3  -3   3   23.25    0.70
  -3  -3   3   23.51    1.18
   2   3  -3    2.98    0.13
   2   3  -3    3.14    0.22
  -2  -3   3    3.26    0.23
  -2  -3   3    3.18    0.19
   1   3  -3    1.78    0.16
  -1  -3   3    2.00    0.17
  -1  -3   3    1.65    0.13
   0   3  -3    0.00    0.05
   0   3  -3   -0.04    0.04
   0  -3   3    0.04    0.04
  -1   3  -3    0.63    0.10
  -1   3  -3    0.55    0.11
   1  -3   3    0.59    0.10
  -2   3  -3    0.80    0.17
  -2   3  -3    0.90    0.12
   2  -3   3    0.95    0.06
   2  -3   3    0.86    0.14
  -3   3  -3    0.06    0.10
  -3   3  -3    0.14    0.04
  -3   3  -3    0.04    0.04
  -3   3  -3    0.01    0.04
  -3   3  -3    0.02    0.03
  -3   3  -3    0.01    0.09
   3  -3   3    0.08    0.04
  -4   3  -3    0.23    0.15
  -4   3  -3    0.13    0.05
  -4   3  -3    0.22    0.13
  -4   3  -3    0.12    0.06
  -4   3  -3    0.19    0.05
   4  -3   3    0.10    0.05
  -5   3  -3   -0.04    0.08
  -5   3  -3    0.14    0.46
  -5   3  -3    0.09    0.21
  -5   3  -3    0.14    0.06
   5  -3   3    0.13    0.07
  -6   3  -3    0.30    0.25
  -6   3  -3    0.81    0.22
  -6   3  -3    0.78    0.12
  -6   3  -3    0.82    0.10
   6  -3   3    0.85    0.12
  -7   3  -3    0.22    0.20
  -7   3  -3    0.25    0.11
   7  -3   3    0.29    0.10
  -8   3  -3   -0.02    0.19
  -8   3  -3    0.31    0.12
   8  -3   3    0.21    0.12
  -9   3  -3   -0.11    0.13
  -9   3  -3   -0.50    0.20
  10   2  -3    0.09    0.10
 -10  -2   3    0.01    0.13
 -10  -2   3    0.07    0.21
   9   2  -3   -0.12    0.08
  -9  -2   3    0.06    0.08
  -9  -2   3   -0.13    0.11
  -9  -2   3   -0.04    0.36
   8   2  -3   -0.04    0.07
  -8  -2   3   -0.02    0.09
  -8  -2   3   -0.11    0.30
  -8  -2   3    0.03    0.07
   7   2  -3    1.46    0.13
   7   2  -3    1.60    0.18
   7   2  -3    2.47    0.59
   7   2  -3    1.29    0.14
  -7  -2   3    1.46    0.11
  -7  -2   3    1.40    0.11
  -7  -2   3    1.21    0.13
  -7  -2   3    1.34    0.22
  -7  -2   3    1.28    0.15
  -7  -2   3    1.45    0.26
   6   2  -3    0.18    0.09
   6   2  -3    0.17    0.06
   6   2  -3    0.06    0.09
  -6  -2   3    0.29    0.06
  -6  -2   3    0.16    0.07
  -6  -2   3    0.07    0.14
  -6  -2   3    0.07    0.06
  -6  -2   3    0.10    0.07
  -6  -2   3    0.30    0.12
   5   2  -3    0.04    0.07
   5   2  -3    0.02    0.04
   5   2  -3   -0.09    0.07
  -5  -2   3   -0.05    0.11
  -5  -2   3   -0.05    0.17
  -5  -2   3   -0.01    0.04
  -5  -2   3    0.01    0.05
  -5  -2   3    0.02    0.05
   4   2  -3    9.07    0.29
   4   2  -3    9.72    0.28
   4   2  -3    9.34    0.34
   4   2  -3    9.32    0.30
  -4  -2   3    9.34    0.32
  -4  -2   3    9.74    0.68
  -4  -2   3    9.74    0.63
   3   2  -3    2.25    0.09
   3   2  -3    2.25    0.12
   3   2  -3    2.13    0.35
   3   2  -3    2.24    0.13
  -3  -2   3    2.24    0.11
  -3  -2   3    2.19    0.15
  -3  -2   3    2.30    0.20
   2   2  -3    2.92    0.26
  -2  -2   3    2.78    0.16
  -2  -2   3    2.83    0.11
  -2  -2   3    2.85    0.32
   1   2  -3  304.64   13.93
  -1  -2   3  292.84   14.06
  -1  -2   3  297.46   11.16
   0   2  -3    1.22    0.12
   0   2  -3    1.09    0.12
   0  -2   3    1.15    0.10
  -1   2  -3    2.50    0.20
  -1   2  -3    2.59    0.16
   1  -2   3    2.25    0.18
  -2   2  -3   19.30    1.00
  -2   2  -3   19.51    0.81
   2  -2   3   20.03    0.99
   2  -2   3   19.52    0.58
  -3   2  -3    2.05    0.10
  -3   2  -3    2.10    0.10
  -3   2  -3    1.98    0.17
  -3   2  -3    2.16    0.19
  -3   2  -3    1.96    0.09
  -3   2  -3    2.47    0.40
   3  -2   3    2.24    0.11
  -4   2  -3    0.00    0.06
  -4   2  -3   -0.05    0.11
  -4   2  -3    0.01    0.04
  -4   2  -3   -0.03    0.04
  -4   2  -3   -0.08    0.15
   4  -2   3    0.02    0.04
  -5   2  -3   -0.05    0.18
  -5   2  -3    0.12    0.07
  -5   2  -3    0.01    0.05
  -5   2  -3    0.03    0.14
   5  -2   3    0.02    0.06
  -6   2  -3   -0.06    0.22
  -6   2  -3    0.37    0.10
  -6   2  -3    0.28    0.08
  -6   2  -3    0.20    0.16
   6  -2   3    0.16    0.08
  -7   2  -3   -0.02    0.16
  -7   2  -3    0.35    0.12
   7  -2   3    0.43    0.11
  -8   2  -3   -0.26    0.16
  -8   2  -3   -0.11    0.11
   8  -2   3   -0.14    0.10
  -9   2  -3    0.07    0.13
  -9   2  -3   -0.33    0.18
  10   1  -3   -0.03    0.09
 -10  -1   3   -0.08    0.13
 -10  -1   3    0.03    0.09
 -10  -1   3   -0.08    0.18
   9   1  -3   -0.01    0.08
  -9  -1   3    0.08    0.09
  -9  -1   3    0.02    0.11
  -9  -1   3   -0.15    0.14
   8   1  -3    1.20    0.18
   8   1  -3    1.21    0.13
  -8  -1   3    1.37    0.22
  -8  -1   3    1.61    0.18
  -8  -1   3    1.41    0.12
   7   1  -3    0.68    0.14
   7   1  -3    0.55    0.11
   7   1  -3    0.43    0.08
  -7  -1   3    0.43    0.36
  -7  -1   3    0.46    0.09
  -7  -1   3    0.59    0.08
  -7  -1   3    0.44    0.10
  -7  -1   3    0.43    0.13
  -7  -1   3    0.38    0.07
   6   1  -3    0.03    0.05
   6   1  -3    0.15    0.09
   6   1  -3    0.03    0.08
   6   1  -3    0.30    0.34
  -6  -1   3    0.07    0.08
  -6  -1   3   -0.05    0.28
  -6  -1   3    0.05    0.05
  -6  -1   3    0.00    0.06
  -6  -1   3    0.07    0.06
  -6  -1   3    0.06    0.05
   5   1  -3    0.94    0.08
   5   1  -3    0.98    0.10
   5   1  -3    1.11    0.10
  -5  -1   3    0.83    0.09
  -5  -1   3    0.88    0.34
  -5  -1   3    1.05    0.07
  -5  -1   3    0.93    0.13
  -5  -1   3    0.93    0.10
   4   1  -3    0.78    0.06
   4   1  -3    0.80    0.06
   4   1  -3    0.88    0.10
   4   1  -3    0.77    0.07
  -4  -1   3    0.58    0.13
  -4  -1   3    0.73    0.08
  -4  -1   3    0.74    0.07
  -4  -1   3    0.66    0.11
   3   1  -3   16.18    0.46
   3   1  -3   17.16    0.45
   3   1  -3   16.02    0.84
   3   1  -3   15.78    0.51
  -3  -1   3   16.15    0.87
  -3  -1   3   16.45    0.49
  -3  -1   3   16.70    0.68
   2   1  -3   40.55    1.92
  -2  -1   3   39.42    1.92
  -2  -1   3   40.56    1.55
   1   1  -3    4.17    0.27
  -1  -1   3    4.25    0.24
  -1  -1   3    4.36    0.20
   0   1  -3   25.64    1.24
   0   1  -3   24.46    1.23
   0  -1   3   26.92    1.00
  -1   1  -3   -0.10    0.10
  -1   1  -3   -0.03    0.04
   1  -1   3    0.00    0.04
  -2   1  -3   45.94    1.75
  -2   1  -3   45.35    2.24
   2  -1   3   45.65    1.29
   2  -1   3   43.92    2.17
  -3   1  -3    8.20    0.58
  -3   1  -3    7.98    0.25
  -3   1  -3    7.50    0.28
  -3   1  -3    7.65    0.24
  -3   1  -3    7.73    0.39
  -3   1  -3    7.41    0.27
   3  -1   3    8.04    0.50
   3  -1   3    7.98    0.27
  -4   1  -3    0.23    0.12
  -4   1  -3    0.19    0.15
  -4   1  -3    0.37    0.07
  -4   1  -3    0.19    0.05
  -4   1  -3    0.25    0.10
   4  -1   3    0.33    0.06
  -5   1  -3    1.76    0.13
  -5   1  -3    1.65    0.12
  -5   1  -3    1.52    0.28
  -5   1  -3    1.64    0.23
   5  -1   3    1.66    0.13
  -6   1  -3    1.18    0.13
  -6   1  -3    1.13    0.12
  -6   1  -3    1.29    0.21
   6  -1   3    1.31    0.14
  -7   1  -3    0.30    0.18
  -7   1  -3    0.78    0.13
   7  -1   3    0.77    0.13
  -8   1  -3    0.07    0.12
  -8   1  -3   -0.17    0.16
   8  -1   3    0.02    0.12
  -9   1  -3    0.25    0.13
  11   0  -3    0.09    0.10
 -11   0   3    0.04    0.24
 -11   0   3    0.02    0.15
  10   0  -3    0.12    0.09
 -10   0   3    0.29    0.10
 -10   0   3    0.30    0.14
 -10   0   3    0.02    0.20
   9   0  -3    0.47    0.10
   9   0  -3    0.32    0.16
  -9   0   3    0.35    0.13
  -9   0   3    0.53    0.10
  -9   0   3    0.41    0.18
   8   0  -3   -0.03    0.12
   8   0  -3   -0.01    0.07
  -8   0   3   -0.03    0.08
  -8   0   3    0.01    0.08
  -8   0   3    0.10    0.13
   7   0  -3    3.03    0.16
   7   0  -3    3.51    0.23
   7   0  -3    3.64    0.53
   7   0  -3    3.02    0.20
  -7   0   3    3.40    0.19
  -7   0   3    2.91    0.15
  -7   0   3    3.17    0.45
  -7   0   3    3.22    0.15
  -7   0   3    3.16    0.19
  -7   0   3    3.27    0.27
   6   0  -3    0.08    0.08
   6   0  -3    0.16    0.05
   6   0  -3    0.12    0.08
  -6   0   3    0.17    0.15
  -6   0   3    0.06    0.06
  -6   0   3    0.11    0.10
  -6   0   3    0.09    0.06
  -6   0   3    0.16    0.05
  -6   0   3    0.16    0.06
   5   0  -3    2.06    0.34
   5   0  -3    2.12    0.13
   5   0  -3    1.96    0.10
   5   0  -3    1.93    0.14
  -5   0   3    1.88    0.12
  -5   0   3    1.87    0.09
  -5   0   3    2.04    0.09
  -5   0   3    2.07    0.18
  -5   0   3    1.79    0.26
  -5   0   3    1.90    0.12
   4   0  -3    6.19    0.25
   4   0  -3    6.69    0.22
   4   0  -3    6.35    0.38
   4   0  -3    6.60    0.20
  -4   0   3    6.58    0.23
  -4   0   3    6.60    0.41
  -4   0   3    6.45    0.33
   3   0  -3   17.04    0.47
   3   0  -3   16.39    0.86
   3   0  -3   16.12    0.52
   3   0  -3   17.25    0.46
  -3   0   3   17.28    1.02
  -3   0   3   16.38    0.69
  -3   0   3   16.74    0.50
  -2   0   3    0.56    0.08
  -2   0   3    0.58    0.07
  -1   0   3    9.06    0.37
   0   0  -3    0.01    0.03
   0   0   3    0.05    0.03
  -1   0  -3   15.10    0.62
   1   0   3   14.79    0.44
  -2   0  -3    0.26    0.04
  -2   0  -3    0.36    0.05
  -2   0  -3    0.27    0.18
   2   0   3    0.36    0.05
  -3   0  -3    0.08    0.05
  -3   0  -3   -0.08    0.07
  -3   0  -3    0.04    0.04
   3   0   3   -0.01    0.04
  -4   0  -3    0.12    0.05
  -4   0  -3    0.22    0.07
  -4   0  -3    0.09    0.14
  -4   0  -3    0.08    0.09
  -4   0  -3    0.22    0.06
   4   0   3    0.17    0.06
  -5   0  -3    7.07    0.26
  -5   0  -3    6.58    0.55
  -5   0  -3    6.90    0.38
  -5   0  -3    6.77    0.39
   5   0   3    6.60    0.28
  -6   0  -3    0.50    0.09
  -6   0  -3    0.73    0.12
  -6   0  -3    0.50    0.16
   6   0   3    0.60    0.12
   6   0   3    0.86    0.13
  -7   0  -3    0.39    0.17
  -7   0  -3    0.69    0.13
   7   0   3    0.40    0.12
  -8   0  -3   -0.01    0.11
  -9   0  -3   -0.05    0.12
  11  -1  -3    0.18    0.10
 -11   1   3   -0.34    0.22
 -11   1   3    0.00    0.15
 -11   1   3    0.15    0.10
  10  -1  -3    0.16    0.09
 -10   1   3    0.20    0.14
 -10   1   3    0.49    0.11
 -10   1   3    0.12    0.20
   9  -1  -3    0.07    0.07
   9  -1  -3   -0.04    0.14
  -9   1   3    0.16    0.09
  -9   1   3   -0.13    0.16
  -9   1   3    0.14    0.12
   8  -1  -3    1.13    0.17
   8  -1  -3    1.01    0.11
  -8   1   3    0.92    0.10
  -8   1   3    0.86    0.20
  -8   1   3    1.12    0.14
   7  -1  -3    1.49    0.11
   7  -1  -3    1.30    0.15
   7  -1  -3    1.14    0.13
  -7   1   3    1.30    0.11
  -7   1   3    1.16    0.11
  -7   1   3    1.28    0.20
  -7   1   3    1.39    0.14
  -7   1   3    1.22    0.26
  -7   1   3    1.60    0.15
   6  -1  -3    0.60    0.10
   6  -1  -3    0.75    0.11
   6  -1  -3    0.57    0.07
  -6   1   3    0.75    0.08
  -6   1   3    0.70    0.15
  -6   1   3    0.62    0.18
  -6   1   3    0.71    0.09
  -6   1   3    0.71    0.09
  -6   1   3    0.67    0.07
   5  -1  -3    2.80    0.34
   5  -1  -3    2.95    0.15
   5  -1  -3    2.81    0.16
   5  -1  -3    2.81    0.12
  -5   1   3    2.80    0.12
  -5   1   3    2.58    0.14
  -5   1   3    2.60    0.30
  -5   1   3    2.76    0.12
  -5   1   3    2.73    0.11
  -5   1   3    2.76    0.22
  -5   1   3    2.88    0.15
   4  -1  -3    3.14    0.15
   4  -1  -3    3.29    0.14
   4  -1  -3    3.20    0.16
   4  -1  -3    3.22    0.32
   4  -1  -3    3.29    0.12
  -4   1   3    3.33    0.15
  -4   1   3    3.39    0.28
  -4   1   3    3.25    0.21
  -4   1   3    3.05    0.14
   3  -1  -3    1.65    0.10
   3  -1  -3    1.71    0.08
   3  -1  -3    1.70    0.08
   3  -1  -3    1.61    0.21
   3  -1  -3    1.83    0.09
  -3   1   3    1.73    0.09
  -3   1   3    1.78    0.14
  -3   1   3    1.94    0.19
   2  -1  -3    0.18    0.04
  -2   1   3    0.26    0.05
  -2   1   3    0.17    0.04
  -1   1   3   17.92    0.52
   0   1   3    4.51    0.15
  -1  -1  -3   27.36    0.73
  -1  -1  -3   25.60    0.80
   1   1   3   27.00    0.78
  -2  -1  -3    4.21    0.21
  -2  -1  -3    4.37    0.15
  -2  -1  -3    4.28    0.17
  -2  -1  -3    4.43    0.16
   2   1   3    4.52    0.17
  -3  -1  -3   -0.09    0.05
  -3  -1  -3    0.05    0.06
  -3  -1  -3    0.00    0.04
   3   1   3    0.01    0.04
  -4  -1  -3    0.64    0.09
  -4  -1  -3    0.53    0.08
  -4  -1  -3    0.49    0.08
  -4  -1  -3    0.49    0.10
   4   1   3    0.68    0.09
  -5  -1  -3    0.11    0.10
  -5  -1  -3    0.15    0.09
  -5  -1  -3    0.12    0.10
   5   1   3    0.03    0.10
   5   1   3    0.20    0.09
  -6  -1  -3    0.52    0.11
   6   1   3    0.43    0.12
   6   1   3    0.51    0.11
  -7  -1  -3    0.11    0.11
   7   1   3    0.20    0.12
  -8  -1  -3   -0.12    0.11
  11  -2  -3    0.11    0.09
 -11   2   3   -0.48    0.22
 -11   2   3    0.10    0.10
 -11   2   3   -0.10    0.14
  10  -2  -3    0.26    0.09
  10  -2  -3    0.32    0.17
 -10   2   3    0.25    0.24
 -10   2   3    0.24    0.14
 -10   2   3    0.48    0.11
   9  -2  -3    0.05    0.14
   9  -2  -3    0.06    0.07
  -9   2   3    0.01    0.11
  -9   2   3   -0.05    0.18
  -9   2   3    0.01    0.09
   8  -2  -3    0.24    0.13
   8  -2  -3    0.19    0.08
  -8   2   3    0.08    0.16
  -8   2   3    0.12    0.10
  -8   2   3    0.12    0.08
   7  -2  -3    0.35    0.07
   7  -2  -3    0.19    0.10
   7  -2  -3    0.38    0.11
  -7   2   3    0.28    0.07
  -7   2   3    0.20    0.20
  -7   2   3    0.37    0.08
  -7   2   3    0.32    0.09
  -7   2   3    0.24    0.15
  -7   2   3    0.55    0.10
   6  -2  -3   -0.01    0.32
   6  -2  -3   -0.06    0.07
   6  -2  -3   -0.12    0.07
   6  -2  -3   -0.05    0.04
  -6   2   3   -0.07    0.06
  -6   2   3   -0.16    0.15
  -6   2   3   -0.05    0.05
  -6   2   3   -0.04    0.05
  -6   2   3    0.00    0.06
  -6   2   3    0.04    0.12
   5  -2  -3    0.97    0.08
   5  -2  -3    1.43    0.31
   5  -2  -3    0.98    0.10
   5  -2  -3    0.93    0.09
  -5   2   3    0.94    0.08
  -5   2   3    0.93    0.10
  -5   2   3    0.90    0.10
  -5   2   3    0.75    0.18
  -5   2   3    0.99    0.09
  -5   2   3    1.06    0.15
  -5   2   3    0.96    0.08
   4  -2  -3   27.17    0.70
   4  -2  -3   26.28    0.73
   4  -2  -3   26.44    0.74
   4  -2  -3   26.08    0.81
   4  -2  -3   25.33    1.32
  -4   2   3   25.90    0.79
  -4   2   3   25.93    0.75
  -4   2   3   25.91    0.72
  -4   2   3   26.62    1.07
  -4   2   3   25.42    0.80
  -4   2   3   25.96    0.69
  -4   2   3   26.96    1.32
   3  -2  -3    0.13    0.03
   3  -2  -3    0.14    0.03
   3  -2  -3    0.08    0.05
   3  -2  -3    0.14    0.04
   3  -2  -3    0.19    0.09
  -3   2   3    0.21    0.05
  -3   2   3    0.17    0.08
  -3   2   3    0.15    0.04
   2  -2  -3   19.20    0.54
   2  -2  -3   18.33    0.59
   2  -2  -3   19.93    0.54
   2  -2  -3   19.71    0.51
  -2   2   3   18.75    0.57
  -2   2   3   19.66    0.76
   1  -2  -3    0.13    0.05
   1  -2  -3    0.15    0.04
   1  -2  -3    0.07    0.06
  -1   2   3    0.19    0.04
   0  -2  -3    8.35    0.29
   0  -2  -3    8.40    0.24
   0  -2  -3    8.49    0.25
   0   2   3    8.43    0.28
  -1  -2  -3   18.94    0.53
  -1  -2  -3   19.13    0.51
  -1  -2  -3   17.89    0.59
   1   2   3   18.68    0.57
  -2  -2  -3    2.99    0.13
  -2  -2  -3    2.82    0.14
   2   2   3    3.02    0.14
  -3  -2  -3    0.86    0.10
  -3  -2  -3    1.09    0.10
  -3  -2  -3    1.12    0.17
   3   2   3    1.17    0.10
   3   2   3    1.07    0.11
  -4  -2  -3    0.46    0.08
  -4  -2  -3    0.55    0.10
  -4  -2  -3    0.49    0.09
   4   2   3    0.44    0.09
   4   2   3    0.50    0.11
  -5  -2  -3    3.80    0.20
  -5  -2  -3    3.34    0.20
   5   2   3    3.80    0.22
   5   2   3    3.83    0.25
  -6  -2  -3    0.21    0.10
   6   2   3   -0.02    0.12
   6   2   3    0.12    0.10
  -7  -2  -3    0.06    0.11
  -8  -2  -3    0.00    0.11
  11  -3  -3    0.09    0.09
  11  -3  -3    0.01    0.19
 -11   3   3   -0.47    0.24
 -11   3   3   -0.06    0.15
 -11   3   3    0.01    0.10
  10  -3  -3   -0.05    0.16
  10  -3  -3    0.00    0.08
 -10   3   3   -0.08    0.13
 -10   3   3    0.10    0.10
   9  -3  -3    0.19    0.08
   9  -3  -3    0.17    0.14
  -9   3   3    0.01    0.20
  -9   3   3    0.14    0.09
  -9   3   3   -0.08    0.11
   8  -3  -3    3.10    0.17
   8  -3  -3    4.00    0.27
  -8   3   3    3.05    0.17
  -8   3   3    3.71    0.36
  -8   3   3    3.47    0.23
   7  -3  -3    0.30    0.07
   7  -3  -3    0.37    0.10
   7  -3  -3    0.47    0.12
  -7   3   3    0.37    0.09
  -7   3   3    0.50    0.10
  -7   3   3    0.56    0.17
  -7   3   3    0.57    0.09
  -7   3   3    0.17    0.22
   6  -3  -3    0.14    0.08
   6  -3  -3    0.22    0.08
   6  -3  -3    0.20    0.06
   6  -3  -3    0.54    0.34
  -6   3   3    0.08    0.17
  -6   3   3    0.16    0.07
  -6   3   3    0.21    0.06
  -6   3   3    0.29    0.08
  -6   3   3    0.38    0.15
  -6   3   3    0.36    0.07
   5  -3  -3    0.08    0.04
   5  -3  -3    0.10    0.06
   5  -3  -3    0.00    0.07
   5  -3  -3   -0.08    0.27
  -5   3   3    0.02    0.05
  -5   3   3    0.06    0.05
  -5   3   3    0.14    0.06
  -5   3   3    0.01    0.15
  -5   3   3    0.05    0.12
  -5   3   3    0.16    0.05
  -5   3   3    0.13    0.06
   4  -3  -3    4.50    0.45
   4  -3  -3    5.32    0.20
   4  -3  -3    5.30    0.44
   4  -3  -3    5.09    0.18
  -4   3   3    5.10    0.21
  -4   3   3    5.50    0.31
  -4   3   3    5.21    0.23
  -4   3   3    5.29    0.18
  -4   3   3    5.21    0.24
  -4   3   3    5.37    0.41
  -4   3   3    5.21    0.18
   3  -3  -3    0.40    0.05
   3  -3  -3    0.36    0.05
   3  -3  -3    0.36    0.06
   3  -3  -3    0.34    0.07
  -3   3   3    0.35    0.05
  -3   3   3    0.32    0.05
  -3   3   3    0.35    0.06
  -3   3   3    0.28    0.05
  -3   3   3    0.37    0.10
   2  -3  -3    1.04    0.06
   2  -3  -3    0.89    0.12
   2  -3  -3    0.89    0.08
  -2   3   3    0.88    0.07
  -2   3   3    0.80    0.08
  -2   3   3    0.87    0.07
  -2   3   3    0.89    0.12
   1  -3  -3    5.39    0.21
   1  -3  -3    5.86    0.18
   1  -3  -3    5.87    0.25
  -1   3   3    5.83    0.21
   0  -3  -3    0.22    0.09
   0  -3  -3    0.19    0.05
   0  -3  -3    0.20    0.04
   0   3   3    0.09    0.05
   0   3   3    0.24    0.05
  -1  -3  -3   11.10    0.39
  -1  -3  -3   11.52    0.34
   1   3   3   11.14    0.39
   1   3   3   11.75    0.38
  -2  -3  -3    2.45    0.13
  -2  -3  -3    2.47    0.14
   2   3   3    2.29    0.16
   2   3   3    2.34    0.14
  -3  -3  -3    1.19    0.11
  -3  -3  -3    1.79    0.18
   3   3   3    1.34    0.13
   3   3   3    1.45    0.16
  -4  -3  -3    6.08    0.25
  -4  -3  -3    5.98    0.26
   4   3   3    6.22    0.27
   4   3   3    5.84    0.30
  -5  -3  -3    0.21    0.09
   5   3   3    0.15    0.13
   5   3   3    0.02    0.10
  -6  -3  -3    0.04    0.10
  -7  -3  -3   -0.10    0.10
   7   3   3   -0.13    0.14
  -8  -3  -3    0.06    0.11
  11  -4  -3   -0.06    0.09
  11  -4  -3   -0.43    0.36
 -11   4   3   -0.06    0.15
 -11   4   3   -0.49    0.25
 -11   4   3    0.19    0.11
  10  -4  -3   -0.19    0.17
  10  -4  -3    0.09    0.08
 -10   4   3   -0.22    0.25
 -10   4   3   -0.01    0.10
 -10   4   3   -0.05    0.13
   9  -4  -3    0.15    0.08
   9  -4  -3    0.42    0.15
  -9   4   3    0.44    0.10
  -9   4   3    0.10    0.23
  -9   4   3    0.37    0.13
   8  -4  -3    0.98    0.10
   8  -4  -3    1.10    0.17
  -8   4   3    1.17    0.25
  -8   4   3    0.92    0.11
  -8   4   3    0.98    0.14
   7  -4  -3    0.32    0.07
   7  -4  -3    0.55    0.15
  -7   4   3    0.05    0.22
  -7   4   3    0.41    0.17
  -7   4   3    0.48    0.10
  -7   4   3    0.48    0.09
  -7   4   3    0.54    0.11
   6  -4  -3    0.15    0.20
   6  -4  -3    0.16    0.09
   6  -4  -3    0.24    0.06
  -6   4   3    0.04    0.08
  -6   4   3    0.24    0.06
  -6   4   3    0.24    0.08
  -6   4   3   -0.17    0.19
  -6   4   3    0.34    0.17
  -6   4   3    0.17    0.08
   5  -4  -3   -0.01    0.04
   5  -4  -3    0.02    0.08
   5  -4  -3   -0.09    0.07
  -5   4   3   -0.19    0.17
  -5   4   3    0.06    0.06
  -5   4   3   -0.02    0.07
  -5   4   3   -0.05    0.13
  -5   4   3    0.06    0.09
  -5   4   3   -0.04    0.10
   4  -4  -3    1.00    0.11
   4  -4  -3    0.86    0.08
   4  -4  -3    1.05    0.11
  -4   4   3    0.90    0.09
  -4   4   3    0.90    0.08
  -4   4   3    0.98    0.08
  -4   4   3    0.97    0.10
  -4   4   3    0.84    0.08
  -4   4   3    1.05    0.17
   3  -4  -3    2.38    0.11
   3  -4  -3    2.46    0.14
  -3   4   3    2.56    0.21
  -3   4   3    2.23    0.11
  -3   4   3    2.43    0.12
  -3   4   3    2.28    0.13
  -3   4   3    2.25    0.11
  -3   4   3    2.39    0.13
   2  -4  -3    2.46    0.11
   2  -4  -3    2.20    0.13
  -2   4   3    2.41    0.29
  -2   4   3    2.35    0.11
  -2   4   3    2.41    0.11
  -2   4   3    2.27    0.13
  -2   4   3    2.50    0.13
  -2   4   3    2.48    0.19
   1  -4  -3    0.54    0.06
   1  -4  -3    0.42    0.07
  -1   4   3    0.56    0.07
  -1   4   3    0.52    0.06
  -1   4   3    0.40    0.05
  -1   4   3    0.40    0.06
  -1   4   3    0.50    0.05
   0  -4  -3    0.06    0.05
   0  -4  -3    0.02    0.05
   0   4   3    0.05    0.05
   0   4   3    0.07    0.05
   0   4   3    0.03    0.06
   0   4   3    0.08    0.04
   0   4   3    0.07    0.04
  -1  -4  -3    0.22    0.07
  -1  -4  -3    0.24    0.06
   1   4   3    0.23    0.07
   1   4   3    0.20    0.05
   1   4   3    0.20    0.06
  -2  -4  -3    4.39    0.19
  -2  -4  -3    4.19    0.21
   2   4   3    4.21    0.22
   2   4   3    4.25    0.20
  -3  -4  -3    4.22    0.20
   3   4   3    4.50    0.23
   3   4   3    4.47    0.26
  -4  -4  -3    0.90    0.12
   4   4   3    0.79    0.15
   4   4   3    0.98    0.14
  -5  -4  -3    0.22    0.10
   5   4   3    0.01    0.13
  -6  -4  -3    0.17    0.10
   6   4   3    0.02    0.16
  -7  -4  -3    0.04    0.11
  11  -5  -3   -0.04    0.09
 -11   5   3   -0.14    0.10
  10  -5  -3   -0.10    0.08
  10  -5  -3   -0.01    0.17
 -10   5   3   -0.26    0.25
 -10   5   3    0.17    0.15
 -10   5   3    0.13    0.11
   9  -5  -3   -0.17    0.13
   9  -5  -3    0.05    0.08
  -9   5   3    0.06    0.10
  -9   5   3   -0.28    0.21
  -9   5   3    0.05    0.12
   8  -5  -3    0.37    0.14
   8  -5  -3    0.30    0.08
  -8   5   3    0.43    0.12
  -8   5   3    0.33    0.10
  -8   5   3    0.21    0.22
   7  -5  -3    2.67    0.23
   7  -5  -3    2.01    0.13
  -7   5   3    2.28    0.16
  -7   5   3    2.58    0.21
  -7   5   3    2.43    0.33
   6  -5  -3    0.89    0.13
   6  -5  -3    0.73    0.09
  -6   5   3    0.83    0.21
  -6   5   3    0.97    0.11
  -6   5   3    0.66    0.20
  -6   5   3    0.54    0.24
  -6   5   3    0.95    0.13
  -6   5   3    0.71    0.12
   5  -5  -3    0.19    0.09
   5  -5  -3    0.28    0.07
  -5   5   3    0.20    0.16
  -5   5   3    0.06    0.19
  -5   5   3    0.20    0.07
  -5   5   3    0.23    0.09
  -5   5   3    0.17    0.08
  -5   5   3    0.22    0.08
   4  -5  -3    3.85    0.16
   4  -5  -3    3.76    0.20
  -4   5   3    3.56    0.16
  -4   5   3    3.68    0.29
  -4   5   3    3.70    0.20
  -4   5   3    3.89    0.19
  -4   5   3    3.68    0.19
   3  -5  -3    0.52    0.07
   3  -5  -3    0.60    0.09
  -3   5   3    0.52    0.08
  -3   5   3    0.42    0.25
  -3   5   3    0.79    0.09
  -3   5   3    0.62    0.09
  -3   5   3    0.53    0.09
  -3   5   3    0.52    0.07
  -3   5   3    0.44    0.07
   2  -5  -3    0.70    0.09
   2  -5  -3    0.69    0.08
  -2   5   3    0.87    0.13
  -2   5   3    0.60    0.07
  -2   5   3    0.77    0.09
  -2   5   3    0.79    0.08
  -2   5   3    0.67    0.15
  -2   5   3    0.75    0.09
   1  -5  -3   -0.05    0.06
   1  -5  -3    0.06    0.05
  -1   5   3    0.02    0.06
  -1   5   3    0.08    0.06
  -1   5   3   -0.06    0.05
  -1   5   3    0.07    0.06
   0  -5  -3    6.98    0.28
   0  -5  -3    7.16    0.24
   0   5   3    7.28    0.24
   0   5   3    6.83    0.27
   0   5   3    6.78    0.23
   0   5   3    6.79    0.29
  -1  -5  -3   -0.05    0.08
  -1  -5  -3   -0.10    0.06
  -1  -5  -3   -0.01    0.06
   1   5   3   -0.05    0.07
   1   5   3    0.00    0.06
   1   5   3    0.00    0.07
   1   5   3   -0.08    0.06
  -2  -5  -3    0.28    0.09
  -2  -5  -3    0.28    0.08
   2   5   3    0.29    0.07
   2   5   3    0.26    0.09
   2   5   3    0.20    0.11
  -3  -5  -3    0.03    0.08
   3   5   3    0.01    0.08
   3   5   3   -0.20    0.11
  -4  -5  -3    0.81    0.11
   4   5   3    0.91    0.17
  -5  -5  -3    0.01    0.09
   5   5   3   -0.09    0.14
  -6  -5  -3    0.01    0.10
  10  -6  -3    0.04    0.16
  10  -6  -3    0.11    0.09
 -10   6   3    0.09    0.11
 -10   6   3    0.04    0.15
 -10   6   3   -0.60    0.27
   9  -6  -3    0.04    0.08
   9  -6  -3    0.09    0.14
  -9   6   3    0.17    0.10
  -9   6   3   -0.08    0.13
  -9   6   3   -0.42    0.24
   8  -6  -3    0.00    0.07
   8  -6  -3   -0.01    0.11
  -8   6   3    0.04    0.11
  -8   6   3   -0.36    0.20
  -8   6   3   -0.05    0.09
   7  -6  -3    0.64    0.14
   7  -6  -3    0.45    0.08
  -7   6   3    0.77    0.24
  -7   6   3    0.59    0.13
  -7   6   3    0.41    0.11
   6  -6  -3    0.63    0.09
   6  -6  -3    0.63    0.13
  -6   6   3    0.75    0.22
  -6   6   3    0.14    0.24
  -6   6   3    0.79    0.12
  -6   6   3    0.74    0.11
   5  -6  -3    3.04    0.21
   5  -6  -3    2.58    0.15
  -5   6   3    2.95    0.19
  -5   6   3    2.69    0.16
  -5   6   3    2.79    0.16
  -5   6   3    3.08    0.20
  -5   6   3    2.70    0.32
   4  -6  -3    2.02    0.18
   4  -6  -3    1.47    0.12
  -4   6   3    1.69    0.16
  -4   6   3    1.61    0.13
  -4   6   3    1.37    0.12
  -4   6   3    0.94    0.37
  -4   6   3    1.41    0.15
   3  -6  -3    5.55    0.26
   3  -6  -3    4.99    0.20
  -3   6   3    5.29    0.36
  -3   6   3    4.67    0.24
  -3   6   3    4.68    0.20
  -3   6   3    4.71    0.31
  -3   6   3    5.16    0.24
   2  -6  -3    3.95    0.17
   2  -6  -3    3.73    0.22
  -2   6   3    3.63    0.20
  -2   6   3    3.75    0.20
  -2   6   3    3.56    0.18
  -2   6   3    3.71    0.16
   1  -6  -3    4.07    0.22
   1  -6  -3    3.51    0.17
  -1   6   3    3.32    0.19
  -1   6   3    3.55    0.20
  -1   6   3    3.28    0.16
  -1   6   3    3.66    0.17
   0  -6  -3    2.97    0.20
   0  -6  -3    2.75    0.15
   0   6   3    2.57    0.15
   0   6   3    2.72    0.17
   0   6   3    2.61    0.20
   0   6   3    2.54    0.14
  -1  -6  -3    0.43    0.12
  -1  -6  -3    0.43    0.09
  -1  -6  -3    0.66    0.12
   1   6   3    0.60    0.11
   1   6   3    0.58    0.09
   1   6   3    0.63    0.10
   1   6   3    0.46    0.11
  -2  -6  -3    0.09    0.07
   2   6   3   -0.01    0.11
   2   6   3    0.21    0.07
   2   6   3    0.18    0.09
  -3  -6  -3    0.02    0.08
   3   6   3    0.01    0.13
  -4  -6  -3   -0.06    0.08
   4   6   3    0.13    0.15
  -5  -6  -3   -0.06    0.09
   5   6   3   -0.20    0.16
  -6  -6  -3   -0.02    0.10
  10  -7  -3    0.06    0.17
  10  -7  -3    0.06    0.09
 -10   7   3    0.18    0.12
 -10   7   3   -0.02    0.28
   9  -7  -3    0.07    0.16
   9  -7  -3   -0.13    0.08
  -9   7   3   -0.34    0.26
  -9   7   3   -0.14    0.10
  -9   7   3    0.15    0.16
   8  -7  -3   -0.15    0.12
   8  -7  -3   -0.01    0.07
  -8   7   3   -0.05    0.10
  -8   7   3    0.02    0.12
  -8   7   3   -0.22    0.23
   7  -7  -3    0.22    0.08
   7  -7  -3    0.40    0.13
  -7   7   3    0.31    0.12
  -7   7   3   -0.10    0.21
  -7   7   3    0.13    0.10
   6  -7  -3    0.17    0.11
   6  -7  -3    0.26    0.07
  -6   7   3    0.25    0.10
  -6   7   3    0.11    0.19
  -6   7   3    0.38    0.12
   5  -7  -3    0.91    0.10
   5  -7  -3    1.19    0.15
  -5   7   3    0.82    0.22
  -5   7   3    1.14    0.13
  -5   7   3    1.17    0.14
   4  -7  -3    0.47    0.12
   4  -7  -3    0.59    0.08
  -4   7   3    0.51    0.11
  -4   7   3    0.46    0.09
  -4   7   3    0.53    0.11
  -4   7   3    0.51    0.35
   3  -7  -3    0.12    0.10
   3  -7  -3    0.10    0.07
  -3   7   3    0.06    0.09
  -3   7   3    0.10    0.08
  -3   7   3    0.10    0.08
   2  -7  -3    0.98    0.10
   2  -7  -3    1.03    0.14
  -2   7   3    0.79    0.10
  -2   7   3    0.83    0.12
  -2   7   3    1.02    0.13
   1  -7  -3    0.63    0.13
   1  -7  -3    0.85    0.11
  -1   7   3    0.60    0.10
  -1   7   3    0.77    0.12
  -1   7   3    0.79    0.13
   0  -7  -3    0.16    0.08
   0  -7  -3    0.25    0.11
   0   7   3    0.10    0.10
   0   7   3    0.32    0.11
   0   7   3    0.26    0.08
  -1  -7  -3    0.60    0.10
   1   7   3    0.70    0.09
   1   7   3    0.87    0.14
  -2  -7  -3    0.07    0.08
   2   7   3    0.01    0.08
   2   7   3   -0.04    0.12
  -3  -7  -3    0.11    0.09
   3   7   3    0.01    0.15
  -4  -7  -3   -0.06    0.09
   4   7   3   -0.05    0.17
  -5  -7  -3   -0.04    0.09
   5   7   3   -0.07    0.18
   9  -8  -3    0.02    0.09
   9  -8  -3    0.05    0.17
  -9   8   3   -0.14    0.15
  -9   8   3    0.15    0.12
  -9   8   3   -0.47    0.28
   8  -8  -3    0.05    0.08
   8  -8  -3   -0.03    0.15
  -8   8   3   -0.03    0.11
  -8   8   3   -0.26    0.13
  -8   8   3   -0.51    0.24
   7  -8  -3    0.04    0.07
   7  -8  -3    0.15    0.14
  -7   8   3   -0.13    0.23
  -7   8   3    0.09    0.11
  -7   8   3    0.03    0.13
   6  -8  -3    0.11    0.07
   6  -8  -3    0.09    0.13
  -6   8   3    0.13    0.10
  -6   8   3    0.08    0.21
  -6   8   3    0.14    0.12
   5  -8  -3    0.08    0.06
   5  -8  -3    0.08    0.11
  -5   8   3   -0.08    0.10
  -5   8   3    0.11    0.11
   4  -8  -3    0.13    0.07
   4  -8  -3   -0.03    0.10
  -4   8   3   -0.11    0.09
  -4   8   3   -0.01    0.08
  -4   8   3   -0.01    0.10
   3  -8  -3    0.69    0.09
   3  -8  -3    0.60    0.13
  -3   8   3    0.94    0.13
  -3   8   3    0.63    0.10
   2  -8  -3    0.10    0.07
   2  -8  -3    0.03    0.10
  -2   8   3    0.10    0.08
  -2   8   3   -0.06    0.09
   1  -8  -3   -0.01    0.09
   1  -8  -3    0.19    0.08
  -1   8   3    0.05    0.08
  -1   8   3   -0.10    0.19
   0  -8  -3    0.24    0.09
   0   8   3    0.31    0.14
   0   8   3    0.20    0.09
  -1  -8  -3    0.03    0.08
   1   8   3    0.15    0.09
   1   8   3    0.16    0.13
  -2  -8  -3   -0.10    0.08
   2   8   3    0.09    0.15
  -3  -8  -3   -0.01    0.08
   3   8   3    0.14    0.17
  -4  -8  -3    0.25    0.10
   4   8   3    0.05    0.19
   8  -9  -3    0.09    0.09
   8  -9  -3   -0.13    0.16
  -8   9   3    0.07    0.12
  -8   9   3   -0.09    0.16
  -8   9   3   -0.29    0.27
   7  -9  -3    0.23    0.16
   7  -9  -3    0.20    0.09
  -7   9   3    0.36    0.16
  -7   9   3    0.08    0.12
   6  -9  -3    0.14    0.15
   6  -9  -3    0.05    0.07
  -6   9   3    0.05    0.11
  -6   9   3    0.07    0.14
   5  -9  -3    0.03    0.12
   5  -9  -3    0.14    0.08
  -5   9   3    0.02    0.11
  -5   9   3    0.11    0.13
   4  -9  -3   -0.01    0.07
   4  -9  -3    0.00    0.12
  -4   9   3    0.02    0.11
  -4   9   3   -0.05    0.09
  -4   9   3    0.00    0.11
   3  -9  -3    0.05    0.11
   3  -9  -3   -0.04    0.07
  -3   9   3    0.07    0.09
  -3   9   3   -0.03    0.11
   2  -9  -3    0.32    0.12
   2  -9  -3    0.10    0.08
  -2   9   3    0.29    0.13
  -2   9   3    0.30    0.10
   1  -9  -3    0.04    0.08
  -1   9   3   -0.14    0.13
  -1   9   3    0.05    0.09
   0  -9  -3    0.00    0.08
   0   9   3    0.11    0.15
   0   9   3    0.14    0.10
  -1  -9  -3    0.04    0.09
   1   9   3   -0.01    0.15
  -2  -9  -3    0.05    0.09
   2   9   3    0.50    0.19
   7 -10  -3    0.06    0.09
   7 -10  -3   -0.02    0.17
  -7  10   3   -0.12    0.12
  -7  10   3    0.22    0.18
   6 -10  -3    0.35    0.10
   6 -10  -3    0.32    0.15
  -6  10   3    0.18    0.16
  -6  10   3    0.26    0.13
   5 -10  -3    0.09    0.14
   5 -10  -3    0.04    0.08
  -5  10   3   -0.06    0.12
  -5  10   3    0.03    0.15
   4 -10  -3    0.39    0.10
   4 -10  -3    0.15    0.13
  -4  10   3    0.18    0.15
  -4  10   3    0.17    0.12
  -4  10   3    0.20    0.11
   3 -10  -3    0.04    0.13
   3 -10  -3    0.01    0.08
  -3  10   3   -0.05    0.11
  -3  10   3    0.10    0.14
   2 -10  -3    0.29    0.10
  -2  10   3    0.11    0.11
  -2  10   3    0.46    0.17
   1 -10  -3    0.08    0.09
  -1  10   3   -0.15    0.10
  -1  10   3    0.07    0.17
   0 -10  -3    0.05    0.09
   0  10   3    0.09    0.11
   0  10   3    0.16    0.17
  -1 -10  -3    0.15    0.09
   1  10   3    0.45    0.19
   5 -11  -3    0.24    0.15
   5 -11  -3    0.15    0.09
  -5  11   3   -0.01    0.15
  -5  11   3    0.11    0.13
   4 -11  -3    0.00    0.13
   4 -11  -3    0.08    0.09
  -4  11   3    0.19    0.15
  -4  11   3    0.11    0.12
   3 -11  -3   -0.05    0.09
  -3  11   3   -0.02    0.15
  -3  11   3    0.25    0.12
  -3  11   3   -0.17    0.11
   2 -11  -3    0.12    0.09
  -2  11   3    0.33    0.20
  -2  11   3   -0.17    0.11
   2  12  -4   -0.18    0.12
   1  12  -4   -0.01    0.13
   0  12  -4    0.10    0.13
   0 -12   4    0.00    0.10
  -1  12  -4   -0.19    0.12
  -1  12  -4    0.39    0.16
   1 -12   4    0.05    0.14
  -2  12  -4    0.71    1.20
  -2  12  -4    0.07    0.14
  -2  12  -4    0.37    0.18
   2 -12   4    0.24    0.15
  -3  12  -4    0.07    0.13
  -3  12  -4    0.96    0.66
  -3  12  -4    0.48    0.21
   3 -12   4    0.03    0.14
  -4  12  -4    0.56    0.26
  -4  12  -4    0.13    0.13
   4 -12   4    0.32    0.16
  -5  12  -4    0.02    0.15
  -5  12  -4    0.78    0.32
   5 -12   4   -0.05    0.16
   4  11  -4    0.09    0.13
   3  11  -4    0.06    0.13
   2  11  -4    0.18    0.13
  -2 -11   4    0.30    0.12
   1  11  -4    1.98    0.28
   1  11  -4    1.15    0.16
  -1 -11   4    1.03    0.17
   0  11  -4   -0.15    0.11
   0  11  -4    0.68    0.19
   0 -11   4    0.03    0.11
  -1  11  -4    0.64    0.19
  -1  11  -4    0.35    0.13
   1 -11   4    0.52    0.16
  -2  11  -4   -0.01    0.11
  -2  11  -4    0.15    0.14
   2 -11   4   -0.17    0.12
  -3  11  -4    0.47    0.20
  -3  11  -4    0.32    0.58
  -3  11  -4   -0.14    0.11
   3 -11   4    0.18    0.13
  -4  11  -4    0.06    0.12
  -4  11  -4    0.53    0.24
   4 -11   4    0.09    0.14
  -5  11  -4    0.50    0.39
  -5  11  -4    0.81    0.63
  -5  11  -4    0.03    0.14
   5 -11   4    0.09    0.15
  -6  11  -4    0.58    0.34
  -6  11  -4   -0.41    0.12
   6 -11   4    0.09    0.15
   5  10  -4    0.01    0.12
   4  10  -4   -0.08    0.12
   3  10  -4    0.14    0.11
  -3 -10   4   -0.01    0.10
  -3 -10   4   -0.06    0.13
   2  10  -4    1.07    0.22
   2  10  -4    1.15    0.15
  -2 -10   4    1.32    0.24
  -2 -10   4    0.72    0.14
   1  10  -4    0.71    0.14
   1  10  -4    0.82    0.20
  -1 -10   4    0.71    0.13
   0  10  -4    1.11    0.22
   0  10  -4    0.95    0.14
   0 -10   4    1.13    0.16
  -1  10  -4    0.14    0.11
  -1  10  -4    0.19    0.15
   1 -10   4    0.02    0.11
  -2  10  -4    0.22    0.14
  -2  10  -4   -0.06    0.09
   2 -10   4    0.10    0.11
  -3  10  -4    0.18    0.11
  -3  10  -4    0.48    0.50
  -3  10  -4    0.36    0.17
   3 -10   4   -0.09    0.11
  -4  10  -4    0.54    0.13
  -4  10  -4    1.16    0.27
  -4  10  -4    1.51    0.58
   4 -10   4    0.68    0.15
  -5  10  -4   -0.04    0.12
  -5  10  -4    0.55    0.53
   5 -10   4    0.10    0.13
  -6  10  -4    0.47    0.31
  -6  10  -4    0.27    0.14
   6 -10   4    0.08    0.14
  -7  10  -4   -0.10    0.36
  -7  10  -4   -0.07    0.14
   7 -10   4    0.02    0.15
   6   9  -4   -0.45    0.70
   6   9  -4   -0.04    0.11
   5   9  -4    0.08    0.55
   5   9  -4    0.02    0.11
   4   9  -4    0.03    0.10
   4   9  -4    0.20    0.62
  -4  -9   4    0.09    0.10
  -4  -9   4    0.03    0.13
   3   9  -4    0.02    0.09
  -3  -9   4   -0.06    0.08
  -3  -9   4   -0.14    0.11
   2   9  -4    0.19    0.10
   2   9  -4    0.35    0.10
  -2  -9   4    0.31    0.10
  -2  -9   4    0.21    0.13
   1   9  -4    0.12    0.13
   1   9  -4   -0.05    0.08
   1   9  -4    0.04    0.13
   0   9  -4    0.29    0.14
   0   9  -4    0.30    0.09
   0   9  -4    0.62    0.15
   0  -9   4    0.28    0.11
  -1   9  -4    1.24    0.25
  -1   9  -4    0.50    0.10
  -1   9  -4    0.67    0.18
   1  -9   4    0.59    0.11
  -2   9  -4    1.02    0.12
  -2   9  -4    1.13    0.21
   2  -9   4    1.01    0.14
  -3   9  -4    0.46    0.18
  -3   9  -4    0.41    0.11
   3  -9   4    0.45    0.11
  -4   9  -4    0.75    0.21
  -4   9  -4    0.39    0.12
   4  -9   4    0.48    0.12
  -5   9  -4    0.05    0.12
  -5   9  -4    0.19    0.46
   5  -9   4   -0.05    0.10
  -6   9  -4    0.26    0.29
  -6   9  -4    0.96    0.57
  -6   9  -4    0.01    0.13
   6  -9   4    0.20    0.13
  -7   9  -4    0.04    0.14
  -7   9  -4    0.10    0.35
  -7   9  -4    0.14    0.15
   7  -9   4    0.26    0.15
  -8   9  -4    0.29    0.17
  -8   9  -4   -0.12    0.75
   8  -9   4    0.54    0.18
   7   8  -4   -0.12    0.10
   6   8  -4    0.13    0.11
   6   8  -4   -0.08    0.61
  -6  -8   4    0.33    0.16
   5   8  -4   -0.05    0.10
  -5  -8   4    0.13    0.10
  -5  -8   4   -0.08    0.10
   4   8  -4   -0.07    0.09
  -4  -8   4    0.12    0.16
  -4  -8   4    0.10    0.09
  -4  -8   4    0.02    0.12
   3   8  -4    1.42    0.14
   3   8  -4    1.22    0.13
  -3  -8   4    1.86    0.29
  -3  -8   4    1.54    0.21
  -3  -8   4    1.10    0.14
   2   8  -4    2.93    0.17
   2   8  -4    3.03    0.31
   2   8  -4    2.53    0.16
  -2  -8   4    2.18    0.18
  -2  -8   4    2.49    0.24
   1   8  -4   -0.05    0.07
   1   8  -4    0.16    0.07
   1   8  -4    0.06    0.10
   1   8  -4    0.09    0.11
  -1  -8   4    0.12    0.11
  -1  -8   4    0.10    0.08
   0   8  -4    0.11    0.08
   0   8  -4    0.16    0.07
   0   8  -4    0.35    0.12
   0   8  -4    0.18    0.11
   0  -8   4    0.14    0.08
  -1   8  -4    0.14    0.13
  -1   8  -4    0.23    0.16
  -1   8  -4    0.24    0.08
  -1   8  -4    0.20    0.07
   1  -8   4    0.23    0.09
  -2   8  -4    2.85    0.29
   2  -8   4    3.06    0.18
  -3   8  -4    0.49    0.37
  -3   8  -4   -0.08    0.12
   3  -8   4   -0.14    0.08
  -4   8  -4    1.76    0.27
   4  -8   4    1.87    0.17
  -5   8  -4    0.28    0.30
   5  -8   4    0.16    0.10
  -6   8  -4    0.12    0.12
  -6   8  -4    0.75    0.49
  -6   8  -4   -0.03    0.25
   6  -8   4    0.14    0.12
  -7   8  -4    0.10    0.31
  -7   8  -4   -0.07    0.13
  -7   8  -4   -0.02    0.14
   7  -8   4    0.14    0.13
  -8   8  -4    0.85    0.19
  -8   8  -4    0.18    0.97
   8  -8   4    0.66    0.17
   8   7  -4    0.13    0.11
   7   7  -4    0.13    0.10
  -7  -7   4    0.23    0.30
   6   7  -4    0.14    0.09
   6   7  -4   -0.09    0.51
  -6  -7   4   -0.04    0.11
  -6  -7   4    0.05    0.09
   5   7  -4    0.52    0.10
  -5  -7   4    0.49    0.15
  -5  -7   4    0.50    0.11
   4   7  -4    0.78    0.11
   4   7  -4    0.73    0.10
  -4  -7   4    0.78    0.16
  -4  -7   4    0.77    0.12
  -4  -7   4    0.67    0.18
   3   7  -4    0.59    0.12
   3   7  -4    0.60    0.09
  -3  -7   4    0.66    0.16
  -3  -7   4    0.77    0.15
  -3  -7   4    0.61    0.11
   2   7  -4   -0.02    0.05
   2   7  -4    0.12    0.09
   2   7  -4    0.04    0.06
  -2  -7   4   -0.01    0.06
  -2  -7   4    0.07    0.08
  -2  -7   4    0.07    0.10
   1   7  -4    1.16    0.19
   1   7  -4    1.00    0.12
   1   7  -4    1.24    0.11
  -1  -7   4    1.26    0.12
  -1  -7   4    1.18    0.16
   0   7  -4    3.02    0.24
   0   7  -4    3.07    0.29
   0   7  -4    2.63    0.14
   0  -7   4    2.95    0.16
  -1   7  -4    1.04    0.19
  -1   7  -4    0.94    0.10
  -1   7  -4    0.92    0.16
  -1   7  -4    1.01    0.09
   1  -7   4    0.87    0.10
  -2   7  -4    6.27    0.41
  -2   7  -4    7.15    0.52
  -2   7  -4    6.19    0.23
   2  -7   4    6.17    0.26
  -3   7  -4    1.42    0.37
  -3   7  -4    0.62    0.17
  -3   7  -4    0.64    0.09
   3  -7   4    0.64    0.11
  -4   7  -4    4.84    0.40
   4  -7   4    5.68    0.26
  -5   7  -4    0.08    0.18
   5  -7   4    0.00    0.09
  -6   7  -4    0.09    0.23
  -6   7  -4   -0.02    0.10
   6  -7   4    0.11    0.10
  -7   7  -4    0.08    0.14
  -7   7  -4   -0.08    0.29
   7  -7   4    0.00    0.11
  -8   7  -4    0.07    0.15
  -8   7  -4   -0.16    0.35
  -8   7  -4    1.58    0.58
   8  -7   4    0.04    0.13
  -9   7  -4   -0.52    0.38
  -9   7  -4   -0.05    0.14
   8   6  -4    0.04    0.10
   8   6  -4   -0.60    0.79
  -8  -6   4   -0.02    0.14
   7   6  -4    0.40    0.11
   7   6  -4    0.36    0.69
  -7  -6   4    0.19    0.14
   6   6  -4    0.11    0.08
  -6  -6   4    0.05    0.09
  -6  -6   4    0.15    0.12
   5   6  -4    0.11    0.09
   5   6  -4    0.20    0.08
  -5  -6   4    0.06    0.08
  -5  -6   4    0.12    0.28
  -5  -6   4    0.10    0.14
   4   6  -4    0.28    0.08
   4   6  -4    0.23    0.07
  -4  -6   4    0.22    0.12
  -4  -6   4    0.13    0.07
  -4  -6   4    0.31    0.11
   3   6  -4    0.69    0.13
   3   6  -4    0.86    0.09
  -3  -6   4    0.79    0.10
  -3  -6   4    0.78    0.13
  -3  -6   4    0.76    0.16
   2   6  -4    2.75    0.13
   2   6  -4    2.65    0.13
  -2  -6   4    2.90    0.28
  -2  -6   4    2.95    0.22
  -2  -6   4    2.86    0.16
   1   6  -4    3.03    0.13
   1   6  -4    3.36    0.13
   1   6  -4    3.24    0.28
  -1  -6   4    2.90    0.23
  -1  -6   4    3.31    0.16
   0   6  -4    5.45    0.32
   0   6  -4    5.35    0.19
   0   6  -4    6.05    0.39
   0   6  -4    5.30    0.19
  -1   6  -4   -0.06    0.06
  -1   6  -4   -0.03    0.04
  -1   6  -4    0.18    0.10
   1  -6   4   -0.05    0.05
  -2   6  -4   17.31    0.92
  -2   6  -4   15.59    0.48
  -2   6  -4   15.96    0.75
   2  -6   4   16.25    0.52
  -3   6  -4    0.01    0.07
  -3   6  -4    0.26    0.15
  -3   6  -4    0.03    0.11
   3  -6   4   -0.08    0.06
  -4   6  -4    1.09    0.22
  -4   6  -4    1.04    0.40
  -4   6  -4    1.34    0.25
   4  -6   4    1.33    0.13
  -5   6  -4    0.30    0.26
  -5   6  -4    0.02    0.17
   5  -6   4    0.05    0.09
  -6   6  -4    0.44    0.12
  -6   6  -4    0.51    0.25
  -6   6  -4    0.78    0.14
   6  -6   4    0.54    0.12
  -7   6  -4    0.08    0.12
  -7   6  -4   -0.01    0.47
   7  -6   4   -0.13    0.11
  -8   6  -4   -0.62    0.30
  -8   6  -4   -0.04    0.14
   8  -6   4    0.12    0.14
  -9   6  -4    0.12    0.15
  -9   6  -4   -0.51    0.35
   9  -6   4    0.17    0.17
   9   5  -4   -0.13    0.09
  -9  -5   4   -0.07    0.12
  -9  -5   4   -0.09    0.15
   8   5  -4   -0.08    0.08
   8   5  -4   -0.63    0.72
  -8  -5   4   -0.08    0.11
   7   5  -4    0.06    0.08
   7   5  -4    0.12    0.61
  -7  -5   4   -0.04    0.08
  -7  -5   4    0.07    0.11
   6   5  -4   -0.06    0.10
   6   5  -4    0.01    0.07
   6   5  -4   -0.08    0.39
  -6  -5   4    0.00    0.28
  -6  -5   4    0.03    0.10
  -6  -5   4   -0.02    0.07
   5   5  -4    0.20    0.09
   5   5  -4    0.34    0.08
  -5  -5   4    0.27    0.08
  -5  -5   4    0.30    0.13
  -5  -5   4    0.41    0.12
   4   5  -4    0.02    0.07
   4   5  -4   -0.01    0.05
  -4  -5   4   -0.03    0.06
  -4  -5   4    0.00    0.09
  -4  -5   4   -0.01    0.05
   3   5  -4    0.21    0.05
   3   5  -4    0.20    0.06
  -3  -5   4    0.14    0.09
  -3  -5   4    0.19    0.06
  -3  -5   4    0.11    0.07
   2   5  -4    1.82    0.09
   2   5  -4    1.74    0.12
   2   5  -4    2.09    0.12
  -2  -5   4    1.89    0.16
  -2  -5   4    1.77    0.21
  -2  -5   4    2.02    0.12
   1   5  -4    1.64    0.18
  -1  -5   4    1.61    0.15
  -1  -5   4    1.58    0.20
  -1  -5   4    1.60    0.09
   0   5  -4    2.46    0.19
   0   5  -4    2.88    0.24
   0  -5   4    2.48    0.19
   0  -5   4    2.74    0.12
  -1   5  -4    0.05    0.07
  -1   5  -4    0.04    0.08
   1  -5   4    0.05    0.04
  -2   5  -4    0.20    0.11
  -2   5  -4    0.00    0.08
   2  -5   4    0.09    0.05
  -3   5  -4    0.83    0.08
  -3   5  -4    0.82    0.16
  -3   5  -4    1.11    0.21
   3  -5   4    0.93    0.10
  -4   5  -4    0.83    0.19
  -4   5  -4    1.08    0.23
  -4   5  -4    0.79    0.08
   4  -5   4    0.97    0.10
  -5   5  -4    1.89    0.31
  -5   5  -4    2.20    0.31
   5  -5   4    2.05    0.16
  -6   5  -4    0.49    0.12
  -6   5  -4    0.42    0.22
   6  -5   4    0.53    0.11
  -7   5  -4    0.12    0.11
  -7   5  -4   -0.11    0.23
   7  -5   4    0.17    0.11
  -8   5  -4    0.15    0.13
  -8   5  -4   -0.47    0.25
   8  -5   4    0.04    0.12
  -9   5  -4   -0.47    0.31
  -9   5  -4    0.08    0.14
   9  -5   4    0.04    0.16
  10   4  -4    0.10    0.11
 -10  -4   4   -0.13    0.18
   9   4  -4    0.04    0.10
  -9  -4   4   -0.07    0.14
  -9  -4   4   -0.09    0.11
   8   4  -4   -0.57    0.68
   8   4  -4    0.13    0.09
  -8  -4   4   -0.01    0.10
  -8  -4   4    0.05    0.12
   7   4  -4    0.07    0.07
  -7  -4   4   -0.01    0.10
  -7  -4   4   -0.02    0.07
  -7  -4   4   -0.02    0.09
  -7  -4   4    0.06    0.08
   6   4  -4    0.25    0.08
   6   4  -4    0.39    0.10
  -6  -4   4    0.26    0.09
  -6  -4   4    0.28    0.15
  -6  -4   4    0.27    0.11
  -6  -4   4    0.35    0.08
   5   4  -4    0.93    0.09
   5   4  -4    0.73    0.10
  -5  -4   4    0.90    0.14
  -5  -4   4    0.92    0.11
  -5  -4   4    0.76    0.16
   4   4  -4    0.49    0.07
   4   4  -4    0.52    0.06
   4   4  -4    0.41    0.08
  -4  -4   4    0.51    0.11
  -4  -4   4    0.58    0.25
  -4  -4   4    0.57    0.08
   3   4  -4    0.02    0.03
   3   4  -4   -0.09    0.05
   3   4  -4    0.05    0.04
  -3  -4   4    0.01    0.05
  -3  -4   4    0.05    0.08
  -3  -4   4    0.10    0.06
  -2  -4   4    1.75    0.12
  -2  -4   4    2.41    0.17
  -2  -4   4    2.44    0.29
  -1  -4   4   15.83    0.48
  -1  -4   4   15.84    0.69
  -1  -4   4   16.42    0.85
   0   4  -4    4.52    0.31
   0  -4   4    4.72    0.26
  -1   4  -4   32.34    1.63
  -1   4  -4   33.32    1.32
  -2   4  -4    0.34    0.14
  -2   4  -4    0.35    0.10
   2  -4   4    0.34    0.05
  -3   4  -4    0.11    0.04
  -3   4  -4    0.13    0.13
  -3   4  -4    0.04    0.10
   3  -4   4    0.06    0.05
  -4   4  -4    5.26    0.21
  -4   4  -4    5.05    0.36
  -4   4  -4    5.13    0.20
  -4   4  -4    6.16    0.65
   4  -4   4    5.04    0.22
  -5   4  -4    0.45    0.10
  -5   4  -4    0.63    0.23
  -5   4  -4    0.54    0.09
  -5   4  -4    0.52    0.08
  -5   4  -4    0.66    0.20
   5  -4   4    0.54    0.09
  -6   4  -4    0.57    0.45
  -6   4  -4    0.55    0.12
  -6   4  -4    0.14    0.50
   6  -4   4    0.53    0.11
  -7   4  -4   -0.01    0.11
  -7   4  -4   -0.09    0.20
   7  -4   4    0.06    0.10
  -8   4  -4   -0.26    0.23
  -8   4  -4   -0.21    0.12
   8  -4   4    0.06    0.12
  -9   4  -4    0.02    0.14
  -9   4  -4   -0.43    0.25
  10   3  -4   -0.15    0.09
 -10  -3   4   -0.12    0.17
 -10  -3   4   -0.12    0.13
   9   3  -4   -0.65    0.70
   9   3  -4    0.14    0.10
  -9  -3   4   -0.10    0.10
  -9  -3   4    0.00    0.13
   8   3  -4   -0.57    0.64
   8   3  -4    0.14    0.09
  -8  -3   4    0.00    0.11
  -8  -3   4   -0.02    0.09
  -8  -3   4    0.01    0.11
   7   3  -4   -0.03    0.48
   7   3  -4    0.00    0.07
   7   3  -4   -0.11    0.09
  -7  -3   4    0.05    0.09
  -7  -3   4    0.04    0.09
  -7  -3   4    0.10    0.07
  -7  -3   4   -0.22    0.13
   6   3  -4    0.44    0.34
   6   3  -4    0.21    0.06
   6   3  -4    0.28    0.10
  -6  -3   4    0.16    0.09
  -6  -3   4    0.18    0.07
  -6  -3   4    0.04    0.13
   5   3  -4    0.16    0.05
   5   3  -4    0.20    0.08
   5   3  -4    0.13    0.07
  -5  -3   4    0.05    0.10
  -5  -3   4    0.11    0.08
  -5  -3   4    0.10    0.06
   4   3  -4   12.64    0.46
   4   3  -4   13.05    0.40
   4   3  -4   13.63    0.39
  -4  -3   4   13.70    0.44
  -4  -3   4   14.84    0.76
  -4  -3   4   13.42    0.62
   3   3  -4  156.12    4.21
  -3  -3   4  164.42    4.46
  -3  -3   4  160.23    6.01
  -3  -3   4  154.95    7.64
   2   3  -4    8.67    0.50
  -2  -3   4    9.84    0.29
  -2  -3   4    8.58    0.51
  -2  -3   4    9.33    0.66
   1   3  -4   14.22    0.75
  -1  -3   4   14.63    0.75
  -1  -3   4   14.16    0.61
   0   3  -4    3.80    0.27
   0   3  -4    3.96    0.27
   0  -3   4    4.00    0.22
  -1   3  -4   42.40    1.63
  -1   3  -4   42.72    2.02
   1  -3   4   39.38    2.01
  -2   3  -4    2.75    0.20
  -2   3  -4    2.89    0.32
   2  -3   4    2.61    0.11
  -3   3  -4    0.53    0.15
  -3   3  -4    0.67    0.06
  -3   3  -4    0.61    0.14
   3  -3   4    0.72    0.07
  -4   3  -4    0.16    0.05
  -4   3  -4    0.23    0.06
  -4   3  -4    0.35    0.16
  -4   3  -4    0.13    0.13
   4  -3   4    0.24    0.06
  -5   3  -4    0.40    0.20
  -5   3  -4    0.08    0.09
  -5   3  -4    0.19    0.37
  -5   3  -4    0.18    0.07
   5  -3   4    0.13    0.07
  -6   3  -4    2.34    0.33
  -6   3  -4    2.53    0.18
   6  -3   4    2.50    0.18
  -7   3  -4    0.08    0.11
  -7   3  -4   -0.11    0.17
   7  -3   4    0.07    0.09
  -8   3  -4    0.02    0.13
  -8   3  -4   -0.04    0.20
   8  -3   4   -0.04    0.11
  -9   3  -4   -0.39    0.21
  -9   3  -4    0.11    0.14
  10   2  -4    0.16    0.10
 -10  -2   4    0.06    0.13
 -10  -2   4    0.01    0.18
   9   2  -4   -0.06    0.08
  -9  -2   4    0.05    0.11
  -9  -2   4    0.25    0.38
   8   2  -4    0.31    0.09
   8   2  -4   -0.04    0.61
  -8  -2   4    0.26    0.37
  -8  -2   4    0.19    0.11
  -8  -2   4    0.19    0.09
   7   2  -4    0.18    0.46
   7   2  -4    0.07    0.10
   7   2  -4    0.10    0.07
  -7  -2   4    0.08    0.30
  -7  -2   4    0.09    0.09
  -7  -2   4    0.04    0.07
  -7  -2   4    0.00    0.30
   6   2  -4    0.07    0.09
   6   2  -4    0.18    0.35
   6   2  -4    0.04    0.05
  -6  -2   4    0.04    0.22
  -6  -2   4   -0.06    0.05
  -6  -2   4    0.04    0.06
  -6  -2   4   -0.13    0.25
   5   2  -4    1.11    0.10
   5   2  -4    1.19    0.13
   5   2  -4    1.23    0.09
  -5  -2   4    1.11    0.11
  -5  -2   4    1.20    0.27
  -5  -2   4    1.07    0.32
   4   2  -4   56.12    1.52
   4   2  -4   56.28    1.68
   4   2  -4   58.27    1.46
   4   2  -4   55.92    1.52
  -4  -2   4   56.64    1.62
  -4  -2   4   55.89    2.20
  -4  -2   4   55.70    2.73
   3   2  -4   16.11    0.86
  -3  -2   4   15.55    0.66
  -3  -2   4   15.06    0.81
  -3  -2   4   15.39    0.47
   2   2  -4    1.31    0.14
  -2  -2   4    1.39    0.11
  -2  -2   4    1.33    0.15
   1   2  -4    0.11    0.05
  -1  -2   4    0.16    0.06
  -1  -2   4    0.14    0.05
   0   2  -4    4.43    0.28
   0   2  -4    4.26    0.27
   0  -2   4    4.32    0.22
  -1   2  -4   46.63    1.75
  -1   2  -4   45.57    2.17
   1  -2   4   42.83    2.16
  -2   2  -4    3.07    0.20
  -2   2  -4    3.13    0.26
   2  -2   4    2.96    0.12
   2  -2   4    3.06    0.23
  -3   2  -4   12.50    0.59
  -3   2  -4   13.36    0.95
   3  -2   4   13.00    0.41
  -4   2  -4    0.51    0.15
  -4   2  -4    0.40    0.06
  -4   2  -4    0.54    0.19
  -4   2  -4    0.40    0.08
   4  -2   4    0.40    0.07
  -5   2  -4    0.17    0.07
  -5   2  -4    0.27    0.16
  -5   2  -4   -0.08    0.19
  -5   2  -4    0.23    0.08
   5  -2   4    0.23    0.08
  -6   2  -4   -0.37    0.22
  -6   2  -4    0.18    0.08
  -6   2  -4    0.19    0.10
  -6   2  -4    0.26    0.17
   6  -2   4    0.30    0.10
  -7   2  -4   -0.32    0.14
  -7   2  -4    0.12    0.11
   7  -2   4    0.14    0.10
  -8   2  -4    0.14    0.13
  -8   2  -4   -0.25    0.18
   8  -2   4   -0.01    0.11
  -9   2  -4    0.34    0.15
  11   1  -4   -0.08    0.09
 -11  -1   4    0.32    0.16
 -11  -1   4   -0.08    0.68
  10   1  -4   -0.09    0.09
 -10  -1   4   -0.01    0.13
 -10  -1   4   -0.02    0.26
   9   1  -4    0.46    0.10
  -9  -1   4    0.43    0.13
  -9  -1   4    0.16    0.16
   8   1  -4    0.11    0.07
   8   1  -4    0.12    0.53
  -8  -1   4    0.14    0.10
  -8  -1   4    0.14    0.12
  -8  -1   4    0.21    0.09
   7   1  -4    0.38    0.11
   7   1  -4    1.25    0.48
   7   1  -4    0.56    0.08
  -7  -1   4    0.66    0.11
  -7  -1   4    0.53    0.14
  -7  -1   4    0.16    0.16
   6   1  -4    0.21    0.06
   6   1  -4    0.22    0.09
   6   1  -4    0.32    0.09
  -6  -1   4    0.30    0.08
  -6  -1   4    0.17    0.13
  -6  -1   4    0.24    0.10
   5   1  -4    0.29    0.07
   5   1  -4    0.26    0.07
   5   1  -4    0.29    0.05
  -5  -1   4    0.29    0.09
  -5  -1   4    0.28    0.12
  -5  -1   4    0.33    0.07
   4   1  -4    5.02    0.17
   4   1  -4    4.84    0.20
   4   1  -4    4.99    0.17
   4   1  -4    4.91    0.16
  -4  -1   4    4.76    0.19
  -4  -1   4    5.12    0.46
  -4  -1   4    4.98    0.19
  -4  -1   4    4.97    0.27
   3   1  -4    9.25    0.52
  -3  -1   4    9.41    0.42
  -3  -1   4    9.11    0.51
  -3  -1   4    9.25    0.29
   2   1  -4   11.95    0.74
  -2  -1   4   11.72    0.75
  -2  -1   4   12.28    0.50
   1   1  -4    4.40    0.32
  -1  -1   4    4.39    0.26
  -1  -1   4    4.40    0.21
   0  -1   4    3.22    0.17
  -1   1  -4    0.23    0.06
  -2   1  -4    6.15    0.32
   2  -1   4    5.75    0.20
  -3   1  -4    0.99    0.08
  -3   1  -4    0.81    0.18
  -3   1  -4    0.90    0.08
  -3   1  -4    1.16    0.15
   3  -1   4    0.83    0.08
  -4   1  -4    0.23    0.06
  -4   1  -4    0.26    0.07
  -4   1  -4    0.27    0.13
  -4   1  -4    0.27    0.17
   4  -1   4    0.26    0.06
  -5   1  -4    0.49    0.24
  -5   1  -4    1.18    0.12
  -5   1  -4    1.00    0.19
  -5   1  -4    0.94    0.12
   5  -1   4    0.92    0.11
  -6   1  -4    0.12    0.15
  -6   1  -4    0.24    0.08
  -6   1  -4    0.12    0.10
   6  -1   4    0.24    0.10
  -7   1  -4    0.22    0.11
  -7   1  -4   -0.17    0.15
   7  -1   4    0.29    0.11
  -8   1  -4   -0.27    0.12
   8  -1   4   -0.13    0.10
  -9   1  -4   -0.04    0.13
  11   0  -4   -0.06    0.09
 -11   0   4    0.08    0.14
 -11   0   4   -0.06    0.23
  10   0  -4    0.00    0.09
 -10   0   4   -0.04    0.12
 -10   0   4    0.00    0.20
   9   0  -4   -1.01    0.67
   9   0  -4    0.08    0.08
  -9   0   4    0.03    0.16
  -9   0   4    0.01    0.10
   8   0  -4    0.09    0.07
   8   0  -4   -0.21    0.50
  -8   0   4    0.13    0.13
  -8   0   4    0.14    0.09
  -8   0   4    0.23    0.10
   7   0  -4   -0.02    0.10
   7   0  -4    0.14    0.06
   7   0  -4    1.00    0.41
  -7   0   4    0.41    0.31
  -7   0   4    0.41    0.12
   6   0  -4    1.68    0.10
   6   0  -4    1.63    0.16
   6   0  -4    1.63    0.15
  -6   0   4    1.74    0.18
  -6   0   4    1.77    0.13
  -6   0   4    1.54    0.47
   5   0  -4    2.14    0.10
   5   0  -4    2.09    0.13
   5   0  -4    2.10    0.14
  -5   0   4    2.08    0.35
  -5   0   4    2.12    0.13
  -5   0   4    2.02    0.18
   4   0  -4    0.19    0.03
   4   0  -4    0.23    0.05
   4   0  -4    0.12    0.05
   4   0  -4    0.14    0.03
  -4   0   4    0.18    0.05
  -4   0   4    0.11    0.14
  -4   0   4    0.22    0.07
   3   0  -4    0.05    0.08
  -3   0   4    0.20    0.07
  -3   0   4    0.19    0.04
  -3   0   4    0.18    0.06
  -2   0   4    0.03    0.03
  -1   0   4    6.37    0.31
   0   0  -4    0.45    0.06
  -1   0  -4    5.39    0.27
   1   0   4    4.96    0.18
  -2   0  -4    0.99    0.18
  -2   0  -4    0.80    0.07
   2   0   4    0.92    0.07
  -3   0  -4    0.68    0.07
  -3   0  -4    0.60    0.12
   3   0   4    0.71    0.08
  -4   0  -4    9.05    0.45
  -4   0  -4    9.00    0.35
  -4   0  -4    9.08    0.31
   4   0   4    9.42    0.34
  -5   0  -4    0.22    0.08
  -5   0  -4   -0.25    0.10
  -5   0  -4    0.12    0.09
   5   0   4    0.09    0.07
  -6   0  -4    0.89    0.13
   6   0   4    1.09    0.14
  -7   0  -4    0.03    0.11
   7   0   4    0.07    0.11
  -8   0  -4   -0.02    0.13
  11  -1  -4    0.06    0.10
 -11   1   4   -0.36    0.21
 -11   1   4    0.10    0.14
  10  -1  -4    0.00    0.08
 -10   1   4   -0.02    0.12
 -10   1   4   -0.01    0.19
   9  -1  -4    0.42    0.09
  -9   1   4    0.40    0.12
  -9   1   4    0.47    0.19
   8  -1  -4    0.40    0.08
  -8   1   4    0.43    0.17
  -8   1   4    0.57    0.12
  -8   1   4    0.41    0.10
   7  -1  -4    0.57    0.08
   7  -1  -4    1.40    0.43
   7  -1  -4    0.79    0.13
   7  -1  -4    0.52    0.11
  -7   1   4    0.79    0.09
  -7   1   4    0.64    0.21
  -7   1   4    0.79    0.11
  -7   1   4    0.76    0.16
   6  -1  -4    2.24    0.12
   6  -1  -4    2.26    0.38
   6  -1  -4    2.32    0.16
   6  -1  -4    2.19    0.17
  -6   1   4    1.79    0.31
  -6   1   4    2.24    0.21
  -6   1   4    2.20    0.14
  -6   1   4    1.86    0.14
   5  -1  -4    2.94    0.15
   5  -1  -4    2.56    0.11
   5  -1  -4    2.49    0.16
  -5   1   4    2.68    0.29
  -5   1   4    2.79    0.21
  -5   1   4    2.64    0.14
   4  -1  -4    0.66    0.06
   4  -1  -4    0.66    0.07
   4  -1  -4    0.57    0.07
   4  -1  -4    0.44    0.14
   4  -1  -4    0.65    0.05
  -4   1   4    0.71    0.07
  -4   1   4    0.81    0.12
  -4   1   4    0.59    0.12
   3  -1  -4    0.72    0.13
   3  -1  -4    0.77    0.05
   3  -1  -4    0.92    0.07
  -3   1   4    0.80    0.07
  -3   1   4    0.85    0.18
  -3   1   4    1.03    0.10
  -2   1   4   15.71    0.47
  -2   1   4   15.96    0.63
  -1   1   4   41.67    1.19
   0   1   4   32.89    0.95
  -1  -1  -4    2.99    0.12
  -2  -1  -4    0.61    0.07
  -2  -1  -4    0.67    0.07
   2   1   4    0.67    0.07
  -3  -1  -4    2.97    0.14
  -3  -1  -4    2.75    0.18
   3   1   4    3.15    0.15
  -4  -1  -4    1.64    0.17
  -4  -1  -4    1.77    0.14
  -4  -1  -4    1.72    0.16
   4   1   4    1.67    0.14
  -5  -1  -4    0.76    0.10
  -5  -1  -4    0.95    0.12
   5   1   4    1.20    0.13
  -6  -1  -4    0.43    0.12
   6   1   4    0.55    0.12
  -7  -1  -4   -0.02    0.11
   7   1   4   -0.01    0.11
  -8  -1  -4   -0.05    0.12
  11  -2  -4    0.02    0.09
 -11   2   4    0.15    0.16
 -11   2   4   -0.14    0.22
  10  -2  -4   -0.08    0.07
 -10   2   4    0.04    0.13
 -10   2   4   -0.07    0.20
   9  -2  -4    0.53    0.70
   9  -2  -4    0.20    0.08
  -9   2   4    0.28    0.19
  -9   2   4    0.21    0.12
   8  -2  -4    0.03    0.06
  -8   2   4   -0.35    0.20
  -8   2   4    0.02    0.07
  -8   2   4    0.13    0.15
  -8   2   4    0.27    0.10
  -8   2   4    0.12    0.09
   7  -2  -4    0.15    0.10
   7  -2  -4   -0.06    0.09
   7  -2  -4    0.22    0.41
   7  -2  -4    0.08    0.06
  -7   2   4   -0.25    0.17
  -7   2   4    0.00    0.07
  -7   2   4    0.01    0.12
  -7   2   4    0.16    0.08
   6  -2  -4    0.41    0.33
   6  -2  -4    0.12    0.08
   6  -2  -4    0.30    0.06
   6  -2  -4    0.16    0.08
  -6   2   4    0.27    0.07
  -6   2   4    0.23    0.16
  -6   2   4    0.53    0.09
  -6   2   4    0.31    0.13
   5  -2  -4    2.70    0.12
   5  -2  -4    2.66    0.15
   5  -2  -4    2.70    0.16
  -5   2   4    2.72    0.31
  -5   2   4    2.70    0.15
  -5   2   4    2.52    0.14
  -5   2   4    2.62    0.22
   4  -2  -4    2.43    0.10
   4  -2  -4    2.28    0.28
   4  -2  -4    2.42    0.14
   4  -2  -4    2.39    0.12
  -4   2   4    2.38    0.18
  -4   2   4    2.35    0.26
  -4   2   4    2.35    0.13
   3  -2  -4    0.76    0.06
   3  -2  -4    0.71    0.07
   3  -2  -4    0.77    0.08
   3  -2  -4    0.79    0.06
  -3   2   4    0.79    0.11
  -3   2   4    0.72    0.07
   2  -2  -4   30.06    0.80
   2  -2  -4   28.49    0.80
  -2   2   4   28.57    0.85
  -2   2   4   29.74    1.13
   1  -2  -4    0.74    0.10
   1  -2  -4    0.84    0.10
  -1   2   4    0.66    0.07
   0  -2  -4    7.74    0.28
   0  -2  -4    8.26    0.24
   0  -2  -4    8.12    0.30
   0   2   4    8.18    0.28
  -1  -2  -4    0.02    0.04
  -1  -2  -4   -0.01    0.04
   1   2   4    0.03    0.04
  -2  -2  -4    7.64    0.25
   2   2   4    7.66    0.28
  -3  -2  -4    1.05    0.10
   3   2   4    1.15    0.12
  -4  -2  -4    3.45    0.23
  -4  -2  -4    3.52    0.19
   4   2   4    3.39    0.20
  -5  -2  -4    1.79    0.16
   5   2   4    1.51    0.17
  -6  -2  -4    0.15    0.11
   6   2   4    0.05    0.11
  -7  -2  -4   -0.02    0.11
  11  -3  -4   -0.06    0.08
 -11   3   4    0.05    0.15
 -11   3   4   -0.29    0.24
  10  -3  -4    0.13    0.09
 -10   3   4   -0.04    0.12
 -10   3   4   -0.18    0.22
   9  -3  -4    0.58    0.10
  -9   3   4    0.48    0.09
  -9   3   4    0.97    0.14
  -9   3   4    0.96    0.26
  -8   3   4    0.42    0.18
  -8   3   4    0.89    0.12
   7  -3  -4    0.10    0.06
   7  -3  -4   -0.01    0.42
   7  -3  -4    0.08    0.11
   7  -3  -4   -0.06    0.09
  -7   3   4    0.02    0.07
  -7   3   4    0.01    0.08
  -7   3   4    0.11    0.15
  -7   3   4    0.04    0.07
   6  -3  -4   -0.07    0.07
   6  -3  -4   -0.02    0.08
   6  -3  -4    0.03    0.05
   6  -3  -4    0.05    0.35
  -6   3   4    0.03    0.12
  -6   3   4   -0.05    0.06
  -6   3   4   -0.10    0.06
   5  -3  -4    6.21    0.24
   5  -3  -4    6.38    0.22
   5  -3  -4    6.30    0.27
  -5   3   4    6.36    0.48
  -5   3   4    6.20    0.26
  -5   3   4    6.36    0.25
  -5   3   4    6.77    0.37
   4  -3  -4    1.05    0.08
   4  -3  -4    1.26    0.11
   4  -3  -4    1.10    0.10
  -4   3   4    1.18    0.16
  -4   3   4    1.00    0.10
   3  -3  -4    0.02    0.04
   3  -3  -4    0.05    0.04
   3  -3  -4    0.03    0.06
  -3   3   4    0.01    0.04
  -3   3   4    0.09    0.08
   2  -3  -4    1.44    0.10
   2  -3  -4    1.06    0.07
   2  -3  -4    1.07    0.09
  -2   3   4    1.07    0.08
   1  -3  -4    1.11    0.10
   1  -3  -4    1.28    0.08
  -1   3   4    1.19    0.09
   0  -3  -4    4.63    0.20
   0  -3  -4    4.93    0.17
   0   3   4    4.92    0.20
  -1  -3  -4    2.29    0.12
  -1  -3  -4    2.25    0.14
   1   3   4    2.32    0.14
  -2  -3  -4    1.04    0.10
   2   3   4    1.05    0.11
  -3  -3  -4    6.26    0.25
   3   3   4    6.10    0.28
  -4  -3  -4    2.45    0.22
  -4  -3  -4    2.60    0.17
   4   3   4    2.20    0.18
  -5  -3  -4    0.20    0.10
   5   3   4    0.03    0.10
  -6  -3  -4    0.14    0.11
  -7  -3  -4    0.02    0.11
  11  -4  -4    0.07    0.09
 -11   4   4   -0.06    0.15
 -11   4   4   -0.29    0.26
  10  -4  -4    0.04    0.08
 -10   4   4   -0.33    0.24
 -10   4   4    0.09    0.14
   9  -4  -4    0.20    0.08
  -9   4   4    0.45    0.13
  -9   4   4   -0.12    0.21
   8  -4  -4    0.09    0.07
  -8   4   4   -0.02    0.17
  -8   4   4    0.41    0.11
  -8   4   4    0.26    0.08
   7  -4  -4    0.38    0.34
   7  -4  -4    1.00    0.51
   7  -4  -4    0.45    0.11
   7  -4  -4    0.46    0.08
  -7   4   4    0.28    0.09
  -7   4   4    0.29    0.09
  -7   4   4    0.26    0.08
  -7   4   4    0.38    0.18
  -7   4   4    0.32    0.10
   6  -4  -4    0.06    0.06
   6  -4  -4   -0.05    0.10
   6  -4  -4    0.02    0.09
  -6   4   4   -0.32    0.18
  -6   4   4    0.13    0.08
  -6   4   4    0.31    0.16
  -6   4   4    0.02    0.07
  -6   4   4    0.09    0.08
   5  -4  -4   -0.11    0.07
   5  -4  -4   -0.05    0.05
   5  -4  -4    0.06    0.35
   5  -4  -4    0.00    0.08
  -5   4   4   -0.31    0.15
  -5   4   4   -0.13    0.06
  -5   4   4   -0.04    0.06
  -5   4   4    0.02    0.13
   4  -4  -4    3.77    0.15
   4  -4  -4    3.63    0.19
   4  -4  -4    3.83    0.25
  -4   4   4    3.55    0.17
  -4   4   4    3.59    0.18
  -4   4   4    3.71    0.26
   3  -4  -4    1.44    0.12
   3  -4  -4    1.54    0.10
  -3   4   4    1.66    0.18
  -3   4   4    1.76    0.12
  -3   4   4    1.49    0.12
   2  -4  -4    2.99    0.13
   2  -4  -4    2.82    0.16
  -2   4   4    2.91    0.15
   1  -4  -4    8.50    0.27
   1  -4  -4    8.47    0.32
  -1   4   4    8.42    0.31
   0  -4  -4    1.39    0.12
   0  -4  -4    1.31    0.10
   0   4   4    1.41    0.11
  -1  -4  -4    0.28    0.07
   1   4   4    0.31    0.08
  -2  -4  -4    2.31    0.15
   2   4   4    2.19    0.16
  -3  -4  -4    0.32    0.09
   3   4   4    0.34    0.11
  -4  -4  -4    0.11    0.09
   4   4   4    0.08    0.10
  -5  -4  -4    0.27    0.11
   5   4   4    0.27    0.13
  -6  -4  -4    0.10    0.11
  11  -5  -4   -0.09    0.09
  10  -5  -4   -0.03    0.08
 -10   5   4    0.15    0.15
 -10   5   4   -0.39    0.25
   9  -5  -4    0.02    0.07
  -9   5   4    0.15    0.09
  -9   5   4    0.15    0.12
  -9   5   4    0.07    0.22
   8  -5  -4    0.06    0.07
  -8   5   4    0.09    0.11
  -8   5   4   -0.05    0.08
  -8   5   4   -0.11    0.18
   7  -5  -4    0.01    0.06
  -7   5   4   -0.02    0.08
  -7   5   4   -0.24    0.16
  -7   5   4    0.07    0.09
  -7   5   4    0.12    0.10
   6  -5  -4    1.96    0.13
   6  -5  -4    2.33    0.20
  -6   5   4    2.04    0.29
  -6   5   4    1.97    0.13
  -6   5   4    1.46    0.28
  -6   5   4    2.22    0.18
  -6   5   4    2.22    0.18
  -6   5   4    2.30    0.17
   5  -5  -4   11.87    0.39
   5  -5  -4   13.24    0.47
  -5   5   4   12.78    0.45
  -5   5   4   12.14    0.37
  -5   5   4   12.52    0.62
  -5   5   4   12.30    0.45
   4  -5  -4    4.32    0.18
   4  -5  -4    4.53    0.23
  -4   5   4    4.22    0.21
  -4   5   4    4.07    0.21
  -4   5   4    4.56    0.32
   3  -5  -4    7.31    0.25
   3  -5  -4    7.97    0.31
  -3   5   4    7.19    0.29
  -3   5   4    7.42    0.30
  -3   5   4    7.37    0.39
   2  -5  -4    4.46    0.18
   2  -5  -4    4.33    0.22
  -2   5   4    4.16    0.20
  -2   5   4    4.43    0.21
   1  -5  -4    0.06    0.07
   1  -5  -4    0.21    0.06
  -1   5   4    0.07    0.06
   0  -5  -4    0.07    0.06
   0   5   4    0.02    0.06
   0   5   4   -0.04    0.07
  -1  -5  -4   -0.02    0.07
   1   5   4   -0.15    0.08
   1   5   4    0.02    0.07
  -2  -5  -4   -0.01    0.07
   2   5   4   -0.02    0.07
  -3  -5  -4    0.96    0.12
   3   5   4    1.26    0.16
  -4  -5  -4    0.02    0.09
   4   5   4    0.00    0.12
   4   5   4   -0.16    0.13
  -5  -5  -4   -0.03    0.10
  -6  -5  -4    0.10    0.11
  10  -6  -4    0.18    0.09
 -10   6   4    0.08    0.28
 -10   6   4   -0.39    0.27
   9  -6  -4    0.03    0.08
  -9   6   4    0.04    0.09
  -9   6   4    0.08    0.14
  -9   6   4   -0.29    0.23
   8  -6  -4    0.13    0.07
  -8   6   4    0.11    0.09
  -8   6   4   -0.01    0.20
  -8   6   4    0.28    0.12
   7  -6  -4    0.07    0.07
  -7   6   4    0.30    0.11
  -7   6   4   -0.23    0.18
  -7   6   4    0.22    0.09
   6  -6  -4    0.25    0.07
  -6   6   4   -0.03    0.18
  -6   6   4    0.38    0.11
  -6   6   4    0.17    0.10
  -6   6   4    0.44    0.09
   5  -6  -4    0.80    0.09
   5  -6  -4    1.08    0.15
  -5   6   4    0.90    0.10
  -5   6   4    0.83    0.21
  -5   6   4    0.92    0.12
  -5   6   4    1.06    0.13
   4  -6  -4    0.01    0.09
   4  -6  -4   -0.05    0.06
  -4   6   4    0.06    0.08
  -4   6   4    0.20    0.08
  -4   6   4    0.22    0.16
  -4   6   4    0.08    0.08
   3  -6  -4    0.05    0.07
   3  -6  -4    0.12    0.09
  -3   6   4    0.01    0.07
  -3   6   4    0.06    0.08
   2  -6  -4    0.24    0.08
  -2   6   4    0.43    0.10
  -2   6   4    0.18    0.08
   1  -6  -4   12.29    0.40
  -1   6   4   12.54    0.45
  -1   6   4   12.61    0.46
   0  -6  -4   -0.04    0.06
   0   6   4    0.05    0.07
   0   6   4    0.09    0.09
  -1  -6  -4    0.23    0.08
   1   6   4    0.32    0.10
   1   6   4    0.26    0.11
  -2  -6  -4   -0.04    0.07
   2   6   4   -0.10    0.11
   2   6   4   -0.01    0.09
  -3  -6  -4    0.18    0.09
   3   6   4    0.08    0.14
  -4  -6  -4   -0.04    0.09
  -5  -6  -4   -0.16    0.09
  10  -7  -4    0.10    0.10
 -10   7   4    0.22    0.17
 -10   7   4   -0.19    0.30
   9  -7  -4   -0.02    0.08
  -9   7   4   -0.06    0.14
  -9   7   4   -0.30    0.24
   8  -7  -4   -0.08    0.07
  -8   7   4   -0.10    0.13
  -8   7   4   -0.37    0.20
  -8   7   4   -0.01    0.09
   7  -7  -4    0.03    0.07
  -7   7   4    0.06    0.11
  -7   7   4   -0.25    0.20
  -7   7   4   -0.09    0.09
   6  -7  -4    0.00    0.06
  -6   7   4   -0.25    0.18
  -6   7   4    0.11    0.09
  -6   7   4    0.13    0.10
   5  -7  -4    0.18    0.07
  -5   7   4    0.23    0.10
  -5   7   4    0.16    0.09
   4  -7  -4    0.07    0.07
  -4   7   4    0.02    0.08
  -4   7   4    0.10    0.09
  -4   7   4    0.02    0.09
   3  -7  -4    0.69    0.09
  -3   7   4    0.49    0.10
  -3   7   4    0.77    0.12
   2  -7  -4    0.36    0.08
  -2   7   4    0.30    0.10
  -2   7   4    0.18    0.09
   1  -7  -4    0.61    0.10
  -1   7   4    0.34    0.10
  -1   7   4    0.57    0.13
   0  -7  -4   -0.01    0.07
   0   7   4    0.01    0.10
   0   7   4    0.14    0.10
  -1  -7  -4    0.16    0.08
   1   7   4    0.20    0.12
  -2  -7  -4    0.04    0.08
   2   7   4    0.08    0.14
  -3  -7  -4    0.14    0.10
  -4  -7  -4   -0.01    0.09
   9  -8  -4    0.07    0.09
  -9   8   4    0.10    0.16
  -9   8   4   -0.51    0.25
   8  -8  -4    0.15    0.09
  -8   8   4   -0.28    0.23
  -8   8   4    0.12    0.15
   7  -8  -4    0.08    0.08
  -7   8   4    0.32    0.14
  -7   8   4    0.15    0.10
   6  -8  -4   -0.07    0.06
  -6   8   4    0.00    0.10
  -6   8   4    0.00    0.11
   5  -8  -4    0.08    0.07
  -5   8   4   -0.04    0.09
  -5   8   4    0.01    0.10
   4  -8  -4    0.05    0.07
  -4   8   4   -0.02    0.09
  -4   8   4   -0.02    0.09
   3  -8  -4   -0.02    0.07
  -3   8   4    0.01    0.09
   2  -8  -4    0.36    0.09
  -2   8   4    0.09    0.12
   1  -8  -4    0.13    0.08
  -1   8   4    0.33    0.13
   0  -8  -4    0.31    0.10
   0   8   4    0.39    0.14
  -1  -8  -4    0.16    0.09
   1   8   4    0.07    0.14
  -2  -8  -4    0.23    0.10
   2   8   4    0.49    0.17
  -3  -8  -4   -0.11    0.09
   8  -9  -4    0.01    0.09
  -8   9   4    0.03    0.16
   7  -9  -4   -0.10    0.07
  -7   9   4    0.12    0.15
   6  -9  -4    0.19    0.09
  -6   9   4    0.05    0.11
  -6   9   4   -0.02    0.14
   5  -9  -4    0.06    0.08
  -5   9   4   -0.16    0.12
  -5   9   4    0.02    0.10
   4  -9  -4    0.13    0.08
  -4   9   4    0.12    0.12
   3  -9  -4    0.95    0.12
  -3   9   4    1.14    0.17
   2  -9  -4    0.27    0.09
  -2   9   4    0.24    0.16
   1  -9  -4    0.09    0.09
  -1   9   4    0.12    0.15
   0  -9  -4    0.37    0.10
   0   9   4    0.16    0.15
  -1  -9  -4    0.22    0.10
   1   9   4   -0.02    0.17
   7 -10  -4    0.33    0.10
   6 -10  -4    0.36    0.10
  -6  10   4    0.20    0.16
   5 -10  -4    0.21    0.09
  -5  10   4   -0.06    0.14
   4 -10  -4    0.07    0.09
  -4  10   4    0.03    0.13
   3 -10  -4    0.14    0.09
  -3  10   4    0.23    0.16
   2 -10  -4    0.04    0.09
  -2  10   4    0.21    0.18
   1 -10  -4   -0.02    0.09
  -1  10   4   -0.05    0.16
   2  12  -5    0.12    0.14
  -2 -12   5    0.12    0.12
   1  12  -5   -0.08    0.13
   1  12  -5    0.49    0.21
  -1 -12   5    0.20    0.13
   0  12  -5    0.64    0.19
   0  12  -5   -0.06    0.13
   0 -12   5    0.04    0.11
  -1  12  -5    0.36    0.18
   1 -12   5    0.06    0.14
  -2  12  -5    1.07    0.66
  -2  12  -5    0.38    0.19
   2 -12   5    0.02    0.13
  -3  12  -5    0.66    0.24
   3 -12   5    0.08    0.14
  -4  12  -5    0.87    0.29
   4 -12   5   -0.02    0.15
  -5  12  -5    0.77    0.59
   5 -12   5    0.01    0.16
   4  11  -5   -0.03    0.12
   3  11  -5    0.12    0.12
   3  11  -5    0.12    0.19
  -3 -11   5    0.00    0.11
  -3 -11   5   -0.10    0.18
   2  11  -5    0.56    0.20
   2  11  -5    0.41    0.14
  -2 -11   5    0.32    0.13
   1  11  -5    1.37    0.24
   1  11  -5    1.78    0.59
  -1 -11   5    0.98    0.16
   0  11  -5    0.70    0.20
   0 -11   5    0.43    0.14
  -1  11  -5    0.48    0.19
   1 -11   5   -0.03    0.12
  -2  11  -5    0.18    0.16
   2 -11   5    0.21    0.13
  -3  11  -5    0.30    0.19
   3 -11   5    0.02    0.13
  -4  11  -5    0.67    0.25
   4 -11   5    0.15    0.14
  -5  11  -5    0.33    0.53
   5 -11   5    0.07    0.14
  -6  11  -5    0.20    0.32
   6 -11   5   -0.22    0.13
   5  10  -5   -0.05    0.12
   4  10  -5   -0.07    0.11
   4  10  -5    0.16    0.52
  -4 -10   5   -0.06    0.14
  -4 -10   5   -0.07    0.10
   3  10  -5   -0.08    0.10
  -3 -10   5    0.03    0.14
  -3 -10   5    0.00    0.10
   2  10  -5   -0.07    0.13
  -2 -10   5    0.02    0.15
  -2 -10   5    0.02    0.10
   1  10  -5    0.14    0.14
  -1 -10   5    0.24    0.11
   0  10  -5    0.39    0.16
   0 -10   5    0.86    0.15
  -1  10  -5    0.42    0.17
   1 -10   5    0.27    0.11
  -2  10  -5    0.10    0.14
   2 -10   5    0.06    0.10
  -3  10  -5    0.20    0.18
   3 -10   5    0.07    0.11
  -4  10  -5    0.23    0.21
   4 -10   5    0.00    0.11
  -5  10  -5    0.07    0.31
   5 -10   5   -0.10    0.13
  -6  10  -5    0.48    0.32
   6 -10   5    0.00    0.14
  -7  10  -5    0.72    0.39
   7 -10   5    0.28    0.16
   6   9  -5   -0.05    0.11
  -6  -9   5    0.03    0.16
   5   9  -5   -0.04    0.10
  -5  -9   5    0.07    0.11
  -5  -9   5   -0.03    0.14
   4   9  -5   -0.06    0.09
  -4  -9   5    0.10    0.13
  -4  -9   5    0.01    0.10
   3   9  -5    0.17    0.10
  -3  -9   5   -0.03    0.13
  -3  -9   5    0.06    0.09
   1   9  -5    0.18    0.14
  -1  -9   5    0.22    0.10
  -1  -9   5    0.25    0.14
   0   9  -5    0.03    0.13
   0   9  -5    0.36    0.14
   0  -9   5   -0.02    0.08
  -1   9  -5    1.59    0.24
   1  -9   5    1.01    0.13
  -2   9  -5    0.63    0.18
   2  -9   5    0.62    0.12
  -3   9  -5    0.43    0.18
   3  -9   5    0.16    0.10
  -4   9  -5   -0.04    0.16
   4  -9   5   -0.07    0.10
  -5   9  -5    0.48    0.34
   5  -9   5    0.51    0.13
  -6   9  -5    0.99    0.34
   6  -9   5    0.94    0.17
  -7   9  -5    0.11    0.35
   7  -9   5    0.08    0.15
   7   8  -5   -0.10    0.11
   7   8  -5    0.13    0.74
  -7  -8   5    0.05    0.16
   6   8  -5    0.12    0.11
   6   8  -5   -0.17    0.54
  -6  -8   5    0.03    0.10
  -6  -8   5   -0.07    0.12
   5   8  -5   -0.11    0.09
   5   8  -5    0.18    0.49
  -5  -8   5    0.09    0.12
  -5  -8   5   -0.05    0.09
   4   8  -5    0.44    0.11
  -4  -8   5    0.62    0.16
  -4  -8   5    0.45    0.11
  -3  -8   5    0.13    0.09
  -3  -8   5    0.08    0.13
  -3  -8   5    0.05    0.09
   2   8  -5    0.09    0.11
  -2  -8   5   -0.10    0.07
  -2  -8   5   -0.06    0.09
   1   8  -5    0.11    0.12
   1   8  -5    0.07    0.10
  -1  -8   5    0.07    0.08
  -1  -8   5   -0.17    0.09
   0   8  -5    0.17    0.14
   0   8  -5    0.06    0.10
   0  -8   5    0.10    0.07
  -1   8  -5    5.74    0.41
  -1   8  -5    7.54    0.54
   1  -8   5    5.74    0.26
  -2   8  -5    0.45    0.17
  -2   8  -5    0.11    0.13
   2  -8   5    0.14    0.09
  -3   8  -5    0.27    0.16
  -3   8  -5    0.80    0.32
   3  -8   5    0.09    0.09
  -4   8  -5    0.30    0.18
   4  -8   5    0.07    0.09
  -5   8  -5    0.06    0.41
   5  -8   5   -0.03    0.10
  -6   8  -5    0.19    0.27
   6  -8   5    0.07    0.11
  -7   8  -5    0.42    0.36
   7  -8   5    0.00    0.14
  -8   8  -5   -0.27    0.93
   8  -8   5    0.09    0.15
   8   7  -5   -0.11    0.10
  -8  -7   5   -0.06    0.43
   7   7  -5   -0.04    0.09
   7   7  -5   -0.14    0.66
  -7  -7   5    0.12    0.30
  -7  -7   5   -0.06    0.10
   6   7  -5    0.07    0.09
  -6  -7   5    0.04    0.09
  -6  -7   5    0.03    0.12
   5   7  -5    0.08    0.08
  -5  -7   5    0.14    0.09
  -5  -7   5    0.18    0.12
   4   7  -5    0.02    0.07
  -4  -7   5   -0.04    0.07
  -4  -7   5    0.02    0.09
  -4  -7   5   -0.02    0.12
  -3  -7   5    1.83    0.27
  -3  -7   5    1.99    0.21
  -3  -7   5    1.90    0.16
   2   7  -5    0.16    0.11
  -2  -7   5    0.16    0.10
  -2  -7   5    0.04    0.08
  -2  -7   5    0.07    0.06
   1   7  -5    0.06    0.10
  -1  -7   5    0.10    0.08
  -1  -7   5    0.05    0.06
   0   7  -5    5.25    0.40
   0   7  -5    4.70    0.33
   0  -7   5    5.12    0.21
  -1   7  -5    0.62    0.16
  -1   7  -5    0.25    0.11
   1  -7   5    0.35    0.08
  -2   7  -5    1.89    0.29
  -2   7  -5    1.42    0.21
   2  -7   5    1.23    0.12
  -3   7  -5    5.00    0.63
  -3   7  -5    3.51    0.32
   3  -7   5    3.25    0.19
  -4   7  -5    0.43    0.17
  -5   7  -5    0.05    0.18
   5  -7   5   -0.01    0.09
  -6   7  -5    0.45    0.26
   6  -7   5    0.42    0.12
  -7   7  -5    0.39    0.31
   7  -7   5    0.23    0.13
  -8   7  -5   -0.24    0.36
   8  -7   5   -0.02    0.14
   9   6  -5    0.05    0.10
  -9  -6   5   -0.01    0.19
   8   6  -5   -0.66    0.78
   8   6  -5    0.10    0.11
  -8  -6   5    0.38    0.19
   7   6  -5    0.11    0.10
   7   6  -5   -0.20    0.57
  -7  -6   5    0.07    0.13
  -7  -6   5    0.13    0.10
   6   6  -5   -0.11    0.39
   6   6  -5    0.23    0.08
   6   6  -5   -0.02    0.10
  -6  -6   5    0.02    0.11
  -6  -6   5    0.03    0.09
   5   6  -5   -0.03    0.13
   5   6  -5   -0.01    0.06
  -5  -6   5   -0.03    0.12
  -5  -6   5    0.04    0.28
  -5  -6   5   -0.08    0.07
   4   6  -5    0.21    0.08
   4   6  -5    0.17    0.06
  -4  -6   5    0.22    0.08
  -4  -6   5    0.12    0.09
  -4  -6   5    0.12    0.12
   3   6  -5   -0.04    0.05
  -3  -6   5   -0.04    0.08
  -3  -6   5   -0.07    0.06
  -3  -6   5    0.06    0.07
   2   6  -5    0.56    0.11
  -2  -6   5    0.56    0.12
  -2  -6   5    0.51    0.14
  -2  -6   5    0.51    0.08
   1   6  -5    0.75    0.15
  -1  -6   5    0.85    0.08
  -1  -6   5    0.80    0.14
   0   6  -5    0.77    0.14
   0   6  -5    0.74    0.16
   0  -6   5    0.78    0.08
   0  -6   5    0.85    0.15
  -1   6  -5    1.37    0.17
  -1   6  -5    1.54    0.25
   1  -6   5    1.49    0.10
  -2   6  -5    1.89    0.21
  -2   6  -5    2.42    0.29
   2  -6   5    1.76    0.12
  -3   6  -5    5.66    0.39
  -3   6  -5    6.57    0.60
   3  -6   5    5.61    0.24
  -4   6  -5    7.40    0.51
  -4   6  -5    9.29    0.63
   4  -6   5    7.82    0.32
  -5   6  -5    0.11    0.18
   5  -6   5    0.14    0.09
  -6   6  -5    0.00    0.21
   6  -6   5    0.04    0.10
  -7   6  -5   -0.06    0.48
   7  -6   5   -0.03    0.11
  -8   6  -5   -0.32    0.32
   8  -6   5    0.25    0.15
   9   5  -5    0.09    0.11
  -9  -5   5    0.07    0.17
   8   5  -5    0.25    0.11
  -8  -5   5    0.17    0.14
  -8  -5   5    0.14    0.13
  -8  -5   5    0.18    0.10
   7   5  -5   -0.01    0.08
   7   5  -5   -0.41    0.50
  -7  -5   5    0.00    0.08
  -7  -5   5    0.02    0.10
   6   5  -5    0.38    0.09
   6   5  -5    0.22    0.10
  -6  -5   5    0.38    0.13
  -6  -5   5    0.25    0.15
  -6  -5   5    0.31    0.10
   5   5  -5   -0.09    0.14
   5   5  -5   -0.17    0.05
  -5  -5   5   -0.01    0.11
  -5  -5   5   -0.12    0.06
  -5  -5   5    0.02    0.09
   4   5  -5    1.67    0.11
   4   5  -5    1.55    0.12
  -4  -5   5    1.77    0.13
  -4  -5   5    1.95    0.26
  -4  -5   5    1.70    0.22
   3   5  -5    0.06    0.04
  -3  -5   5    0.10    0.07
  -3  -5   5    0.06    0.05
  -3  -5   5    0.07    0.09
  -2  -5   5    0.31    0.09
  -2  -5   5    0.31    0.11
  -2  -5   5    0.24    0.05
   1   5  -5    0.94    0.16
  -1  -5   5    0.80    0.12
   0   5  -5    2.30    0.19
   0   5  -5    2.27    0.23
   0  -5   5    2.48    0.20
  -1   5  -5    0.15    0.08
  -1   5  -5    0.14    0.10
   1  -5   5    0.17    0.05
  -2   5  -5    1.86    0.26
  -2   5  -5    1.27    0.18
   2  -5   5    1.30    0.09
  -3   5  -5    6.82    0.49
  -3   5  -5    5.85    0.38
   3  -5   5    5.68    0.23
  -4   5  -5    0.10    0.16
  -4   5  -5   -0.04    0.14
   4  -5   5   -0.09    0.06
  -5   5  -5    2.42    0.33
  -5   5  -5    4.10    0.58
   5  -5   5    2.70    0.18
  -6   5  -5    0.14    0.19
   6  -5   5   -0.05    0.08
  -7   5  -5   -0.03    0.23
   7  -5   5    0.15    0.11
  -8   5  -5   -0.26    0.27
   8  -5   5    0.06    0.12
  10   4  -5   -0.05    0.10
 -10  -4   5   -0.03    0.20
   9   4  -5   -0.10    0.09
  -9  -4   5    0.02    0.16
   8   4  -5   -0.54    0.65
   8   4  -5    0.11    0.09
  -8  -4   5   -0.05    0.12
  -8  -4   5   -0.03    0.11
   7   4  -5    0.12    0.10
   7   4  -5    0.24    0.09
  -7  -4   5    0.32    0.12
  -7  -4   5    0.11    0.08
   6   4  -5    0.83    0.10
   6   4  -5    0.75    0.11
  -6  -4   5    0.92    0.12
  -6  -4   5    0.78    0.18
  -6  -4   5    0.78    0.15
   5   4  -5    2.22    0.13
   5   4  -5    2.43    0.17
  -5  -4   5    2.68    0.47
  -5  -4   5    2.47    0.22
  -5  -4   5    2.44    0.16
   4   4  -5    0.21    0.05
   4   4  -5    0.15    0.06
  -4  -4   5    0.21    0.09
  -4  -4   5    0.16    0.11
  -4  -4   5    0.14    0.06
  -3  -4   5    5.25    0.45
  -3  -4   5    5.25    0.37
  -3  -4   5    4.97    0.20
  -2  -4   5   14.90    0.80
  -2  -4   5   14.60    0.65
   1   4  -5   -0.01    0.06
  -1  -4   5    0.06    0.05
  -1  -4   5   -0.11    0.08
   0   4  -5    3.15    0.21
   0   4  -5    3.09    0.25
   0  -4   5    3.14    0.21
  -1   4  -5    1.33    0.15
  -1   4  -5    1.28    0.19
  -2   4  -5    2.90    0.42
  -2   4  -5    2.37    0.20
   2  -4   5    2.32    0.11
  -3   4  -5    1.00    0.17
  -3   4  -5    1.22    0.21
   3  -4   5    1.02    0.09
  -4   4  -5    0.26    0.30
  -4   4  -5    0.03    0.13
   4  -4   5   -0.05    0.06
  -5   4  -5    0.02    0.16
  -5   4  -5    0.17    0.19
   5  -4   5    0.00    0.08
  -6   4  -5    0.13    0.47
   6  -4   5    0.05    0.08
  -7   4  -5   -0.09    0.20
   7  -4   5    0.05    0.10
  -8   4  -5   -0.32    0.22
   8  -4   5    0.16    0.12
  10   3  -5    0.00    0.09
 -10  -3   5   -0.22    0.18
   9   3  -5    0.40    0.11
  -9  -3   5    0.56    0.20
   8   3  -5    0.23    0.09
  -8  -3   5    0.38    0.16
  -8  -3   5    0.42    0.13
   7   3  -5   -0.01    0.10
   7   3  -5    0.02    0.07
  -7  -3   5   -0.16    0.13
  -7  -3   5    0.10    0.09
  -7  -3   5    0.00    0.10
  -7  -3   5    0.11    0.08
   6   3  -5    0.54    0.08
   6   3  -5    0.56    0.10
  -6  -3   5    0.51    0.09
  -6  -3   5    0.57    0.14
  -6  -3   5    0.56    0.17
   5   3  -5    0.82    0.09
   5   3  -5    0.82    0.07
  -5  -3   5    0.79    0.09
  -5  -3   5    0.74    0.16
  -5  -3   5    0.69    0.13
   4   3  -5    1.36    0.11
  -4  -3   5    1.27    0.15
  -4  -3   5    1.39    0.11
  -4  -3   5    1.66    0.26
  -3  -3   5   42.86    1.22
  -3  -3   5   41.90    1.69
  -3  -3   5   42.92    2.09
  -2  -3   5    1.82    0.22
  -2  -3   5    1.65    0.14
   1   3  -5    0.05    0.06
   1   3  -5    0.07    0.06
  -1  -3   5    0.18    0.06
  -1  -3   5    0.13    0.07
   0   3  -5   19.23    0.96
   0   3  -5   17.35    0.94
   0  -3   5   19.35    0.78
  -1   3  -5    2.52    0.19
  -1   3  -5    2.81    0.23
  -2   3  -5    1.31    0.19
  -2   3  -5    1.22    0.15
  -3   3  -5    0.03    0.09
  -3   3  -5    0.23    0.12
   3  -3   5   -0.02    0.04
  -4   3  -5    0.74    0.20
  -4   3  -5    0.64    0.17
   4  -3   5    0.72    0.09
  -5   3  -5    1.73    0.74
  -5   3  -5    1.70    0.33
   5  -3   5    1.95    0.15
  -6   3  -5   -0.03    0.18
   6  -3   5   -0.01    0.08
  -7   3  -5   -0.32    0.17
   7  -3   5    0.05    0.10
  -8   3  -5   -0.31    0.21
  -8   3  -5   -0.05    0.13
   8  -3   5    0.26    0.13
  10   2  -5    0.15    0.10
 -10  -2   5    0.13    0.20
   9   2  -5    0.11    0.09
  -9  -2   5    0.02    0.12
  -9  -2   5    0.18    0.16
   8   2  -5    0.85    0.61
   8   2  -5    0.40    0.09
  -8  -2   5    0.59    0.26
  -8  -2   5    0.45    0.12
   7   2  -5   -0.13    0.09
   7   2  -5    0.13    0.44
   7   2  -5    0.06    0.07
  -7  -2   5    0.10    0.17
  -7  -2   5   -0.03    0.27
  -7  -2   5    0.06    0.08
   6   2  -5    0.30    0.09
   6   2  -5    0.16    0.06
  -6  -2   5    0.07    0.06
  -6  -2   5    0.22    0.07
  -6  -2   5   -0.25    0.13
  -6  -2   5    0.02    0.09
   5   2  -5    4.19    0.16
   5   2  -5    4.26    0.18
  -5  -2   5    4.31    0.19
  -5  -2   5    4.57    0.35
  -5  -2   5    4.30    0.27
  -4  -2   5   24.85    1.27
  -4  -2   5   24.93    0.74
  -4  -2   5   24.61    1.03
  -3  -2   5    0.01    0.04
  -3  -2   5   -0.02    0.10
   2   2  -5    0.34    0.08
  -2  -2   5    0.44    0.08
  -2  -2   5    0.40    0.08
   1   2  -5    1.09    0.13
  -1  -2   5    1.18    0.14
  -1  -2   5    1.18    0.10
   0   2  -5   13.49    0.75
   0   2  -5   14.89    0.77
   0   2  -5   15.71    0.63
   0  -2   5   15.47    0.63
  -1   2  -5    7.02    0.42
  -1   2  -5    7.49    0.35
   1  -2   5    6.91    0.41
  -2   2  -5    0.78    0.12
  -2   2  -5    0.67    0.13
   2  -2   5    0.67    0.06
  -3   2  -5    2.47    0.43
  -3   2  -5    2.24    0.21
   3  -2   5    1.97    0.11
  -4   2  -5    2.91    0.50
  -4   2  -5    2.50    0.27
   4  -2   5    2.42    0.14
  -5   2  -5    1.11    0.27
  -5   2  -5    1.41    0.23
   5  -2   5    1.48    0.14
  -6   2  -5    0.13    0.16
   6  -2   5    0.10    0.09
   7  -2   5   -0.01    0.10
  -8   2  -5    0.08    0.14
   8  -2   5   -0.07    0.11
  11   1  -5    0.05    0.10
 -11  -1   5    0.11    0.56
  10   1  -5   -0.09    0.08
  10   1  -5   -1.29    0.79
 -10  -1   5   -0.07    0.11
 -10  -1   5   -0.06    0.57
   9   1  -5    1.09    0.68
   9   1  -5    0.93    0.12
  -9  -1   5    1.09    0.16
  -9  -1   5    1.09    0.25
   8   1  -5    0.19    0.08
   8   1  -5    0.40    0.57
   8   1  -5    0.25    0.12
  -8  -1   5    0.22    0.10
  -8  -1   5    0.29    0.15
   7   1  -5    0.25    0.10
   7   1  -5    0.42    0.08
  -7  -1   5    0.20    0.16
  -7  -1   5    0.38    0.10
  -7  -1   5    0.39    0.13
   6   1  -5    1.61    0.14
   6   1  -5    1.79    0.11
  -6  -1   5    2.00    0.19
  -6  -1   5    1.55    0.23
  -6  -1   5    1.87    0.14
   5   1  -5    0.58    0.06
   5   1  -5    0.67    0.08
  -5  -1   5    0.57    0.08
  -5  -1   5    0.64    0.27
  -5  -1   5    0.51    0.30
  -4  -1   5    0.43    0.07
  -4  -1   5    0.62    0.06
  -4  -1   5    0.43    0.11
  -4  -1   5    0.53    0.10
   3   1  -5    0.10    0.13
  -3  -1   5    0.15    0.07
  -3  -1   5    0.10    0.05
   2   1  -5    0.09    0.09
  -2  -1   5    0.19    0.05
  -2  -1   5    0.10    0.06
  -1  -1   5    9.91    0.42
   0   1  -5    1.57    0.11
   0  -1   5    1.28    0.11
  -1   1  -5    0.50    0.08
  -2   1  -5    0.80    0.12
   2  -1   5    0.75    0.07
  -3   1  -5   10.99    0.52
   3  -1   5   10.92    0.37
  -4   1  -5    0.81    0.17
   4  -1   5    0.98    0.10
  -5   1  -5    1.34    0.21
   5  -1   5    1.46    0.14
   6  -1   5    0.19    0.09
  -7   1  -5   -0.05    0.12
   7  -1   5   -0.10    0.10
  -8   1  -5    0.11    0.14
   8  -1   5    0.01    0.12
  11   0  -5    0.24    0.11
 -11   0   5   -0.38    0.19
  10   0  -5    0.07    0.09
 -10   0   5   -0.04    0.18
 -10   0   5    0.06    0.11
   9   0  -5    0.27    0.09
   9   0  -5   -0.50    0.64
  -9   0   5    0.23    0.17
  -9   0   5    0.19    0.12
   8   0  -5    0.17    0.08
   8   0  -5    0.20    0.49
   8   0  -5   -0.07    0.11
  -8   0   5    0.21    0.10
  -8   0   5    0.14    0.08
  -8   0   5    0.09    0.12
   7   0  -5   -0.08    0.09
   7   0  -5    0.07    0.06
  -7   0   5    0.07    0.10
  -7   0   5   -0.04    0.15
  -7   0   5   -0.01    0.07
   6   0  -5    1.27    0.09
   6   0  -5    1.15    0.11
  -6   0   5    1.38    0.17
  -6   0   5    1.25    0.12
  -6   0   5    1.08    0.20
   5   0  -5    2.40    0.10
   5   0  -5    2.50    0.15
   5   0  -5    2.26    0.13
  -5   0   5    2.42    0.26
  -5   0   5    2.38    0.19
  -5   0   5    2.38    0.13
   4   0  -5    0.35    0.05
  -4   0   5    0.47    0.06
  -4   0   5    0.31    0.14
  -4   0   5    0.51    0.10
   3   0  -5    1.49    0.19
  -3   0   5    1.75    0.09
  -3   0   5    1.86    0.17
  -3   0   5    1.89    0.17
  -2   0   5    0.07    0.04
  -1   0   5    5.53    0.25
  -1   0  -5    5.22    0.30
   1   0   5    5.31    0.19
  -2   0  -5    0.22    0.18
   2   0   5    0.43    0.06
  -3   0  -5    0.12    0.10
   3   0   5    0.05    0.06
  -4   0  -5    4.64    0.32
   4   0   5    4.92    0.22
   5   0   5    0.51    0.11
  -6   0  -5    0.14    0.11
   6   0   5   -0.09    0.08
  -7   0  -5    0.08    0.12
   7   0   5    0.08    0.12
  -8   0  -5    0.16    0.14
  11  -1  -5   -0.11    0.09
 -11   1   5    0.07    0.24
  10  -1  -5    0.12    0.09
 -10   1   5    0.13    0.12
 -10   1   5   -0.06    0.18
   9  -1  -5    0.14    0.08
  -9   1   5    0.10    0.11
  -9   1   5    0.02    0.09
  -9   1   5   -0.03    0.14
   8  -1  -5   -0.05    0.06
   8  -1  -5   -0.17    0.10
   8  -1  -5   -0.34    0.50
  -8   1   5   -0.02    0.09
  -8   1   5   -0.32    0.34
  -8   1   5   -0.01    0.12
  -8   1   5    0.01    0.08
   7  -1  -5    0.14    0.06
   7  -1  -5    0.00    0.09
  -7   1   5    0.12    0.11
  -7   1   5   -0.21    0.29
  -7   1   5    0.13    0.08
   6  -1  -5    4.83    0.18
   6  -1  -5    4.84    0.22
  -6   1   5    4.99    0.32
  -6   1   5    5.05    0.70
  -6   1   5    4.77    0.22
   5  -1  -5    0.70    0.07
   5  -1  -5    0.70    0.09
   5  -1  -5    0.55    0.08
  -5   1   5    0.73    0.08
  -5   1   5    0.80    0.13
  -5   1   5    0.63    0.22
   4  -1  -5    3.08    0.13
   4  -1  -5    2.69    0.32
  -4   1   5    3.14    0.20
  -4   1   5    3.12    0.14
  -4   1   5    2.94    0.31
  -3   1   5    0.01    0.04
  -3   1   5    0.00    0.05
  -2   1   5    8.75    0.37
  -2   1   5    8.69    0.28
  -1   1   5   29.69    0.86
   0   1   5    0.03    0.03
   1   1   5    0.67    0.07
   2   1   5    2.72    0.14
   3   1   5    0.44    0.08
  -4  -1  -5    0.24    0.09
   4   1   5    0.41    0.09
  -5  -1  -5    0.27    0.10
   5   1   5    0.08    0.09
  -6  -1  -5   -0.01    0.11
   6   1   5    0.21    0.11
  -7  -1  -5   -0.04    0.12
   7   1   5    0.01    0.12
  11  -2  -5    0.01    0.09
 -11   2   5   -0.38    0.20
  10  -2  -5    0.40    0.10
  10  -2  -5    1.40    0.82
 -10   2   5    0.72    0.25
   9  -2  -5    0.91    1.09
   9  -2  -5    0.33    0.09
  -9   2   5    0.56    0.15
  -9   2   5    0.53    0.20
   8  -2  -5    0.08    0.07
   8  -2  -5    0.07    0.54
  -8   2   5    0.08    0.14
  -8   2   5    0.02    0.09
  -8   2   5    0.18    0.08
   7  -2  -5    0.12    0.43
   7  -2  -5    0.12    0.10
   7  -2  -5    0.17    0.06
  -7   2   5   -0.01    0.17
  -7   2   5    0.31    0.14
  -7   2   5    0.18    0.09
   6  -2  -5    0.19    0.09
   6  -2  -5    0.20    0.05
  -6   2   5    0.20    0.08
  -6   2   5    0.27    0.12
  -6   2   5    0.04    0.15
   5  -2  -5    0.00    0.07
   5  -2  -5    0.02    0.04
  -5   2   5    0.00    0.05
  -5   2   5   -0.04    0.11
  -5   2   5    0.09    0.09
   4  -2  -5    0.27    0.04
   4  -2  -5    0.26    0.06
   4  -2  -5    0.24    0.06
  -4   2   5    0.34    0.06
  -4   2   5    0.25    0.09
   3  -2  -5    0.19    0.05
  -3   2   5    0.18    0.06
  -3   2   5    0.19    0.05
   2  -2  -5    0.62    0.06
   2  -2  -5    0.72    0.07
  -2   2   5    0.76    0.07
   1  -2  -5    3.66    0.14
   1  -2  -5    3.88    0.17
  -1   2   5    3.65    0.15
   0  -2  -5    2.77    0.12
   0   2   5    2.80    0.13
  -1  -2  -5    1.66    0.10
   1   2   5    1.83    0.12
  -2  -2  -5   17.97    0.52
   2   2   5   18.27    0.58
  -3  -2  -5    1.36    0.13
   3   2   5    1.40    0.14
  -4  -2  -5    0.13    0.09
   4   2   5    0.14    0.09
  -5  -2  -5    0.05    0.10
   5   2   5   -0.06    0.09
  -6  -2  -5    0.06    0.12
   6   2   5    0.12    0.12
  -7  -2  -5    0.05    0.12
  11  -3  -5    0.04    0.09
 -11   3   5   -0.06    0.13
 -11   3   5   -0.29    0.24
  10  -3  -5    0.23    0.09
 -10   3   5    0.29    0.13
 -10   3   5    0.08    0.23
   9  -3  -5    0.06    0.07
   9  -3  -5    0.26    0.68
  -9   3   5    0.13    0.11
  -9   3   5   -0.13    0.18
   8  -3  -5    0.20    0.08
  -8   3   5    0.17    0.10
  -8   3   5    0.23    0.16
  -8   3   5    0.39    0.12
   7  -3  -5    0.01    0.06
   7  -3  -5   -0.07    0.09
  -7   3   5   -0.09    0.08
  -7   3   5   -0.07    0.14
   6  -3  -5    0.15    0.06
   6  -3  -5    0.17    0.09
  -6   3   5    0.13    0.09
  -6   3   5    0.19    0.13
  -6   3   5   -0.12    0.16
   5  -3  -5    4.18    0.16
   5  -3  -5    3.92    0.18
  -5   3   5    3.94    0.27
  -5   3   5    3.90    0.20
   4  -3  -5    5.01    0.20
   4  -3  -5    4.95    0.18
  -4   3   5    4.98    0.21
  -4   3   5    5.25    0.29
   3  -3  -5    2.63    0.13
   3  -3  -5    2.23    0.14
   3  -3  -5    2.34    0.11
  -3   3   5    2.35    0.17
  -3   3   5    2.30    0.13
   2  -3  -5    0.00    0.05
   2  -3  -5    0.08    0.06
   2  -3  -5    0.04    0.04
  -2   3   5    0.03    0.04
   1  -3  -5    0.30    0.05
  -1   3   5    0.30    0.06
   0  -3  -5    1.92    0.11
   0   3   5    2.21    0.13
  -1  -3  -5    2.09    0.13
   1   3   5    2.04    0.15
  -2  -3  -5    0.54    0.09
   2   3   5    0.55    0.10
  -3  -3  -5    0.04    0.08
   3   3   5   -0.04    0.08
  -4  -3  -5    0.13    0.09
   4   3   5    0.16    0.10
  -5  -3  -5   -0.04    0.09
   5   3   5    0.08    0.11
  -6  -3  -5    0.15    0.12
   6   3   5    0.32    0.14
  11  -4  -5   -0.02    0.09
 -11   4   5   -0.52    0.25
 -11   4   5   -0.08    0.14
  10  -4  -5    0.03    0.08
 -10   4   5   -0.31    0.21
 -10   4   5   -0.03    0.13
   9  -4  -5    0.45    0.09
  -9   4   5    0.51    0.23
  -9   4   5    0.54    0.13
   8  -4  -5    0.55    0.09
  -8   4   5    0.48    0.19
  -8   4   5    0.61    0.17
  -8   4   5    0.78    0.14
   7  -4  -5    0.22    0.07
   7  -4  -5    0.23    0.52
   7  -4  -5    0.17    0.11
  -7   4   5    0.10    0.16
  -7   4   5    0.30    0.11
  -7   4   5    0.04    0.08
   6  -4  -5    0.90    0.10
   6  -4  -5    0.88    0.12
  -6   4   5    1.04    0.13
  -6   4   5    0.84    0.19
   5  -4  -5    0.28    0.07
   5  -4  -5    0.48    0.10
  -5   4   5    0.28    0.14
  -5   4   5    0.44    0.10
   4  -4  -5    4.26    0.17
   4  -4  -5    4.62    0.26
  -4   4   5    4.42    0.21
  -4   4   5    4.41    0.28
   3  -4  -5    0.30    0.06
  -3   4   5    0.25    0.07
  -3   4   5    0.37    0.10
   2  -4  -5   11.74    0.36
  -2   4   5   12.08    0.41
   1  -4  -5    0.47    0.07
  -1   4   5    0.55    0.08
   0  -4  -5    0.05    0.06
   0   4   5    0.12    0.07
  -1  -4  -5    0.35    0.08
   1   4   5    0.22    0.08
  -2  -4  -5    1.40    0.13
   2   4   5    1.67    0.15
  -3  -4  -5    0.03    0.08
   3   4   5   -0.01    0.09
  -4  -4  -5   -0.07    0.09
   4   4   5    0.02    0.10
  -5  -4  -5    0.06    0.11
   5   4   5    0.02    0.12
  -6  -4  -5    0.04    0.11
  10  -5  -5    0.01    0.08
 -10   5   5   -0.08    0.20
 -10   5   5   -0.47    0.23
   9  -5  -5    0.09    0.08
  -9   5   5   -0.11    0.21
  -9   5   5   -0.01    0.12
   8  -5  -5   -0.04    0.07
  -8   5   5   -0.30    0.16
  -8   5   5    0.07    0.10
   7  -5  -5    0.42    0.08
  -7   5   5    0.15    0.18
  -7   5   5    0.40    0.12
  -7   5   5    0.38    0.10
   6  -5  -5    0.30    0.10
   6  -5  -5    0.02    0.07
  -6   5   5    0.02    0.09
  -6   5   5    0.01    0.08
  -6   5   5   -0.12    0.15
   5  -5  -5    1.19    0.11
  -5   5   5    1.51    0.15
  -5   5   5    1.35    0.14
  -5   5   5    1.22    0.20
   4  -5  -5    3.60    0.16
  -4   5   5    3.50    0.20
  -4   5   5    3.22    0.26
   3  -5  -5    0.54    0.08
  -3   5   5    0.62    0.10
   2  -5  -5    5.41    0.22
  -2   5   5    5.52    0.25
   1  -5  -5    2.12    0.13
  -1   5   5    2.06    0.16
   0  -5  -5    1.46    0.13
   0   5   5    1.27    0.13
  -1  -5  -5   -0.09    0.07
   1   5   5    0.00    0.08
  -2  -5  -5    0.06    0.08
   2   5   5    0.35    0.10
  -3  -5  -5    0.13    0.09
   3   5   5    0.05    0.11
  -4  -5  -5    0.19    0.10
   4   5   5    0.20    0.12
  -5  -5  -5   -0.15    0.10
  10  -6  -5    0.10    0.09
 -10   6   5    0.03    0.14
 -10   6   5   -0.49    0.24
   9  -6  -5    0.07    0.08
  -9   6   5    0.02    0.12
  -9   6   5   -0.39    0.19
   8  -6  -5    0.03    0.07
  -8   6   5    0.12    0.12
  -8   6   5   -0.23    0.19
   7  -6  -5    0.48    0.09
  -7   6   5    0.66    0.21
  -7   6   5    0.74    0.13
  -7   6   5    0.83    0.15
   6  -6  -5    0.94    0.11
  -6   6   5    0.48    0.19
  -6   6   5    0.73    0.11
  -6   6   5    0.92    0.14
   5  -6  -5    0.78    0.10
  -5   6   5    1.23    0.14
  -5   6   5    0.72    0.11
   4  -6  -5   -0.11    0.06
  -4   6   5   -0.06    0.08
  -4   6   5   -0.05    0.06
   3  -6  -5    0.27    0.08
  -3   6   5    0.32    0.10
   2  -6  -5    0.18    0.08
  -2   6   5    0.11    0.09
   1  -6  -5    0.10    0.07
  -1   6   5    0.17    0.09
   0  -6  -5    0.03    0.07
   0   6   5    0.03    0.08
  -1  -6  -5    0.11    0.08
   1   6   5    0.07    0.10
  -2  -6  -5   -0.03    0.08
   2   6   5    0.01    0.10
  -3  -6  -5    0.26    0.11
  -4  -6  -5    0.19    0.11
   9  -7  -5    0.00    0.08
  -9   7   5    0.01    0.14
  -9   7   5   -0.43    0.21
   8  -7  -5    0.13    0.08
  -8   7   5    0.09    0.12
  -8   7   5   -0.35    0.19
   7  -7  -5    0.03    0.07
  -7   7   5   -0.09    0.10
   6  -7  -5    0.13    0.08
  -6   7   5    0.00    0.09
   5  -7  -5    0.25    0.08
  -5   7   5    0.30    0.12
  -5   7   5    0.09    0.09
   4  -7  -5    0.01    0.07
  -4   7   5   -0.02    0.09
  -4   7   5    0.07    0.08
   3  -7  -5    0.09    0.07
  -3   7   5    0.00    0.09
   2  -7  -5    0.07    0.08
  -2   7   5    0.22    0.10
   1  -7  -5    0.29    0.09
  -1   7   5    0.24    0.11
   0  -7  -5   -0.03    0.08
   0   7   5    0.03    0.10
  -1  -7  -5    0.12    0.09
  -2  -7  -5    0.25    0.10
  -3  -7  -5    0.10    0.10
   9  -8  -5    0.11    0.09
  -9   8   5    0.30    0.16
   8  -8  -5    0.13    0.09
  -8   8   5    0.07    0.14
   7  -8  -5    0.08    0.08
  -7   8   5    0.15    0.13
   6  -8  -5    0.13    0.08
  -6   8   5   -0.14    0.11
   5  -8  -5    0.10    0.08
   4  -8  -5    0.28    0.09
  -4   8   5    0.20    0.10
   3  -8  -5    0.06    0.08
  -3   8   5    0.04    0.11
   2  -8  -5   -0.01    0.08
   1  -8  -5    0.09    0.09
   0  -8  -5    0.69    0.12
  -1  -8  -5    0.07    0.10
  -2  -8  -5   -0.10    0.09
   7  -9  -5   -0.01    0.09
  -7   9   5   -0.07    0.14
   6  -9  -5    0.06    0.08
   5  -9  -5    0.01    0.09
  -5   9   5   -0.06    0.12
   4  -9  -5    0.17    0.09
  -4   9   5    0.13    0.13
   3  -9  -5    0.02    0.09
   2  -9  -5    0.13    0.09
   1  -9  -5    0.16    0.09
   0  -9  -5    0.10    0.10
   5 -10  -5   -0.01    0.09
  -5  10   5    0.15    0.15
   4 -10  -5    0.20    0.10
  -4  10   5    0.30    0.16
   3 -10  -5    0.08    0.10
  -3  10   5    0.27    0.18
   2  12  -6    0.30    0.19
  -2 -12   6    0.07    0.13
   1  12  -6    0.86    0.23
  -1 -12   6    0.27    0.14
   0  12  -6    0.42    0.19
   0 -12   6   -0.07    0.15
  -1  12  -6    0.34    0.19
   1 -12   6   -0.13    0.13
  -2  12  -6    0.34    0.19
   2 -12   6   -0.02    0.14
  -3  12  -6    0.39    0.23
   3 -12   6    0.65    0.18
  -4  12  -6    0.40    0.27
   4 -12   6    0.15    0.15
  -4 -11   6    0.14    0.14
  -4 -11   6    0.02    0.17
   3  11  -6    0.30    0.19
  -3 -11   6    0.13    0.13
  -3 -11   6    0.32    0.20
   2  11  -6    0.27    0.17
  -2 -11   6    0.08    0.12
   1  11  -6    0.25    0.17
  -1 -11   6    0.15    0.11
   0  11  -6    0.23    0.18
   0 -11   6   -0.03    0.12
  -1  11  -6    0.25    0.17
   1 -11   6    0.09    0.12
  -2  11  -6    0.83    0.22
   2 -11   6    0.24    0.13
  -3  11  -6    0.72    0.24
   3 -11   6    0.22    0.14
  -4  11  -6    0.25    0.23
   4 -11   6    0.11    0.13
  -5  11  -6    0.41    0.35
   5 -11   6    0.06    0.14
   6 -11   6    0.05    0.16
   5  10  -6   -0.06    0.13
   5  10  -6    0.17    0.71
  -5 -10   6   -0.03    0.12
  -5 -10   6   -0.01    0.17
  -4 -10   6    0.25    0.13
  -4 -10   6    0.23    0.18
  -3 -10   6    0.23    0.12
  -3 -10   6    0.07    0.15
   2  10  -6    0.01    0.13
  -2 -10   6    0.11    0.11
  -2 -10   6    0.02    0.15
   1  10  -6    0.27    0.15
  -1 -10   6    0.44    0.12
   0  10  -6    0.92    0.21
   0 -10   6    0.81    0.13
  -1  10  -6    0.53    0.18
   1 -10   6    0.25    0.11
  -2  10  -6    0.36    0.17
   2 -10   6    0.23    0.11
  -3  10  -6    0.23    0.17
   3 -10   6    0.07    0.11
  -4  10  -6    0.23    0.21
   4 -10   6    0.00    0.11
  -5  10  -6    0.14    0.28
   5 -10   6   -0.03    0.12
  -6  10  -6    0.87    0.34
   6 -10   6    0.52    0.16
   7   9  -6   -0.28    0.11
   6   9  -6    0.04    0.59
   6   9  -6   -0.01    0.12
  -6  -9   6   -0.01    0.16
  -6  -9   6   -0.05    0.12
  -5  -9   6    0.24    0.17
  -5  -9   6    0.25    0.12
  -4  -9   6    0.63    0.19
  -4  -9   6    0.37    0.13
  -3  -9   6   -0.06    0.08
  -3  -9   6   -0.11    0.12
  -2  -9   6    0.20    0.13
  -2  -9   6    0.06    0.09
   1   9  -6    0.19    0.14
  -1  -9   6    0.16    0.10
  -1  -9   6    0.03    0.13
   0   9  -6    0.92    0.19
   0  -9   6    0.89    0.12
  -1   9  -6    0.51    0.17
   1  -9   6    0.25    0.10
  -2   9  -6    1.54    0.25
   2  -9   6    1.61    0.16
  -3   9  -6    0.05    0.15
   3  -9   6    0.26    0.10
  -4   9  -6    0.24    0.19
   4  -9   6    0.04    0.10
  -5   9  -6    0.12    0.30
   5  -9   6    0.10    0.12
  -6   9  -6    0.69    0.33
   6  -9   6    0.77    0.16
  -7   9  -6    0.18    0.37
   7  -9   6    0.08    0.14
   7   8  -6   -0.11    0.65
   7   8  -6   -0.06    0.11
  -7  -8   6    0.10    0.12
  -7  -8   6   -0.14    0.15
   6   8  -6    0.11    0.49
   6   8  -6   -0.02    0.10
  -6  -8   6   -0.05    0.11
  -6  -8   6    0.16    0.15
  -5  -8   6    0.14    0.10
  -5  -8   6    0.02    0.12
  -4  -8   6   -0.01    0.09
  -4  -8   6    0.04    0.11
   3   8  -6    0.02    0.11
  -3  -8   6    0.02    0.13
  -3  -8   6    0.06    0.08
  -3  -8   6    0.00    0.10
   2   8  -6    1.74    0.28
  -2  -8   6    1.17    0.20
  -2  -8   6    1.48    0.15
   1   8  -6    1.10    0.19
   1   8  -6    0.92    0.20
  -1  -8   6    1.17    0.19
  -1  -8   6    1.05    0.12
   0   8  -6    3.07    0.33
   0   8  -6    2.19    0.24
   0  -8   6    2.33    0.17
  -1   8  -6    4.98    0.36
   1  -8   6    4.02    0.21
  -2   8  -6    2.34    0.27
   2  -8   6    2.14    0.17
  -3   8  -6    0.09    0.14
   3  -8   6    0.07    0.09
  -4   8  -6    0.30    0.18
   4  -8   6    0.01    0.09
  -5   8  -6    0.16    0.48
   5  -8   6    0.16    0.10
  -6   8  -6    0.10    0.27
   6  -8   6    0.14    0.12
  -7   8  -6    0.17    0.36
   7  -8   6    0.06    0.14
   8   7  -6    0.00    0.11
  -8  -7   6    0.03    0.11
  -8  -7   6   -0.09    0.45
   7   7  -6   -0.08    0.10
   7   7  -6   -0.18    0.55
  -7  -7   6    0.02    0.11
  -7  -7   6    0.00    0.29
  -6  -7   6    0.08    0.13
  -6  -7   6   -0.02    0.09
  -5  -7   6    0.08    0.09
  -5  -7   6    0.09    0.11
  -4  -7   6    0.46    0.10
  -4  -7   6    0.46    0.14
  -4  -7   6    0.37    0.16
  -3  -7   6   -0.04    0.07
  -3  -7   6    0.08    0.12
  -3  -7   6    0.07    0.10
   2   7  -6    0.46    0.14
  -2  -7   6    0.59    0.14
  -2  -7   6    0.56    0.09
   1   7  -6   -0.09    0.11
  -1  -7   6    0.08    0.09
  -1  -7   6    0.11    0.06
   0   7  -6    4.62    0.33
   0   7  -6    5.46    0.41
   0  -7   6    4.88    0.21
  -1   7  -6   -0.03    0.09
  -1   7  -6    0.23    0.14
   1  -7   6   -0.04    0.06
  -2   7  -6    1.99    0.32
  -2   7  -6    1.03    0.20
   2  -7   6    1.13    0.12
  -3   7  -6    0.45    0.17
  -3   7  -6    1.17    0.27
   3  -7   6    0.66    0.11
  -4   7  -6    1.68    0.28
   4  -7   6    1.53    0.16
  -5   7  -6    1.25    0.28
   5  -7   6    1.14    0.15
  -6   7  -6    0.16    0.26
   6  -7   6   -0.06    0.10
  -7   7  -6   -0.34    0.29
   7  -7   6    0.00    0.12
  -8   7  -6   -0.70    0.35
   8  -7   6    0.28    0.15
   9   6  -6   -0.16    0.10
  -9  -6   6   -0.04    0.19
   8   6  -6   -0.05    0.10
   8   6  -6   -0.76    0.76
  -8  -6   6   -0.01    0.17
  -8  -6   6    0.20    0.11
   7   6  -6   -0.05    0.08
   7   6  -6   -0.09    0.48
  -7  -6   6   -0.02    0.10
  -7  -6   6   -0.01    0.13
  -6  -6   6   -0.10    0.09
  -6  -6   6   -0.05    0.11
  -5  -6   6    0.04    0.13
  -5  -6   6    0.05    0.08
  -5  -6   6   -0.02    0.21
  -4  -6   6    0.72    0.15
  -4  -6   6    0.74    0.22
  -4  -6   6    0.52    0.10
  -3  -6   6    0.51    0.15
  -3  -6   6    0.46    0.09
  -3  -6   6    0.39    0.11
  -2  -6   6    0.16    0.06
  -2  -6   6    0.16    0.12
  -2  -6   6    0.08    0.08
   1   6  -6    0.66    0.14
  -1  -6   6    0.57    0.07
  -1  -6   6    0.61    0.12
   0   6  -6    0.66    0.13
   0   6  -6    0.66    0.15
   0  -6   6    0.67    0.15
  -1   6  -6    0.09    0.10
  -1   6  -6   -0.02    0.07
  -2   6  -6    0.10    0.12
  -2   6  -6    0.20    0.15
   2  -6   6    0.14    0.06
  -3   6  -6    3.33    0.31
   3  -6   6    2.99    0.17
  -4   6  -6    0.83    0.21
   4  -6   6    0.87    0.12
  -5   6  -6    0.17    0.18
   5  -6   6    0.01    0.08
  -6   6  -6    0.10    0.22
   6  -6   6    0.06    0.09
  -7   6  -6    0.30    0.57
   7  -6   6    0.07    0.11
  -8   6  -6   -0.58    0.31
   8  -6   6    0.16    0.14
   9   5  -6   -0.89    0.84
   9   5  -6    0.15    0.11
  -9  -5   6   -0.09    0.17
  -9  -5   6   -0.11    0.14
   8   5  -6    0.18    0.09
   8   5  -6   -0.41    0.68
  -8  -5   6    0.03    0.09
  -8  -5   6   -0.03    0.14
  -8  -5   6    0.14    0.13
   7   5  -6    0.21    0.09
  -7  -5   6    0.14    0.09
  -7  -5   6    0.16    0.14
  -6  -5   6   -0.08    0.12
  -6  -5   6   -0.01    0.10
  -6  -5   6   -0.02    0.08
  -5  -5   6    1.15    0.19
  -5  -5   6    1.13    0.21
  -5  -5   6    1.15    0.13
  -4  -5   6    2.28    0.16
  -4  -5   6    2.95    0.31
  -4  -5   6    2.97    0.66
  -3  -5   6    6.56    0.25
  -3  -5   6    6.65    0.50
  -3  -5   6    6.04    0.36
  -2  -5   6    0.03    0.08
  -2  -5   6    0.08    0.07
   1   5  -6   10.87    0.62
  -1  -5   6   10.14    0.51
   0   5  -6    1.21    0.15
   0   5  -6    1.21    0.19
   0  -5   6    1.15    0.15
  -1   5  -6    0.09    0.08
  -1   5  -6    0.17    0.11
  -2   5  -6    0.70    0.15
  -2   5  -6    0.75    0.19
   2  -5   6    0.71    0.07
  -3   5  -6    0.51    0.17
  -3   5  -6    0.23    0.13
   3  -5   6    0.14    0.06
  -4   5  -6    0.86    0.21
   4  -5   6    0.82    0.11
  -5   5  -6    0.24    0.18
   5  -5   6    0.13    0.08
  -6   5  -6    0.05    0.20
   6  -5   6    0.12    0.09
  -7   5  -6   -0.23    0.22
   7  -5   6    0.15    0.12
  -8   5  -6   -0.17    0.27
   8  -5   6    0.21    0.14
  10   4  -6   -0.11    0.10
 -10  -4   6   -0.25    0.18
   9   4  -6   -0.04    0.09
   9   4  -6   -1.13    0.78
  -9  -4   6    0.00    0.15
  -9  -4   6   -0.02    0.13
   8   4  -6   -0.05    0.63
   8   4  -6   -0.03    0.08
  -8  -4   6    0.04    0.14
  -8  -4   6    0.18    0.12
   7   4  -6    0.01    0.07
  -7  -4   6    0.09    0.09
  -7  -4   6   -0.02    0.10
  -6  -4   6    1.39    0.15
  -6  -4   6    0.99    0.24
  -6  -4   6    1.03    0.17
  -5  -4   6   28.04    1.21
  -5  -4   6   28.24    0.88
  -5  -4   6   29.10    1.55
  -4  -4   6    2.72    0.14
  -4  -4   6    2.63    0.29
  -4  -4   6    2.35    0.22
  -3  -4   6    4.32    0.34
  -3  -4   6    4.44    0.43
  -2  -4   6    3.32    0.28
  -2  -4   6    3.27    0.22
   1   4  -6    6.57    0.41
  -1  -4   6    6.50    0.35
   0   4  -6    3.29    0.27
   0   4  -6    3.45    0.23
   0  -4   6    3.42    0.23
  -1   4  -6    1.45    0.16
  -1   4  -6    1.76    0.22
  -2   4  -6    0.07    0.09
  -2   4  -6    0.22    0.14
  -3   4  -6   -0.02    0.10
  -3   4  -6    0.37    0.15
   3  -4   6   -0.06    0.04
  -4   4  -6    3.15    0.30
  -4   4  -6    4.42    0.55
   4  -4   6    3.13    0.17
  -5   4  -6    0.34    0.22
  -5   4  -6    0.04    0.16
   5  -4   6    0.13    0.08
  -6   4  -6   -0.32    0.31
   6  -4   6    0.01    0.08
  -7   4  -6   -0.14    0.21
   7  -4   6    0.01    0.11
   8  -4   6   -0.06    0.12
  10   3  -6    0.06    0.11
  10   3  -6   -0.88    0.82
 -10  -3   6    0.05    0.19
   9   3  -6   -0.59    0.76
   9   3  -6    0.20    0.10
  -9  -3   6    0.00    0.12
  -9  -3   6   -0.05    0.15
   8   3  -6    0.08    0.08
   8   3  -6    0.02    0.59
  -8  -3   6    0.13    0.15
  -8  -3   6    0.17    0.11
   7   3  -6    0.20    0.07
  -7  -3   6    0.08    0.11
  -7  -3   6    0.07    0.09
  -7  -3   6    0.18    0.08
  -7  -3   6   -0.04    0.13
  -6  -3   6    2.06    0.23
  -6  -3   6    2.31    0.16
  -6  -3   6    2.22    0.33
   5   3  -6    2.14    0.16
  -5  -3   6    2.41    0.21
  -5  -3   6    2.40    0.29
  -5  -3   6    2.40    0.15
  -4  -3   6    0.06    0.05
  -4  -3   6   -0.01    0.08
  -4  -3   6    0.05    0.07
  -3  -3   6    1.54    0.15
  -3  -3   6    1.74    0.20
  -2  -3   6    0.03    0.07
  -2  -3   6   -0.01    0.04
   1   3  -6   11.35    0.62
  -1  -3   6   11.65    0.52
   0   3  -6    0.23    0.07
   0   3  -6    0.18    0.08
   0  -3   6    0.31    0.08
  -1   3  -6   20.56    1.06
  -1   3  -6   20.30    0.87
  -2   3  -6    3.35    0.25
  -2   3  -6    4.14    0.34
  -3   3  -6    0.37    0.15
  -3   3  -6    0.03    0.11
   3  -3   6    0.25    0.06
  -4   3  -6    0.31    0.15
  -4   3  -6    0.22    0.16
   4  -3   6    0.10    0.07
  -5   3  -6   -0.26    0.49
  -5   3  -6    0.06    0.30
   5  -3   6    0.02    0.07
  -6   3  -6   -0.05    0.18
   6  -3   6    0.32    0.10
   7  -3   6    0.05    0.10
   8  -3   6    0.11    0.13
  10   2  -6   -0.75    0.78
  10   2  -6    0.01    0.10
 -10  -2   6    0.05    0.18
   9   2  -6    0.16    0.09
   9   2  -6   -0.25    0.74
  -9  -2   6    0.05    0.12
  -9  -2   6    0.22    0.16
   8   2  -6    0.42    0.09
   8   2  -6    0.34    0.59
  -8  -2   6    0.32    0.12
  -8  -2   6    0.39    0.15
   7   2  -6   -0.08    0.06
  -7  -2   6   -0.07    0.13
  -7  -2   6    0.08    0.08
  -7  -2   6    0.07    0.10
   6   2  -6    2.02    0.15
  -6  -2   6    1.94    0.15
  -6  -2   6    1.77    0.29
  -6  -2   6    1.95    0.21
   5   2  -6    0.35    0.06
  -5  -2   6    0.50    0.08
  -5  -2   6    0.47    0.13
  -5  -2   6    0.42    0.11
  -4  -2   6    0.42    0.09
  -4  -2   6    0.37    0.11
  -4  -2   6    0.40    0.06
  -3  -2   6    1.14    0.12
  -3  -2   6    1.12    0.16
   2   2  -6    4.75    0.31
  -2  -2   6    4.69    0.25
  -2  -2   6    4.89    0.35
   1   2  -6    0.21    0.08
   1   2  -6    0.24    0.07
  -1  -2   6    0.30    0.07
   0   2  -6    2.90    0.22
   0   2  -6    2.90    0.22
   0   2  -6    3.12    0.19
   0  -2   6    2.87    0.19
  -1   2  -6    0.37    0.11
  -1   2  -6    0.35    0.08
  -2   2  -6    0.09    0.08
   2  -2   6    0.10    0.04
  -3   2  -6    4.09    0.29
  -3   2  -6    4.56    0.46
   3  -2   6    4.12    0.18
  -4   2  -6    0.51    0.47
  -4   2  -6    0.78    0.22
   4  -2   6    0.57    0.09
  -5   2  -6    0.10    0.23
  -5   2  -6    0.47    0.19
   5  -2   6    0.75    0.11
   6  -2   6   -0.07    0.08
   7  -2   6    0.07    0.11
   8  -2   6   -0.09    0.12
  11   1  -6   -0.07    0.10
 -11  -1   6   -0.05    0.23
  10   1  -6   -0.06    0.09
 -10  -1   6   -0.22    0.39
   9   1  -6    0.20    0.09
   9   1  -6   -0.42    0.67
  -9  -1   6    0.15    0.12
  -9  -1   6    0.10    0.46
   8   1  -6    0.38    0.12
   8   1  -6    0.45    0.09
  -8  -1   6    0.59    0.12
  -8  -1   6    0.53    0.45
   7   1  -6    0.22    0.10
   7   1  -6    0.17    0.06
  -7  -1   6   -0.09    0.22
  -7  -1   6    0.20    0.33
  -7  -1   6    0.19    0.09
   6   1  -6   -0.05    0.07
  -6  -1   6   -0.04    0.06
  -6  -1   6   -0.04    0.20
  -6  -1   6   -0.01    0.19
   5   1  -6    0.19    0.06
  -5  -1   6    0.11    0.09
  -5  -1   6    0.21    0.06
  -5  -1   6    0.19    0.08
  -4  -1   6    0.03    0.06
  -4  -1   6   -0.02    0.07
  -4  -1   6   -0.02    0.04
   3   1  -6    2.11    0.37
  -3  -1   6    2.25    0.22
  -3  -1   6    2.33    0.16
  -2  -1   6    0.02    0.08
  -1  -1   6    0.03    0.04
  -1   1  -6    5.11    0.26
  -2   1  -6    6.58    0.33
   2  -1   6    6.17    0.23
  -3   1  -6    2.05    0.28
   3  -1   6    2.05    0.13
   4  -1   6    1.10    0.12
   5  -1   6    0.01    0.08
   6  -1   6    0.05    0.09
   7  -1   6    0.06    0.11
  11   0  -6   -0.02    0.09
 -11   0   6   -0.14    0.52
  10   0  -6    0.07    0.09
 -10   0   6   -0.09    0.17
   9   0  -6   -0.03    0.07
  -9   0   6   -0.06    0.11
  -9   0   6   -0.04    0.14
   8   0  -6    0.02    0.11
   8   0  -6   -0.13    0.51
   8   0  -6    0.33    0.08
  -8   0   6    0.23    0.14
  -8   0   6    0.44    0.11
   7   0  -6   -0.02    0.09
   7   0  -6    0.13    0.06
  -7   0   6    0.03    0.08
  -7   0   6    0.10    0.10
  -7   0   6    0.04    0.14
   6   0  -6    0.00    0.08
   6   0  -6    0.09    0.05
  -6   0   6    0.04    0.07
  -6   0   6    0.14    0.09
  -6   0   6    0.01    0.11
   5   0  -6    0.07    0.06
  -5   0   6    0.11    0.05
  -5   0   6   -0.09    0.14
  -5   0   6   -0.04    0.07
  -4   0   6    4.16    0.30
  -4   0   6    3.78    0.29
  -4   0   6    3.88    0.16
  -3   0   6   28.47    1.14
  -2   0   6   12.64    0.53
  -1   0   6   13.02    0.53
   1   0   6    3.47    0.15
  -2   0  -6    3.17    0.30
   2   0   6    3.04    0.15
   3   0   6    2.94    0.16
   4   0   6    0.60    0.10
   5   0   6    0.17    0.09
   6   0   6    0.02    0.10
   7   0   6   -0.06    0.12
  11  -1  -6    0.02    0.09
 -11   1   6   -0.05    0.22
  10  -1  -6   -0.91    0.83
  10  -1  -6   -0.08    0.08
 -10   1   6   -0.05    0.19
   9  -1  -6    0.03    0.07
  -9   1   6   -0.04    0.14
  -9   1   6   -0.02    0.11
   8  -1  -6   -0.78    0.49
   8  -1  -6   -0.21    0.10
   8  -1  -6   -0.05    0.06
  -8   1   6   -0.08    0.08
  -8   1   6   -0.31    0.19
  -8   1   6   -0.03    0.11
   7  -1  -6    0.19    0.10
   7  -1  -6    0.46    0.07
  -7   1   6    0.49    0.10
  -7   1   6    0.58    0.14
  -7   1   6    0.35    0.18
   6  -1  -6    2.28    0.16
   6  -1  -6    2.40    0.12
  -6   1   6    2.68    0.16
  -6   1   6    2.74    0.22
  -6   1   6    2.53    0.33
   5  -1  -6   -0.02    0.06
  -5   1   6    0.03    0.05
  -5   1   6   -0.01    0.07
  -5   1   6   -0.10    0.09
  -4   1   6    1.17    0.10
  -4   1   6    1.18    0.13
  -3   1   6    0.22    0.05
  -3   1   6    0.23    0.06
  -2   1   6    2.55    0.14
  -2   1   6    2.56    0.11
  -1   1   6    1.26    0.08
   0   1   6   13.77    0.43
   1   1   6    4.15    0.18
   2   1   6    7.90    0.29
   3   1   6   10.15    0.37
   4   1   6    0.04    0.08
   5   1   6    0.08    0.09
   6   1   6   -0.01    0.11
  -7  -1  -6   -0.08    0.12
   7   1   6   -0.11    0.12
  11  -2  -6   -0.02    0.08
 -11   2   6   -0.14    0.22
  10  -2  -6   -0.01    0.08
  10  -2  -6   -0.32    1.05
 -10   2   6    0.14    0.19
   9  -2  -6    0.11    0.08
  -9   2   6    0.05    0.12
  -9   2   6   -0.08    0.14
   8  -2  -6   -0.24    0.10
   8  -2  -6   -0.76    0.55
   8  -2  -6   -0.02    0.06
  -8   2   6   -0.02    0.10
  -8   2   6   -0.54    0.27
  -8   2   6    0.02    0.13
   7  -2  -6    0.66    0.12
   7  -2  -6    0.94    0.10
  -7   2   6    0.80    0.17
  -7   2   6    0.98    0.13
  -7   2   6    0.48    0.40
   6  -2  -6   -0.06    0.09
   6  -2  -6    0.10    0.06
  -6   2   6    0.09    0.11
  -6   2   6    0.06    0.08
  -6   2   6   -0.07    0.21
   5  -2  -6    0.45    0.06
   5  -2  -6    0.35    0.08
  -5   2   6    0.43    0.08
  -5   2   6    0.49    0.12
   4  -2  -6    0.45    0.07
  -4   2   6    0.55    0.08
  -4   2   6    0.58    0.10
   3  -2  -6    2.67    0.13
  -3   2   6    2.80    0.14
  -3   2   6    2.67    0.36
  -2   2   6    3.60    0.15
   1  -2  -6    0.44    0.07
  -1   2   6    0.37    0.06
   0   2   6   -0.02    0.05
   1   2   6    9.11    0.33
   2   2   6    2.82    0.17
   3   2   6    0.01    0.07
   4   2   6    0.77    0.12
   5   2   6    0.04    0.11
  -6  -2  -6   -0.04    0.12
   6   2   6   -0.14    0.11
  11  -3  -6   -0.11    0.09
 -11   3   6   -0.38    0.21
  10  -3  -6    0.02    0.09
  10  -3  -6    0.30    0.84
 -10   3   6    0.00    0.19
   9  -3  -6    0.15    0.08
  -9   3   6    0.17    0.18
  -9   3   6    0.08    0.13
   8  -3  -6    0.15    0.08
  -8   3   6    0.28    0.12
  -8   3   6    0.13    0.16
   7  -3  -6    0.27    0.10
   7  -3  -6    0.18    0.78
   7  -3  -6    0.33    0.08
  -7   3   6    0.34    0.11
  -7   3   6    0.45    0.16
   6  -3  -6    3.01    0.19
   6  -3  -6    3.07    0.15
  -6   3   6    3.28    0.20
  -6   3   6    2.57    0.43
  -6   3   6    3.32    0.28
   5  -3  -6    1.73    0.11
   5  -3  -6    1.45    0.14
  -5   3   6    1.69    0.14
  -5   3   6    1.77    0.20
   4  -3  -6    0.14    0.05
   4  -3  -6    0.09    0.08
  -4   3   6    0.23    0.09
  -4   3   6    0.04    0.06
   3  -3  -6    6.64    0.23
  -3   3   6    6.27    0.30
  -3   3   6    6.43    0.25
  -2   3   6    2.62    0.14
  -1   3   6    0.08    0.06
   0   3   6   -0.08    0.05
   1   3   6    0.05    0.07
   2   3   6    0.58    0.10
   3   3   6    0.36    0.10
  -4  -3  -6    0.15    0.10
   4   3   6    0.17    0.10
  -5  -3  -6    0.15    0.11
   5   3   6    0.19    0.12
  -6  -3  -6   -0.13    0.11
   6   3   6    0.06    0.14
  11  -4  -6    0.13    0.10
 -11   4   6   -0.43    0.23
  10  -4  -6   -0.01    0.08
   9  -4  -6    2.11    0.76
  -9   4   6   -0.10    0.18
  -9   4   6    0.09    0.13
   8  -4  -6    0.62    0.65
   8  -4  -6    0.30    0.08
  -8   4   6    0.18    0.12
  -8   4   6    0.06    0.17
   7  -4  -6    2.60    0.15
   7  -4  -6    2.77    0.20
  -7   4   6    3.22    0.21
  -7   4   6    2.97    0.30
   6  -4  -6    2.73    0.19
   6  -4  -6    2.40    0.14
  -6   4   6    2.58    0.27
  -6   4   6    2.68    0.19
   5  -4  -6    3.42    0.16
   5  -4  -6    3.68    0.19
  -5   4   6    3.56    0.21
  -5   4   6    3.32    0.27
   4  -4  -6    0.21    0.07
   4  -4  -6    0.53    0.17
  -4   4   6    0.28    0.09
   3  -4  -6    0.60    0.08
  -3   4   6    0.67    0.10
   2  -4  -6    1.26    0.10
  -2   4   6    1.35    0.12
   1  -4  -6    0.05    0.06
  -1   4   6    0.11    0.06
   0  -4  -6    0.25    0.08
   0   4   6    0.23    0.08
  -1  -4  -6    1.46    0.13
   1   4   6    1.44    0.15
  -2  -4  -6   -0.02    0.08
   2   4   6    0.08    0.08
  -3  -4  -6    0.14    0.10
   3   4   6    0.27    0.11
  -4  -4  -6    0.10    0.11
   4   4   6   -0.05    0.10
  -5  -4  -6    0.12    0.12
   5   4   6   -0.13    0.12
  10  -5  -6   -0.02    0.09
 -10   5   6   -0.23    0.23
   9  -5  -6    0.05    0.08
  -9   5   6   -0.09    0.20
   8  -5  -6    0.04    0.07
  -8   5   6   -0.14    0.17
  -8   5   6    0.08    0.12
   7  -5  -6    0.08    0.07
  -7   5   6   -0.26    0.15
  -7   5   6    0.00    0.11
   6  -5  -6    0.56    0.11
   6  -5  -6    0.21    0.07
  -6   5   6    0.00    0.15
  -6   5   6    0.18    0.10
   5  -5  -6    0.22    0.07
  -5   5   6    0.43    0.11
   4  -5  -6   -0.02    0.07
  -4   5   6   -0.04    0.08
   3  -5  -6    8.78    0.30
  -3   5   6    8.94    0.35
   2  -5  -6    0.22    0.08
  -2   5   6    0.25    0.09
   1  -5  -6    0.20    0.07
  -1   5   6    0.09    0.08
   0  -5  -6    0.14    0.08
   0   5   6    0.19    0.09
  -1  -5  -6    0.14    0.08
   1   5   6    0.12    0.10
  -2  -5  -6    0.04    0.09
   2   5   6    0.03    0.09
  -3  -5  -6    0.06    0.10
   3   5   6    0.17    0.12
  -4  -5  -6    0.14    0.11
   4   5   6    0.06    0.13
  10  -6  -6    0.05    0.09
 -10   6   6   -0.54    0.22
   9  -6  -6    0.09    0.08
   8  -6  -6    0.12    0.08
  -8   6   6   -0.34    0.18
   7  -6  -6   -0.04    0.07
  -7   6   6   -0.03    0.11
   6  -6  -6    0.01    0.07
  -6   6   6    0.08    0.10
   5  -6  -6    0.22    0.08
  -5   6   6    0.33    0.11
   4  -6  -6    0.02    0.07
  -4   6   6    0.02    0.08
   3  -6  -6    0.09    0.07
  -3   6   6    0.25    0.09
   2  -6  -6    0.02    0.07
  -2   6   6   -0.02    0.08
   1  -6  -6    0.01    0.07
  -1   6   6   -0.02    0.08
   0  -6  -6    0.10    0.08
   0   6   6    0.12    0.10
  -1  -6  -6    0.26    0.09
   1   6   6    0.30    0.12
  -2  -6  -6    0.02    0.10
   2   6   6   -0.05    0.11
  -3  -6  -6    0.50    0.13
   9  -7  -6    0.06    0.09
   8  -7  -6   -0.02    0.08
   7  -7  -6   -0.09    0.07
   6  -7  -6    0.06    0.08
  -6   7   6   -0.04    0.11
   5  -7  -6   -0.01    0.07
  -5   7   6    0.04    0.10
   4  -7  -6    0.35    0.09
  -4   7   6    0.32    0.12
   3  -7  -6    0.13    0.08
  -3   7   6    0.26    0.12
   2  -7  -6    0.09    0.09
  -2   7   6    0.14    0.10
   1  -7  -6    0.19    0.09
  -1   7   6    0.17    0.11
   0  -7  -6    0.20    0.10
   0   7   6    0.23    0.12
  -1  -7  -6   -0.10    0.09
   1   7   6    0.06    0.13
  -2  -7  -6    0.11    0.11
   8  -8  -6    0.14    0.09
   7  -8  -6    0.04    0.08
   6  -8  -6    0.07    0.09
   5  -8  -6    0.96    0.12
   4  -8  -6    0.25    0.10
   3  -8  -6    0.29    0.10
   2  -8  -6    0.14    0.10
   1  -8  -6   -0.02    0.10
   0  -8  -6    0.22    0.11
  -1  -8  -6   -0.06    0.10
   7  -9  -6    0.09    0.09
   6  -9  -6   -0.10    0.09
   5  -9  -6    0.09    0.09
   4  -9  -6    0.03    0.09
   3  -9  -6    0.13    0.09
   2  -9  -6    0.48    0.12
   1  -9  -6    0.49    0.13
   2  12  -7    0.40    0.20
  -2 -12   7    0.38    0.15
   1  12  -7    0.33    0.19
  -1 -12   7   -0.01    0.12
   0  12  -7    0.26    0.19
   0 -12   7    0.19    0.14
  -1  12  -7    0.31    0.20
   1 -12   7    0.04    0.13
  -2  12  -7    0.62    0.22
   2 -12   7    0.06    0.13
  -3  12  -7    0.57    0.24
   3 -12   7   -0.18    0.13
  -4  12  -7    0.71    0.27
   4 -12   7    0.02    0.14
  -4 -11   7   -0.04    0.19
  -4 -11   7    0.22    0.13
   3  11  -7    0.09    0.18
  -3 -11   7    0.28    0.19
  -3 -11   7    0.11    0.13
   2  11  -7    0.49    0.20
  -2 -11   7    0.13    0.12
   1  11  -7    0.45    0.19
  -1 -11   7    0.21    0.13
   0  11  -7    0.12    0.17
   0 -11   7   -0.08    0.11
  -1  11  -7    0.22    0.17
   1 -11   7   -0.08    0.10
  -2  11  -7    0.29    0.18
   2 -11   7    0.02    0.11
  -3  11  -7    0.52    0.23
   3 -11   7    0.16    0.13
  -4  11  -7    0.63    0.27
   4 -11   7    0.17    0.14
  -5  11  -7    0.61    0.34
   5 -11   7    0.13    0.15
  -6 -10   7    0.15    0.21
  -5 -10   7    0.17    0.13
  -5 -10   7    0.05    0.18
  -4 -10   7   -0.07    0.18
  -4 -10   7   -0.02    0.11
  -3 -10   7    0.11    0.11
  -3 -10   7    0.12    0.16
   2  10  -7   -0.21    0.13
  -2 -10   7    0.02    0.10
  -2 -10   7    0.04    0.15
   1  10  -7    0.45    0.17
  -1 -10   7    0.41    0.12
   0  10  -7    1.08    0.21
   0 -10   7    0.66    0.13
  -1  10  -7    0.40    0.18
   1 -10   7    0.04    0.10
  -2  10  -7    0.21    0.16
   2 -10   7    0.11    0.10
  -3  10  -7    0.23    0.18
   3 -10   7    0.02    0.10
  -4  10  -7    0.70    0.25
   4 -10   7    0.52    0.14
  -5  10  -7    0.20    0.30
   5 -10   7   -0.12    0.12
  -6  10  -7    0.32    0.32
   6 -10   7   -0.10    0.14
  -7  -9   7    0.00    0.14
  -7  -9   7    0.07    0.20
  -6  -9   7    0.04    0.18
  -6  -9   7    0.12    0.13
  -5  -9   7    0.04    0.11
  -5  -9   7   -0.08    0.15
  -4  -9   7    0.08    0.14
  -4  -9   7   -0.04    0.10
  -3  -9   7    0.01    0.09
  -3  -9   7   -0.10    0.13
  -2  -9   7    0.15    0.10
  -2  -9   7    0.08    0.13
   1   9  -7    0.40    0.16
  -1  -9   7    0.47    0.18
  -1  -9   7    0.56    0.10
   0   9  -7    0.03    0.12
   0  -9   7   -0.12    0.08
  -1   9  -7    0.19    0.14
   1  -9   7    0.16    0.10
  -2   9  -7    0.30    0.16
   2  -9   7   -0.02    0.09
  -3   9  -7    0.28    0.17
   3  -9   7    0.06    0.10
  -4   9  -7    0.17    0.21
   4  -9   7    0.10    0.11
  -5   9  -7    0.55    0.40
  -6   9  -7    0.81    0.35
   6  -9   7    0.32    0.14
   8   8  -7   -0.07    0.12
  -7  -8   7   -0.03    0.18
  -7  -8   7   -0.02    0.12
  -6  -8   7   -0.03    0.11
  -6  -8   7    0.02    0.14
  -5  -8   7    0.21    0.11
  -5  -8   7    0.26    0.15
  -4  -8   7   -0.07    0.09
  -4  -8   7   -0.01    0.12
  -3  -8   7    0.09    0.12
  -3  -8   7    0.02    0.08
   2   8  -7    1.60    0.28
  -2  -8   7    1.15    0.20
  -2  -8   7    0.98    0.12
   1   8  -7    0.09    0.12
   1   8  -7    0.15    0.14
  -1  -8   7    0.19    0.08
  -1  -8   7    0.30    0.14
   0   8  -7    1.20    0.20
   0   8  -7    2.00    0.30
   0  -8   7    1.22    0.13
  -1   8  -7    1.67    0.24
   1  -8   7    1.42    0.14
  -2   8  -7    1.20    0.22
   2  -8   7    1.15    0.13
  -3   8  -7    1.58    0.26
   3  -8   7    1.53    0.16
  -4   8  -7    0.22    0.18
   4  -8   7    0.00    0.10
  -5   8  -7    0.30    0.43
   5  -8   7   -0.07    0.09
  -6   8  -7    0.45    0.30
   6  -8   7    0.20    0.13
  -7   8  -7   -0.50    0.35
   7  -8   7   -0.03    0.13
   8   7  -7   -0.59    0.73
  -8  -7   7   -0.01    0.12
  -8  -7   7    0.15    0.46
  -7  -7   7    0.11    0.12
  -7  -7   7    0.00    0.20
  -6  -7   7   -0.05    0.12
  -6  -7   7    0.14    0.10
  -5  -7   7   -0.05    0.08
  -5  -7   7    0.12    0.12
  -4  -7   7    0.09    0.09
  -4  -7   7    0.12    0.11
  -4  -7   7    0.09    0.14
  -3  -7   7   -0.07    0.09
  -3  -7   7   -0.02    0.12
   2   7  -7    0.43    0.15
  -2  -7   7    0.42    0.13
  -2  -7   7    0.40    0.08
   1   7  -7    0.27    0.14
  -1  -7   7    0.33    0.07
  -1  -7   7    0.40    0.13
   0   7  -7    0.89    0.18
   0   7  -7    0.98    0.17
   0  -7   7    0.85    0.09
  -1   7  -7    1.99    0.24
   1  -7   7    1.88    0.13
  -2   7  -7    5.65    0.47
  -2   7  -7    4.21    0.35
   2  -7   7    4.15    0.21
  -3   7  -7    0.13    0.15
   3  -7   7    0.15    0.09
  -4   7  -7    0.64    0.20
   4  -7   7    0.34    0.11
  -5   7  -7    0.32    0.20
   5  -7   7   -0.06    0.09
  -6   7  -7    0.39    0.27
   6  -7   7    0.06    0.12
  -7   7  -7    0.08    0.38
   7  -7   7    0.37    0.15
   9   6  -7    0.10    0.12
  -9  -6   7   -0.03    0.20
  -9  -6   7   -0.19    0.14
  -9  -6   7   -0.04    0.12
  -8  -6   7    0.08    0.11
  -8  -6   7    0.12    0.19
  -7  -6   7    0.01    0.10
  -7  -6   7    0.11    0.15
  -6  -6   7    0.88    0.47
  -6  -6   7    0.92    0.14
  -5  -6   7    0.08    0.10
  -5  -6   7   -0.07    0.08
  -5  -6   7   -0.02    0.12
  -4  -6   7    0.11    0.09
  -4  -6   7    0.02    0.11
  -4  -6   7   -0.19    0.06
  -3  -6   7    1.02    0.11
  -3  -6   7    1.11    0.17
  -3  -6   7    0.84    0.19
   2   6  -7    2.17    0.26
  -2  -6   7    1.84    0.19
  -2  -6   7    1.58    0.28
   1   6  -7    0.03    0.10
  -1  -6   7    0.10    0.07
   0   6  -7    0.14    0.10
   0   6  -7    0.23    0.11
  -1   6  -7    1.73    0.28
  -1   6  -7    1.09    0.18
  -2   6  -7   -0.04    0.11
  -2   6  -7    0.31    0.15
   2  -6   7    0.07    0.06
  -3   6  -7    2.87    0.30
   3  -6   7    2.83    0.16
  -4   6  -7    0.17    0.16
   4  -6   7   -0.14    0.07
  -5   6  -7    0.45    0.20
   5  -6   7    0.15    0.09
  -6   6  -7    0.12    0.23
   6  -6   7    0.02    0.10
  -7   6  -7   -0.02    0.67
   7  -6   7    0.10    0.12
   9   5  -7   -0.59    0.84
   9   5  -7   -0.05    0.10
  -9  -5   7   -0.07    0.14
  -9  -5   7   -0.10    0.17
   8   5  -7   -0.28    0.58
  -8  -5   7    0.17    0.12
  -8  -5   7    0.29    0.12
  -8  -5   7   -0.06    0.15
  -7  -5   7    0.05    0.09
  -7  -5   7    0.16    0.14
  -6  -5   7    0.16    0.12
  -6  -5   7    0.26    0.10
  -5  -5   7    1.63    0.29
  -5  -5   7    1.40    0.15
  -5  -5   7    1.26    0.20
  -4  -5   7    9.29    0.55
  -4  -5   7    9.43    0.34
  -4  -5   7    9.86    0.62
  -3  -5   7    0.20    0.09
  -3  -5   7    0.34    0.13
  -2  -5   7    3.81    0.26
  -2  -5   7    3.73    0.33
   1   5  -7    0.08    0.10
  -1  -5   7    0.01    0.07
   0   5  -7    2.26    0.25
   0   5  -7    2.18    0.20
   0  -5   7    2.08    0.20
  -1   5  -7    1.30    0.18
  -2   5  -7    0.44    0.27
  -3   5  -7    0.09    0.13
   3  -5   7    0.02    0.06
  -4   5  -7    0.11    0.29
   4  -5   7    0.03    0.07
  -5   5  -7    0.15    0.17
   5  -5   7    0.13    0.08
  -6   5  -7    0.23    0.23
   6  -5   7    0.07    0.09
  -7   5  -7   -0.04    0.25
   7  -5   7    0.49    0.14
  10   4  -7   -0.17    0.11
 -10  -4   7    0.07    0.16
 -10  -4   7   -0.16    0.17
   9   4  -7   -0.33    0.78
   9   4  -7    0.09    0.10
  -9  -4   7   -0.04    0.17
  -9  -4   7    0.19    0.14
  -8  -4   7    0.01    0.14
  -8  -4   7    0.16    0.11
  -7  -4   7    0.24    0.10
  -7  -4   7    0.16    0.12
  -6  -4   7    1.89    0.16
  -6  -4   7    1.80    0.22
  -6  -4   7    1.44    0.26
  -5  -4   7    0.93    0.11
  -5  -4   7    0.87    0.17
  -5  -4   7    0.62    0.18
  -4  -4   7    0.62    0.07
  -4  -4   7    0.52    0.12
  -4  -4   7    0.43    0.13
  -3  -4   7    0.00    0.09
  -3  -4   7   -0.04    0.06
  -2  -4   7    4.41    0.34
  -2  -4   7    4.20    0.27
   1   4  -7    4.21    0.33
  -1  -4   7    4.26    0.27
   0   4  -7    3.27    0.23
   0   4  -7    3.19    0.27
   0  -4   7    3.18    0.23
  -1   4  -7    0.03    0.09
  -1   4  -7   -0.09    0.07
  -2   4  -7    0.48    0.30
  -3   4  -7    2.64    0.26
   3  -4   7    2.36    0.14
  -4   4  -7    1.04    0.34
  -4   4  -7    0.60    0.18
   4  -4   7    0.52    0.09
  -5   4  -7   -0.02    0.17
   5  -4   7    0.09    0.08
  -6   4  -7   -0.07    0.20
   6  -4   7    0.07    0.09
   7  -4   7    0.09    0.11
  10   3  -7    0.30    0.11
  10   3  -7   -0.71    0.93
 -10  -3   7    0.28    0.15
 -10  -3   7    0.10    0.20
   9   3  -7   -0.52    0.71
   9   3  -7    0.01    0.09
  -9  -3   7    0.19    0.13
  -9  -3   7    0.10    0.16
  -8  -3   7    0.03    0.10
  -8  -3   7   -0.08    0.13
  -7  -3   7    0.68    0.17
  -7  -3   7    0.75    0.12
  -6  -3   7    4.73    0.34
  -6  -3   7    5.03    0.24
  -6  -3   7    5.28    0.45
  -5  -3   7    0.04    0.06
  -5  -3   7    0.06    0.08
  -5  -3   7    0.08    0.16
  -4  -3   7   -0.05    0.08
  -4  -3   7   -0.06    0.06
  -3  -3   7    0.31    0.11
  -3  -3   7    0.22    0.18
  -2  -3   7    1.14    0.13
  -2  -3   7    1.13    0.18
   1   3  -7    0.28    0.10
  -1  -3   7    0.36    0.09
   0   3  -7    0.43    0.11
   0   3  -7    0.45    0.10
  -1   3  -7    2.04    0.22
  -1   3  -7    1.59    0.17
  -2   3  -7    5.53    0.41
  -2   3  -7    4.51    0.31
  -3   3  -7    1.86    0.46
   3  -3   7    1.81    0.12
  -4   3  -7    0.95    0.20
  -4   3  -7    0.73    0.21
   4  -3   7    0.79    0.10
  -5   3  -7   -0.08    0.38
  -5   3  -7   -0.61    0.33
   5  -3   7   -0.04    0.08
   6  -3   7    0.09    0.09
   7  -3   7   -0.18    0.10
  10   2  -7    0.04    0.10
 -10  -2   7    0.14    0.14
 -10  -2   7    0.10    0.19
   9   2  -7    0.05    0.09
  -9  -2   7   -0.07    0.11
  -9  -2   7   -0.11    0.14
  -8  -2   7    0.15    0.13
  -8  -2   7    0.20    0.11
  -7  -2   7   -0.16    0.12
  -7  -2   7    0.04    0.08
  -7  -2   7   -0.08    0.09
  -6  -2   7    0.27    0.14
  -6  -2   7    0.26    0.11
  -6  -2   7    0.54    0.09
  -5  -2   7    0.14    0.06
  -5  -2   7    0.07    0.08
  -5  -2   7    0.09    0.06
  -5  -2   7    0.12    0.10
  -4  -2   7   -0.01    0.07
  -4  -2   7    0.10    0.07
  -3  -2   7    3.43    0.22
  -3  -2   7    3.41    0.27
  -2  -2   7    1.36    0.12
  -2  -2   7    1.25    0.17
  -1  -2   7    1.10    0.12
   0   2  -7    1.15    0.12
  -1   2  -7    7.28    0.37
  -2   2  -7    0.14    0.10
  -3   2  -7    1.33    0.19
   3  -2   7    1.06    0.10
   4  -2   7    0.00    0.07
   5  -2   7    0.09    0.08
   6  -2   7    0.53    0.12
   7  -2   7    0.04    0.12
  11   1  -7    0.09    0.11
 -11  -1   7   -0.22    0.20
  10   1  -7    0.05    0.09
 -10  -1   7   -0.23    0.15
 -10  -1   7   -0.04    0.13
   9   1  -7    0.00    0.08
  -9  -1   7   -0.11    0.18
  -9  -1   7   -0.02    0.11
  -8  -1   7    0.17    0.10
  -8  -1   7    0.16    0.17
  -7  -1   7    0.66    0.18
  -7  -1   7    1.05    0.18
  -7  -1   7    0.99    0.12
  -6  -1   7   -0.01    0.11
  -6  -1   7    0.02    0.07
  -6  -1   7   -0.01    0.08
  -5  -1   7   -0.04    0.07
  -5  -1   7   -0.03    0.05
  -5  -1   7   -0.02    0.09
  -4  -1   7    0.08    0.17
  -4  -1   7    0.18    0.07
  -3  -1   7    0.02    0.07
  -3  -1   7    0.13    0.06
  -2  -1   7    2.21    0.15
  -1  -1   7    6.41    0.31
   0   1  -7    0.88    0.10
  -1   1  -7    0.18    0.07
  -2   1  -7   11.76    0.54
   2  -1   7   11.97    0.39
   4  -1   7    0.13    0.07
   5  -1   7    0.22    0.09
   6  -1   7    0.30    0.12
   7  -1   7    0.13    0.12
  11   0  -7    0.11    0.10
 -11   0   7    0.17    0.57
  10   0  -7    0.18    0.09
 -10   0   7    0.01    0.13
 -10   0   7   -0.20    0.52
   9   0  -7   -0.09    0.07
  -9   0   7    0.04    0.24
  -9   0   7   -0.10    0.11
  -8   0   7    0.27    0.16
  -8   0   7    0.52    0.12
  -7   0   7    0.42    0.10
  -7   0   7    0.17    0.26
  -7   0   7    0.24    0.25
  -6   0   7   -0.01    0.24
  -6   0   7    0.01    0.07
  -6   0   7   -0.10    0.15
  -5   0   7    0.00    0.07
  -5   0   7   -0.07    0.08
  -5   0   7    0.08    0.06
  -4   0   7    0.43    0.07
  -4   0   7    0.51    0.10
  -3   0   7    6.82    0.33
  -2   0   7    1.06    0.10
   1   0   7    5.13    0.20
   2   0   7    0.16    0.06
   3   0   7   -0.01    0.07
   4   0   7    0.18    0.08
   5   0   7    0.07    0.09
   6   0   7    0.08    0.11
  11  -1  -7    0.20    0.10
 -11   1   7   -0.20    0.21
  10  -1  -7    0.10    0.09
 -10   1   7    0.10    0.19
 -10   1   7    0.04    0.14
   9  -1  -7    0.02    0.07
  -9   1   7    0.06    0.15
  -9   1   7    0.11    0.13
   8  -1  -7    0.03    0.07
  -8   1   7   -0.08    0.12
  -8   1   7    0.02    0.09
  -7   1   7   -0.11    0.13
  -7   1   7   -0.11    0.08
  -7   1   7    0.13    0.12
  -6   1   7    0.12    0.08
  -6   1   7    0.05    0.25
  -6   1   7    0.25    0.11
  -5   1   7    0.27    0.08
  -5   1   7    0.13    0.25
  -4   1   7    0.08    0.06
  -4   1   7    0.10    0.07
  -3   1   7    0.77    0.08
  -3   1   7    0.53    0.08
  -1   1   7    0.50    0.07
   0   1   7   10.86    0.36
   1   1   7    1.69    0.13
   2   1   7   -0.02    0.06
   3   1   7    0.03    0.07
   4   1   7   -0.02    0.08
   5   1   7    0.71    0.14
   6   1   7    0.10    0.12
  11  -2  -7    0.01    0.10
 -11   2   7    0.01    0.24
  10  -2  -7   -0.14    1.41
  10  -2  -7    0.21    0.10
 -10   2   7    0.03    0.15
 -10   2   7    0.06    0.20
   9  -2  -7    0.07    0.08
   9  -2  -7   -0.98    0.71
  -9   2   7   -0.17    0.13
  -9   2   7   -0.08    0.11
   8  -2  -7   -0.03    0.07
  -8   2   7   -0.17    0.11
  -8   2   7   -0.07    0.10
  -7   2   7    0.92    0.14
  -7   2   7    0.94    0.18
  -7   2   7    0.40    0.18
  -6   2   7    1.36    0.14
  -6   2   7    1.17    0.21
  -6   2   7    1.47    0.19
  -5   2   7    3.37    0.24
  -5   2   7    3.16    0.18
  -4   2   7    0.37    0.20
  -4   2   7    0.27    0.07
  -3   2   7    0.60    0.08
  -3   2   7    0.51    0.08
  -2   2   7   -0.04    0.04
  -1   2   7   -0.05    0.05
   0   2   7    1.00    0.10
   1   2   7    0.13    0.07
   2   2   7   -0.02    0.06
   3   2   7    0.01    0.07
   4   2   7    0.23    0.10
   5   2   7    0.11    0.11
  11  -3  -7    0.01    0.10
 -11   3   7   -0.14    0.22
  10  -3  -7    0.02    0.09
 -10   3   7   -0.01    0.19
 -10   3   7    0.10    0.15
   9  -3  -7    0.04    0.08
  -9   3   7    0.03    0.12
  -9   3   7    0.01    0.16
   8  -3  -7    0.04    0.88
   8  -3  -7    0.14    0.08
  -8   3   7   -0.61    0.42
  -8   3   7    0.03    0.15
  -8   3   7    0.08    0.12
   7  -3  -7    0.31    0.08
  -7   3   7    0.59    0.16
  -7   3   7   -0.23    0.31
  -7   3   7    0.55    0.12
  -6   3   7    3.57    0.28
  -6   3   7    3.50    0.21
  -5   3   7    1.72    0.16
  -5   3   7    1.87    0.20
  -4   3   7    9.49    0.35
  -3   3   7    0.08    0.06
  -2   3   7    0.34    0.07
  -1   3   7    0.76    0.10
   0   3   7    2.06    0.15
   1   3   7    0.17    0.08
   2   3   7    0.25    0.09
   3   3   7   -0.01    0.09
   4   3   7    0.15    0.11
   5   3   7    0.51    0.14
  10  -4  -7    0.12    0.09
 -10   4   7   -0.24    0.19
   9  -4  -7    1.39    0.82
  -9   4   7    0.05    0.18
  -9   4   7    0.04    0.13
   8  -4  -7    1.01    0.71
   8  -4  -7    0.40    0.09
  -8   4   7    0.16    0.17
  -8   4   7    0.67    0.14
   7  -4  -7    0.10    0.08
  -7   4   7   -0.05    0.14
  -7   4   7    0.26    0.11
   6  -4  -7    0.46    0.08
  -6   4   7    0.43    0.15
  -6   4   7    0.51    0.12
  -5   4   7   -0.06    0.08
  -4   4   7    3.16    0.19
  -3   4   7    1.43    0.14
  -2   4   7    2.26    0.16
  -1   4   7    0.22    0.08
   0   4   7   -0.03    0.06
   1   4   7    0.03    0.08
   2   4   7    0.32    0.11
   3   4   7    0.29    0.12
   4   4   7    0.08    0.13
  10  -5  -7    0.00    0.09
 -10   5   7   -0.23    0.20
   9  -5  -7    0.37    0.10
  -9   5   7   -0.10    0.18
  -9   5   7    0.12    0.15
   8  -5  -7    0.27    0.09
  -8   5   7    0.25    0.13
  -8   5   7   -0.21    0.17
   7  -5  -7    0.27    0.09
  -7   5   7    0.22    0.12
   6  -5  -7    0.11    0.08
  -6   5   7    0.19    0.10
   5  -5  -7    0.12    0.07
  -5   5   7    0.19    0.09
  -4   5   7    0.44    0.10
  -3   5   7    0.00    0.08
  -2   5   7    0.16    0.09
  -1   5   7    0.21    0.09
   0   5   7    0.10    0.09
   1   5   7    0.51    0.12
   2   5   7    0.49    0.13
  -3  -5  -7    0.23    0.11
   3   5   7    0.14    0.12
   9  -6  -7    0.02    0.09
   8  -6  -7    0.32    0.10
  -8   6   7    0.02    0.13
   7  -6  -7    0.05    0.08
  -7   6   7   -0.06    0.11
   6  -6  -7    0.14    0.08
  -6   6   7    0.06    0.10
   5  -6  -7    0.08    0.07
  -5   6   7    0.05    0.10
   4  -6  -7    0.10    0.08
  -4   6   7    0.02    0.09
   3  -6  -7    0.39    0.09
  -3   6   7    0.30    0.10
   2  -6  -7   -0.02    0.07
  -2   6   7    0.03    0.09
   1  -6  -7    0.19    0.09
  -1   6   7    0.03    0.10
   0  -6  -7    0.01    0.08
   0   6   7    0.21    0.12
  -1  -6  -7    0.19    0.10
   1   6   7    0.01    0.11
  -2  -6  -7    0.00    0.10
   2   6   7    0.04    0.11
   9  -7  -7    0.03    0.09
   8  -7  -7    0.03    0.09
   7  -7  -7    0.10    0.10
   6  -7  -7    0.11    0.09
  -6   7   7    0.05    0.13
   5  -7  -7    0.32    0.10
  -5   7   7    0.24    0.13
   4  -7  -7    0.08    0.09
  -4   7   7   -0.10    0.10
   3  -7  -7   -0.08    0.08
  -3   7   7   -0.02    0.11
   2  -7  -7    0.68    0.12
  -2   7   7    0.92    0.15
   1  -7  -7    0.12    0.10
  -1   7   7    0.06    0.11
   0  -7  -7   -0.12    0.09
   0   7   7   -0.05    0.12
  -1  -7  -7   -0.07    0.10
   1   7   7    0.03    0.12
   7  -8  -7    0.10    0.10
   6  -8  -7    0.21    0.09
   5  -8  -7    0.05    0.09
   4  -8  -7    0.09    0.10
   3  -8  -7    0.06    0.10
  -3   8   7   -0.10    0.12
   2  -8  -7   -0.06    0.09
   1  -8  -7    0.67    0.14
   2  12  -8    0.30    0.20
  -2 -12   8   -0.08    0.12
   1  12  -8    0.26    0.18
  -1 -12   8    0.02    0.12
   0  12  -8    0.41    0.21
   0 -12   8   -0.09    0.12
  -1  12  -8    0.57    0.22
   1 -12   8    0.08    0.13
  -2  12  -8    0.50    0.21
   2 -12   8    0.09    0.13
  -3  12  -8    0.62    0.24
   3 -12   8    0.17    0.13
  -4 -11   8   -0.06    0.13
  -4 -11   8    0.21    0.20
   3  11  -8    0.34    0.19
  -3 -11   8    0.07    0.12
  -3 -11   8    0.07    0.20
   2  11  -8    0.57    0.20
  -2 -11   8    0.24    0.13
   1  11  -8    0.50    0.19
  -1 -11   8    0.35    0.13
   0  11  -8    0.57    0.20
   0 -11   8   -0.03    0.11
  -1  11  -8    0.25    0.18
   1 -11   8   -0.03    0.10
  -2  11  -8    0.23    0.19
   2 -11   8   -0.10    0.11
  -3  11  -8    0.63    0.23
   3 -11   8   -0.06    0.11
  -4  11  -8    0.47    0.27
   4 -11   8    0.26    0.14
  -6 -10   8    0.07    0.21
  -5 -10   8    0.00    0.12
  -5 -10   8    0.12    0.19
  -4 -10   8    0.14    0.12
  -4 -10   8    0.01    0.18
  -3 -10   8    0.04    0.17
  -3 -10   8    0.09    0.11
   2  10  -8    0.33    0.17
  -2 -10   8    0.36    0.19
  -2 -10   8    0.24    0.11
   1  10  -8    0.54    0.19
  -1 -10   8    0.49    0.12
   0  10  -8    0.40    0.17
   0 -10   8   -0.03    0.09
  -1  10  -8    0.43    0.18
   1 -10   8    0.08    0.10
  -2  10  -8    0.23    0.17
   2 -10   8   -0.03    0.10
  -3  10  -8    0.41    0.21
   3 -10   8    0.17    0.11
  -4  10  -8    0.74    0.28
   4 -10   8    0.17    0.12
  -5  10  -8    0.66    0.42
   5 -10   8    0.15    0.14
  -7  -9   8    0.02    0.22
  -7  -9   8   -0.18    0.14
  -6  -9   8   -0.06    0.18
  -6  -9   8    0.02    0.13
  -5  -9   8    0.01    0.17
  -5  -9   8    0.09    0.11
  -4  -9   8    0.17    0.11
  -4  -9   8    0.36    0.18
  -3  -9   8    0.05    0.15
  -3  -9   8    0.35    0.11
  -2  -9   8    0.24    0.16
  -2  -9   8    0.43    0.11
   1   9  -8    3.98    0.34
  -1  -9   8    3.30    0.22
  -1  -9   8    4.21    0.36
   0   9  -8    0.38    0.15
   0  -9   8    0.04    0.09
  -1   9  -8    0.24    0.15
   1  -9   8   -0.14    0.08
  -2   9  -8    0.34    0.18
   2  -9   8    0.06    0.10
  -3   9  -8    0.38    0.20
   3  -9   8    0.02    0.09
  -4   9  -8    0.24    0.23
   4  -9   8    0.10    0.10
  -5   9  -8    0.81    0.63
  -6   9  -8    0.73    0.37
   6  -9   8   -0.13    0.12
  -7  -8   8    0.14    0.14
  -7  -8   8    0.30    0.20
  -6  -8   8    0.09    0.15
  -6  -8   8   -0.09    0.11
  -5  -8   8    0.07    0.14
  -5  -8   8   -0.10    0.09
  -4  -8   8    0.14    0.10
  -4  -8   8   -0.11    0.12
  -3  -8   8   -0.02    0.08
  -3  -8   8   -0.05    0.11
  -2  -8   8    0.64    0.17
  -2  -8   8    0.54    0.10
   1   8  -8    0.24    0.13
  -1  -8   8    0.06    0.12
  -1  -8   8   -0.02    0.07
   0   8  -8    0.20    0.13
   0  -8   8    0.08    0.07
  -1   8  -8    0.50    0.17
   1  -8   8    0.42    0.09
  -2   8  -8    1.20    0.23
   2  -8   8    0.93    0.12
  -3   8  -8    1.84    0.29
   3  -8   8    1.51    0.16
  -4   8  -8    0.35    0.20
   4  -8   8   -0.01    0.09
  -5   8  -8    0.32    0.27
   5  -8   8    0.03    0.10
  -6   8  -8    0.48    0.33
   6  -8   8    0.05    0.12
  -8  -7   8    0.07    0.38
  -8  -7   8   -0.10    0.11
  -7  -7   8    0.08    0.16
  -7  -7   8   -0.15    0.11
  -6  -7   8   -0.18    0.10
  -6  -7   8    0.02    0.14
  -5  -7   8    0.06    0.09
  -5  -7   8    0.18    0.14
  -4  -7   8    0.62    0.11
  -4  -7   8    0.55    0.17
   3   7  -8    0.42    0.15
  -3  -7   8    0.44    0.10
  -3  -7   8    0.25    0.15
  -3  -7   8    0.59    0.15
   2   7  -8    0.27    0.14
  -2  -7   8    0.21    0.12
   1   7  -8    0.11    0.12
   1   7  -8    0.14    0.13
  -1  -7   8    0.17    0.11
   0   7  -8    0.15    0.12
   0   7  -8   -0.09    0.10
  -1   7  -8    0.73    0.18
  -2   7  -8    0.40    0.16
   2  -7   8    0.37    0.09
  -3   7  -8    0.11    0.14
   3  -7   8    0.04    0.08
  -4   7  -8    0.09    0.16
   4  -7   8   -0.05    0.08
  -5   7  -8    0.43    0.22
   5  -7   8   -0.02    0.09
  -6   7  -8    0.44    0.29
   6  -7   8   -0.04    0.11
   7  -7   8    0.31    0.15
  -9  -6   8   -0.04    0.14
  -9  -6   8    0.12    0.12
  -9  -6   8   -0.19    0.18
  -8  -6   8    0.12    0.12
  -8  -6   8    0.01    0.17
  -7  -6   8    0.52    0.26
  -7  -6   8    0.50    0.14
  -6  -6   8    1.49    0.51
  -6  -6   8    1.28    0.16
  -5  -6   8    1.05    0.13
  -5  -6   8    0.88    0.18
  -4  -6   8    0.45    0.17
  -4  -6   8    0.58    0.10
  -4  -6   8    0.57    0.14
  -3  -6   8    0.27    0.12
  -3  -6   8    0.22    0.14
   2   6  -8    0.92    0.18
  -2  -6   8    0.84    0.15
   1   6  -8    0.15    0.12
  -1  -6   8    0.17    0.10
   0   6  -8    0.20    0.11
   0   6  -8    0.07    0.09
  -1   6  -8    0.23    0.13
  -1   6  -8   -0.10    0.09
  -2   6  -8    2.96    0.51
  -4   6  -8    0.20    0.16
   4  -6   8    0.02    0.07
  -5   6  -8    0.22    0.19
   5  -6   8    0.05    0.09
  -6   6  -8    0.10    0.23
   6  -6   8    0.24    0.12
  -7   6  -8   -0.10    0.28
   7  -6   8    0.21    0.13
  -9  -5   8    0.14    0.14
  -9  -5   8   -0.27    0.17
  -8  -5   8    0.18    0.13
  -8  -5   8    0.15    0.11
  -8  -5   8   -0.01    0.16
  -7  -5   8    3.88    0.36
  -7  -5   8    3.86    0.24
  -6  -5   8    0.46    0.11
  -6  -5   8    0.60    0.17
  -5  -5   8    0.11    0.14
  -5  -5   8    0.20    0.33
  -5  -5   8   -0.03    0.07
  -4  -5   8    1.00    0.24
  -4  -5   8    1.01    0.10
  -4  -5   8    0.94    0.16
  -3  -5   8    0.30    0.13
  -3  -5   8    0.45    0.12
   2   5  -8    1.32    0.22
  -2  -5   8    1.53    0.17
   1   5  -8    1.13    0.19
  -1  -5   8    1.06    0.16
   0   5  -8    2.19    0.22
   0   5  -8    2.92    0.29
  -1   5  -8    0.35    0.12
  -1   5  -8    0.43    0.14
  -2   5  -8    3.48    0.57
  -2   5  -8    1.93    0.23
  -4   5  -8    0.32    0.16
   4  -5   8    0.32    0.09
  -5   5  -8    0.11    0.18
   5  -5   8    0.02    0.08
  -6   5  -8   -0.26    0.37
   6  -5   8   -0.05    0.09
   7  -5   8   -0.11    0.12
 -10  -4   8    0.16    0.15
 -10  -4   8    0.06    0.20
  -9  -4   8    0.01    0.13
  -9  -4   8   -0.07    0.15
   8   4  -8    0.10    0.50
  -8  -4   8   -0.03    0.11
  -8  -4   8    0.12    0.14
  -7  -4   8    0.20    0.14
  -7  -4   8    0.51    0.11
  -6  -4   8    0.04    0.14
  -6  -4   8    0.12    0.11
  -6  -4   8    0.11    0.08
  -5  -4   8    0.97    0.17
  -5  -4   8    1.16    0.11
  -5  -4   8    0.83    0.18
  -4  -4   8    0.18    0.18
  -4  -4   8    0.26    0.11
  -3  -4   8    0.59    0.12
  -3  -4   8    0.57    0.14
   2   4  -8   -0.05    0.07
  -2  -4   8    0.01    0.07
  -2  -4   8   -0.04    0.08
   1   4  -8    4.66    0.36
  -1  -4   8    4.69    0.29
   0   4  -8    3.27    0.30
   0   4  -8    2.89    0.23
  -1   4  -8    0.15    0.09
  -2   4  -8    0.44    0.15
  -2   4  -8    0.09    0.10
  -3   4  -8   -0.03    0.12
  -3   4  -8    0.51    0.15
   3  -4   8   -0.04    0.05
  -4   4  -8    0.97    0.23
  -4   4  -8    0.88    0.20
   4  -4   8    0.85    0.11
   5  -4   8    0.10    0.08
   6  -4   8    0.02    0.09
   7  -4   8   -0.01    0.11
 -10  -3   8   -0.09    0.19
 -10  -3   8    0.14    0.14
  -9  -3   8    0.02    0.12
  -9  -3   8   -0.08    0.16
  -8  -3   8    0.26    0.16
  -8  -3   8    0.49    0.13
  -7  -3   8   -0.04    0.10
  -7  -3   8   -0.08    0.08
  -6  -3   8    0.04    0.19
  -6  -3   8    0.12    0.10
  -5  -3   8    0.07    0.06
  -5  -3   8   -0.01    0.08
  -5  -3   8    0.05    0.11
  -4  -3   8    1.18    0.16
  -4  -3   8    1.15    0.19
  -3  -3   8   -0.01    0.08
  -3  -3   8    0.12    0.07
   2   3  -8    0.96    0.16
  -2  -3   8    1.00    0.13
  -2  -3   8    1.10    0.19
   1   3  -8    0.24    0.10
  -1  -3   8    0.12    0.07
   0   3  -8    0.18    0.09
   0   3  -8    0.24    0.10
  -1   3  -8    7.15    0.39
  -2   3  -8    1.98    0.27
  -3   3  -8    1.18    0.19
  -3   3  -8    1.24    0.28
   3  -3   8    1.01    0.10
   4  -3   8    0.20    0.08
   5  -3   8    0.15    0.09
   6  -3   8    0.04    0.10
   7  -3   8    0.27    0.13
  10   2  -8   -0.73    0.87
 -10  -2   8   -0.06    0.19
 -10  -2   8    0.00    0.13
  -9  -2   8    0.18    0.12
  -9  -2   8   -0.15    0.14
  -8  -2   8    0.07    0.13
  -8  -2   8    0.02    0.10
  -7  -2   8    0.04    0.13
  -7  -2   8    0.20    0.10
  -7  -2   8    0.03    0.11
  -6  -2   8    0.00    0.08
  -6  -2   8    0.02    0.08
  -6  -2   8   -0.08    0.11
  -5  -2   8    0.84    0.16
  -5  -2   8    0.83    0.14
  -5  -2   8    0.87    0.10
  -4  -2   8    0.41    0.12
  -4  -2   8    0.39    0.10
  -3  -2   8    0.60    0.12
  -3  -2   8    0.67    0.12
  -2  -2   8    0.17    0.07
  -1  -2   8    2.75    0.19
   0   2  -8    0.30    0.09
  -1   2  -8    5.65    0.31
  -2   2  -8    0.50    0.13
   3  -2   8    0.35    0.08
   4  -2   8    0.04    0.07
   5  -2   8    0.10    0.09
   6  -2   8    0.09    0.11
  11   1  -8   -0.05    0.10
 -11  -1   8    0.00    0.21
 -11  -1   8   -0.03    0.16
 -10  -1   8    0.01    0.13
 -10  -1   8   -0.17    0.17
  -9  -1   8    0.06    0.12
  -9  -1   8    0.06    0.15
  -8  -1   8    0.02    0.10
  -8  -1   8    0.05    0.11
  -7  -1   8    0.07    0.10
  -7  -1   8   -0.12    0.11
  -7  -1   8    0.02    0.09
  -6  -1   8    0.23    0.13
  -6  -1   8    0.31    0.09
  -6  -1   8    0.40    0.12
  -5  -1   8    4.58    0.52
  -5  -1   8    4.78    0.20
  -5  -1   8    4.56    0.30
  -4  -1   8    1.95    0.17
  -4  -1   8    2.00    0.23
  -3  -1   8    7.11    0.65
  -2  -1   8    1.71    0.14
  -1  -1   8    0.10    0.06
   0   1  -8    3.87    0.22
   2  -1   8    0.57    0.08
   3  -1   8    0.44    0.08
   4  -1   8    0.04    0.07
   5  -1   8    0.01    0.09
   6  -1   8    0.13    0.11
  11   0  -8    0.26    0.11
 -11   0   8   -0.04    0.15
 -11   0   8   -0.28    0.20
 -10   0   8    0.02    0.13
 -10   0   8   -0.09    0.34
  -9   0   8    0.09    0.12
  -9   0   8   -0.08    0.30
  -8   0   8    0.79    0.14
  -8   0   8    0.93    0.44
  -7   0   8   -0.07    0.12
  -7   0   8    0.03    0.09
  -7   0   8    0.06    0.10
  -6   0   8   -0.07    0.07
  -6   0   8   -0.07    0.09
  -6   0   8   -0.13    0.11
  -5   0   8   -0.07    0.09
  -5   0   8    0.04    0.09
  -5   0   8    0.00    0.06
  -4   0   8    0.11    0.07
  -3   0   8    2.32    0.19
  -2   0   8    2.08    0.15
   1   0   8   18.21    0.57
   2   0   8    0.10    0.06
   3   0   8    0.18    0.07
   4   0   8    0.07    0.08
   5   0   8    0.07    0.09
   6   0   8    0.16    0.12
  11  -1  -8    0.00    0.10
 -11   1   8   -0.18    0.69
  10  -1  -8    0.11    0.10
 -10   1   8    0.07    0.14
 -10   1   8   -0.17    0.43
  -9   1   8    0.31    0.13
  -9   1   8    0.00    0.21
  -8   1   8    0.20    0.22
  -8   1   8    0.00    0.10
  -7   1   8    0.46    0.42
  -7   1   8    0.27    0.11
  -7   1   8    0.17    0.25
  -6   1   8    1.00    0.18
  -6   1   8    1.49    0.16
  -6   1   8    1.12    0.33
  -5   1   8    2.52    0.21
  -5   1   8    2.44    0.16
  -4   1   8    1.08    0.14
  -4   1   8    1.10    0.11
  -3   1   8    1.70    0.11
  -3   1   8    1.60    0.14
  -1   1   8    2.98    0.15
   0   1   8    1.21    0.11
   1   1   8   -0.03    0.06
   2   1   8    0.26    0.08
   3   1   8    0.09    0.08
   4   1   8   -0.07    0.08
   5   1   8    0.24    0.12
  11  -2  -8   -0.12    0.09
 -11   2   8   -0.29    0.21
  10  -2  -8   -1.16    1.51
  10  -2  -8    0.03    0.09
 -10   2   8   -0.13    0.18
 -10   2   8    0.19    0.15
   9  -2  -8   -0.61    0.72
  -9   2   8    0.45    0.19
  -9   2   8    0.14    0.13
  -8   2   8    1.09    0.21
  -8   2   8    1.33    0.17
  -7   2   8    0.40    0.15
  -7   2   8    0.54    0.12
  -7   2   8    0.08    0.35
  -6   2   8    0.45    0.11
  -6   2   8    0.49    0.31
  -5   2   8    0.89    0.15
  -5   2   8    0.80    0.11
  -4   2   8    0.79    0.10
  -3   2   8    0.03    0.06
  -2   2   8    0.46    0.08
  -1   2   8   -0.08    0.05
   0   2   8    0.90    0.10
   1   2   8    0.23    0.08
   2   2   8    0.02    0.07
   3   2   8    0.33    0.10
   4   2   8    0.18    0.10
   5   2   8   -0.11    0.11
  10  -3  -8   -0.07    0.09
  10  -3  -8    0.13    0.90
 -10   3   8   -0.25    0.18
 -10   3   8    0.03    0.14
   9  -3  -8    0.30    0.80
   9  -3  -8    0.20    0.09
  -9   3   8    0.16    0.14
  -9   3   8   -0.02    0.16
  -8   3   8    0.59    0.14
  -8   3   8    0.14    0.16
  -7   3   8    0.22    0.15
  -7   3   8    0.20    0.11
  -6   3   8    0.06    0.12
  -6   3   8    0.06    0.09
  -5   3   8    0.53    0.11
  -4   3   8    2.51    0.17
  -3   3   8    0.05    0.07
  -2   3   8    0.93    0.11
  -1   3   8    0.45    0.09
   0   3   8    0.25    0.08
   1   3   8    0.23    0.09
   2   3   8   -0.10    0.07
   3   3   8   -0.05    0.09
   4   3   8    0.05    0.11
  10  -4  -8    0.11    0.10
 -10   4   8   -0.06    0.14
 -10   4   8   -0.34    0.17
   9  -4  -8   -0.01    0.09
  -9   4   8    0.02    0.13
  -9   4   8   -0.29    0.15
   8  -4  -8    0.79    0.74
  -8   4   8    0.43    0.14
  -8   4   8   -0.03    0.16
  -7   4   8    0.36    0.12
  -6   4   8    0.39    0.12
  -5   4   8    2.47    0.19
  -4   4   8    0.54    0.10
  -3   4   8    0.00    0.07
  -2   4   8    0.25    0.08
  -1   4   8   -0.05    0.07
   0   4   8   -0.08    0.07
   1   4   8    0.04    0.09
   2   4   8    0.46    0.13
   3   4   8   -0.02    0.11
  10  -5  -8   -0.04    0.09
 -10   5   8   -0.25    0.19
   9  -5  -8    0.00    0.09
  -9   5   8   -0.16    0.13
   8  -5  -8   -0.08    0.08
  -8   5   8    0.10    0.13
  -7   5   8   -0.10    0.10
  -6   5   8    0.11    0.10
  -5   5   8    0.07    0.09
  -4   5   8    0.19    0.10
  -3   5   8    0.08    0.08
  -2   5   8    0.12    0.09
  -1   5   8    0.32    0.10
   0   5   8   -0.02    0.10
   1   5   8    0.80    0.15
   2   5   8    0.14    0.12
   9  -6  -8    0.02    0.09
   8  -6  -8    0.00    0.09
  -8   6   8   -0.19    0.13
   7  -6  -8   -0.01    0.09
  -7   6   8   -0.08    0.12
   6  -6  -8    0.48    0.10
  -6   6   8    0.54    0.15
  -5   6   8    0.08    0.11
  -4   6   8    0.06    0.11
  -3   6   8    0.42    0.12
  -2   6   8    0.07    0.10
  -1   6   8   -0.09    0.10
   0   6   8   -0.02    0.11
   1   6   8    0.14    0.12
   8  -7  -8   -0.02    0.08
   7  -7  -8    0.37    0.11
  -7   7   8    0.26    0.15
   6  -7  -8    0.34    0.11
  -6   7   8    0.35    0.15
   5  -7  -8    0.26    0.10
  -5   7   8    0.22    0.13
   4  -7  -8    0.08    0.09
  -4   7   8   -0.02    0.11
   3  -7  -8   -0.01    0.10
  -3   7   8    0.36    0.13
  -2   7   8    0.51    0.14
   1  -7  -8    0.30    0.12
  -1   7   8    0.11    0.13
   0  -7  -8    0.22    0.12
   0   7   8    0.32    0.14
   6  -8  -8   -0.02    0.09
   5  -8  -8   -0.01    0.09
   4  -8  -8    0.06    0.11
  -4   8   8   -0.11    0.14
   3  -8  -8    0.21    0.12
  -3   8   8   -0.01    0.14
   2  12  -9    0.40    0.20
  -2 -12   9    0.12    0.14
   1  12  -9    0.29    0.20
  -1 -12   9   -0.07    0.13
   0  12  -9    0.28    0.20
   0 -12   9   -0.06    0.12
  -1  12  -9    0.36    0.21
   1 -12   9   -0.17    0.10
  -2  12  -9    0.73    0.23
   2 -12   9    0.05    0.12
  -4 -11   9   -0.02    0.21
  -4 -11   9    0.13    0.13
   3  11  -9    0.41    0.20
  -3 -11   9    0.14    0.13
  -3 -11   9    0.24    0.21
   2  11  -9    0.58    0.21
  -2 -11   9    0.25    0.13
   1  11  -9    0.24    0.17
  -1 -11   9    0.21    0.12
   0  11  -9    0.13    0.17
   0 -11   9   -0.11    0.10
  -1  11  -9    0.33    0.19
   1 -11   9    0.03    0.11
  -2  11  -9    0.47    0.21
   2 -11   9   -0.05    0.10
  -3  11  -9    0.54    0.24
   3 -11   9    0.01    0.12
  -4  11  -9    0.59    0.28
   4 -11   9    0.11    0.14
  -5 -10   9    0.02    0.20
  -5 -10   9    0.09    0.13
  -4 -10   9   -0.05    0.18
  -4 -10   9    0.16    0.12
  -3 -10   9    0.23    0.18
  -3 -10   9    0.02    0.11
   2  10  -9    0.27    0.17
  -2 -10   9   -0.02    0.11
  -2 -10   9    0.03    0.17
   1  10  -9    0.10    0.15
  -1 -10   9    0.04    0.09
   0  10  -9    0.60    0.20
   0 -10   9    0.34    0.10
  -1  10  -9    0.27    0.16
   1 -10   9    0.09    0.09
  -2  10  -9    0.33    0.19
   2 -10   9    0.05    0.10
  -3  10  -9    0.41    0.22
   3 -10   9    0.10    0.12
  -4  10  -9    0.70    0.28
   4 -10   9    0.22    0.12
  -7  -9   9    0.13    0.22
  -6  -9   9   -0.09    0.19
  -6  -9   9    0.14    0.14
  -5  -9   9    0.00    0.17
  -5  -9   9   -0.07    0.11
  -4  -9   9    0.19    0.11
  -4  -9   9   -0.02    0.15
  -3  -9   9    0.16    0.16
  -3  -9   9    0.00    0.10
  -2  -9   9    0.47    0.11
  -2  -9   9    0.44    0.18
   1   9  -9    0.49    0.17
  -1  -9   9    0.20    0.09
   0   9  -9    0.73    0.19
   0  -9   9    0.57    0.11
  -1   9  -9    1.59    0.26
   1  -9   9    1.47    0.15
  -2   9  -9    0.21    0.18
   2  -9   9    0.03    0.09
  -3   9  -9    0.53    0.21
   3  -9   9    0.10    0.10
  -4   9  -9    0.39    0.25
   4  -9   9   -0.06    0.10
  -5   9  -9    0.47    0.38
  -7  -8   9    0.11    0.14
  -7  -8   9    0.03    0.18
  -6  -8   9   -0.07    0.11
  -6  -8   9    0.07    0.17
  -5  -8   9    0.16    0.11
  -5  -8   9    0.06    0.16
  -4  -8   9    0.30    0.11
  -4  -8   9    0.32    0.17
  -3  -8   9    0.33    0.16
  -3  -8   9    0.40    0.10
  -2  -8   9    0.37    0.15
  -2  -8   9    0.33    0.09
   1   8  -9    0.39    0.16
  -1  -8   9    0.41    0.17
   0   8  -9    1.05    0.20
  -1   8  -9    0.01    0.13
  -2   8  -9    0.88    0.21
  -3   8  -9    0.25    0.18
   3  -8   9   -0.15    0.08
  -4   8  -9    0.26    0.20
   4  -8   9    0.12    0.10
  -5   8  -9    0.47    0.27
   5  -8   9    0.47    0.13
  -6   8  -9    0.33    0.31
   6  -8   9   -0.02    0.12
  -8  -7   9   -0.03    0.20
  -8  -7   9    0.09    0.13
  -7  -7   9    0.01    0.17
  -7  -7   9   -0.06    0.11
  -6  -7   9   -0.01    0.11
  -6  -7   9    0.19    0.15
  -5  -7   9    0.65    0.19
  -5  -7   9    0.61    0.12
  -4  -7   9    0.79    0.12
  -4  -7   9    0.92    0.20
  -3  -7   9    0.21    0.13
   2   7  -9    0.10    0.14
  -2  -7   9    0.04    0.11
   1   7  -9   -0.06    0.09
   1   7  -9    0.06    0.13
  -1  -7   9   -0.10    0.10
   0   7  -9    0.38    0.15
   0   7  -9    0.63    0.17
  -1   7  -9    0.55    0.16
  -2   7  -9    0.09    0.12
  -3   7  -9    0.22    0.16
   3  -7   9    0.05    0.08
  -4   7  -9    0.15    0.17
   4  -7   9   -0.10    0.08
  -5   7  -9    0.08    0.21
   5  -7   9   -0.14    0.09
  -6   7  -9    0.44    0.29
   6  -7   9    0.57    0.14
  -9  -6   9    0.13    0.15
  -9  -6   9    0.06    0.21
  -9  -6   9   -0.01    0.12
  -8  -6   9    0.05    0.12
  -8  -6   9    0.13    0.26
  -7  -6   9   -0.01    0.11
  -7  -6   9    0.13    0.49
  -6  -6   9    1.86    0.27
  -6  -6   9    1.13    0.15
  -5  -6   9    0.01    0.11
  -5  -6   9    0.16    0.08
  -4  -6   9    0.88    0.18
  -4  -6   9    0.90    0.21
  -4  -6   9    0.89    0.11
   3   6  -9    0.96    0.19
  -3  -6   9    0.76    0.19
  -3  -6   9    0.89    0.17
   2   6  -9    0.29    0.13
  -2  -6   9    0.13    0.11
   1   6  -9    0.84    0.17
   1   6  -9    0.81    0.17
  -1  -6   9    0.81    0.16
   0   6  -9   -0.07    0.09
   0   6  -9    0.21    0.13
  -1   6  -9   -0.06    0.10
  -1   6  -9    0.34    0.14
  -2   6  -9    3.97    0.60
  -3   6  -9    0.20    0.14
   3  -6   9    0.20    0.07
  -4   6  -9    0.27    0.32
   4  -6   9    0.04    0.08
  -5   6  -9    0.28    0.20
   5  -6   9    0.41    0.11
   6  -6   9    0.55    0.14
  -9  -5   9   -0.01    0.18
  -9  -5   9   -0.02    0.13
  -8  -5   9    0.55    0.22
  -8  -5   9    0.37    0.13
  -8  -5   9    0.28    0.13
  -7  -5   9    0.08    0.11
  -7  -5   9    0.26    0.17
  -6  -5   9   -0.10    0.20
  -6  -5   9    0.04    0.09
  -5  -5   9    0.12    0.11
  -5  -5   9    0.14    0.08
  -5  -5   9    0.06    0.15
  -4  -5   9    0.24    0.11
  -4  -5   9    0.31    0.14
  -3  -5   9    0.86    0.16
  -3  -5   9    0.77    0.18
   2   5  -9    1.06    0.19
  -2  -5   9    1.05    0.17
   1   5  -9    0.09    0.10
  -1  -5   9    0.03    0.09
   0   5  -9    0.04    0.09
   0   5  -9    0.23    0.12
  -1   5  -9    1.12    0.19
  -2   5  -9    1.70    0.22
  -3   5  -9    0.27    0.14
   3  -5   9    0.15    0.07
  -4   5  -9    0.33    0.16
   4  -5   9   -0.04    0.07
   5  -5   9    0.11    0.09
   6  -5   9    0.01    0.11
 -10  -4   9   -0.01    0.21
 -10  -4   9    0.20    0.15
  -9  -4   9   -0.13    0.16
  -9  -4   9    0.06    0.13
  -8  -4   9    0.58    0.20
  -8  -4   9    0.69    0.14
  -7  -4   9    0.08    0.10
  -7  -4   9    0.14    0.14
  -7  -4   9   -0.02    0.10
  -6  -4   9   -0.03    0.08
  -6  -4   9   -0.02    0.10
  -5  -4   9   -0.09    0.11
  -5  -4   9   -0.05    0.19
  -4  -4   9    0.25    0.10
  -4  -4   9    0.28    0.14
  -3  -4   9    0.03    0.11
  -3  -4   9    0.03    0.07
   2   4  -9    0.08    0.09
  -2  -4   9    0.02    0.08
   1   4  -9    0.64    0.15
  -1  -4   9    0.71    0.13
   0   4  -9    4.06    0.29
   0   4  -9    4.60    0.36
  -1   4  -9    1.66    0.20
  -2   4  -9    1.67    0.21
   4  -4   9    0.09    0.07
   5  -4   9    0.07    0.09
   6  -4   9   -0.11    0.10
 -10  -3   9    0.17    0.15
 -10  -3   9    0.08    0.20
  -9  -3   9   -0.20    0.15
  -9  -3   9    0.13    0.13
  -8  -3   9   -0.01    0.10
  -8  -3   9    0.07    0.14
  -7  -3   9    0.03    0.11
  -7  -3   9    0.03    0.09
  -6  -3   9    0.00    0.07
  -6  -3   9   -0.08    0.12
  -6  -3   9   -0.02    0.10
  -6  -3   9    0.02    0.07
  -5  -3   9    0.40    0.15
  -5  -3   9    0.60    0.14
  -4  -3   9    0.21    0.18
  -4  -3   9    0.13    0.20
  -3  -3   9    0.06    0.10
  -3  -3   9    0.13    0.08
   2   3  -9    0.01    0.08
  -2  -3   9    0.00    0.07
   1   3  -9    1.75    0.23
  -1  -3   9    1.91    0.18
   0   3  -9    0.58    0.12
  -1   3  -9    0.07    0.09
   3  -3   9   -0.03    0.06
   4  -3   9    0.23    0.08
   5  -3   9    0.33    0.10
   6  -3   9    0.18    0.12
 -10  -2   9    0.02    0.13
 -10  -2   9   -0.17    0.17
  -9  -2   9    0.16    0.18
  -9  -2   9    0.14    0.12
  -8  -2   9    0.20    0.15
  -8  -2   9   -0.08    0.10
  -7  -2   9   -0.04    0.09
  -7  -2   9   -0.01    0.10
  -6  -2   9   -0.12    0.11
  -6  -2   9    0.09    0.10
  -6  -2   9    0.09    0.08
  -5  -2   9    0.08    0.10
  -4  -2   9    2.85    0.30
  -4  -2   9    3.09    0.39
  -3  -2   9    1.34    0.16
  -3  -2   9    1.78    0.22
  -2  -2   9    1.13    0.14
   1   2  -9    0.34    0.10
  -1  -2   9    0.37    0.10
   0   2  -9    5.76    0.32
   3  -2   9    0.70    0.10
   4  -2   9    0.03    0.07
   5  -2   9    0.10    0.09
   6  -2   9    0.09    0.12
 -10  -1   9   -0.04    0.14
 -10  -1   9    0.14    0.19
  -9  -1   9   -0.08    0.12
  -9  -1   9   -0.08    0.15
  -8  -1   9    0.01    0.13
  -8  -1   9   -0.03    0.10
  -7  -1   9   -0.13    0.12
  -7  -1   9    0.04    0.11
  -7  -1   9   -0.05    0.09
  -6  -1   9    0.11    0.08
  -6  -1   9    0.07    0.10
  -6  -1   9   -0.08    0.24
  -5  -1   9    0.25    0.10
  -5  -1   9    0.27    0.13
  -4  -1   9    0.56    0.12
  -3  -1   9   -0.04    0.06
  -2  -1   9    0.92    0.12
   2  -1   9    0.09    0.06
   3  -1   9   -0.03    0.06
   4  -1   9   -0.02    0.08
   5  -1   9   -0.10    0.09
 -10   0   9   -0.03    0.18
 -10   0   9   -0.16    0.13
  -9   0   9   -0.06    0.14
  -9   0   9    0.01    0.12
  -8   0   9    0.18    0.12
  -8   0   9    0.15    0.14
  -7   0   9    0.29    0.10
  -7   0   9    0.04    0.15
  -7   0   9    0.44    0.14
  -6   0   9    0.15    0.13
  -6   0   9    0.33    0.12
  -6   0   9    0.14    0.08
  -5   0   9    0.70    0.10
  -5   0   9    0.74    0.14
  -4   0   9    0.08    0.08
  -3   0   9    0.08    0.07
   1   0   9   -0.02    0.05
   2   0   9    0.01    0.06
   3   0   9    1.49    0.14
   4   0   9    0.06    0.08
   5   0   9   -0.09    0.09
 -10   1   9    0.07    0.34
 -10   1   9   -0.08    0.14
  -9   1   9    0.30    0.31
  -9   1   9    0.16    0.13
  -8   1   9   -0.05    0.13
  -8   1   9   -0.16    0.10
  -7   1   9    1.32    0.25
  -7   1   9    2.01    0.19
  -7   1   9    1.93    0.23
  -6   1   9    0.53    0.11
  -6   1   9    0.61    0.15
  -5   1   9    1.12    0.16
  -5   1   9    1.18    0.12
  -4   1   9   -0.06    0.06
  -3   1   9    0.04    0.06
  -1   1   9    1.24    0.11
   0   1   9   -0.02    0.06
   1   1   9    0.32    0.08
   2   1   9    0.07    0.08
   3   1   9    0.23    0.10
   4   1   9    0.72    0.13
 -10   2   9    0.04    0.15
 -10   2   9   -0.20    0.58
  -9   2   9   -0.27    0.45
  -9   2   9    0.09    0.13
  -8   2   9    0.40    0.14
  -8   2   9    0.22    0.46
  -7   2   9    1.01    0.15
  -7   2   9    0.81    0.27
  -6   2   9    3.40    0.21
  -6   2   9    3.29    0.28
  -5   2   9    1.07    0.13
  -4   2   9    0.87    0.11
  -3   2   9    0.85    0.10
  -2   2   9    1.07    0.11
  -1   2   9    0.04    0.06
   0   2   9    0.47    0.09
   1   2   9    0.06    0.08
   2   2   9    0.00    0.08
   3   2   9    0.46    0.12
   4   2   9    0.07    0.11
 -10   3   9    0.11    0.21
 -10   3   9    0.24    0.15
   9  -3  -9    1.25    0.85
  -9   3   9    0.32    0.14
  -9   3   9    0.14    0.18
  -8   3   9   -0.01    0.12
  -8   3   9   -0.11    0.23
  -7   3   9    0.14    0.10
  -6   3   9    0.87    0.14
  -5   3   9    0.04    0.08
  -4   3   9    0.93    0.12
  -3   3   9    0.05    0.07
  -2   3   9    0.03    0.07
  -1   3   9    0.13    0.07
   0   3   9    0.38    0.10
   1   3   9    0.57    0.12
   2   3   9    0.09    0.09
   3   3   9   -0.05    0.10
  10  -4  -9   -0.02    0.11
 -10   4   9    0.06    0.15
   9  -4  -9    0.09    0.89
  -9   4   9   -0.05    0.13
  -8   4   9    0.09    0.13
  -7   4   9   -0.11    0.11
  -6   4   9    0.18    0.11
  -5   4   9    0.29    0.10
  -4   4   9    0.11    0.09
  -3   4   9    0.14    0.08
  -2   4   9    0.02    0.08
  -1   4   9    0.57    0.11
   0   4   9    0.08    0.10
   1   4   9    0.13    0.10
   2   4   9    0.34    0.13
  -9   5   9    0.00    0.14
  -8   5   9   -0.09    0.13
  -7   5   9   -0.06    0.11
  -6   5   9    0.13    0.12
  -5   5   9    0.22    0.11
  -4   5   9   -0.08    0.09
  -3   5   9    0.27    0.10
  -2   5   9    0.05    0.09
  -1   5   9   -0.02    0.09
   0   5   9    0.04    0.11
   1   5   9   -0.01    0.11
  -8   6   9    0.12    0.14
  -7   6   9    0.19    0.14
  -6   6   9    0.01    0.12
  -5   6   9    0.16    0.12
  -4   6   9    0.63    0.14
  -3   6   9    0.03    0.11
  -2   6   9   -0.13    0.10
  -1   6   9    0.19    0.13
   0   6   9   -0.10    0.12
  -6   7   9    0.01    0.13
  -5   7   9   -0.08    0.13
  -4   7   9    0.21    0.14
  -3   7   9    0.93    0.17
   0  12 -10    0.29    0.20
  -4 -11  10    0.02    0.21
   3  11 -10    0.60    0.22
  -3 -11  10    0.22    0.21
  -3 -11  10    0.40    0.14
   2  11 -10    0.33    0.19
  -2 -11  10    0.00    0.11
   1  11 -10    0.34    0.18
  -1 -11  10    0.05    0.11
   0  11 -10    0.29    0.19
   0 -11  10    0.07    0.10
  -1  11 -10    0.37    0.20
   1 -11  10    0.03    0.11
  -2  11 -10    0.47    0.21
   2 -11  10   -0.05    0.10
  -3  11 -10    0.69    0.26
   3 -11  10    0.12    0.12
  -5 -10  10   -0.01    0.20
  -5 -10  10    0.04    0.12
  -4 -10  10    0.25    0.12
  -4 -10  10    0.61    0.24
  -3 -10  10    0.58    0.14
  -3 -10  10    1.28    0.27
   2  10 -10    0.01    0.16
  -2 -10  10   -0.15    0.17
  -2 -10  10    0.04    0.10
   1  10 -10    0.19    0.17
  -1 -10  10   -0.12    0.08
   0  10 -10    0.29    0.18
   0 -10  10   -0.04    0.09
  -1  10 -10    0.35    0.19
   1 -10  10    0.26    0.11
  -2  10 -10    0.59    0.21
   2 -10  10    0.37    0.12
  -3  10 -10    0.86    0.27
   3 -10  10   -0.08    0.11
  -4  10 -10    0.70    0.29
   4 -10  10   -0.12    0.11
  -6  -9  10   -0.22    0.12
  -6  -9  10   -0.21    0.20
  -5  -9  10   -0.24    0.17
  -5  -9  10    0.10    0.12
  -4  -9  10    0.08    0.11
  -4  -9  10    0.11    0.18
  -3  -9  10   -0.04    0.13
  -3  -9  10    0.01    0.10
   2   9 -10    0.06    0.14
  -2  -9  10    0.01    0.09
  -2  -9  10    0.08    0.16
   1   9 -10    0.21    0.15
   0   9 -10    0.28    0.17
  -1   9 -10    0.93    0.23
  -2   9 -10    0.34    0.18
   2  -9  10   -0.03    0.09
  -3   9 -10    0.31    0.21
   3  -9  10   -0.09    0.09
  -4   9 -10    0.56    0.27
   4  -9  10    0.13    0.11
  -7  -8  10    0.04    0.19
  -7  -8  10    0.03    0.14
  -6  -8  10    0.16    0.19
  -6  -8  10   -0.04    0.12
  -5  -8  10    0.01    0.17
  -5  -8  10    0.02    0.09
  -4  -8  10   -0.08    0.14
  -4  -8  10    0.06    0.10
  -3  -8  10   -0.13    0.13
  -2  -8  10   -0.06    0.12
   1   8 -10    0.00    0.12
   0   8 -10    0.04    0.13
  -1   8 -10    0.23    0.15
  -2   8 -10    0.35    0.15
  -3   8 -10    0.32    0.19
   3  -8  10    0.06    0.09
  -4   8 -10    0.36    0.23
   4  -8  10    0.00    0.10
  -5   8 -10    0.66    0.30
   5  -8  10    0.57    0.15
  -8  -7  10    0.34    0.15
  -8  -7  10    0.21    0.22
  -7  -7  10    0.09    0.13
  -7  -7  10    0.18    0.19
  -6  -7  10    0.13    0.17
  -6  -7  10    0.22    0.11
  -5  -7  10   -0.01    0.13
  -5  -7  10   -0.01    0.09
  -4  -7  10    0.08    0.14
  -3  -7  10    0.01    0.11
  -2  -7  10   -0.03    0.10
   1   7 -10   -0.02    0.11
  -1  -7  10    0.01    0.12
   0   7 -10    0.71    0.16
  -1   7 -10    0.97    0.19
  -2   7 -10    0.08    0.12
  -3   7 -10    0.38    0.17
   3  -7  10    0.09    0.08
  -4   7 -10    0.21    0.20
   4  -7  10    0.17    0.10
  -5   7 -10    0.30    0.23
   5  -7  10    0.25    0.12
  -9  -6  10    0.37    0.47
  -9  -6  10    0.35    0.16
  -8  -6  10    0.06    0.12
  -8  -6  10   -0.06    0.54
  -7  -6  10    0.15    0.21
  -7  -6  10   -0.02    0.11
  -6  -6  10    0.09    0.14
  -6  -6  10    0.07    0.10
  -5  -6  10    0.18    0.08
  -5  -6  10    0.17    0.12
  -4  -6  10    0.37    0.15
   3   6 -10    0.20    0.13
  -3  -6  10    0.21    0.12
   2   6 -10    2.15    0.32
  -2  -6  10    1.63    0.21
   1   6 -10    0.49    0.14
   1   6 -10    0.71    0.17
  -1  -6  10    0.73    0.17
  -1   6 -10    0.12    0.11
  -2   6 -10    0.39    0.14
  -3   6 -10    0.38    0.16
  -4   6 -10    0.39    0.18
   4  -6  10    0.07    0.08
   5  -6  10    0.08    0.10
   9   5 -10   -0.06    0.64
  -9  -5  10   -0.02    0.13
  -9  -5  10    0.01    0.21
  -8  -5  10    0.10    0.12
  -8  -5  10    0.18    0.20
  -8  -5  10    0.09    0.12
  -7  -5  10    0.08    0.20
  -7  -5  10    0.20    0.10
  -6  -5  10    0.03    0.23
  -6  -5  10    0.13    0.09
  -5  -5  10   -0.03    0.09
  -4  -5  10   -0.04    0.09
  -4  -5  10   -0.11    0.12
   3   5 -10    0.62    0.16
  -3  -5  10    0.56    0.15
  -3  -5  10    0.63    0.17
   2   5 -10    0.84    0.18
  -2  -5  10    0.72    0.15
   1   5 -10    0.15    0.10
   1   5 -10    0.23    0.11
  -1  -5  10    0.08    0.10
   0   5 -10    0.13    0.11
  -1   5 -10    0.12    0.10
  -3   5 -10    0.31    0.14
   3  -5  10    0.05    0.07
   4  -5  10    0.14    0.08
   5  -5  10   -0.10    0.09
  -9  -4  10    0.01    0.13
  -9  -4  10   -0.08    0.18
  -8  -4  10   -0.01    0.11
  -8  -4  10    0.23    0.17
  -7  -4  10    0.02    0.14
  -7  -4  10   -0.01    0.09
  -7  -4  10    0.06    0.10
  -6  -4  10    0.26    0.09
  -6  -4  10    0.06    0.12
  -5  -4  10    0.01    0.09
  -5  -4  10   -0.06    0.24
  -4  -4  10    0.32    0.12
  -4  -4  10    0.21    0.13
   3   4 -10    0.10    0.10
  -3  -4  10    0.15    0.12
  -3  -4  10   -0.03    0.09
   2   4 -10    0.41    0.14
  -2  -4  10    0.44    0.13
   1   4 -10    3.89    0.29
   1   4 -10    4.41    0.35
  -1  -4  10    3.66    0.28
   0   4 -10    0.06    0.09
   3  -4  10    0.14    0.07
   4  -4  10   -0.02    0.08
   5  -4  10    0.31    0.11
 -10  -3  10    0.04    0.15
 -10  -3  10   -0.13    0.19
  -9  -3  10   -0.01    0.16
  -9  -3  10   -0.04    0.12
  -8  -3  10   -0.15    0.12
  -8  -3  10   -0.13    0.10
  -7  -3  10    0.17    0.11
  -7  -3  10    0.24    0.15
  -6  -3  10    0.25    0.13
  -6  -3  10    0.29    0.16
  -6  -3  10    0.33    0.09
  -5  -3  10    0.55    0.16
  -5  -3  10    0.34    0.36
  -4  -3  10    0.98    0.16
  -4  -3  10    0.76    0.17
   3   3 -10   -0.07    0.09
  -3  -3  10   -0.19    0.08
  -3  -3  10    0.00    0.10
   2   3 -10    0.11    0.11
  -2  -3  10    0.07    0.09
   1   3 -10    3.81    0.27
   0   3 -10    0.42    0.12
   3  -3  10    0.11    0.07
   4  -3  10    0.03    0.08
   5  -3  10    0.57    0.12
 -10  -2  10   -0.08    0.14
 -10  -2  10    0.04    0.20
  -9  -2  10   -0.04    0.12
  -9  -2  10   -0.06    0.15
  -8  -2  10    0.06    0.14
  -8  -2  10   -0.18    0.10
  -7  -2  10    0.43    0.10
  -7  -2  10    0.12    0.12
  -6  -2  10    0.26    0.09
  -6  -2  10    0.16    0.16
  -6  -2  10    0.16    0.12
  -5  -2  10    0.77    0.18
  -5  -2  10    1.09    0.18
  -4  -2  10    0.28    0.12
  -4  -2  10    0.30    0.11
  -3  -2  10    0.11    0.09
  -2  -2  10    1.37    0.16
   2  -2  10    0.06    0.06
   3  -2  10    0.30    0.08
   4  -2  10    0.07    0.08
   5  -2  10   -0.15    0.09
 -10  -1  10    0.04    0.14
 -10  -1  10    0.03    0.20
  -9  -1  10    0.00    0.16
  -9  -1  10   -0.13    0.12
  -8  -1  10   -0.20    0.10
  -8  -1  10   -0.08    0.13
  -7  -1  10    0.15    0.12
  -7  -1  10    0.06    0.32
  -7  -1  10    0.23    0.10
  -6  -1  10    0.25    0.09
  -6  -1  10    0.05    0.14
  -6  -1  10    0.15    0.12
  -5  -1  10    0.83    0.16
  -4  -1  10    0.05    0.09
   2  -1  10    0.09    0.07
   3  -1  10   -0.04    0.07
   4  -1  10    0.03    0.09
 -10   0  10   -0.19    0.13
 -10   0  10   -0.20    0.19
  -9   0  10    0.31    0.18
  -9   0  10    0.21    0.14
  -8   0  10    0.33    0.12
  -8   0  10    0.37    0.17
  -7   0  10    0.49    0.16
  -7   0  10    0.35    0.12
  -6   0  10    0.19    0.09
  -6   0  10   -0.01    0.10
  -5   0  10    0.62    0.10
  -5   0  10    0.57    0.13
   0   0  10    0.08    0.06
   1   0  10    0.11    0.07
   2   0  10    0.00    0.07
   3   0  10    0.07    0.08
   4   0  10   -0.13    0.08
 -10   1  10    0.07    0.15
 -10   1  10    0.07    0.19
  -9   1  10    0.17    0.13
  -9   1  10    0.09    0.16
  -8   1  10    0.24    0.13
  -8   1  10    0.09    0.15
  -7   1  10   -0.05    0.12
  -7   1  10    0.05    0.10
  -6   1  10   -0.03    0.08
  -5   1  10   -0.04    0.07
  -4   1  10    0.14    0.07
  -3   1  10    0.29    0.07
  -2   1  10    0.46    0.08
  -1   1  10    0.07    0.06
   0   1  10   -0.01    0.06
   1   1  10    0.02    0.07
   2   1  10   -0.08    0.08
   3   1  10    0.09    0.09
 -10   2  10    0.00    0.15
 -10   2  10   -0.17    0.18
  -9   2  10   -0.03    0.17
  -9   2  10    0.17    0.14
  -8   2  10    0.13    0.16
  -8   2  10    0.06    0.11
  -7   2  10    0.03    0.10
  -6   2  10    1.24    0.14
  -5   2  10    0.03    0.08
  -4   2  10    0.48    0.10
  -3   2  10   -0.01    0.07
  -2   2  10    0.06    0.07
  -1   2  10    0.09    0.07
   0   2  10   -0.03    0.07
   1   2  10    0.09    0.09
   2   2  10   -0.01    0.09
   3   2  10    0.29    0.12
  -9   3  10   -0.14    0.12
  -8   3  10    0.02    0.12
  -7   3  10    0.25    0.12
  -6   3  10    0.26    0.11
  -5   3  10    0.03    0.09
  -4   3  10    0.09    0.08
  -3   3  10    0.10    0.08
  -2   3  10   -0.02    0.08
  -1   3  10   -0.05    0.07
   0   3  10    0.68    0.13
   1   3  10    0.01    0.09
   2   3  10    0.06    0.10
  -9   4  10    0.01    0.14
  -8   4  10    0.01    0.14
  -7   4  10    0.10    0.12
  -6   4  10    0.16    0.11
  -5   4  10    0.08    0.10
  -4   4  10   -0.09    0.09
  -3   4  10    0.11    0.09
  -2   4  10    0.04    0.09
  -1   4  10    0.41    0.11
   0   4  10    0.08    0.10
   1   4  10    0.10    0.11
  -8   5  10    0.14    0.15
  -7   5  10   -0.14    0.11
  -6   5  10    0.01    0.13
  -5   5  10    0.15    0.12
  -4   5  10    0.01    0.09
  -3   5  10    0.00    0.10
  -2   5  10    0.15    0.10
  -1   5  10    0.05    0.11
   0   5  10    0.36    0.13
  -7   6  10   -0.03    0.13
  -6   6  10    0.08    0.14
  -5   6  10    0.03    0.13
  -4   6  10    0.36    0.14
  -3   6  10    0.47    0.14
  -2   6  10    0.73    0.16
   3  11 -11    0.35    0.22
  -3 -11  11   -0.02    0.12
  -3 -11  11    0.03    0.23
   2  11 -11    0.62    0.21
  -2 -11  11    0.15    0.13
   1  11 -11    0.32    0.19
  -1 -11  11   -0.01    0.11
   0  11 -11    0.50    0.21
   0 -11  11   -0.03    0.10
  -1  11 -11    0.59    0.23
   1 -11  11   -0.04    0.10
  -5 -10  11   -0.02    0.22
  -5 -10  11    0.01    0.12
  -4 -10  11    0.20    0.13
  -4 -10  11    0.67    0.24
   3  10 -11    0.17    0.17
  -3 -10  11    0.16    0.19
  -3 -10  11    0.27    0.13
   2  10 -11    0.37    0.19
  -2 -10  11    0.20    0.10
   1  10 -11    0.64    0.21
   0  10 -11    0.25    0.19
  -1  10 -11    0.58    0.22
  -2  10 -11    0.44    0.22
   2 -10  11    0.09    0.11
  -3  10 -11    0.88    0.27
   3 -10  11    0.07    0.11
  -6  -9  11    0.16    0.22
  -6  -9  11    0.00    0.13
  -5  -9  11    0.24    0.12
  -5  -9  11    0.26    0.21
  -4  -9  11    0.23    0.11
  -4  -9  11    0.09    0.19
  -3  -9  11   -0.02    0.10
  -3  -9  11    0.03    0.16
   2   9 -11    0.11    0.17
  -2  -9  11    0.28    0.19
   1   9 -11   -0.10    0.16
   0   9 -11    0.50    0.20
  -1   9 -11    0.29    0.18
  -2   9 -11    0.35    0.19
  -3   9 -11    0.74    0.24
  -7  -8  11    0.17    0.22
  -7  -8  11    0.14    0.14
  -6  -8  11    0.27    0.20
  -6  -8  11    0.24    0.13
  -5  -8  11    0.30    0.20
  -5  -8  11    0.09    0.10
  -4  -8  11   -0.09    0.14
  -3  -8  11    0.18    0.15
   2   8 -11    0.25    0.15
  -2  -8  11    0.30    0.17
   1   8 -11    0.15    0.14
   0   8 -11    0.12    0.13
  -1   8 -11    0.28    0.15
  -2   8 -11    0.32    0.17
  -3   8 -11    0.43    0.19
  -4   8 -11    1.07    0.29
   4  -8  11    0.70    0.15
  -8  -7  11    0.17    0.14
  -8  -7  11    0.27    0.23
  -7  -7  11    0.04    0.12
  -7  -7  11    0.02    0.18
  -6  -7  11    0.07    0.10
  -6  -7  11    0.05    0.16
  -5  -7  11    0.41    0.11
  -5  -7  11    0.35    0.19
  -4  -7  11   -0.09    0.13
  -3  -7  11    0.01    0.12
  -2  -7  11    0.06    0.12
   1   7 -11    0.18    0.13
   0   7 -11    0.41    0.15
  -1   7 -11    0.16    0.12
  -2   7 -11    0.20    0.13
  -3   7 -11    0.30    0.17
   4  -7  11    0.39    0.12
  -8  -6  11    0.01    0.23
  -8  -6  11    0.11    0.13
  -8  -6  11   -0.05    0.11
  -7  -6  11    0.08    0.18
  -7  -6  11    0.09    0.11
  -6  -6  11   -0.05    0.14
  -6  -6  11    0.00    0.10
  -5  -6  11    0.02    0.13
  -4  -6  11    0.08    0.12
  -3  -6  11    0.00    0.10
  -2  -6  11    0.00    0.11
   1   6 -11    0.37    0.14
   0   6 -11    0.87    0.18
  -1   6 -11    0.21    0.12
  -2   6 -11    0.24    0.13
   4  -6  11    0.03    0.09
  -9  -5  11    0.07    0.14
  -9  -5  11    0.05    0.22
  -8  -5  11    0.05    0.12
  -8  -5  11   -0.15    0.33
  -7  -5  11   -0.11    0.35
  -7  -5  11    0.00    0.10
  -6  -5  11    0.11    0.14
  -5  -5  11    0.02    0.11
  -4  -5  11   -0.07    0.10
   3   5 -11    0.28    0.13
  -3  -5  11    0.15    0.11
  -2  -5  11    1.41    0.20
  -1   5 -11    0.30    0.12
   4  -5  11   -0.03    0.08
  -9  -4  11   -0.21    0.12
  -9  -4  11   -0.19    0.19
  -8  -4  11    0.04    0.17
  -8  -4  11    0.04    0.12
  -7  -4  11    0.10    0.10
  -7  -4  11    0.04    0.16
  -6  -4  11    0.03    0.22
  -6  -4  11    0.06    0.09
  -5  -4  11    0.03    0.10
  -4  -4  11    0.20    0.12
  -4  -4  11    0.05    0.14
   3   4 -11    0.99    0.19
  -3  -4  11    0.84    0.16
   0   4 -11    0.88    0.16
   3  -4  11    0.17    0.08
   4  -4  11    0.02    0.09
  -9  -3  11   -0.11    0.11
  -9  -3  11    0.06    0.18
  -8  -3  11   -0.05    0.11
  -8  -3  11   -0.04    0.16
  -7  -3  11    0.01    0.13
  -7  -3  11    0.02    0.10
  -6  -3  11    0.62    0.31
  -5  -3  11    0.05    0.14
  -5  -3  11    0.16    0.11
  -4  -3  11    0.49    0.13
  -4  -3  11    0.44    0.16
  -3  -3  11    0.60    0.14
  -2  -3  11    0.47    0.13
   3  -3  11   -0.02    0.07
   4  -3  11   -0.09    0.08
 -10  -2  11   -0.01    0.19
 -10  -2  11   -0.27    0.13
  -9  -2  11   -0.10    0.12
  -9  -2  11    0.00    0.17
  -8  -2  11   -0.06    0.11
  -8  -2  11   -0.06    0.14
  -7  -2  11    0.01    0.09
  -7  -2  11   -0.08    0.12
  -6  -2  11    0.30    0.18
  -6  -2  11    0.49    0.16
  -5  -2  11    0.07    0.12
  -4  -2  11   -0.03    0.09
   3  -2  11   -0.01    0.07
   4  -2  11   -0.07    0.09
 -10  -1  11    0.04    0.14
 -10  -1  11   -0.05    0.20
  -9  -1  11    0.03    0.12
  -9  -1  11    0.14    0.18
  -8  -1  11    0.18    0.14
  -8  -1  11    0.22    0.12
  -7  -1  11    0.53    0.12
  -7  -1  11    0.49    0.17
  -6  -1  11   -0.03    0.11
  -5  -1  11    0.13    0.25
   2  -1  11    0.08    0.07
   3  -1  11    0.02    0.08
 -10   0  11    0.15    0.22
 -10   0  11    0.07    0.15
  -9   0  11    0.26    0.15
  -9   0  11    0.19    0.19
  -8   0  11    0.23    0.16
  -8   0  11    0.13    0.12
  -7   0  11    0.58    0.17
  -7   0  11    0.63    0.13
  -6   0  11    0.05    0.09
   1   0  11   -0.06    0.07
   2   0  11    0.92    0.12
   3   0  11    0.05    0.08
 -10   1  11    0.14    0.21
 -10   1  11    0.13    0.15
  -9   1  11   -0.14    0.16
  -9   1  11    0.15    0.13
  -8   1  11    0.41    0.13
  -7   1  11    0.75    0.14
  -6   1  11    0.44    0.11
  -5   1  11    0.49    0.10
  -4   1  11    0.26    0.08
  -3   1  11    0.03    0.07
  -2   1  11    0.07    0.06
  -1   1  11    0.11    0.07
   0   1  11    0.06    0.07
   1   1  11    0.32    0.10
   2   1  11    0.19    0.09
  -9   2  11    0.08    0.13
  -8   2  11   -0.02    0.12
  -7   2  11   -0.05    0.10
  -6   2  11    0.01    0.09
  -5   2  11    0.15    0.09
  -4   2  11    0.01    0.07
  -3   2  11    0.09    0.08
  -2   2  11    0.25    0.08
  -1   2  11    0.51    0.10
   0   2  11   -0.14    0.08
   1   2  11    0.17    0.09
  -9   3  11    0.00    0.14
  -8   3  11   -0.06    0.13
  -7   3  11    0.22    0.13
  -6   3  11    0.19    0.11
  -5   3  11   -0.06    0.08
  -4   3  11    0.02    0.09
  -3   3  11    0.14    0.09
  -2   3  11    0.15    0.09
  -1   3  11    0.17    0.09
   0   3  11    0.24    0.11
   1   3  11    0.15    0.10
  -8   4  11    0.06    0.13
  -7   4  11    0.12    0.13
  -6   4  11   -0.20    0.09
  -5   4  11    0.29    0.11
  -4   4  11    0.11    0.10
  -3   4  11    0.13    0.10
  -2   4  11    0.13    0.10
  -1   4  11    0.00    0.10
  -6   5  11    0.30    0.14
  -5   5  11   -0.08    0.11
  -4   5  11    0.12    0.12
  -3   5  11    0.09    0.11
  -4 -10  12   -0.02    0.20
  -4 -10  12    0.06    0.11
   3  10 -12    0.11    0.18
  -3 -10  12    0.13    0.11
  -3 -10  12   -0.03    0.18
   2  10 -12    0.11    0.18
   1  10 -12    0.27    0.18
   0  10 -12    0.40    0.21
  -1  10 -12    0.59    0.23
  -5  -9  12   -0.24    0.19
  -5  -9  12   -0.09    0.11
  -4  -9  12    0.10    0.19
  -4  -9  12    0.08    0.11
  -3  -9  12    0.24    0.18
   2   9 -12    0.23    0.17
  -2  -9  12    0.18    0.20
   1   9 -12    0.56    0.21
   0   9 -12    0.13    0.17
  -1   9 -12    0.25    0.19
  -2   9 -12    0.44    0.21
  -6  -8  12    0.04    0.12
  -6  -8  12   -0.06    0.19
  -5  -8  12    0.05    0.17
  -4  -8  12    0.00    0.17
  -3  -8  12    0.02    0.16
   2   8 -12    0.43    0.18
  -2  -8  12    0.27    0.19
   1   8 -12    0.72    0.19
   0   8 -12    0.13    0.15
  -1   8 -12    0.19    0.14
  -2   8 -12    0.42    0.17
  -3   8 -12    0.82    0.23
  -7  -7  12   -0.04    0.12
  -7  -7  12    0.06    0.18
  -6  -7  12    0.00    0.18
  -6  -7  12    0.01    0.10
  -5  -7  12   -0.08    0.16
  -4  -7  12    0.49    0.18
  -3  -7  12    0.40    0.17
   2   7 -12    0.19    0.14
  -2  -7  12    0.14    0.14
   1   7 -12    0.06    0.11
   0   7 -12    0.12    0.12
  -1   7 -12    0.29    0.14
  -2   7 -12    0.34    0.15
  -8  -6  12    0.11    0.12
  -8  -6  12    0.03    0.21
  -8  -6  12    0.12    0.13
  -7  -6  12    0.01    0.18
  -7  -6  12   -0.05    0.11
  -6  -6  12    0.01    0.15
  -5  -6  12   -0.07    0.14
  -4  -6  12    0.04    0.14
  -3  -6  12   -0.02    0.12
   2   6 -12    0.13    0.12
  -2  -6  12    0.03    0.12
   1   6 -12   -0.01    0.10
   0   6 -12    0.67    0.16
  -1   6 -12    0.22    0.12
  -8  -5  12   -0.13    0.12
  -8  -5  12   -0.10    0.39
  -7  -5  12   -0.07    0.17
  -7  -5  12   -0.01    0.10
  -7  -5  12   -0.21    0.10
  -6  -5  12    0.01    0.14
  -5  -5  12    0.07    0.13
  -4  -5  12    0.02    0.12
  -3  -5  12    0.71    0.17
   2   5 -12    0.14    0.11
  -2  -5  12    0.14    0.13
   1   5 -12    0.06    0.10
  -9  -4  12    0.09    0.22
  -9  -4  12    0.16    0.14
  -8  -4  12    0.14    0.12
  -8  -4  12   -0.02    0.28
  -7  -4  12    0.35    0.39
  -7  -4  12    0.14    0.11
  -6  -4  12    0.47    0.17
  -5  -4  12    0.01    0.11
  -4  -4  12   -0.03    0.11
  -3  -4  12    0.69    0.16
   2   4 -12    0.64    0.15
  -2  -4  12    0.54    0.16
  -9  -3  12   -0.11    0.20
  -9  -3  12   -0.02    0.12
  -8  -3  12   -0.04    0.17
  -8  -3  12    0.08    0.12
  -7  -3  12    0.04    0.31
  -7  -3  12   -0.03    0.09
  -6  -3  12   -0.08    0.11
  -5  -3  12    0.07    0.12
  -4  -3  12    0.07    0.12
   3  -3  12   -0.07    0.08
  -9  -2  12    0.03    0.12
  -9  -2  12    0.24    0.20
  -8  -2  12    0.03    0.11
  -8  -2  12    0.22    0.17
  -7  -2  12   -0.05    0.09
  -7  -2  12    0.13    0.16
  -6  -2  12   -0.11    0.24
   3  -2  12   -0.01    0.08
  -9  -1  12   -0.23    0.16
  -9  -1  12    0.05    0.12
  -8  -1  12   -0.07    0.14
  -8  -1  12   -0.05    0.11
  -7  -1  12    0.06    0.15
  -7  -1  12   -0.02    0.10
   1  -1  12    0.13    0.07
   2  -1  12    0.10    0.08
  -9   0  12    0.10    0.13
  -9   0  12   -0.09    0.16
  -8   0  12    0.08    0.12
  -7   0  12   -0.06    0.10
  -6   0  12   -0.08    0.09
   0   0  12    0.00    0.07
   1   0  12    0.12    0.08
   2   0  12    0.03    0.09
  -9   1  12    0.02    0.13
  -8   1  12    0.10    0.12
  -7   1  12    0.11    0.11
  -6   1  12    0.13    0.10
  -5   1  12    0.06    0.09
  -4   1  12    0.08    0.08
  -3   1  12    0.09    0.08
  -2   1  12    0.00    0.07
  -1   1  12    0.24    0.08
   0   1  12   -0.06    0.08
   1   1  12    0.16    0.09
  -8   2  12   -0.02    0.12
  -7   2  12    0.15    0.12
  -6   2  12   -0.04    0.09
  -5   2  12    0.04    0.09
  -4   2  12   -0.13    0.08
  -3   2  12    0.03    0.08
  -2   2  12    0.38    0.10
  -1   2  12    0.13    0.08
   0   2  12    0.00    0.09
  -8   3  12    0.06    0.13
  -7   3  12    0.01    0.11
  -6   3  12    0.16    0.10
  -5   3  12   -0.02    0.10
  -4   3  12    0.03    0.09
  -3   3  12   -0.06    0.09
  -2   3  12    0.11    0.10
  -1   3  12    0.15    0.10
  -6   4  12   -0.02    0.11
  -5   4  12    0.10    0.11
  -4   4  12   -0.18    0.09
  -3   4  12    0.23    0.11
   2  10 -13    0.24    0.20
   1  10 -13    0.31    0.21
  -5  -9  13    0.02    0.22
  -4  -9  13   -0.07    0.18
   3   9 -13    0.25    0.20
  -3  -9  13   -0.06    0.18
   2   9 -13    0.20    0.19
   1   9 -13    0.30    0.18
   0   9 -13    0.53    0.19
  -1   9 -13    0.77    0.21
  -6  -8  13    0.06    0.21
  -6  -8  13   -0.01    0.12
  -5  -8  13    0.02    0.18
  -4  -8  13    0.18    0.18
   3   8 -13    0.25    0.17
  -3  -8  13    0.01    0.16
   2   8 -13    0.44    0.18
   1   8 -13    0.21    0.16
   0   8 -13    0.30    0.15
  -1   8 -13    0.35    0.16
  -7  -7  13    0.05    0.20
  -7  -7  13    0.10    0.12
  -6  -7  13   -0.06    0.19
  -5  -7  13   -0.17    0.15
  -4  -7  13    0.06    0.17
  -3  -7  13    0.17    0.16
   2   7 -13    0.63    0.18
   1   7 -13    0.16    0.12
   0   7 -13    0.28    0.12
  -7  -6  13   -0.07    0.19
  -7  -6  13    0.06    0.11
  -6  -6  13    0.05    0.17
  -5  -6  13   -0.20    0.14
  -4  -6  13    0.54    0.18
  -3  -6  13    0.01    0.13
   2   6 -13    0.35    0.15
   1   6 -13    0.21    0.12
  -8  -5  13   -0.12    0.19
  -8  -5  13   -0.04    0.12
  -7  -5  13    0.15    0.18
  -7  -5  13   -0.01    0.12
  -6  -5  13    0.19    0.16
  -5  -5  13    0.28    0.17
  -4  -5  13    0.05    0.12
  -3  -5  13    0.34    0.15
   2   5 -13    0.55    0.16
  -8  -4  13    0.02    0.11
  -8  -4  13    0.09    0.25
  -7  -4  13    0.05    0.15
  -6  -4  13    0.10    0.14
  -5  -4  13    0.06    0.14
  -4  -4  13   -0.03    0.12
  -8  -3  13    0.05    0.55
  -8  -3  13    0.16    0.12
  -7  -3  13   -0.03    0.14
  -6  -3  13   -0.02    0.14
  -8  -2  13    0.14    0.18
  -8  -2  13   -0.05    0.10
  -8  -1  13    0.28    0.13
  -7  -1  13   -0.05    0.10
  -8   0  13    0.09    0.12
  -7   0  13    0.03    0.10
  -6   0  13    0.18    0.10
  -8   1  13   -0.02    0.11
  -7   1  13    0.07    0.11
  -6   1  13    0.13    0.10
  -5   1  13    0.01    0.08
  -4   1  13    0.06    0.09
  -3   1  13    0.15    0.08
  -1   1  13    0.18    0.09
  -7   2  13   -0.07    0.11
  -6   2  13   -0.04    0.10
  -5   2  13   -0.16    0.09
  -4   2  13   -0.04    0.08
  -3   2  13    0.16    0.10
  -2   2  13    0.01    0.09
  -4  -8  14   -0.17    0.18
   3   8 -14    0.37    0.19
  -3  -8  14    0.32    0.21
   2   8 -14    0.17    0.16
   1   8 -14    0.57    0.19
  -6  -7  14    0.20    0.22
  -5  -7  14   -0.08    0.17
  -4  -7  14    0.25    0.17
   3   7 -14    0.02    0.14
  -3  -7  14   -0.03    0.15
   2   7 -14    0.38    0.15
  -6  -6  14    0.04    0.20
  -5  -6  14   -0.04    0.15
  -4  -6  14    0.16    0.16
   3   6 -14    0.22    0.13
  -3  -6  14    0.09    0.15
  -7  -5  14   -0.02    0.19
  -6  -5  14    0.04    0.17
  -5  -5  14    0.25    0.17
  -7  -4  14    0.01    0.17
  -6  -4  14   -0.06    0.15
  -7   0  14   -0.02    0.10
  -6   0  14    0.17    0.10
  -5   1  14   -0.03    0.09
  -4   1  14    0.18    0.09
   0   0   0    0.00    0.00
;
_shelx_hkl_checksum              56485
_shelx_res_file
;
TITL bny530cg
CELL  0.71073   7.9940   9.0648  10.7692  109.136  109.397   97.320
ZERR     2.00   0.0004   0.0004   0.0006    0.004    0.004    0.004
LATT   1
SFAC  C    H    N    O
UNIT  34 26 2 4
MERG   2
FMAP   2
PLAN    20
OMIT -2 53.1
SIZE     0.150   0.150   0.200
ACTA
BOND   $H
CONF
HTAB
L.S.  20
TEMP    23.00
MPLA C41 C42 C43 C44 C45 C46
MPLA O1 C2 N3 C4 C5
MPLA C21 C22 C23 C24 C25 C26
MPLA C41 C42 C43 C44 C45 C46
WGHT    0.076100    0.068300
FVAR       0.21670
O1    4    0.709573    0.408300    0.361918    11.00000    0.06524    0.05301 =
         0.05302    0.02027    0.01506    0.01925
C2    1    0.606452    0.519737    0.352321    11.00000    0.05565    0.04532 =
         0.05100    0.02233    0.01887    0.01272
N3    3    0.479490    0.484330    0.228672    11.00000    0.05718    0.04756 =
         0.04576    0.01692    0.01542    0.01344
C4    1    0.487824    0.334860    0.139961    11.00000    0.05526    0.04441 =
         0.05119    0.01888    0.02251    0.01454
C5    1    0.635223    0.284344    0.225856    11.00000    0.06085    0.05183 =
         0.05280    0.01632    0.02033    0.01418
O51   4    0.693975    0.167340    0.199461    11.00000    0.08736    0.06248 =
         0.07629    0.02265    0.02528    0.03869
C21   1    0.651794    0.660279    0.482772    11.00000    0.05593    0.04614 =
         0.04793    0.01965    0.01856    0.01084
C22   1    0.809736    0.699249    0.604651    11.00000    0.07011    0.05831 =
         0.05507    0.02096    0.01507    0.02085
AFIX  43
H22   2    0.891012    0.634428    0.604253    11.00000   -1.20000
AFIX   0
C23   1    0.846342    0.833913    0.726325    11.00000    0.07260    0.06588 =
         0.04956    0.01671    0.00852    0.01268
AFIX  43
H23   2    0.952831    0.858488    0.807204    11.00000   -1.20000
AFIX   0
C24   1    0.729742    0.933190    0.731614    11.00000    0.07243    0.05515 =
         0.04959    0.01596    0.02620    0.00598
C25   1    0.573131    0.893156    0.609313    11.00000    0.07237    0.06414 =
         0.06541    0.01918    0.02734    0.02303
AFIX  43
H25   2    0.491512    0.957629    0.610047    11.00000   -1.20000
AFIX   0
C26   1    0.535392    0.760256    0.486725    11.00000    0.05963    0.06221 =
         0.05030    0.01288    0.01156    0.01413
AFIX  43
H26   2    0.430144    0.737335    0.405390    11.00000   -1.20000
AFIX   0
C27   1    0.771283    1.080023    0.865146    11.00000    0.09811    0.07234 =
         0.05784    0.00442    0.03196    0.00587
AFIX 137
H27A  2    0.901107    1.130765    0.910218    11.00000   -1.50000
H27B  2    0.732902    1.047845    0.930077    11.00000   -1.50000
H27C  2    0.706339    1.155120    0.840319    11.00000   -1.50000
AFIX   0
C47   1    0.388400    0.249257   -0.001251    11.00000    0.05831    0.04353 =
         0.05241    0.01415    0.02338    0.01283
AFIX  43
H47   2    0.413815    0.151031   -0.039482    11.00000   -1.20000
AFIX   0
C41   1    0.247627    0.286936   -0.102867    11.00000    0.05098    0.04715 =
         0.04712    0.01595    0.01899    0.00943
C42   1    0.194319    0.430608   -0.066692    11.00000    0.06796    0.05192 =
         0.04909    0.01631    0.01802    0.01588
AFIX  43
H42   2    0.248343    0.507299    0.027208    11.00000   -1.20000
AFIX   0
C43   1    0.062000    0.458924   -0.169723    11.00000    0.07867    0.06046 =
         0.06592    0.02692    0.02331    0.02393
AFIX  43
H43   2    0.026750    0.554665   -0.144553    11.00000   -1.20000
AFIX   0
C44   1   -0.018840    0.347772   -0.309305    11.00000    0.06836    0.07593 =
         0.06227    0.03597    0.01346    0.01446
AFIX  43
H44   2   -0.107529    0.368614   -0.378154    11.00000   -1.20000
AFIX   0
C45   1    0.031934    0.205824   -0.346635    11.00000    0.08371    0.06523 =
         0.04790    0.01606    0.01186    0.01008
AFIX  43
H45   2   -0.023068    0.129822   -0.440798    11.00000   -1.20000
AFIX   0
C46   1    0.164080    0.176096   -0.244786    11.00000    0.06819    0.05276 =
         0.05013    0.01203    0.01644    0.01393
AFIX  43
H46   2    0.198339    0.079998   -0.271242    11.00000   -1.20000
AFIX   0
HKLF 4  1.0  1.00  0.00  0.00  0.00  1.00  0.00  0.00  0.00  1.00
REM  bny530cg
REM R1 =  0.0515 for    1604 Fo > 4sig(Fo)  and  0.0940 for all    2677 data
REM    182 parameters refined using      0 restraints
END
WGHT      0.0760      0.0683
REM No hydrogen bonds found for HTAB generation
REM Highest difference peak  0.156,  deepest hole -0.205,  1-sigma level  0.039
Q1    1   0.6016  0.4031  0.3946  11.00000  0.05    0.16
Q2    1   0.8475  1.1924  0.8464  11.00000  0.05    0.15
Q3    1   0.6514  1.0799  0.8878  11.00000  0.05    0.15
Q4    1   0.1067  0.3258 -0.3433  11.00000  0.05    0.14
Q5    1   0.5990  0.4826  0.1963  11.00000  0.05    0.14
Q6    1   0.5570  0.1751  0.2283  11.00000  0.05    0.14
Q7    1   0.7902  0.2751  0.2209  11.00000  0.05    0.14
Q8    1   0.8236  0.9177  0.7025  11.00000  0.05    0.13
Q9    1   0.5245  0.5800  0.1535  11.00000  0.05    0.13
Q10   1   0.1517  0.3210 -0.0604  11.00000  0.05    0.12
Q11   1  -0.0463  0.3613 -0.2141  11.00000  0.05    0.12
Q12   1   0.5950  0.8667  0.7301  11.00000  0.05    0.12
Q13   1  -0.0763  0.2508 -0.3003  11.00000  0.05    0.12
Q14   1   0.1424  0.1917 -0.1394  11.00000  0.05    0.12
Q15   1   0.7152  0.8525  0.7443  11.00000  0.05    0.11
Q16   1   0.3430  0.3920 -0.0844  11.00000  0.05    0.11
Q17   1   0.3525  0.4020 -0.1432  11.00000  0.05    0.10
Q18   1   0.4380  0.4282  0.3736  11.00000  0.05    0.10
Q19   1   0.4498  0.9172  0.6409  11.00000  0.05    0.10
Q20   1   0.8390  0.1573  0.1634  11.00000  0.05    0.10
;
_shelx_res_checksum              38680
_shelxl_version_number           2.014
loop_
_space_group_symop_operation_xyz
'x, y, z'
'-x, -y, -z'
loop_
_atom_site_type_symbol
_atom_site_label
_atom_site_fract_x
_atom_site_fract_y
_atom_site_fract_z
_atom_site_U_iso_or_equiv
_atom_site_adp_type
_atom_site_calc_flag
_atom_site_occupancy
O O1 0.70957(17) 0.40830(15) 0.36192(16) 0.0593(4) Uani d 1
C C2 0.6065(3) 0.5197(2) 0.3523(2) 0.0505(5) Uani d 1
N N3 0.4795(2) 0.48433(17) 0.22867(19) 0.0521(5) Uani d 1
C C4 0.4878(3) 0.3349(2) 0.1400(2) 0.0498(5) Uani d 1
C C5 0.6352(3) 0.2843(2) 0.2259(2) 0.0571(6) Uani d 1
O O51 0.6940(2) 0.16734(17) 0.19946(18) 0.0769(5) Uani d 1
C C21 0.6518(3) 0.6603(2) 0.4828(2) 0.0506(5) Uani d 1
C C22 0.8097(3) 0.6992(2) 0.6047(3) 0.0640(6) Uani d 1
H H22 0.8910 0.6344 0.6043 0.077 Uiso calc 1
C C23 0.8463(3) 0.8339(3) 0.7263(3) 0.0694(7) Uani d 1
H H23 0.9528 0.8585 0.8072 0.083 Uiso calc 1
C C24 0.7297(3) 0.9332(2) 0.7316(2) 0.0610(6) Uani d 1
C C25 0.5731(3) 0.8932(3) 0.6093(3) 0.0686(7) Uani d 1
H H25 0.4915 0.9576 0.6100 0.082 Uiso calc 1
C C26 0.5354(3) 0.7603(2) 0.4867(2) 0.0631(6) Uani d 1
H H26 0.4301 0.7373 0.4054 0.076 Uiso calc 1
C C27 0.7713(3) 1.0800(3) 0.8651(3) 0.0835(8) Uani d 1
H H27A 0.9011 1.1308 0.9102 0.125 Uiso calc 1
H H27B 0.7329 1.0478 0.9301 0.125 Uiso calc 1
H H27C 0.7063 1.1551 0.8403 0.125 Uiso calc 1
C C47 0.3884(3) 0.2493(2) -0.0013(2) 0.0525(5) Uani d 1
H H47 0.4138 0.1510 -0.0395 0.063 Uiso calc 1
C C41 0.2476(2) 0.2869(2) -0.1029(2) 0.0497(5) Uani d 1
C C42 0.1943(3) 0.4306(2) -0.0667(2) 0.0588(6) Uani d 1
H H42 0.2483 0.5073 0.0272 0.071 Uiso calc 1
C C43 0.0620(3) 0.4589(3) -0.1697(3) 0.0688(7) Uani d 1
H H43 0.0268 0.5547 -0.1446 0.083 Uiso calc 1
C C44 -0.0188(3) 0.3478(3) -0.3093(3) 0.0705(7) Uani d 1
H H44 -0.1075 0.3686 -0.3782 0.085 Uiso calc 1
C C45 0.0319(3) 0.2058(3) -0.3466(3) 0.0724(7) Uani d 1
H H45 -0.0231 0.1298 -0.4408 0.087 Uiso calc 1
C C46 0.1641(3) 0.1761(2) -0.2448(2) 0.0616(6) Uani d 1
H H46 0.1983 0.0800 -0.2712 0.074 Uiso calc 1
loop_
_atom_site_aniso_label
_atom_site_aniso_U_11
_atom_site_aniso_U_22
_atom_site_aniso_U_33
_atom_site_aniso_U_12
_atom_site_aniso_U_13
_atom_site_aniso_U_23
O1 0.0652(8) 0.0530(8) 0.0530(10) 0.0193(6) 0.0151(7) 0.0203(7)
C2 0.0557(11) 0.0453(10) 0.0510(14) 0.0127(8) 0.0189(10) 0.0223(10)
N3 0.0572(9) 0.0476(9) 0.0458(12) 0.0134(7) 0.0154(9) 0.0169(8)
C4 0.0553(10) 0.0444(10) 0.0512(14) 0.0145(8) 0.0225(10) 0.0189(10)
C5 0.0609(12) 0.0518(11) 0.0528(15) 0.0142(9) 0.0203(11) 0.0163(10)
O51 0.0874(10) 0.0625(9) 0.0763(13) 0.0387(8) 0.0253(9) 0.0226(9)
C21 0.0559(11) 0.0461(10) 0.0479(14) 0.0108(8) 0.0186(10) 0.0197(10)
C22 0.0701(13) 0.0583(12) 0.0551(16) 0.0209(10) 0.0151(12) 0.0210(11)
C23 0.0726(13) 0.0659(13) 0.0496(16) 0.0127(11) 0.0085(11) 0.0167(12)
C24 0.0724(14) 0.0551(11) 0.0496(15) 0.0060(10) 0.0262(12) 0.0160(10)
C25 0.0724(14) 0.0641(13) 0.0654(17) 0.0230(11) 0.0273(13) 0.0192(12)
C26 0.0596(12) 0.0622(12) 0.0503(15) 0.0141(10) 0.0116(11) 0.0129(11)
C27 0.0981(18) 0.0723(15) 0.0578(18) 0.0059(13) 0.0320(15) 0.0044(13)
C47 0.0583(11) 0.0435(10) 0.0524(15) 0.0128(8) 0.0234(11) 0.0141(10)
C41 0.0510(10) 0.0472(10) 0.0471(14) 0.0094(8) 0.0190(9) 0.0159(9)
C42 0.0680(12) 0.0519(11) 0.0491(15) 0.0159(10) 0.0180(11) 0.0163(10)
C43 0.0787(14) 0.0605(13) 0.0659(18) 0.0239(11) 0.0233(13) 0.0269(13)
C44 0.0684(13) 0.0759(15) 0.0623(18) 0.0145(11) 0.0135(12) 0.0360(13)
C45 0.0837(15) 0.0652(14) 0.0479(15) 0.0101(12) 0.0119(12) 0.0161(12)
C46 0.0682(13) 0.0528(11) 0.0501(15) 0.0139(10) 0.0164(11) 0.0120(11)
loop_
_atom_type_symbol
_atom_type_description
_atom_type_scat_dispersion_real
_atom_type_scat_dispersion_imag
_atom_type_scat_source
C C 0.0033 0.0016 'International Tables Vol C Tables 4.2.6.8 and 6.1.1.4'
H H 0.0000 0.0000 'International Tables Vol C Tables 4.2.6.8 and 6.1.1.4'
N N 0.0061 0.0033 'International Tables Vol C Tables 4.2.6.8 and 6.1.1.4'
O O 0.0106 0.0060 'International Tables Vol C Tables 4.2.6.8 and 6.1.1.4'
loop_
_geom_angle_atom_site_label_1
_geom_angle_atom_site_label_2
_geom_angle_atom_site_label_3
_geom_angle
C2 O1 C5 105.27(15)
N3 C2 O1 115.84(17)
N3 C2 C21 127.46(17)
O1 C2 C21 116.69(18)
C2 N3 C4 105.54(16)
C47 C4 N3 128.79(18)
C47 C4 C5 122.91(18)
N3 C4 C5 108.24(18)
O51 C5 O1 121.5(2)
O51 C5 C4 133.4(2)
O1 C5 C4 105.09(16)
C26 C21 C22 118.38(19)
C26 C21 C2 119.35(18)
C22 C21 C2 122.26(18)
C23 C22 C21 120.1(2)
C23 C22 H22 120.0
C21 C22 H22 120.0
C24 C23 C22 121.9(2)
C24 C23 H23 119.1
C22 C23 H23 119.1
C23 C24 C25 117.4(2)
C23 C24 C27 121.4(2)
C25 C24 C27 121.2(2)
C26 C25 C24 121.4(2)
C26 C25 H25 119.3
C24 C25 H25 119.3
C25 C26 C21 120.8(2)
C25 C26 H26 119.6
C21 C26 H26 119.6
C24 C27 H27A 109.5
C24 C27 H27B 109.5
H27A C27 H27B 109.5
C24 C27 H27C 109.5
H27A C27 H27C 109.5
H27B C27 H27C 109.5
C4 C47 C41 129.84(18)
C4 C47 H47 115.1
C41 C47 H47 115.1
C46 C41 C42 118.0(2)
C46 C41 C47 118.48(18)
C42 C41 C47 123.49(19)
C43 C42 C41 120.1(2)
C43 C42 H42 120.0
C41 C42 H42 120.0
C44 C43 C42 120.9(2)
C44 C43 H43 119.5
C42 C43 H43 119.5
C45 C44 C43 119.7(2)
C45 C44 H44 120.2
C43 C44 H44 120.2
C44 C45 C46 120.0(2)
C44 C45 H45 120.0
C46 C45 H45 120.0
C45 C46 C41 121.3(2)
C45 C46 H46 119.4
C41 C46 H46 119.4
loop_
_geom_bond_atom_site_label_1
_geom_bond_atom_site_label_2
_geom_bond_distance
O1 C2 1.391(2)
O1 C5 1.391(2)
C2 N3 1.283(2)
C2 C21 1.449(3)
N3 C4 1.403(2)
C4 C47 1.346(3)
C4 C5 1.465(3)
C5 O51 1.202(2)
C21 C26 1.380(3)
C21 C22 1.387(3)
C22 C23 1.378(3)
C22 H22 0.9300
C23 C24 1.377(3)
C23 H23 0.9300
C24 C25 1.382(3)
C24 C27 1.505(3)
C25 C26 1.373(3)
C25 H25 0.9300
C26 H26 0.9300
C27 H27A 0.9600
C27 H27B 0.9600
C27 H27C 0.9600
C47 C41 1.451(3)
C47 H47 0.9300
C41 C46 1.391(3)
C41 C42 1.396(3)
C42 C43 1.376(3)
C42 H42 0.9300
C43 C44 1.374(3)
C43 H43 0.9300
C44 C45 1.373(3)
C44 H44 0.9300
C45 C46 1.374(3)
C45 H45 0.9300
C46 H46 0.9300
loop_
_geom_torsion_atom_site_label_1
_geom_torsion_atom_site_label_2
_geom_torsion_atom_site_label_3
_geom_torsion_atom_site_label_4
_geom_torsion
C5 O1 C2 N3 -1.0(2)
C5 O1 C2 C21 177.85(16)
O1 C2 N3 C4 0.5(2)
C21 C2 N3 C4 -178.25(18)
C2 N3 C4 C47 -177.0(2)
C2 N3 C4 C5 0.2(2)
C2 O1 C5 O51 -179.17(19)
C2 O1 C5 C4 1.0(2)
C47 C4 C5 O51 -3.2(4)
N3 C4 C5 O51 179.4(2)
C47 C4 C5 O1 176.57(17)
N3 C4 C5 O1 -0.8(2)
N3 C2 C21 C26 9.9(3)
O1 C2 C21 C26 -168.84(17)
N3 C2 C21 C22 -169.7(2)
O1 C2 C21 C22 11.6(3)
C26 C21 C22 C23 0.7(3)
C2 C21 C22 C23 -179.7(2)
C21 C22 C23 C24 0.0(4)
C22 C23 C24 C25 -0.2(4)
C22 C23 C24 C27 -180.0(2)
C23 C24 C25 C26 -0.4(3)
C27 C24 C25 C26 179.4(2)
C24 C25 C26 C21 1.2(4)
C22 C21 C26 C25 -1.3(3)
C2 C21 C26 C25 179.10(19)
N3 C4 C47 C41 1.3(4)
C5 C4 C47 C41 -175.50(18)
C4 C47 C41 C46 -179.7(2)
C4 C47 C41 C42 1.9(3)
C46 C41 C42 C43 0.4(3)
C47 C41 C42 C43 178.81(19)
C41 C42 C43 C44 -0.4(3)
C42 C43 C44 C45 0.5(4)
C43 C44 C45 C46 -0.5(4)
C44 C45 C46 C41 0.5(4)
C42 C41 C46 C45 -0.5(3)
C47 C41 C46 C45 -179.0(2)

_cod_database_fobs_code 2020067
