#------------------------------------------------------------------------------
#$Date: 2016-06-17 04:52:39 +0300 (Fri, 17 Jun 2016) $
#$Revision: 183642 $
#$URL: file:///home/coder/svn-repositories/cod/cif/2/02/04/2020493.cif $
#------------------------------------------------------------------------------
#
# This file is available in the Crystallography Open Database (COD),
# http://www.crystallography.net/. The original data for this entry
# were provided by IUCr Journals, http://journals.iucr.org/.
#
# The file may be used within the scientific community so long as
# proper attribution is given to the journal article from which the
# data were obtained.
#
data_2020493
loop_
_publ_author_name
'Bednarchuk, Tamara J.'
'Kinzhybalo, Vasyl'
'Pietraszko, Adam'
_publ_section_title
;
 Synthesis, structure and characterization of five new organically
 templated metal sulfates with 2-aminopyridinium
;
_journal_issue                   5
_journal_name_full               'Acta Crystallographica Section C'
_journal_page_first              432
_journal_page_last               441
_journal_paper_doi               10.1107/S2053229616006458
_journal_volume                  72
_journal_year                    2016
_chemical_formula_iupac          '(C5 H7 N2)2 [Zn (H2 O)6] (S O4)2'
_chemical_formula_moiety         '2(C5 H7 N2 +), H12 O6 Zn 2+, 2(O4 S 2-)'
_chemical_formula_sum            'C10 H26 N4 O14 S2 Zn'
_chemical_formula_weight         555.84
_chemical_name_systematic
;
Bis(2-aminopyridinium) hexaaquazinc(II) bis(sulfate)
;
_space_group_crystal_system      triclinic
_space_group_IT_number           2
_space_group_name_Hall           '-P 1'
_space_group_name_H-M_alt        'P -1'
_symmetry_space_group_name_Hall  '-P 1'
_symmetry_space_group_name_H-M   'P -1'
_atom_sites_solution_hydrogens   mixed
_audit_creation_method
;
Olex2 1.2
(compiled 2015.09.30 svn.r3233 for OlexSys, GUI svn.r5103)
;
_cell_angle_alpha                72.25(3)
_cell_angle_beta                 89.53(3)
_cell_angle_gamma                64.45(3)
_cell_formula_units_Z            1
_cell_length_a                   6.977(3)
_cell_length_b                   7.929(3)
_cell_length_c                   11.441(4)
_cell_measurement_reflns_used    3000
_cell_measurement_temperature    100.00(15)
_cell_measurement_theta_max      28.3430
_cell_measurement_theta_min      2.9670
_cell_volume                     538.2(4)
_computing_cell_refinement
;
CrysAlis PRO (Rigaku Oxford Diffraction, 2015)
;
_computing_data_collection
;
CrysAlis PRO (Rigaku Oxford Diffraction, 2015)
;
_computing_data_reduction
;
CrysAlis PRO (Rigaku Oxford Diffraction, 2015)
;
_computing_molecular_graphics
;
DIAMOND (Brandenburg, 1997)
;
_computing_publication_material
;
OLEX2 (Dolomanov <i>et al.</i>,  2009)
;
_computing_structure_refinement
;
SHELXL2014 (Sheldrick, 2015b)
;
_computing_structure_solution
;
SHELXS97 (Sheldrick, 2008)
;
_diffrn_ambient_temperature      100.00(15)
_diffrn_detector_area_resol_mean 10.6249
_diffrn_measured_fraction_theta_full 1.000
_diffrn_measured_fraction_theta_max 0.844
_diffrn_measurement_device       'four-circle diffractometer'
_diffrn_measurement_device_type  'Rigaku Oxford Diffraction Xcalibur Atlas'
_diffrn_measurement_method       '\w scans'
_diffrn_radiation_monochromator  graphite
_diffrn_radiation_type           MoK\a
_diffrn_radiation_wavelength     0.71073
_diffrn_reflns_av_R_equivalents  0.0320
_diffrn_reflns_limit_h_max       8
_diffrn_reflns_limit_h_min       -9
_diffrn_reflns_limit_k_max       10
_diffrn_reflns_limit_k_min       -10
_diffrn_reflns_limit_l_max       14
_diffrn_reflns_limit_l_min       -15
_diffrn_reflns_number            7323
_diffrn_reflns_theta_full        26.000
_diffrn_reflns_theta_max         29.647
_diffrn_reflns_theta_min         2.980
_exptl_absorpt_coefficient_mu    1.410
_exptl_absorpt_correction_T_max  0.921
_exptl_absorpt_correction_T_min  0.694
_exptl_absorpt_correction_type   analytical
_exptl_absorpt_process_details
;
[<i>CrysAlis PRO</i> (Rigaku Oxford Diffraction, 2015), based on
expressions
derived  by Clark & Reid (1995)]
;
_exptl_crystal_colour            colourless
_exptl_crystal_density_diffrn    1.715
_exptl_crystal_description       plate
_exptl_crystal_F_000             288
_exptl_crystal_size_max          0.325
_exptl_crystal_size_mid          0.253
_exptl_crystal_size_min          0.071
_refine_diff_density_max         0.380
_refine_diff_density_min         -0.564
_refine_ls_extinction_method     none
_refine_ls_goodness_of_fit_ref   1.079
_refine_ls_hydrogen_treatment    mixed
_refine_ls_matrix_type           full
_refine_ls_number_parameters     160
_refine_ls_number_reflns         2563
_refine_ls_number_restraints     6
_refine_ls_restrained_S_all      1.079
_refine_ls_R_factor_all          0.0515
_refine_ls_R_factor_gt           0.0370
_refine_ls_shift/su_max          0.000
_refine_ls_shift/su_mean         0.000
_refine_ls_structure_factor_coef Fsqd
_refine_ls_weighting_details
'w=1/[\s^2^(Fo^2^)+(0.0230P)^2^+0.5010P] where P=(Fo^2^+2Fc^2^)/3'
_refine_ls_weighting_scheme      calc
_refine_ls_wR_factor_gt          0.0717
_refine_ls_wR_factor_ref         0.0783
_reflns_number_gt                2120
_reflns_number_total             2563
_reflns_threshold_expression     'I > 2\s(I)'
_cod_data_source_file            wq3112sup1.cif
_cod_data_source_block           V
_cod_depositor_comments
'Adding full bibliography for 2020489--2020493.cif.'
_cod_database_code               2020493
_cod_database_fobs_code          2020493
_shelx_space_group_comment
;
The symmetry employed for this shelxl refinement is uniquely defined
by the following loop, which should always be used as a source of
symmetry information in preference to the above space-group names.
They are only intended as comments.
;
_shelx_hkl_file
;
   0   0  -1-48.5804 58.0566   6
   0   0   2 18551.0 686.140   2
   0   0   2 18741.1 639.733   6
   0   0   2 18463.7 510.518   3
   0   0  -2 18350.5 685.110   2
   0   0  -2 17807.3 510.881   3
   0   0  -2 19441.5 668.459   6
   0   0   3 8067.92 423.935   3
   0   0  -3 7907.59 434.230   3
   0   0  -3 7537.89 567.971   2
   0   0   3 8565.56 580.340   2
   0   0   3 7985.75 531.983   6
   0   0  -3 8068.45 545.217   6
   0   0   4 150963. 2054.64   3
   0   0  -4 153605. 2649.80   6
   0   0  -4 150868. 2793.61   2
   0   0  -4 150290. 2138.23   3
   0   0   4 149024. 2607.15   6
   0   0  -5 40706.2 1274.87   3
   0   0   5 38963.8 1487.37   6
   0   0  -5 39832.1 1607.40   2
   0   0  -5 39791.7 1563.07   4
   0   0  -5 41640.7 1552.21   6
   0   0   5 40787.6 1196.89   3
   0   0   6-13.3166 146.107   3
   0   0  -6 147.269 279.360   6
   0   0   6 181.803 241.126   6
   0   0  -6 374.528 203.616   3
   0   0  -6 286.336 245.952   4
   0   0  -6 469.480 246.649   2
   0   0  -7 3864.68 610.221   4
   0   0   7 3339.37 545.278   6
   0   0  -7 3873.61 537.611   3
   0   0  -7 3565.67 631.641   6
   0   0   7 3456.98 447.880   3
   0   0  -7 3432.01 610.537   2
   0   0  -8 20693.5 1267.24   3
   0   0  -8 19083.1 1409.57   2
   0   0  -8 18956.9 1324.39   1
   0   0   8 20620.9 1408.07   6
   0   0  -8 23012.5 1566.86   6
   0   0   8 19141.8 1058.34   3
   0   0  -9 17864.6 1367.21   1
   0   0  -9 20060.3 1563.90   2
   0   0   9 19753.4 1145.88   3
   0   0  -9 16741.5 1244.40   3
   0   0   9 19197.6 1450.05   6
   0   0 -10 3332.61 676.088   2
   0   0  10 2726.50 463.355   3
   0   0 -10 3346.49 690.582   1
   0   0 -10 2362.59 587.936   3
   0   0  10 3863.55 735.892   6
   0   0  11 40190.6 1804.53   3
   0   0 -11 41824.9 2527.29   2
   0   0  11 40774.8 2376.58   6
   0   0  12 2540.67 673.648   6
   0   0 -12 2953.59 733.968   2
   0   0 -13 1527.17 702.729   2
   0   0  13 2234.84 682.528   6
   0   0  14 8431.44 1314.02   6
   0  -1  14 350.007 596.646   6
   0  -1  13 1698.30 616.202   6
   0  -1  12 37552.1 2026.24   3
   0  -1  12 36494.1 2307.22   6
   0   1 -12 42619.4 2835.28   2
   0  -1  11 21182.1 1678.94   6
   0   1 -11 24502.3 2035.44   2
   0  -1  11 22135.2 1490.04   3
   0  -1  10 14691.0 1199.31   3
   0  -1  10 14629.2 1336.79   6
   0   1 -10 14485.2 1493.63   2
   0  -1   9 18197.7 1237.84   3
   0   1  -9 18035.6 1559.54   2
   0   1  -9 16221.5 1466.05   3
   0  -1   9 18350.5 1375.46   6
   0   1  -9 16121.9 1136.26   1
   0   1  -8 54823.6 2367.79   6
   0   1  -8 57098.0 2610.11   2
   0  -1   8 54596.9 2219.71   6
   0  -1   8 56281.5 2077.13   3
   0   1  -8 51814.4 1879.89   1
   0   1  -8 51673.9 2377.77   3
   0  -1   7 19866.4 1247.95   6
   0   1  -7 19549.8 1361.03   3
   0   1  -7 17734.2 1366.51   2
   0  -1   7 17246.9 1110.81   3
   0   1  -7 18140.3 1254.20   6
   0   1  -7 17789.4 1035.90   1
   0  -1   6 59824.7 1906.44   3
   0   1  -6 61723.1 2051.10   6
   0   1  -6 59908.2 2318.86   2
   0   1  -6 59971.8 2172.07   3
   0  -1   6 60987.0 1958.74   6
   0  -1   5 9405.56 726.680   6
   0   1  -5 9526.09 868.090   2
   0   1  -5 8783.08 773.934   3
   0   1  -5 8954.11 730.742   6
   0  -1   5 9953.89 734.501   3
   0  -1   4 1026.69 234.511   6
   0  -1   4 960.627 241.151   3
   0   1  -4 1030.91 234.491   6
   0   1  -4 1157.91 316.421   3
   0   1  -3 73673.3 1527.55   6
   0  -1   3 72663.6 1714.32   3
   0  -1   3 74567.1 1509.95   6
   0   1  -3 73263.6 1850.51   3
   0   1  -2 45773.2 1332.85   3
   0  -1   2 46069.4 960.488   6
   0  -1   2 44188.4 1235.67   3
   0   1  -2 45736.9 971.452   6
   0   1  -1 494134. 3954.75   3
   0   1  -1 503329. 2352.54   6
   0  -1   1 506775. 3786.45   3
   0   1   0 5814.73 392.701   3
   0   1   0 5742.40 330.358   2
   0   1   1 12115.0 465.125   4
   0  -1  -1 10959.4 484.100   2
   0   1   1 11413.4 466.856   3
   0   1   1 12446.6 490.686   5
   0   1   1 11300.9 500.487   6
   0   1   1 12307.3 514.363   2
   0   1   2 429.439 165.034   2
   0  -1  -2 669.430 188.629   2
   0  -1  -2 93.4719 115.617   4
   0  -1  -2 236.432 121.369   5
   0   1   2 388.706 136.112   4
   0   1   2 315.497 194.068   6
   0  -1  -2 278.307 173.960   6
   0   1   3 344704. 3749.22   6
   0  -1  -3 345461. 3252.23   4
   0   1   3 340137. 3457.19   2
   0  -1  -3 342386. 1905.32   3
   0  -1  -3 351674. 3481.04   2
   0  -1  -3 343778. 3712.70   6
   0   1   3 349468. 3264.44   4
   0   1   4 189426. 2803.00   4
   0   1   4 185586. 3085.87   6
   0  -1  -4 188628. 2969.74   2
   0   1   4 191831. 2965.86   2
   0  -1  -4 185649. 1648.77   3
   0  -1  -4 187231. 3128.28   6
   0  -1  -4 188569. 2814.40   4
   0  -1  -5 10205.9 465.510   3
   0   1   5 11913.1 850.459   2
   0   1   5 9452.32 458.145   3
   0   1   5 11597.2 871.822   6
   0  -1  -5 9556.42 768.615   2
   0  -1  -5 9423.10 808.231   6
   0  -1  -5 9089.81 709.004   4
   0   1   6 591.341 315.250   6
   0  -1  -6 471.339 223.360   2
   0  -1  -6 552.703 303.476   4
   0  -1  -6 569.242 367.214   6
   0  -1  -6 424.183 157.951   3
   0   1   6 483.862 273.905   2
   0   1   6 237.919 118.989   3
   0  -1  -7 53925.0 1406.12   3
   0  -1  -7 53988.6 2067.31   4
   0   1   7 55088.6 2188.81   6
   0  -1  -7 55032.3 2179.77   2
   0  -1  -7 52845.5 2233.93   6
   0   1   7 53862.9 2155.84   2
   0   1   7 53623.8 1353.85   3
   0   1   8 22468.8 1511.92   6
   0  -1  -8 21555.4 1004.49   3
   0  -1  -8 21732.2 1474.23   2
   0   1   8 18464.7 868.216   3
   0  -1  -9 1053.67 500.216   1
   0  -1  -9 1471.84 390.673   3
   0   1   9 746.115 243.380   3
   0   1   9 1285.62 497.498   6
   0  -1  -9 1764.90 515.767   2
   0   1  10 5305.86 861.248   6
   0  -1 -10 5696.00 632.264   3
   0   1  10 4775.10 538.252   3
   0  -1 -10 5810.95 927.779   2
   0  -1 -11 4080.23 817.009   2
   0   1  11 3969.46 817.787   6
   0   1  12 880.697 400.781   6
   0  -1 -12 2047.42 644.343   2
   0  -1 -13 13712.4 1627.41   2
   0   1  13 14316.3 1634.39   6
   0   1  14 9899.29 1358.11   6
   0   2 -12 26454.5 2369.13   2
   0  -2  12 23807.2 1810.88   3
   0  -2  11-272.464 377.680   3
   0  -2  11 614.527 415.189   6
   0   2 -11-90.0907 462.812   2
   0  -2  10 1220.05 515.882   3
   0   2 -10 1803.93 597.444   2
   0  -2  10 1264.01 421.578   6
   0   2  -9 46279.6 2654.30   2
   0   2  -9 41063.5 1325.43   1
   0  -2   9 41888.0 2026.29   6
   0  -2   9 39906.0 2061.38   3
   0   2  -8 53101.3 1398.30   1
   0   2  -8 50957.0 1407.49   1
   0   2  -8 57840.9 2810.81   2
   0   2  -8 55186.6 2338.20   6
   0  -2   8 53072.2 2290.56   3
   0  -2   8 56615.4 2199.06   6
   0   2  -7 44044.4 2322.34   2
   0   2  -7 42061.9 1130.85   1
   0  -2   7 44257.2 1790.37   6
   0   2  -7 43524.9 2338.64   3
   0   2  -7 40548.9 1147.24   1
   0  -2   7 42351.0 1978.24   3
   0   2  -7 43174.9 1941.35   6
   0  -2   6 20855.3 1145.07   6
   0   2  -6 19779.4 680.332   1
   0   2  -6 21923.3 1244.39   6
   0   2  -6 20231.4 722.003   1
   0   2  -6 19888.5 1506.42   3
   0  -2   6 20552.0 1306.55   3
   0  -2   5 43775.4 1476.99   6
   0  -2   5 45408.2 1835.07   3
   0   2  -5 43472.4 1545.39   6
   0   2  -5 45144.2 2093.49   3
   0   2  -5 41288.0 851.363   1
   0   2  -5 39078.8 810.267   1
   0   2  -4 483.889 318.474   3
   0  -2   4 260.420 227.348   3
   0   2  -4 80.6055 149.053   6
   0   2  -3 2274.40 294.081   6
   0  -2   3 2192.24 411.880   3
   0   2  -3 2477.19 494.570   3
   0   2  -2 13874.7 559.928   6
   0   2  -2 13274.4 961.219   3
   0  -2   2 14477.7 915.921   3
   0  -2   1 25493.3 1156.81   3
   0   2  -1 24998.6 1215.22   3
   0   2   0 44990.6 1528.53   3
   0   2   0 44931.2 1285.85   2
   0  -2   0 44513.5 1019.94   1
   0  -2   0 46870.1 1516.11   3
   0   2   1 16916.9 798.818   2
   0  -2  -1 15830.9 840.582   3
   0  -2  -1 16792.6 797.628   2
   0   2   1 15926.5 874.600   3
   0  -2  -2 16681.9 850.342   2
   0   2   2 15024.3 808.016   6
   0   2   2 15459.5 821.910   2
   0  -2  -2 16457.1 801.818   3
   0   2   2 15488.8 805.448   5
   0   2   2 14704.0 757.369   3
   0   2   2 15869.1 764.327   4
   0  -2  -3 150864. 2107.22   3
   0   2   3 151840. 2744.39   6
   0   2   3 151482. 2437.27   5
   0   2   3 154017. 2427.19   4
   0   2   3 154038. 2683.35   2
   0  -2  -3 151254. 2625.40   2
   0  -2  -3 150976. 2448.50   5
   0  -2  -3 152397. 2390.88   4
   0   2   4 16972.9 866.889   4
   0  -2  -4 17486.3 621.737   3
   0  -2  -4 16631.6 845.194   5
   0  -2  -4 16813.3 872.677   4
   0  -2  -4 15778.6 1010.03   6
   0   2   4 16943.8 953.417   2
   0  -2  -4 16547.0 953.576   2
   0   2   4 16137.2 1038.50   6
   0  -2  -5 71398.7 2294.57   6
   0   2   5 73713.0 1964.39   4
   0   2   5 79946.4 2406.11   6
   0  -2  -5 75137.2 2157.43   2
   0   2   5 75711.1 2157.48   2
   0  -2  -5 73927.2 1145.67   3
   0  -2  -5 70847.1 1956.47   4
   0   2   6 245912. 3913.84   4
   0   2   6 241114. 4485.64   6
   0   2   6 240104. 4129.12   2
   0  -2  -6 232745. 2134.00   3
   0  -2  -6 236137. 3891.51   4
   0  -2  -6 241466. 4211.11   2
   0  -2  -6 236480. 4534.63   6
   0  -2  -7 118642. 3472.30   6
   0   2   7 121173. 3408.87   6
   0  -2  -7 123274. 3237.47   2
   0  -2  -7 114073. 1596.29   3
   0   2   7 128967. 3103.23   4
   0  -2  -7 120098. 3030.97   4
   0   2   7 125067. 3245.35   2
   0  -2  -8 23732.4 1467.03   4
   0  -2  -8 21756.5 762.385   3
   0   2   8 24373.5 1651.30   6
   0  -2  -8 25114.5 1590.02   2
   0   2   9 4278.50 766.315   6
   0  -2  -9 3544.28 364.135   3
   0  -2  -9 3878.22 742.233   2
   0   2  10 6163.15 1004.76   6
   0  -2 -10 5373.89 463.162   3
   0  -2 -10 6364.44 941.665   2
   0   2  11 4507.41 915.096   6
   0  -2 -11 5244.82 942.317   2
   0  -2 -12 1495.10 506.772   2
   0   2  12 2226.36 627.451   6
   0   2  13 2805.77 814.965   6
   0  -2 -13 2954.34 783.110   2
   0  -2 -14-412.415 558.074   2
   0   2  14 1455.10 673.107   6
   0  -3  12 787.811 455.141   3
   0   3 -11 389.867 451.276   2
   0  -3  11-327.272 428.136   3
   0  -3  10 2585.04 679.159   3
   0   3 -10 2702.16 785.361   2
   0   3  -9 27881.0 2221.26   2
   0  -3   9 24697.5 1823.94   3
   0   3  -8 4507.75 700.688   6
   0  -3   8 4868.61 848.097   3
   0   3  -8 6211.97 1066.86   2
   0  -3   7 4817.38 792.978   3
   0   3  -7 4684.45 665.287   6
   0  -3   6 23135.5 1609.79   3
   0   3  -6 24035.5 1288.37   6
   0  -3   5 35095.6 1868.46   3
   0   3  -5 36203.0 1406.72   6
   0   3  -4 14918.0 1329.15   3
   0   3  -4 14575.4 799.403   6
   0  -3   4 12529.0 1091.10   3
   0   3  -3 13210.4 1178.21   3
   0   3  -3 13410.8 666.044   6
   0  -3   3 11911.0 1023.93   3
   0  -3   2 69005.0 2355.69   3
   0   3  -2 68664.7 1313.44   6
   0   3  -2 63657.4 2484.21   3
   0  -3   1 27856.4 1459.46   3
   0  -3   1 26899.5 717.921   1
   0  -3   0 1302.06 384.405   3
   0   3   0 763.538 346.657   3
   0   3   0 735.561 268.893   2
   0  -3   0 410.858 181.147   1
   0  -3  -1 15802.6 956.616   2
   0   3   1 14391.5 898.817   2
   0   3   1 14525.0 1076.55   3
   0  -3  -1 16047.5 1067.95   3
   0  -3  -1 14199.2 850.077   1
   0  -3  -2 42872.8 1578.00   2
   0  -3  -2 42287.8 1636.48   3
   0   3   2 41436.0 1434.13   6
   0   3   2 41972.8 1631.80   3
   0   3   2 44039.8 1600.66   2
   0  -3  -3 5254.96 597.673   2
   0   3   3 4990.23 545.007   3
   0   3   3 4603.16 555.545   6
   0   3   3 5328.78 605.410   2
   0  -3  -3 5593.52 601.094   3
   0   3   3 5147.13 569.716   4
   0   3   3 5101.16 582.680   5
   0   3   4 21756.9 1127.06   4
   0   3   4 21591.8 1239.05   6
   0  -3  -4 22724.6 1248.62   2
   0   3   4 21759.6 1231.67   2
   0  -3  -4 21961.9 1027.85   3
   0   3   4 19903.7 1093.13   5
   0   3   5 53756.0 2003.84   2
   0   3   5 53672.6 1805.43   4
   0  -3  -5 50671.2 1751.43   4
   0  -3  -5 54320.3 1980.74   2
   0  -3  -5 53420.3 1826.59   5
   0   3   5 53851.6 2090.03   6
   0  -3  -5 53979.8 1474.40   3
   0   3   6 116627. 3089.68   2
   0  -3  -6 117836. 2810.84   4
   0  -3  -6 117880. 1999.17   3
   0   3   6 120735. 2842.57   4
   0  -3  -6 116024. 3095.19   2
   0   3   6 123077. 3392.29   6
   0  -3  -6 115142. 2756.82   5
   0  -3  -7 39290.6 1917.19   2
   0   3   7 42752.6 1814.49   4
   0  -3  -7 37313.9 1030.46   3
   0  -3  -7 39880.5 1703.85   5
   0   3   7 38875.3 1916.23   2
   0   3   7 38200.8 2013.90   6
   0  -3  -7 40793.7 1003.31   3
   0  -3  -7 38697.5 1761.35   4
   0   3   8 288.020 288.651   4
   0  -3  -8-327.550 357.982   5
   0  -3  -8 120.176 321.268   4
   0   3   8 35.5231 378.753   6
   0  -3  -8-52.8253 97.9831   3
   0  -3  -8-191.123 307.940   2
   0  -3  -8 184.285 136.697   3
   0  -3  -9 3545.47 256.960   3
   0  -3  -9 2913.24 234.352   3
   0  -3  -9 5554.82 850.880   2
   0   3   9 6309.37 870.434   4
   0   3   9 6544.63 964.296   6
   0   3  10 22779.0 1856.64   6
   0  -3 -10 25564.8 1846.51   2
   0  -3 -11 32940.2 2213.69   2
   0   3  11 33362.4 2375.47   6
   0   3  12 10500.3 1438.89   6
   0  -3 -12 13051.1 1495.75   2
   0   3  13 155.798 504.816   6
   0  -3 -13-399.692 607.929   2
   0  -3 -14 452.665 523.553   2
   0   3  14 96.0805 567.905   6
   0  -4  11 1535.65 473.044   3
   0  -4  10 5714.65 1021.64   3
   0   4 -10 4977.03 1081.90   2
   0   4  -9 691.909 429.823   2
   0  -4   9 428.462 449.952   3
   0  -4   8 4636.48 869.962   3
   0   4  -8 5644.18 1103.45   2
   0  -4   7 1979.61 596.135   3
   0  -4   6 21275.5 1707.38   3
   0   4  -6 20931.5 1196.03   6
   0  -4   5 47570.2 2461.87   3
   0   4  -5 49639.6 1640.75   6
   0  -4   4 8200.27 1027.64   3
   0   4  -4 9325.13 631.524   6
   0   4  -3 21512.0 855.642   6
   0  -4   3 21935.3 1595.04   3
   0  -4   2 73837.1 2803.37   3
   0   4  -2 72784.7 1450.70   6
   0   4  -1 59637.7 2183.94   2
   0  -4   1 59696.7 2458.43   3
   0  -4   1 56630.8 1239.51   1
   0   4  -1 59423.3 2669.83   3
   0   4   0 113251. 2923.59   2
   0  -4   0 113132. 3298.05   3
   0  -4   0 109829. 2145.56   1
   0   4   0 108316. 3454.24   3
   0  -4  -1 87989.6 2847.79   3
   0   4   1 84602.7 2966.40   3
   0  -4  -1 86289.7 2258.95   1
   0   4   1 89654.6 2581.29   2
   0  -4  -2 513.118 299.957   1
   0   4   2 702.720 311.073   6
   0  -4  -2 361.221 276.395   2
   0  -4  -2 603.909 346.091   3
   0   4   2 653.909 429.188   3
   0   4   2 478.860 305.230   2
   0  -4  -3 36816.3 1790.50   1
   0   4   3 39698.5 1676.29   4
   0  -4  -3 39019.3 1731.30   3
   0   4   3 37389.0 1775.16   3
   0   4   3 40597.2 1817.33   2
   0   4   3 40255.0 1626.05   6
   0   4   3 39225.7 1732.68   5
   0  -4  -3 41125.1 1817.33   2
   0  -4  -4 6835.23 857.681   1
   0   4   4 8092.60 848.274   2
   0   4   4 7991.25 826.073   5
   0  -4  -4 7839.65 770.294   3
   0   4   4 6296.74 699.198   4
   0  -4  -4 8063.33 845.865   2
   0   4   4 6827.44 775.228   6
   0   4   5 74808.4 2600.04   2
   0  -4  -5 72525.8 2133.76   3
   0   4   5 75984.1 2430.03   5
   0   4   5 72594.0 2315.54   4
   0   4   5 76619.6 2581.59   6
   0  -4  -5 73146.5 2546.02   2
   0  -4  -6 457.969 273.101   3
   0   4   6 761.434 302.367   4
   0   4   6 575.641 340.127   2
   0  -4  -6 857.831 418.408   2
   0   4   6 532.731 373.111   6
   0  -4  -7 13443.2 807.185   3
   0   4   7 13571.2 1093.93   4
   0  -4  -7 12265.0 1081.82   5
   0  -4  -7 13696.0 1121.51   4
   0   4   7 12893.0 1239.91   6
   0  -4  -7 13292.3 1222.19   2
   0   4   8 8181.93 1069.13   6
   0  -4  -8 7706.86 572.116   3
   0  -4  -8 11091.3 1154.40   2
   0   4   8 9258.19 979.932   4
   0  -4  -8 8890.24 967.352   4
   0  -4  -8 7583.18 891.548   5
   0  -4  -9 41435.1 1048.13   3
   0   4   9 53277.9 2708.00   6
   0  -4  -9 53024.7 2595.81   2
   0  -4  -9 38278.8 1023.76   3
   0   4   9 51737.4 2374.77   4
   0   4  10 91990.7 3764.87   6
   0  -4 -10 93376.4 3646.74   2
   0   4  10 94922.7 3385.75   4
   0  -4 -11 15934.0 1624.29   2
   0   4  11 15184.1 1653.82   6
   0   4  12 5195.16 1066.96   6
   0  -4 -12 3850.10 889.279   2
   0   4  13 3837.22 965.684   6
   0  -4 -13 4258.74 1024.43   2
   0   4  14 17192.3 2025.81   6
   0  -4 -14 26207.8 2383.31   2
   0  -5   9 2444.64 702.434   3
   0  -5   8 199.776 448.112   3
   0  -5   7 27669.7 2202.23   3
   0  -5   6 22680.0 1989.52   3
   0  -5   5 2132.40 673.623   3
   0   5  -4 3103.28 364.523   6
   0  -5   4 3505.18 821.839   3
   0   5  -3 23918.8 901.712   6
   0  -5   3 26058.3 1926.60   3
   0  -5   2 28868.4 1988.90   3
   0   5  -2 25590.8 888.715   6
   0  -5   1 79157.6 1617.52   1
   0  -5   1 82778.8 3262.17   3
   0  -5   0 7101.94 1010.61   3
   0  -5   0 5514.36 567.600   1
   0  -5  -1 1997.85 601.408   3
   0  -5  -1 2263.84 483.824   1
   0   5   2 7059.54 850.178   2
   0  -5  -2 6315.35 809.870   1
   0   5   2 7324.50 972.529   3
   0  -5  -2 6712.46 886.312   3
   0   5   2 6023.60 669.720   6
   0  -5  -3 38784.5 1967.88   1
   0  -5  -3 38639.0 1984.60   2
   0   5   3 38987.5 1691.83   6
   0  -5  -3 40879.4 2011.31   3
   0   5   3 39339.4 2017.10   2
   0   5   3 37599.8 2027.81   3
   0  -5  -4 90876.0 2891.11   3
   0   5   4 92163.1 2978.69   5
   0   5   4 89180.0 3004.67   2
   0   5   4 93902.3 2850.49   4
   0   5   4 93561.6 2765.00   6
   0  -5  -4 86340.6 3064.55   1
   0  -5  -4 93756.4 3105.96   2
   0   5   5 4881.47 746.416   5
   0  -5  -5 5485.16 738.133   3
   0  -5  -5 5981.24 835.456   2
   0   5   5 5462.07 762.092   6
   0   5   5 5530.18 778.598   4
   0  -5  -6-36.2289 288.124   3
   0   5   6 224.967 281.617   5
   0   5   6 187.780 348.844   4
   0   5   6-153.215 308.291   6
   0  -5  -6-197.748 418.148   2
   0  -5  -7 22593.0 1666.22   2
   0  -5  -7 21589.6 1227.28   3
   0   5   7 21809.0 1621.80   6
   0   5   7 22275.8 1479.13   4
   0   5   8 108463. 3771.14   6
   0   5   8 106887. 3322.00   4
   0  -5  -8 103649. 2463.36   3
   0  -5  -8 105558. 3728.92   2
   0  -5  -9 7870.47 621.066   3
   0   5   9 9192.72 1208.19   6
   0  -5  -9 8555.73 1113.52   2
   0   5   9 8151.04 1023.06   4
   0   5  10 2099.60 600.158   4
   0   5  10 2198.38 665.697   6
   0  -5 -10 3142.39 764.808   2
   0   5  11 94.9803 463.714   6
   0  -5 -11 681.384 465.907   2
   0   5  11 236.029 403.106   4
   0  -5 -12 16247.5 1770.27   2
   0   5  12 14350.0 1678.98   6
   0   5  13 16199.7 1909.72   6
   0  -5 -13 13612.0 1727.15   2
   0  -5 -14 11301.1 1628.93   2
   0  -6   7 9540.36 1462.13   3
   0  -6   6-557.643 557.615   3
   0  -6   5 3595.51 902.828   3
   0  -6   4 6178.89 1082.04   3
   0  -6   3 6631.84 1159.37   3
   0  -6   2 13833.8 1558.21   3
   0  -6   1 15707.0 755.127   1
   0  -6   1 17906.7 1702.39   3
   0  -6   0 16529.5 981.077   1
   0   6   0 13202.2 783.863   6
   0  -6   0 14702.4 1517.40   3
   0  -6  -1 12929.3 1011.59   1
   0  -6  -1 13536.7 1420.54   3
   0   6   1 12420.7 870.454   6
   0  -6  -2 40699.4 2295.48   3
   0  -6  -2 39603.0 1938.76   1
   0   6   2 40632.6 1652.24   6
   0  -6  -3 24321.5 1697.31   1
   0   6   3 25298.0 1411.42   6
   0  -6  -3 27491.8 1873.39   3
   0  -6  -4 51980.8 2413.93   3
   0   6   4 49704.4 2321.19   4
   0  -6  -4 46120.0 2424.46   2
   0   6   4 49550.4 2095.96   6
   0   6   4 52273.1 2500.32   5
   0  -6  -5 10378.5 1170.62   2
   0  -6  -5 10347.7 1086.05   3
   0   6   5 9432.19 1023.84   4
   0   6   5 9271.03 996.672   6
   0   6   5 8918.23 1110.51   5
   0  -6  -6 14164.6 1399.89   2
   0   6   6 13427.5 1291.12   6
   0   6   6 13705.8 1337.71   5
   0  -6  -6 12184.1 1123.31   3
   0   6   6 13696.9 1250.05   4
   0   6   7 53361.7 2416.64   4
   0  -6  -7 52152.0 2169.20   3
   0  -6  -7 56060.8 2772.62   2
   0   6   7 55266.1 2654.03   6
   0  -6  -8 830.335 507.639   2
   0  -6  -8 1122.56 396.055   3
   0   6   8 1453.39 598.699   6
   0   6   8 1091.58 515.831   4
   0   6   9-35.7507 447.409   4
   0  -6  -9 1125.97 601.397   2
   0   6   9 872.484 467.128   6
   0  -6  -9 1411.88 400.592   3
   0   6  10 3202.03 724.205   4
   0  -6 -10 2198.76 732.437   2
   0   6  10 3711.66 859.283   6
   0  -6 -11 6549.10 1154.88   2
   0   6  11 4999.94 903.206   4
   0   6  11 5934.68 1105.92   6
   0  -6 -12 3230.59 877.587   2
   0   6  12 3238.57 863.333   4
   0   6  12 2306.95 838.577   6
   0   6  13 3517.11 972.921   6
   0  -6 -13 3033.50 946.693   2
   0   6  13 3430.78 895.248   4
   0  -7   4 26114.8 2436.79   3
   0  -7   3 231.451 443.691   3
   0  -7   2-736.753 426.233   3
   0  -7   1 5533.07 1059.24   3
   0  -7   0 6936.47 1153.24   3
   0   7   1 3595.86 473.165   6
   0  -7  -1 4697.92 951.247   3
   0  -7  -2 1138.66 423.249   1
   0   7   2 190.581 244.854   6
   0  -7  -2-48.1616 468.400   3
   0   7   3 10263.8 914.958   6
   0  -7  -3 9673.78 1286.00   3
   0  -7  -4 3030.68 684.023   3
   0   7   4 2359.83 519.154   6
   0   7   4 3657.10 830.383   5
   0   7   4 3069.95 708.536   4
   0   7   5 27413.2 1734.40   6
   0  -7  -5 29459.6 2146.17   2
   0   7   5 26676.2 1860.25   4
   0   7   5 28346.7 2035.06   5
   0  -7  -5 27244.8 1914.10   3
   0   7   6 7951.16 1048.17   6
   0  -7  -6 5848.12 907.720   3
   0  -7  -6 5715.75 1015.46   2
   0   7   6 6208.56 988.981   5
   0   7   6 6677.01 954.197   4
   0   7   7 16996.8 1490.56   4
   0   7   7 17191.3 1590.05   5
   0   7   7 18008.1 1553.98   6
   0  -7  -7 15730.2 1631.92   2
   0  -7  -7 18931.1 1477.83   3
   0  -7  -8 1009.33 606.321   2
   0   7   8 1165.27 512.557   6
   0  -7  -8 1207.60 396.956   3
   0   7   8 1277.05 513.679   4
   0   7   9 1212.96 532.195   6
   0  -7  -9 1866.63 627.803   2
   0   7   9 653.438 403.147   4
   0   7  10 6431.37 1142.68   6
   0  -7 -10 5996.03 1141.91   2
   0   7  10 6573.15 1022.65   4
   0   7  11 12198.3 1442.04   4
   0  -7 -11 16828.0 1882.54   2
   0   7  11 15696.5 1811.02   6
   0  -7 -12 1167.93 571.158   2
   0   7  12 1203.16 628.762   4
   0   7  12 1554.12 745.997   6
   0   7  13 4458.15 983.134   4
   0  -8   1 21886.4 2214.39   3
   0  -8   0 4242.12 956.589   3
   0  -8  -1 140.679 409.855   3
   0  -8  -2 640.476 535.929   3
   0   8   3-697.974 580.206   5
   0  -8  -3 51.4981 440.232   3
   0   8   4 4730.77 686.307   6
   0  -8  -4 7267.67 1123.67   3
   0   8   4 5957.52 1138.04   5
   0   8   4 3109.73 824.570   4
   0  -8  -5 3769.62 841.986   3
   0   8   5 1769.38 625.427   4
   0   8   5 1871.30 555.943   6
   0   8   5 1695.89 630.448   5
   0  -8  -6 4122.31 967.472   2
   0   8   6 3997.39 814.663   4
   0  -8  -6 5856.03 967.404   3
   0   8   6 3299.34 862.653   5
   0   8   6 2273.36 581.614   6
   0   8   7 323.115 448.410   5
   0  -8  -7 347.457 487.557   2
   0  -8  -7 34.0415 393.287   3
   0   8   7-503.617 501.813   4
   0   8   7-105.109 360.137   6
   0  -8  -8 2245.53 796.066   2
   0  -8  -8 2440.22 602.600   3
   0   8   8 2030.66 649.775   4
   0   8   8 1357.96 608.609   6
   0   8   9 19691.9 1854.19   6
   0   8   9 14198.7 1516.03   4
   0  -8  -9 14874.1 1823.27   2
   0  -8 -10 24834.9 2339.11   2
   0   8  10 27384.1 2109.54   4
   0   8  10 30637.3 2444.67   6
   0  -8 -11 10721.3 1618.74   2
   0   8  11 10053.7 1495.44   6
   0   8  11 9691.74 1299.09   4
   0  -9  -2 1096.38 443.972   3
   0  -9  -3 20923.6 2048.84   3
   0   9   3 17591.3 1987.91   5
   0  -9  -4 4358.77 1001.78   3
   0   9   4 3340.97 934.200   5
   0   9   4 5419.47 1097.28   4
   0   9   5-1053.83 674.382   5
   0  -9  -5-135.265 516.260   3
   0   9   5-95.8568 545.758   4
   0   9   6-515.982 603.198   4
   0  -9  -6-350.756 516.575   3
   0   9   6 1278.87 612.710   5
   0  -9  -7 77.5198 463.799   3
   0   9   7-693.725 724.083   4
   0   9   7 988.194 642.604   5
   0   9   8 8159.12 1217.33   4
   0  -9  -8 8027.46 1408.91   2
   0   9   9 7718.98 1203.36   6
   0   9  10 603.339 527.660   6
  -1   9   8 923.387 480.609   5
  -1   9   8 2049.83 805.828   4
  -1   9   7 673.124 457.023   5
  -1   9   7 314.338 476.847   4
   1  -9  -7-340.430 729.470   3
   1  -9  -6 2513.43 890.599   3
  -1   9   6 2133.69 791.073   4
  -1   9   5 6417.91 1215.85   4
   1  -9  -5 9806.19 1527.52   3
  -1   9   4 2172.27 833.216   4
   1  -8 -11 6478.06 1296.91   2
  -1   8  11 8013.50 1302.28   6
  -1   8  11 7012.41 1261.34   4
  -1   8  10 2508.15 766.883   4
  -1   8  10 4740.49 998.679   6
   1  -8 -10 2526.32 789.641   2
  -1   8   9 588.896 505.532   4
  -1   8   9 353.235 407.139   6
   1  -8  -9 296.385 510.036   2
  -1   8   8 708.509 452.101   6
   1  -8  -8 1001.53 489.332   2
  -1   8   8 1405.35 688.557   5
  -1   8   8-628.468 755.452   4
   1  -8  -8 1191.90 533.002   3
  -1   8   7 4585.61 988.898   5
  -1   8   7 4008.38 997.947   4
   1  -8  -7 5419.94 999.747   3
  -1   8   6 6547.53 1185.60   5
   1  -8  -6 8213.56 1264.03   3
  -1   8   6 6679.70 1190.01   4
  -1   8   5-112.877 435.923   5
  -1   8   5 274.178 553.894   4
   1  -8  -5-26.1490 404.162   3
  -1   8   4-364.493 506.951   5
   1  -8  -4-574.545 435.972   3
   1  -8  -3 2786.77 788.519   3
   1  -8  -2 8541.63 1379.80   3
   1  -8  -1 15097.7 1821.30   3
  -1   7  13 4814.15 1048.50   4
  -1   7  12 1186.90 713.198   6
   1  -7 -12-433.608 477.235   2
  -1   7  12-289.505 555.663   4
  -1   7  11 1151.27 608.353   4
  -1   7  11 2038.78 759.372   6
   1  -7 -11 2255.09 834.737   2
  -1   7  10 50.9061 533.649   6
  -1   7  10 1144.06 531.623   4
   1  -7 -10 232.346 420.000   2
  -1   7   9 4427.93 949.178   4
   1  -7  -9 4454.25 864.826   3
  -1   7   9 5572.00 1010.98   6
   1  -7  -9 5144.49 1036.33   2
  -1   7   8 19395.0 1678.42   6
   1  -7  -8 14657.1 1626.59   2
   1  -7  -8 17712.1 1613.40   3
  -1   7   8 16433.6 1665.93   4
   1  -7  -7 11013.7 1372.12   2
  -1   7   7 10283.3 1273.53   5
  -1   7   7 10285.0 1341.14   4
  -1   7   7 10582.7 1216.54   6
   1  -7  -7 10744.2 1288.87   3
   1  -7  -6 4575.31 927.567   3
   1  -7  -6 3865.41 841.173   2
  -1   7   6 3483.72 845.332   4
  -1   7   6 3861.31 667.084   6
  -1   7   6 3926.23 822.274   5
   1  -7  -5 249.190 437.272   3
  -1   7   5 425.483 358.559   5
  -1   7   5 218.797 296.589   6
  -1   7   5 35.0590 394.209   4
  -1   7   4 20866.8 1872.31   5
   1  -7  -4 19168.5 1821.19   3
  -1   7   4 18812.5 1735.27   4
  -1   7   4 17835.6 1200.34   6
   1  -7  -3 9697.39 1360.41   3
   1  -7  -2 10712.1 1442.88   3
   1  -7  -1 6.68664 478.145   3
   1  -7   0 151.989 540.202   3
   1  -7   1 2650.50 778.585   3
   1  -7   2 12017.9 1649.13   3
   1  -7   3 5537.00 1141.05   3
  -1   6  14 9794.76 1565.54   4
  -1   6  13 674.703 616.374   4
   1  -6 -13-121.796 573.148   2
  -1   6  13 870.469 659.461   6
  -1   6  12 5294.69 1119.47   6
   1  -6 -12 4014.20 1031.63   2
  -1   6  12 5291.11 1089.98   4
  -1   6  11-115.161 522.809   4
   1  -6 -11 852.386 561.370   2
  -1   6  11-791.192 515.239   6
   1  -6 -10 9384.20 1350.00   2
  -1   6  10 8579.95 1231.83   6
  -1   6  10 7429.10 1102.31   4
   1  -6  -9 30671.1 2200.25   2
  -1   6   9 33496.7 2336.37   6
   1  -6  -9 32552.1 1900.01   3
  -1   6   9 30487.0 2122.29   4
   1  -6  -8 11473.3 1331.08   2
   1  -6  -8 12600.9 1252.10   3
  -1   6   8 11469.5 1282.86   4
  -1   6   8 12713.2 1372.50   6
  -1   6   7 2200.08 628.686   4
  -1   6   7 1941.10 590.026   6
   1  -6  -7 2027.70 638.380   2
   1  -6  -7 1692.51 549.280   3
  -1   6   7 459.336 307.248   5
  -1   6   6 1163.89 467.411   6
  -1   6   6 561.648 353.362   5
   1  -6  -6 894.293 429.848   2
   1  -6  -6 1277.09 561.446   3
  -1   6   6 1879.96 589.021   4
  -1   6   5 9352.36 1153.56   4
  -1   6   5 10736.8 1019.38   6
  -1   6   5 10537.0 1172.96   5
   1  -6  -5 11013.6 1290.26   3
   1  -6  -5 10481.7 1182.18   2
  -1   6   4 29989.2 2005.41   4
  -1   6   4 29674.6 1539.52   6
   1  -6  -4 32854.0 2173.77   3
  -1   6   4 29746.9 1945.15   5
  -1   6   3 21095.3 1161.78   6
   1  -6  -3 21298.7 1832.56   3
   1  -6  -2 1310.92 439.317   1
   1  -6  -2 2445.42 693.089   3
  -1   6   2 1360.21 295.196   6
   1  -6  -1 6569.52 811.443   1
   1  -6  -1 9019.15 1240.45   3
   1  -6   0 13501.4 1544.56   3
   1  -6   0 11007.3 809.636   1
   1  -6   1 6213.94 1116.73   3
   1  -6   2 23638.9 2141.33   3
   1  -6   3 229.259 411.121   3
   1  -6   4-564.092 461.870   3
   1  -6   5 2420.62 773.782   3
   1  -6   6 19953.5 2157.75   3
   1  -5 -14 5514.57 1251.93   2
  -1   5  13-460.811 616.413   6
   1  -5 -13 452.846 526.513   2
  -1   5  12-229.566 482.383   4
  -1   5  12-138.700 441.947   6
   1  -5 -12 717.258 586.944   2
   1  -5 -11 14568.9 1607.23   2
  -1   5  11 12314.6 1523.48   4
  -1   5  11 13208.1 1554.13   6
   1  -5 -10 45766.6 2683.08   2
  -1   5  10 50724.8 2886.70   6
  -1   5  10 46681.0 2625.97   4
   1  -5 -10 45995.8 1928.27   3
   1  -5  -9 1504.54 501.457   3
  -1   5   9 1261.16 506.068   4
   1  -5  -9 629.801 452.797   2
  -1   5   9 21.3760 367.740   6
   1  -5  -8 1282.33 481.141   3
  -1   5   8 455.078 396.821   6
   1  -5  -8 249.711 394.948   2
  -1   5   8-246.667 419.663   4
  -1   5   7 3314.89 688.509   4
   1  -5  -7 2930.62 660.001   3
   1  -5  -7 2521.35 635.788   2
  -1   5   7 2952.87 696.077   6
  -1   5   6 7841.63 950.594   6
  -1   5   6 7420.10 918.632   5
   1  -5  -6 8173.72 1015.38   2
  -1   5   6 6813.49 976.724   4
   1  -5  -6 9663.99 1054.78   3
  -1   5   5 54993.9 2326.98   5
   1  -5  -5 54823.4 2547.72   3
   1  -5  -5 56644.8 2469.05   2
  -1   5   5 54255.6 2445.53   4
  -1   5   5 58229.8 2293.62   6
   1  -5  -4 32566.4 1873.63   2
   1  -5  -4 32909.5 2040.12   3
  -1   5   4 31549.1 1898.83   4
  -1   5   4 33460.0 1583.80   6
  -1   5   4 32710.3 1829.56   5
  -1   5   3-261.521 271.741   6
   1  -5  -3-484.485 519.465   3
   1  -5  -2 327.972 459.968   3
  -1   5   2 249.611 185.242   6
  -1   5   1 47468.6 1207.61   6
   1  -5  -1 51630.8 2692.01   3
   1  -5  -1 47026.3 1936.98   1
   1  -5   0 25639.4 1255.45   1
   1  -5   0 24907.9 1948.36   3
   1  -5   1 60286.0 1416.79   1
   1  -5   1 62586.5 1505.80   1
   1  -5   2 166.457 460.611   3
   1  -5   3-94.3225 465.497   3
   1  -5   4 3101.91 816.685   3
   1  -5   5 31621.1 2400.21   3
   1  -5   6 405.410 382.971   3
   1  -5   7-721.433 590.183   3
   1  -5   8-42.5270 533.897   3
  -1   5  -8 300.130 592.116   2
   1  -4 -14 3714.87 985.151   2
  -1   4  13 90.1422 505.687   6
   1  -4 -13 1299.39 714.874   2
   1  -4 -12 30696.1 2345.12   2
  -1   4  12 26107.4 2161.63   4
  -1   4  12 30239.4 2441.47   6
  -1   4  11 16863.5 1645.37   4
   1  -4 -11 13918.4 1516.74   2
  -1   4  11 15697.2 1699.66   6
  -1   4  10 538.863 431.599   4
   1  -4 -10 265.855 397.399   2
  -1   4  10-50.0949 361.827   6
   1  -4 -10 633.324 282.301   3
  -1   4   9 255.289 382.296   4
   1  -4  -9-709.229 353.492   3
   1  -4  -9 148.246 265.500   3
  -1   4   9 824.713 551.884   6
   1  -4  -9 293.740 419.068   2
   1  -4  -8 350.698 371.271   3
  -1   4   8 457.474 377.295   4
   1  -4  -8-155.871 366.431   2
  -1   4   8 75.6334 413.678   6
  -1   4   7 38421.1 2016.89   4
   1  -4  -7 41806.5 1816.18   3
   1  -4  -7 42201.0 2116.88   2
  -1   4   7 42061.4 2187.42   6
  -1   4   6 40930.3 2044.00   6
   1  -4  -6 41704.8 1867.65   3
  -1   4   6 38997.1 1755.01   5
  -1   4   6 41989.6 2062.41   4
  -1   4   6 41539.4 2011.38   2
   1  -4  -6 39948.0 1951.61   2
   1  -4  -5 15257.1 1229.70   3
  -1   4   5 14779.1 1095.79   5
   1  -4  -5 15817.6 1198.45   2
  -1   4   5 15148.9 1159.03   6
  -1   4   5 13135.9 1140.26   4
  -1   4   5 13620.0 1121.02   2
   1  -4  -4 1478.51 490.882   3
  -1   4   4 1163.22 379.442   2
  -1   4   4 1968.35 551.154   4
  -1   4   4 983.402 403.603   5
   1  -4  -4 2008.93 477.606   2
  -1   4   4 1145.80 358.240   6
   1  -4  -3 86654.3 2638.00   2
   1  -4  -3 84278.3 2945.93   3
  -1   4   3 90987.6 2866.23   4
  -1   4   3 88729.2 2270.01   6
  -1   4   3 84135.1 2610.70   2
  -1   4   2 26288.4 1066.39   6
  -1   4   2 28281.9 1496.92   2
   1  -4  -2 28848.8 1815.49   3
  -1   4   1 75407.5 2400.68   2
   1  -4  -1 75955.5 2947.44   3
  -1   4   1 73444.3 2887.45   3
  -1   4   1 75422.7 1486.59   6
   1  -4   0 8536.44 1058.70   3
  -1   4   0 8595.74 848.813   2
   1  -4   1 4635.06 444.339   1
   1  -4   1 4894.51 878.465   3
  -1   4  -1 4731.04 661.627   2
   1  -4   1 4306.72 387.131   1
   1  -4   2 17090.5 1516.34   3
   1  -4   3 35894.6 2224.57   3
   1  -4   4 14130.4 1462.87   3
   1  -4   5-135.614 421.377   3
   1  -4   6 445.110 448.958   3
   1  -4   7 808.493 503.535   3
  -1   4  -8 26001.7 2267.69   2
   1  -4   8 27393.3 2209.94   3
   1  -4   9 8192.73 1293.73   3
  -1   4  -9 5991.53 1219.98   2
   1  -4  10 2000.40 683.578   3
  -1   3  14 2865.11 834.510   6
   1  -3 -14 502.514 453.459   2
  -1   3  13 27832.1 2409.34   6
   1  -3 -13 28595.5 2287.62   2
   1  -3 -12 954.251 540.851   2
  -1   3  12 481.183 434.218   6
  -1   3  11 7491.11 1166.36   6
   1  -3 -11 5957.53 995.223   2
   1  -3 -10 1021.45 439.638   2
   1  -3 -10 756.869 303.736   5
  -1   3  10 822.889 368.379   4
   1  -3 -10 595.458 245.789   3
  -1   3  10 302.127 508.790   6
  -1   3   9 44812.0 2291.44   4
   1  -3  -9 42745.4 1902.31   5
   1  -3  -9 47210.8 1547.63   3
   1  -3  -9 46424.4 2356.23   2
  -1   3   9 45695.2 2528.02   6
  -1   3   8 43985.1 2180.26   4
   1  -3  -8 44668.7 2171.86   2
   1  -3  -8 41841.9 1489.50   3
  -1   3   8 44805.1 2346.31   6
   1  -3  -8 40822.6 1776.08   5
  -1   3   7 24701.1 1560.07   4
   1  -3  -7 23398.9 1503.25   4
   1  -3  -7 24777.2 1508.87   2
  -1   3   7 25040.3 1642.85   6
   1  -3  -7 22852.4 1276.47   5
  -1   3   7 24608.0 1497.66   2
   1  -3  -6 1664.74 435.643   4
  -1   3   6 2220.36 483.773   2
  -1   3   6 2374.74 486.744   4
  -1   3   6 1412.53 450.115   6
   1  -3  -6 1761.10 544.531   6
   1  -3  -6 1670.91 425.267   2
   1  -3  -5 14604.2 959.303   3
   1  -3  -5 15581.4 1159.77   6
  -1   3   5 14754.6 1111.72   6
  -1   3   5 15221.1 1146.09   4
  -1   3   5 13845.4 915.454   5
  -1   3   5 15386.5 1070.15   2
   1  -3  -5 15664.4 1084.22   2
   1  -3  -5 15587.9 1130.69   4
   1  -3  -4 87795.5 2408.79   2
   1  -3  -4 86702.7 2452.93   6
  -1   3   4 85592.4 2406.86   2
   1  -3  -4 89463.8 2424.61   3
  -1   3   4 87749.0 2257.52   5
  -1   3   4 83019.7 2518.80   4
  -1   3   4 90399.7 2432.66   6
   1  -3  -3 12620.0 904.016   2
  -1   3   3 11262.5 848.487   2
  -1   3   3 10788.8 919.658   4
   1  -3  -3 12833.8 1015.29   3
  -1   3   3 11890.0 811.541   6
  -1   3   2 12206.1 863.999   2
   1  -3  -2 11620.4 1011.93   3
  -1   3   2 10801.7 659.746   6
   1  -3  -2 11856.2 848.525   2
   1  -3  -1 26529.7 1603.63   3
  -1   3   1 26881.9 825.997   6
  -1   3   1 26492.4 1238.35   2
  -1   3   0 13979.2 926.156   2
  -1   3   0 14999.5 1239.23   3
   1  -3   0 15453.6 1283.94   3
   1  -3   1 49880.0 1104.75   1
  -1   3  -1 50210.2 2316.78   3
   1  -3   1 51710.9 2325.42   3
  -1   3  -2 45260.3 2292.50   3
   1  -3   2 46228.0 2258.92   3
   1  -3   3 19694.3 1501.71   3
  -1   3  -3 18652.8 1581.69   3
   1  -3   4 2529.43 587.361   3
   1  -3   5 10242.4 1158.93   3
   1  -3   6 21141.1 1616.09   3
   1  -3   7 46720.9 2504.00   3
  -1   3  -7 50767.7 2768.68   2
   1  -3   8 13093.4 1372.30   3
  -1   3  -8 13667.6 1519.69   2
  -1   3  -9 1178.17 593.642   2
   1  -3   9 1.80054 417.822   3
   1  -3  10 624.947 405.707   3
  -1   3 -10-265.277 585.911   2
   1  -3  11 1389.18 520.728   3
  -1   2  14 18203.4 2019.82   6
   1  -2 -14 17591.3 1902.43   2
  -1   2  13 1321.44 615.521   6
   1  -2 -13 2334.29 674.724   2
   1  -2 -12 2976.55 739.545   2
  -1   2  12 4196.75 906.463   6
   1  -2 -11 9887.60 1214.46   2
  -1   2  11 9101.73 1248.37   6
   1  -2 -10 40108.8 1511.20   3
  -1   2  10 44628.3 2526.94   6
   1  -2 -10 41358.6 2301.63   2
   1  -2  -9 33361.4 1905.80   2
   1  -2  -9 32277.4 1300.29   3
  -1   2   9 32952.8 1949.02   4
  -1   2   9 30048.3 1964.50   6
  -1   2   8 4507.08 766.513   6
   1  -2  -8 4610.31 687.146   2
   1  -2  -8 4277.88 476.682   3
  -1   2   8 4227.62 697.122   4
   1  -2  -7 5484.18 502.306   3
   1  -2  -7 6045.55 869.099   6
   1  -2  -7 5682.06 585.792   5
   1  -2  -7 5965.98 734.777   2
  -1   2   7 5189.78 685.969   2
  -1   2   7 5349.90 702.105   4
  -1   2   7 4550.71 722.998   6
   1  -2  -7 6186.62 745.132   4
  -1   2   6 1784.89 434.807   4
  -1   2   6 1259.61 419.560   6
   1  -2  -6 1780.07 305.897   5
  -1   2   6 1769.29 394.382   2
   1  -2  -6 1836.28 408.980   2
   1  -2  -6 1172.19 347.119   4
   1  -2  -6 995.515 407.077   6
   1  -2  -5 88448.5 2506.98   6
  -1   2   5 88941.4 2463.91   4
  -1   2   5 88047.5 2307.59   2
   1  -2  -5 88789.9 2329.22   2
  -1   2   5 88225.5 2512.43   6
   1  -2  -5 90037.7 1996.12   5
   1  -2  -5 87933.4 2448.79   4
   1  -2  -4 24559.9 1216.89   6
  -1   2   4 22862.0 1224.96   4
   1  -2  -4 26144.1 1156.75   2
   1  -2  -4 22778.4 1199.32   4
  -1   2   4 23009.8 1087.02   2
  -1   2   4 24194.5 1196.44   6
  -1   2   3 746.521 243.736   2
  -1   2   3 1025.25 307.452   4
  -1   2   3 599.492 249.843   6
  -1   2   3 598.240 232.379   5
   1  -2  -3 738.891 275.519   2
   1  -2  -3 605.074 251.786   6
  -1   2   2 7169.39 677.937   4
  -1   2   2 7844.77 594.198   2
   1  -2  -2 8783.28 725.093   3
   1  -2  -2 8180.47 552.798   6
  -1   2   2 7914.58 537.212   6
   1  -2  -2 8525.91 600.215   2
   1  -2  -1 689.213 192.198   6
  -1   2   1 551.233 153.168   6
  -1   2   1 693.017 207.779   2
   1  -2  -1 708.094 353.129   3
  -1   2   0 98553.3 2619.26   3
   1  -2   0 102655. 2710.13   3
  -1   2   0 100256. 1977.73   2
   1  -2   1 44747.7 1915.39   3
   1  -2   1 44415.1 914.986   1
  -1   2  -1 44703.5 1874.93   3
  -1   2  -2 68932.4 2428.89   3
   1  -2   2 73234.6 2479.32   3
   1  -2   3-137.546 290.044   3
  -1   2  -3 402.098 370.424   3
  -1   2  -4 57280.2 2537.80   3
   1  -2   4 59474.8 2275.90   3
   1  -2   4 59842.4 1300.02   6
   1  -2   5 7547.44 569.107   6
   1  -2   5 8197.40 895.406   3
  -1   2  -5 7864.02 1018.33   3
  -1   2  -6 83287.6 3062.77   2
   1  -2   6 77230.7 1986.65   6
   1  -2   6 81944.8 2794.97   3
   1  -2   7 47269.6 1725.58   6
   1  -2   7 46395.3 2160.50   3
  -1   2  -7 44751.3 2377.93   2
   1  -2   8 2399.05 568.981   3
   1  -2   8 2938.24 488.502   6
  -1   2  -8 2005.17 177.154   1
   1  -2   9 392.370 366.291   3
   1  -2   9 903.287 313.314   6
   1  -2  10 4504.31 709.605   6
   1  -2  10 3735.45 746.748   3
  -1   2 -10 4299.67 905.707   2
   1  -2  11 14904.2 1423.36   3
  -1   2 -11 15741.2 1806.81   2
  -1   1  14 579.982 471.259   6
   1  -1 -14-383.851 551.246   2
   1  -1 -13 1762.88 670.650   2
  -1   1  13 3036.03 850.016   6
   1  -1 -12 3938.99 818.784   2
  -1   1  12 3337.20 839.702   6
  -1   1  11 19475.8 1725.96   6
   1  -1 -11 18705.6 1655.84   2
   1  -1 -10 34265.5 2077.76   2
   1  -1 -10 29182.3 1424.30   3
  -1   1  10 32137.1 2086.67   6
   1  -1  -9 845.727 357.534   2
   1  -1  -9 607.463 276.937   3
  -1   1   9 473.561 400.880   6
   1  -1  -8 179.485 281.066   2
  -1   1   8 126.659 322.571   6
   1  -1  -8 424.932 188.449   3
  -1   1   7 3571.34 634.141   6
   1  -1  -7 2603.51 528.393   4
   1  -1  -7 3119.79 546.484   2
   1  -1  -7 3273.55 415.684   3
  -1   1   7 3066.74 550.484   2
   1  -1  -7 2303.77 513.002   6
  -1   1   7 3715.43 604.576   4
  -1   1   6 128639. 3051.36   4
   1  -1  -6 127145. 3081.80   4
  -1   1   6 122970. 3095.00   6
   1  -1  -6 124880. 3160.51   6
   1  -1  -6 125736. 2945.57   2
  -1   1   6 126965. 2945.54   2
   1  -1  -6 127368. 2283.31   3
   1  -1  -5 33742.1 1108.52   3
   1  -1  -5 33031.6 1452.45   4
   1  -1  -5 35587.2 1538.01   6
  -1   1   5 35736.5 1410.09   2
   1  -1  -5 34801.8 1403.63   2
  -1   1   5 35280.1 1474.07   4
  -1   1   5 34128.4 1496.02   6
  -1   1   4 194075. 3170.23   4
  -1   1   4 197562. 3254.82   6
   1  -1  -4 194485. 2274.95   5
  -1   1   4 197202. 2932.85   2
   1  -1  -4 200356. 3246.98   4
   1  -1  -4 198866. 2945.80   2
   1  -1  -4 196974. 3267.10   6
   1  -1  -3 6852.04 574.101   4
  -1   1   3 6357.49 468.202   2
   1  -1  -3 6312.34 387.706   5
  -1   1   3 6625.04 593.126   4
  -1   1   3 6583.77 546.818   6
   1  -1  -3 5913.58 517.932   6
   1  -1  -3 6437.52 475.561   2
   1  -1  -2 2083.69 288.900   6
  -1   1   2 1890.78 359.118   4
   1  -1  -2 2168.06 269.316   2
  -1   1   2 2133.55 291.072   6
  -1   1   2 1769.72 243.664   2
   1  -1  -2 1851.78 340.149   4
  -1   1   1 221520. 2113.99   2
   1  -1  -1 222081. 2058.31   2
   1  -1  -1 218183. 2065.86   6
  -1   1   1 215772. 2051.25   6
   1  -1   0 295606. 3533.10   3
   1  -1   0 289696. 2521.00   1
   1  -1   1 35683.3 745.978   1
  -1   1  -1 36189.3 767.617   1
  -1   1  -1 37356.4 1373.16   3
   1  -1   1 36885.8 1431.60   3
   1  -1   2 220.124 248.130   3
  -1   1  -2 234.010 80.2375   1
   1  -1   2 345.470 96.8682   6
  -1   1  -2 622.826 319.860   3
   1  -1   2 345.730 106.464   1
  -1   1  -3 4218.65 267.594   1
   1  -1   3 4649.45 300.132   1
   1  -1   3 5053.95 358.506   6
   1  -1   3 4435.34 565.545   3
  -1   1  -3 4981.40 632.193   3
   1  -1   4-6.41307 146.062   6
  -1   1  -4 211.368 128.636   1
   1  -1   4-101.818 235.438   3
  -1   1  -4 344.265 304.174   3
  -1   1  -4 41.8688 219.585   2
  -1   1  -5 47728.1 1973.43   2
   1  -1   5 46462.1 1773.84   3
  -1   1  -5 42747.5 1995.24   3
  -1   1  -5 45777.8 1100.85   1
   1  -1   5 48583.7 1493.14   6
   1  -1   6 32080.7 1364.39   6
  -1   1  -6 34374.2 1883.91   3
  -1   1  -6 33989.5 1807.88   2
   1  -1   6 33433.4 1569.94   3
  -1   1  -6 32008.7 1028.29   1
   1  -1   7 158.434 233.708   6
  -1   1  -7 107.059 177.611   1
  -1   1  -7-387.941 343.996   2
   1  -1   7 313.762 293.135   3
  -1   1  -7 38.5328 507.479   3
   1  -1   8 2428.56 497.893   6
  -1   1  -8 2706.16 659.095   2
   1  -1   8 1965.85 478.759   3
  -1   1  -8 1977.64 329.850   1
  -1   1  -8 3514.53 763.995   3
   1  -1   9 10357.5 1016.13   6
  -1   1  -9 8831.11 719.662   1
   1  -1   9 8087.49 859.965   3
   1  -1  10 37611.8 2031.15   6
   1  -1  10 36935.4 1900.10   3
  -1   1 -10 41041.5 2555.80   2
  -1   1 -11 16488.0 1714.41   2
   1  -1  11 15962.7 1322.80   3
   1  -1  11 16287.0 1426.87   6
  -1   1 -12-327.684 631.179   2
   1  -1  12 331.589 371.276   6
  -1   0  14 715.001 631.045   6
   1   0 -13 799.271 620.084   2
   1   0 -13 326.174 317.239   1
  -1   0  13-432.821 515.761   6
  -1   0  12 29062.8 2186.14   6
   1   0 -12 31163.2 2298.27   2
  -1   0  11 19082.0 1295.16   3
  -1   0  11 22696.0 1832.71   6
   1   0 -11 25266.3 1931.44   2
   1   0 -10 1236.92 493.182   2
  -1   0  10 595.387 324.065   3
   1   0 -10 2230.78 495.073   3
  -1   0  10 2566.20 683.295   6
   1   0  -9 6583.48 787.771   3
  -1   0   9 6011.39 868.302   6
   1   0  -9 4965.47 818.725   2
  -1   0   9 4277.47 605.928   3
   1   0  -8 17070.1 1331.44   2
   1   0  -8 18911.6 1144.29   3
  -1   0   8 17164.9 1085.38   3
  -1   0   8 18345.3 1369.43   6
   1   0  -7 53450.8 2212.18   4
  -1   0   7 55873.9 1794.49   3
  -1   0   7 54816.8 2190.93   6
   1   0  -7 54227.1 1796.38   3
   1   0  -7 54636.4 2172.29   2
   1   0  -7 56442.9 2260.95   6
   1   0  -6 154091. 3326.21   2
   1   0  -6 149298. 2732.41   3
  -1   0   6 148460. 2725.55   3
   1   0  -6 151006. 3403.68   4
  -1   0   6 149429. 3330.96   6
   1   0  -6 149689. 3361.57   6
   1   0  -5 77868.2 2172.44   2
   1   0  -5 76609.2 1810.33   3
   1   0  -5 80769.3 2264.14   6
   1   0  -5 78808.7 2249.41   4
  -1   0   5 78479.1 2211.30   6
  -1   0   5 77895.9 1836.31   3
  -1   0   4 9239.73 722.561   4
   1   0  -4 10027.9 733.345   4
   1   0  -4 9506.68 594.279   3
  -1   0   4 9569.13 721.581   6
   1   0  -4 9677.49 690.709   2
   1   0  -4 9302.02 704.077   6
  -1   0   4 8641.41 586.130   3
   1   0  -3 9482.96 643.320   6
   1   0  -3 9468.37 591.215   2
  -1   0   3 8928.96 623.614   4
  -1   0   3 9273.26 572.108   2
  -1   0   3 9553.04 633.876   6
  -1   0   3 8744.50 537.144   3
   1   0  -3 9513.86 535.904   3
   1   0  -3 9464.72 644.494   4
   1   0  -2 358097. 2780.80   2
   1   0  -2 363711. 3282.59   6
   1   0  -2 369162. 3317.38   4
  -1   0   2 358925. 3281.27   6
  -1   0   2 371501. 3310.74   4
  -1   0   2 361267. 2761.24   2
   1   0  -2 367098. 3016.47   3
  -1   0   1 166755. 1962.86   4
  -1   0   1 167046. 1940.06   1
   1   0  -1 163162. 1808.13   6
   1   0  -1 165624. 1953.87   4
   1   0  -1 166931. 1952.92   1
  -1   0   0 365.886 114.084   1
   1   0   0 576.854 134.709   1
  -1   0  -1 760.292 149.671   2
   1   0   1 888.241 158.480   1
  -1   0  -1 851.374 157.986   1
  -1   0  -2 97.5828 147.981   2
   1   0   2 163.846 243.872   3
   1   0   2 255.926 153.188   1
  -1   0  -2 306.625 145.232   1
  -1   0  -3 52321.3 1406.37   3
   1   0   3 50599.6 1191.34   1
  -1   0  -3 50998.0 1133.62   1
   1   0   3 53371.4 1348.10   6
   1   0   3 49954.9 1390.48   3
  -1   0  -3 50401.9 1477.32   2
   1   0   4 9608.99 662.896   6
  -1   0  -4 10889.2 797.253   2
  -1   0  -4 10809.7 720.332   3
   1   0   4 11014.2 683.612   3
  -1   0  -4 10727.3 594.520   1
   1   0   5 870.771 255.954   3
  -1   0  -5 1002.50 311.326   3
  -1   0  -5 813.322 244.043   1
   1   0   5 580.414 253.666   6
  -1   0  -5 763.167 284.359   2
  -1   0  -6 508.157 224.833   1
  -1   0  -6 568.013 289.836   2
  -1   0  -6-75.2270 288.827   3
   1   0   6 386.493 226.150   6
   1   0   6 275.872 178.113   3
   1   0   7 50268.8 1979.39   6
  -1   0  -7 47035.0 1656.20   1
  -1   0  -7 48967.3 2183.75   2
   1   0   7 49425.6 1641.12   3
  -1   0  -7 46988.6 1889.57   3
  -1   0  -8 8696.61 807.314   1
  -1   0  -8 10005.8 933.852   3
   1   0   8 11220.8 1005.36   6
  -1   0  -8 10841.6 1114.15   2
   1   0   8 10116.7 795.396   3
  -1   0  -9 44641.5 1995.83   3
   1   0   9 45530.6 2166.91   6
  -1   0  -9 48262.5 2463.65   2
   1   0   9 45269.4 1735.91   3
  -1   0  -9 44168.9 1838.71   1
  -1   0 -10 6675.56 1009.12   2
  -1   0 -10 5132.20 709.303   1
   1   0  10 4532.27 594.587   3
   1   0  10 5816.13 873.753   6
  -1   0 -10 4744.70 715.554   3
   1   0  11 1259.29 374.688   3
  -1   0 -11 2359.51 656.439   2
   1   0  11 1777.68 573.387   6
  -1   0 -12 6133.96 1091.55   2
   1   0  12 6229.98 1037.43   6
   1   0  13 49855.7 2878.80   6
  -1   0 -13 58254.0 3462.19   2
   1   0  14 3364.24 832.026   6
  -1  -1  14 668.187 472.202   6
   1   1 -13 26612.2 2330.27   2
  -1  -1  13 25280.7 2120.93   6
   1   1 -12 7823.89 1245.60   2
  -1  -1  12 9095.88 1239.99   6
  -1  -1  12 8209.55 987.464   3
   1   1 -11-439.793 508.747   2
  -1  -1  11-31.5227 258.263   3
   1   1 -11 478.127 392.337   1
  -1  -1  11 313.053 328.706   6
  -1  -1  10 930.049 404.594   3
   1   1 -10 1338.36 608.505   2
   1   1 -10 644.330 253.433   1
  -1  -1  10 1231.36 504.460   6
   1   1  -9 40654.2 1785.72   1
  -1  -1   9 42944.4 1927.85   3
   1   1  -9 39722.2 2056.26   3
  -1  -1   9 43187.4 2201.61   6
   1   1  -9 45549.3 2418.21   2
  -1  -1   8 31186.6 1747.63   6
   1   1  -8 27283.9 1586.71   3
  -1  -1   8 28152.8 1502.18   3
   1   1  -8 29934.7 1854.40   2
   1   1  -7 65371.8 2426.52   6
  -1  -1   7 66702.1 2387.43   6
   1   1  -7 65295.2 2244.22   3
  -1  -1   7 62946.3 2114.23   3
   1   1  -7 66061.4 2543.47   2
   1   1  -6 927.128 296.231   3
   1   1  -6 653.958 281.241   6
   1   1  -6 844.674 286.621   2
  -1  -1   6 1026.99 341.877   6
   1   1  -6 978.694 389.764   4
  -1  -1   6 960.123 278.092   3
   1   1  -5 1127.93 304.906   3
  -1  -1   5 1087.45 294.849   3
   1   1  -5 1245.91 371.871   4
   1   1  -5 1417.73 330.974   6
  -1  -1   5 1079.08 320.416   6
   1   1  -5 1128.60 245.055   1
   1   1  -5 1325.09 383.307   2
   1   1  -4 45584.9 1285.44   1
  -1  -1   4 42285.6 1473.18   6
  -1  -1   4 42951.3 1427.47   3
   1   1  -4 42733.8 1425.97   3
   1   1  -4 42484.5 1569.66   4
   1   1  -4 43541.5 1486.78   6
  -1  -1   3 44922.2 1340.82   6
   1   1  -3 44050.4 1316.89   3
   1   1  -3 44073.9 1346.47   6
   1   1  -3 45501.5 1155.78   1
  -1  -1   3 42524.0 1313.43   3
   1   1  -3 40920.5 1383.33   4
  -1  -1   2 248.340 167.509   3
  -1  -1   2 234.633 143.857   1
   1   1  -2 352.032 184.980   3
   1   1  -2 105.549 190.568   6
   1   1  -2 448.163 161.419   1
   1   1  -2 291.334 198.629   4
   1   1  -1 546.439 158.263   3
  -1  -1   1 604.638 158.376   3
  -1  -1   1 607.550 138.719   1
   1   1  -1 447.029 129.363   1
   1   1  -1 598.358 169.070   4
   1   1   0 262.709 107.392   3
  -1  -1   0 227.106 99.0103   2
  -1  -1   0 161.732 107.134   3
  -1  -1   0 235.741 117.978   1
   1   1   0 71.2265 91.9524   2
   1   1   0 227.102 105.787   1
  -1  -1   0 154.681 92.5871   5
   1   1   0 212.136 119.793   5
   1   1   1 191778. 1686.88   3
   1   1   1 197909. 2093.56   1
  -1  -1  -1 192848. 2085.75   1
  -1  -1  -1 198719. 2030.48   2
   1   1   2 284774. 2832.48   2
  -1  -1  -2 282775. 2857.35   2
  -1  -1  -2 290910. 2881.12   1
   1   1   2 293605. 2913.38   1
  -1  -1  -3 22891.0 921.431   1
   1   1   3 23037.1 609.975   3
  -1  -1  -3 22958.5 954.276   2
   1   1   3 24583.5 971.137   2
   1   1   3 24787.0 974.667   1
  -1  -1  -4 50176.2 1582.07   2
   1   1   4 50039.7 917.702   3
   1   1   4 47782.3 1683.57   6
  -1  -1  -4 50705.7 1521.74   1
   1   1   4 52205.5 1612.86   2
  -1  -1  -5 199686. 2203.16   3
  -1  -1  -5 194381. 3490.00   2
  -1  -1  -5 192428. 3284.90   1
   1   1   5 195489. 1999.48   3
   1   1   5 199640. 3577.51   6
   1   1   5 198989. 3557.49   2
  -1  -1  -6 97263.7 2516.28   4
   1   1   6 102167. 1619.67   3
  -1  -1  -6 103050. 2787.88   2
   1   1   6 95646.5 2718.75   6
  -1  -1  -6 100089. 1800.71   3
   1   1   6 102982. 2803.32   2
  -1  -1  -6 100110. 2575.97   1
  -1  -1  -7 50887.9 2124.50   2
  -1  -1  -7 51584.1 1995.66   4
  -1  -1  -7 49105.1 1937.54   1
  -1  -1  -7 49321.3 1411.14   3
   1   1   7 50333.6 2153.78   2
   1   1   7 50136.2 1257.60   3
   1   1   7 48052.9 2073.12   6
  -1  -1  -8 427.497 335.204   2
  -1  -1  -8 560.513 349.112   1
  -1  -1  -8 22.7518 257.113   4
   1   1   8 137.256 301.493   6
   1   1   8 239.075 132.642   3
  -1  -1  -8 823.414 293.293   3
   1   1   9 43.8439 183.275   3
  -1  -1  -9 166.796 268.058   3
  -1  -1  -9-66.1066 396.327   1
   1   1   9-95.6838 356.181   6
  -1  -1  -9 145.919 316.615   2
  -1  -1 -10 568.340 372.824   2
   1   1  10 532.122 403.050   6
  -1  -1 -10 291.694 234.705   3
   1   1  10 412.063 206.117   3
   1   1  11 10575.8 770.317   3
  -1  -1 -11 13699.0 1518.30   2
   1   1  11 12242.6 1335.99   6
   1   1  12 23239.0 1942.60   6
  -1  -1 -12 26493.8 2129.34   2
   1   1  13 714.188 441.191   6
  -1  -1 -13 1477.72 771.222   2
   1   1  14 1591.02 652.019   6
   1   2 -12-208.625 617.474   2
  -1  -2  12 217.537 422.751   3
   1   2 -11 9330.25 1308.29   2
  -1  -2  11 7148.89 958.460   3
   1   2 -10 15932.9 1649.78   2
   1   2 -10 14513.2 995.003   1
  -1  -2  10 14786.4 1322.89   3
  -1  -2   9 11202.8 1109.59   3
  -1  -2   9 11863.0 1145.49   6
   1   2  -9 10948.4 833.098   1
   1   2  -9 11520.4 1308.30   2
  -1  -2   8 63.7435 249.242   3
   1   2  -8-200.098 396.608   2
  -1  -2   8 847.416 370.175   6
   1   2  -8-29.6392 212.659   1
   1   2  -7-228.018 440.814   3
   1   2  -7 180.097 212.191   1
  -1  -2   7 193.394 263.013   3
   1   2  -7 135.189 298.654   6
  -1  -2   7 321.114 294.728   6
   1   2  -7 292.244 378.702   2
   1   2  -6 12373.2 720.693   1
   1   2  -6 13013.6 991.893   6
   1   2  -6 12104.9 1065.43   3
  -1  -2   6 11894.0 982.058   3
   1   2  -5 90529.2 1781.42   1
   1   2  -5 90064.1 2633.33   3
   1   2  -5 92670.5 2422.88   6
  -1  -2   5 91831.4 2526.29   3
   1   2  -4 1874.72 341.896   6
   1   2  -4 1951.03 260.482   1
   1   2  -4 1655.58 375.398   3
  -1  -2   4 1424.17 349.131   3
   1   2  -3 25462.5 1072.07   6
  -1  -2   3 25295.8 1179.81   3
   1   2  -3 26412.0 810.517   1
   1   2  -3 26741.0 1246.50   3
   1   2  -2 2070.63 348.651   3
   1   2  -2 1940.77 231.141   1
  -1  -2   2 1888.43 342.250   3
  -1  -2   2 1854.93 217.356   1
   1   2  -1 90575.0 1929.70   3
   1   2  -1 89985.5 1428.47   1
  -1  -2   1 85486.3 1884.46   3
  -1  -2   1 88211.8 1395.57   1
   1   2   0 192581. 2524.44   3
   1   2   0 190669. 2203.60   1
  -1  -2   0 187168. 2518.49   3
  -1  -2   0 187598. 2194.16   1
   1   2   0 187559. 2569.49   2
  -1  -2  -1 273522. 3179.17   2
   1   2   1 279152. 3203.42   5
   1   2   1 282928. 2967.24   1
  -1  -2  -1 280951. 2694.26   3
   1   2   1 274580. 3147.67   2
   1   2   1 278702. 2720.03   3
  -1  -2  -1 270996. 2932.73   1
  -1  -2  -2 3877.80 446.238   2
  -1  -2  -2 4034.61 409.079   5
  -1  -2  -2 4138.90 295.554   3
   1   2   2 3642.75 456.613   1
   1   2   2 4054.42 248.015   4
   1   2   2 3888.82 291.946   3
  -1  -2  -2 4041.46 438.765   1
   1   2   2 3995.00 440.877   2
   1   2   3 5219.33 567.539   1
  -1  -2  -3 4697.01 242.343   3
  -1  -2  -3 5020.19 536.951   1
   1   2   3 5319.19 525.265   2
   1   2   3 4721.62 250.942   3
  -1  -2  -3 4948.58 508.649   2
   1   2   3 5191.50 351.579   4
  -1  -2  -3 4770.31 332.732   4
  -1  -2  -4 193806. 3236.13   2
   1   2   4 190657. 3564.89   6
  -1  -2  -4 187777. 2467.95   4
  -1  -2  -4 186337. 3353.57   1
   1   2   4 195507. 3223.38   2
   1   2   5 110904. 2903.93   6
   1   2   5 112782. 2659.97   2
  -1  -2  -5 110569. 2224.95   4
  -1  -2  -5 111272. 2682.97   2
  -1  -2  -5 108504. 2778.98   1
   1   2   6 114849. 3160.06   6
  -1  -2  -6 114193. 2568.30   4
  -1  -2  -6 112905. 2935.71   2
   1   2   6 116699. 2935.93   2
  -1  -2  -6 109455. 3033.78   1
   1   2   7 8121.06 881.931   2
  -1  -2  -7 9448.79 937.886   2
   1   2   7 9299.99 981.487   6
  -1  -2  -7 9563.38 847.464   4
  -1  -2  -7 8431.12 935.659   1
  -1  -2  -8 521.948 349.196   2
  -1  -2  -8 476.747 369.251   4
  -1  -2  -8 601.955 399.719   1
   1   2   8 305.731 312.419   6
  -1  -2  -9 2531.71 635.780   2
   1   2   9 3436.73 751.931   6
  -1  -2 -10 11946.8 1273.98   2
   1   2  10 10526.9 1241.13   6
  -1  -2 -11 5191.01 919.010   2
   1   2  11 6301.62 1017.39   6
  -1  -2 -12 4254.42 916.607   2
   1   2  12 3434.56 849.455   6
  -1  -2 -13 1187.48 609.595   2
   1   2  13 1451.68 618.391   6
   1   2  14 29.5778 578.896   6
  -1  -2 -14 599.003 533.048   2
  -1  -3  12 2069.75 711.364   3
   1   3 -11 15814.7 1832.05   2
  -1  -3  11 13669.8 1455.16   3
  -1  -3  10 2787.26 706.167   3
   1   3 -10 2806.93 813.866   2
   1   3  -9 710.146 493.233   2
  -1  -3   9 402.279 388.857   3
  -1  -3   8 729.757 385.318   3
   1   3  -8 411.101 175.773   1
   1   3  -8 472.773 390.310   2
   1   3  -7 16819.0 766.966   1
  -1  -3   7 16299.1 1356.94   3
   1   3  -7 14775.5 1188.76   6
   1   3  -6 48273.9 1934.84   6
   1   3  -6 48410.3 1209.59   1
  -1  -3   6 49814.1 2232.04   3
   1   3  -5 6726.29 914.368   3
   1   3  -5 8907.54 789.041   6
   1   3  -5 8461.46 487.952   1
  -1  -3   5 8842.30 902.898   3
  -1  -3   4 31776.4 1635.44   3
   1   3  -4 31658.3 875.928   1
   1   3  -4 30198.8 1322.67   6
   1   3  -4 29989.7 1694.12   3
   1   3  -3 5915.96 545.013   6
   1   3  -3 5928.32 383.822   1
  -1  -3   3 6592.51 744.311   3
  -1  -3   3 5596.27 360.366   1
   1   3  -3 5743.38 725.976   3
   1   3  -2 49107.3 1098.82   1
   1   3  -2 47242.3 1862.24   3
  -1  -3   2 47663.0 1802.93   3
  -1  -3   2 48157.1 1059.83   1
  -1  -3   1 84671.0 2251.83   3
  -1  -3   1 79729.2 1481.11   1
   1   3  -1 82661.2 2302.36   3
   1   3  -1 81707.4 1535.63   1
   1   3   0 125438. 2111.39   1
  -1  -3   0 123241. 2023.44   1
   1   3   0 124141. 2639.48   3
  -1  -3   0 125947. 2587.27   3
   1   3   0 122023. 2554.50   2
   1   3   1 42441.5 1454.38   3
  -1  -3  -1 42519.4 1534.72   2
   1   3   1 40923.9 1357.57   1
  -1  -3  -1 40843.5 1311.83   1
   1   3   1 42182.3 1502.18   2
  -1  -3  -1 41407.1 1379.30   3
  -1  -3  -2 51812.7 1756.14   2
   1   3   2 49539.0 1660.99   1
   1   3   2 50780.5 1708.36   5
   1   3   2 52289.9 1742.69   2
  -1  -3  -2 51180.3 1406.67   3
   1   3   2 51088.4 1476.35   3
  -1  -3  -2 51069.1 1614.60   1
   1   3   3 609.276 251.790   5
   1   3   3 632.184 183.913   3
  -1  -3  -3 919.407 334.487   1
  -1  -3  -3 714.488 199.319   3
   1   3   3 974.690 241.232   4
  -1  -3  -3 1069.90 329.592   2
   1   3   3 469.238 280.601   2
  -1  -3  -3 555.466 274.889   5
   1   3   4 75567.4 1455.46   3
   1   3   4 73972.7 1581.37   4
  -1  -3  -4 74994.0 2251.20   2
  -1  -3  -4 70922.4 2332.93   1
  -1  -3  -4 75670.0 1639.71   4
  -1  -3  -4 74908.7 1283.51   3
  -1  -3  -4 75243.6 2115.53   5
   1   3   4 76074.6 2292.29   2
  -1  -3  -5 67385.0 2446.50   1
  -1  -3  -5 71205.6 2147.43   5
   1   3   5 72405.7 1754.52   4
  -1  -3  -5 69035.1 1733.37   4
   1   3   5 70386.4 2457.62   6
  -1  -3  -5 70843.4 2307.41   2
   1   3   5 70348.6 2300.59   2
  -1  -3  -6 2510.13 571.871   1
   1   3   6 2216.65 476.926   2
   1   3   6 2799.56 430.654   4
  -1  -3  -6 2508.06 403.914   4
   1   3   6 2483.22 572.784   6
  -1  -3  -6 2243.11 481.148   2
   1   3   7 63.3206 231.348   2
  -1  -3  -7 93.6470 306.031   2
   1   3   7 224.480 374.848   6
  -1  -3  -7 526.008 277.071   4
  -1  -3  -7 94.1908 434.682   1
   1   3   8 31293.0 1956.77   6
  -1  -3  -8 31310.8 1599.23   4
  -1  -3  -8 34114.6 1917.14   2
  -1  -3  -9 26984.9 1580.65   4
   1   3   9 25815.4 1876.59   6
  -1  -3  -9 24876.3 1735.97   2
  -1  -3 -10 36514.0 2228.99   2
   1   3  10 36808.5 2330.09   6
   1   3  11 3274.70 801.470   6
  -1  -3 -11 4911.85 939.101   2
   1   3  12 17245.8 1773.54   6
  -1  -3 -12 15640.1 1697.14   2
  -1  -3 -13-245.712 480.512   2
   1   3  13 798.962 592.785   6
   1   3  14 4840.15 1051.31   6
  -1  -3 -14 5619.31 1111.12   2
  -1  -4  12 8704.24 1326.45   3
  -1  -4  11 7115.79 1187.71   3
  -1  -4  10 32.5523 410.654   3
   1   4 -10 1470.00 873.494   2
   1   4  -9 727.214 624.249   2
  -1  -4   9 1442.28 563.450   3
  -1  -4   8 10639.4 1271.54   3
   1   4  -7 55565.1 2286.06   6
  -1  -4   7 53564.1 2681.92   3
   1   4  -6 16114.0 1180.85   6
  -1  -4   6 17184.4 1482.32   3
   1   4  -5 2744.08 462.042   6
  -1  -4   5 3159.00 656.606   3
   1   4  -4 1034.96 143.901   1
  -1  -4   4 761.513 383.631   3
   1   4  -4 1499.54 380.672   6
  -1  -4   3 3720.67 639.008   3
   1   4  -3 3150.54 432.304   6
  -1  -4   3 3487.84 277.583   1
   1   4  -3 3246.47 302.286   1
  -1  -4   2 44789.9 2027.11   3
   1   4  -2 43231.9 1170.10   1
   1   4  -2 43802.2 2147.89   3
  -1  -4   2 42260.7 1058.08   1
   1   4  -1 47284.3 1383.83   1
   1   4  -1 47767.1 2137.15   3
   1   4  -1 47576.8 1929.81   2
  -1  -4   1 47100.9 1263.41   1
  -1  -4   1 48892.9 2023.33   3
   1   4   0 27049.4 1161.68   1
  -1  -4   0 27503.6 1077.12   1
   1   4   0 26718.0 1549.00   3
  -1  -4   0 25449.9 1423.97   3
   1   4   0 28195.5 1450.51   2
  -1  -4  -1 53952.3 1675.39   1
   1   4   1 52433.8 1953.10   2
   1   4   1 53350.3 2068.03   3
  -1  -4  -1 53364.7 1914.04   3
  -1  -4  -2 13664.8 1042.60   2
   1   4   2 14281.0 1048.91   3
  -1  -4  -2 13691.4 961.920   1
   1   4   2 14094.4 1055.86   5
  -1  -4  -2 15197.2 977.390   3
   1   4   2 14413.7 1057.60   2
   1   4   3 10484.8 831.398   3
  -1  -4  -3 10849.3 960.489   2
   1   4   3 10273.4 903.232   5
   1   4   3 10003.5 711.275   4
  -1  -4  -3 9017.11 870.417   1
  -1  -4  -3 10811.2 793.870   3
   1   4   3 9883.20 933.331   2
   1   4   4 172238. 3637.17   5
   1   4   4 163479. 3036.00   3
  -1  -4  -4 171589. 2805.60   3
   1   4   4 167956. 3788.39   2
  -1  -4  -4 169509. 3887.74   1
   1   4   4 169407. 2833.39   4
  -1  -4  -4 171105. 3786.53   2
   1   4   5 603.984 311.895   2
  -1  -4  -5 958.727 238.271   3
   1   4   5 488.115 370.570   6
  -1  -4  -5 803.704 326.551   5
   1   4   5 753.140 252.351   4
   1   4   5 889.128 256.988   3
  -1  -4  -5 780.520 357.599   2
  -1  -4  -5 630.132 403.752   1
   1   4   6-19.6323 386.044   6
   1   4   6 92.4107 225.663   4
  -1  -4  -6 753.877 476.762   1
  -1  -4  -6 296.982 275.269   5
  -1  -4  -6 458.206 155.528   3
   1   4   6 532.938 292.488   2
  -1  -4  -6 246.367 247.429   4
  -1  -4  -6-153.000 271.784   2
  -1  -4  -7 34208.1 1904.90   2
  -1  -4  -7 32689.1 1771.31   5
  -1  -4  -7 34084.5 1529.42   4
   1   4   7 35015.0 1552.98   4
   1   4   7 33796.8 1985.64   6
  -1  -4  -8 101300. 3436.49   2
   1   4   8 98365.0 2781.46   4
  -1  -4  -8 93176.9 2726.26   4
   1   4   8 98448.2 3512.52   6
   1   4   9 20519.5 1708.14   6
  -1  -4  -9 20811.1 1698.32   2
  -1  -4  -9 19541.9 1355.90   4
   1   4  10 1036.16 501.586   6
  -1  -4 -10 1398.65 527.706   2
  -1  -4 -11 18351.2 1702.19   2
   1   4  11 19635.4 1855.88   6
  -1  -4 -12 5976.55 1069.07   2
   1   4  12 6217.56 1146.88   6
  -1  -4 -13 12663.4 1606.96   2
   1   4  13 12490.6 1619.58   6
  -1  -4 -14 3137.37 919.879   2
   1   4  14 3211.76 1047.53   6
  -1  -5  10-929.451 556.971   3
  -1  -5   9 15742.4 1709.44   3
   1   5  -9 15516.2 1918.14   2
  -1  -5   8 39301.9 2629.20   3
  -1  -5   7 2838.89 732.505   3
  -1  -5   6 1073.81 514.062   3
  -1  -5   5 730.467 379.438   3
   1   5  -5 393.838 257.280   6
   1   5  -4 18896.3 1130.17   6
  -1  -5   4 20124.4 1681.09   3
   1   5  -3 14583.5 951.150   6
  -1  -5   3 15498.6 1423.19   3
  -1  -5   2 16280.5 703.068   1
  -1  -5   2 16151.3 1402.09   3
  -1  -5   1 452.656 398.623   3
  -1  -5   1 689.851 203.479   1
  -1  -5   0 17331.9 954.709   1
  -1  -5   0 16656.7 1340.71   3
   1   5   1 13398.1 1259.65   3
  -1  -5  -1 15044.4 991.970   1
   1   5   1 14222.8 1178.17   2
  -1  -5  -1 15137.1 1219.96   3
   1   5   2 43079.2 2104.38   3
   1   5   2 43026.6 2025.59   2
  -1  -5  -2 47265.8 2151.08   2
  -1  -5  -2 44759.5 1831.45   1
  -1  -5  -2 44704.8 2013.36   3
   1   5   3 86509.6 2895.43   5
  -1  -5  -3 87016.2 2939.62   2
   1   5   3 87872.8 2960.48   2
  -1  -5  -3 83765.2 2714.58   1
   1   5   3 81113.0 2744.73   3
  -1  -5  -3 86111.9 2615.98   3
  -1  -5  -4 466.421 272.466   3
  -1  -5  -4 215.126 323.264   2
   1   5   4-168.168 275.977   5
  -1  -5  -4 271.085 387.786   1
   1   5   4 148.871 267.491   4
   1   5   4 944.487 397.194   2
   1   5   4-47.8867 347.188   3
  -1  -5  -5 1728.70 387.604   3
   1   5   5 1988.56 435.329   3
   1   5   5 1983.40 609.573   6
   1   5   5 2371.40 508.600   5
  -1  -5  -5 1844.61 521.073   2
   1   5   5 1719.89 438.440   4
  -1  -5  -5 2157.39 599.357   1
  -1  -5  -6 49906.9 2389.76   2
   1   5   6 49958.9 2407.77   6
   1   5   6 54932.5 1946.11   4
  -1  -5  -6 50391.6 1614.05   3
   1   5   7 81720.0 3178.29   6
  -1  -5  -7 80664.0 3142.74   2
  -1  -5  -7 75823.1 1743.62   3
   1   5   7 79779.5 2450.24   4
   1   5   8 3751.54 645.352   4
  -1  -5  -8 3044.71 564.943   4
   1   5   8 2711.13 722.935   6
  -1  -5  -8 2559.66 272.007   3
  -1  -5  -8 3723.51 771.166   2
   1   5   9-304.558 366.584   4
   1   5   9 661.398 481.716   6
  -1  -5  -9-56.1181 268.842   4
  -1  -5  -9 511.423 409.931   2
   1   5  10 1393.69 474.763   4
   1   5  10 242.200 410.712   6
  -1  -5 -10 514.102 439.135   2
  -1  -5 -11 41158.6 2652.31   2
   1   5  11 40793.6 2691.68   6
   1   5  12 20596.3 2010.79   6
  -1  -5 -12 16216.4 1775.25   2
   1   5  13 759.786 507.329   6
  -1  -5 -13 378.388 694.047   2
  -1  -5 -14 314.621 518.906   2
   1   5  14-180.305 739.829   6
  -1  -6   8 371.111 494.946   3
  -1  -6   7 1164.55 494.026   3
  -1  -6   6 5798.46 1087.63   3
  -1  -6   5 41149.2 2686.85   3
  -1  -6   4 8297.60 1177.72   3
  -1  -6   3 436.043 369.484   3
   1   6  -3 1252.40 350.862   6
   1   6  -2-77.8763 298.250   6
  -1  -6   2 1.81006 95.6389   1
  -1  -6   2-96.2999 368.154   3
  -1  -6   1 91543.4 3541.55   3
  -1  -6   1 90490.1 2045.47   1
  -1  -6   0 8901.99 1165.51   3
  -1  -6   0 9459.54 789.985   1
  -1  -6  -1 35423.9 2083.36   3
  -1  -6  -1 33289.6 1568.06   1
  -1  -6  -2 1062.31 495.604   3
  -1  -6  -2 595.784 325.330   1
  -1  -6  -3 1445.40 470.355   3
   1   6   3 1982.33 569.223   5
  -1  -6  -3 1443.71 500.674   1
  -1  -6  -3 2357.49 601.753   2
   1   6   4 11837.7 1020.38   4
   1   6   4 8825.43 1053.67   3
   1   6   4 9945.89 1139.15   5
  -1  -6  -4 11185.4 1219.11   2
  -1  -6  -4 10404.3 1036.01   3
   1   6   5 43163.0 2247.13   5
   1   6   5 44078.7 1874.29   4
   1   6   5 41403.9 2239.89   6
  -1  -6  -5 39238.1 2249.86   2
   1   6   5 40841.0 2095.47   3
  -1  -6  -5 41877.7 1905.34   3
   1   6   6 18081.2 1516.68   6
  -1  -6  -6 17199.9 1521.59   2
   1   6   6 15562.2 1416.58   5
   1   6   6 17624.7 1231.17   4
  -1  -6  -6 15999.0 1124.45   3
  -1  -6  -7 347.303 280.083   3
   1   6   7 510.205 284.839   4
   1   6   7 1098.33 541.856   6
  -1  -6  -7 128.727 356.107   2
  -1  -6  -8 3075.78 705.697   2
   1   6   8 3574.83 818.605   6
  -1  -6  -8 2236.65 368.791   3
   1   6   8 3174.28 608.999   4
   1   6   9 1353.07 424.850   4
  -1  -6  -9 1105.12 226.427   3
   1   6   9 1079.89 516.730   6
  -1  -6  -9 422.220 422.541   2
   1   6  10 53568.7 2474.02   4
  -1  -6 -10 58374.0 3207.49   2
   1   6  10 57341.5 3160.18   6
   1   6  11 17438.9 1820.14   6
  -1  -6 -11 17418.8 1835.34   2
   1   6  11 15445.3 1416.64   4
  -1  -6 -12 3932.00 925.344   2
   1   6  12 3650.66 896.071   6
   1   6  13 1209.06 603.588   6
  -1  -6 -13 982.376 626.507   2
  -1  -7   5 4584.31 1095.14   3
  -1  -7   4 407.696 460.431   3
  -1  -7   3 5920.70 1142.81   3
  -1  -7   2 30759.5 2397.40   3
  -1  -7   1 19402.7 1876.79   3
  -1  -7   0 5159.96 957.154   3
  -1  -7   0 4603.19 594.720   1
  -1  -7  -1 1024.74 521.030   3
  -1  -7  -1 506.226 308.396   1
  -1  -7  -2 1672.85 555.259   3
  -1  -7  -2 1255.45 452.204   1
   1   7   3 20049.3 1733.22   5
  -1  -7  -3 20192.7 1615.88   3
  -1  -7  -4 5896.56 886.203   3
   1   7   4 4776.82 872.682   5
   1   7   4 5821.93 841.455   4
   1   7   4 4731.75 778.391   6
  -1  -7  -4 5981.34 996.607   2
   1   7   5 17965.8 1628.08   5
   1   7   5 18552.0 1583.25   6
   1   7   5 17382.9 1349.65   4
  -1  -7  -5 18187.8 1693.04   2
  -1  -7  -5 19602.5 1469.44   3
  -1  -7  -6 2033.43 525.775   3
   1   7   6 1768.85 498.792   4
   1   7   6 2114.06 681.320   6
   1   7   6 2337.11 655.768   5
  -1  -7  -6 1996.11 681.988   2
  -1  -7  -7 506.046 306.385   3
   1   7   7 60.3474 432.813   6
   1   7   7 300.592 361.334   4
  -1  -7  -7 716.949 410.305   2
  -1  -7  -8 4460.54 608.309   3
  -1  -7  -8 5298.29 959.501   2
   1   7   8 4778.66 953.707   6
   1   7   8 4549.35 738.411   4
   1   7   9 44279.0 2746.94   6
  -1  -7  -9 42628.2 2726.07   2
   1   7   9 42600.0 2181.76   4
  -1  -7 -10 18891.0 1883.95   2
   1   7  10 17458.1 1483.91   4
   1   7  10 19968.8 1955.79   6
   1   7  11 67.2844 493.845   6
  -1  -7 -11 660.900 503.019   2
   1   7  11-364.715 475.625   4
   1   7  12 1485.66 653.749   4
   1   7  12 1574.82 636.868   6
  -1  -7 -12 2906.21 1051.15   2
  -1  -8   3 9179.51 1495.80   3
  -1  -8   2 17202.2 1983.71   3
  -1  -8   1 941.693 570.803   3
  -1  -8   0-175.929 565.192   3
  -1  -8  -1 375.644 416.752   3
   1   8   2 12405.4 1140.74   6
  -1  -8  -2 14982.2 1611.69   3
  -1  -8  -3 6760.41 1079.18   3
   1   8   3 4736.52 790.458   6
   1   8   3 7588.89 1178.69   5
   1   8   4 14667.2 1342.10   6
   1   8   4 15527.9 1656.17   5
  -1  -8  -4 16865.1 1582.53   3
   1   8   4 13250.5 1341.70   4
  -1  -8  -5 4652.38 834.318   3
   1   8   5 4432.89 821.661   6
   1   8   5 4040.62 880.017   5
  -1  -8  -5 3324.85 864.349   2
   1   8   5 4480.90 818.405   4
  -1  -8  -6 1943.36 565.583   3
   1   8   6 1560.08 620.152   6
   1   8   6 1689.15 563.788   4
   1   8   6 2035.63 753.972   5
  -1  -8  -6 1760.74 741.079   2
   1   8   7 3731.17 936.638   5
  -1  -8  -7 3269.80 701.082   3
   1   8   7 3535.50 839.510   6
   1   8   7 3154.15 722.203   4
  -1  -8  -7 3237.77 801.332   2
   1   8   8 15284.4 1372.21   4
   1   8   8 20184.9 1843.68   6
  -1  -8  -8 16199.6 1797.31   2
  -1  -8  -8 15482.7 1270.77   3
   1   8   9 15820.1 1432.35   4
  -1  -8  -9 18935.0 2004.94   2
   1   8   9 19724.4 1961.88   6
   1   8  10 677.674 456.398   4
   1   8  10 63.4972 533.508   6
  -1  -8 -10-230.329 604.339   2
   1   8  11-1259.07 585.856   6
  -1  -8 -11-990.342 775.581   2
   1   8  12 4122.19 1056.13   6
  -1  -9   0 1638.32 752.633   3
  -1  -9  -1 17564.7 1977.27   3
  -1  -9  -2 11114.6 1532.72   3
   1   9   2 8307.67 1340.14   5
  -1  -9  -3 2483.66 733.524   3
   1   9   3 2112.80 676.131   5
  -1  -9  -4 2182.54 706.084   3
   1   9   4 2006.53 755.901   5
   1   9   4 1233.02 586.450   4
  -1  -9  -5 1337.73 589.291   3
   1   9   5 1311.04 452.075   6
   1   9   5 1240.28 443.160   4
   1   9   5 2018.65 759.585   5
   1   9   6 5073.30 920.000   6
  -1  -9  -6 5652.74 977.340   3
   1   9   6 5132.05 916.069   4
   1   9   6 4061.60 982.512   5
  -1  -9  -7 2669.98 672.756   3
   1   9   7 3877.35 879.670   6
  -1  -9  -7 3756.09 1013.16   2
   1   9   7 3979.44 1020.40   5
   1   9   7 3339.60 779.406   4
   1   9   8 6616.41 1125.29   6
  -1  -9  -8 5267.60 1212.70   2
   1   9   9 1651.35 704.926   6
  -1  -9  -9-376.293 536.835   2
   1   9  10 1299.17 804.201   6
   1   9  11 3903.51 1061.99   6
  -1 -10  -4 7609.69 1294.74   3
  -1 -10  -5 4485.71 967.927   3
  -1 -10  -6 2799.97 795.010   3
   2  -8  -9 5090.17 1143.02   2
  -2   8   8 18694.4 1892.08   5
   2  -8  -8 18441.4 1961.68   3
  -2   8   8 18954.8 2038.56   4
   2  -8  -7 4282.31 1104.85   3
  -2   8   7 4065.23 950.895   5
  -2   8   7 5634.06 1174.42   4
   2  -8  -6-42.8760 535.656   3
  -2   8   6 395.602 429.898   5
  -2   8   6-302.073 501.826   4
   2  -8  -5 3691.88 981.300   3
  -2   8   5 4361.36 1099.07   4
  -2   8   5 2806.67 766.257   5
  -2   8   4 15225.3 1783.13   5
   2  -8  -4 18816.6 2095.14   3
  -2   8   4 16637.1 1911.40   4
  -2   8   3 12935.4 1711.46   4
   2  -7 -12-322.758 489.438   2
  -2   7  11-743.385 669.709   6
  -2   7  11 26.9288 622.261   4
   2  -7 -11 92.0325 536.189   2
  -2   7  10 8176.75 1362.51   4
  -2   7  10 10683.2 1438.43   6
   2  -7  -9 6375.75 1112.95   3
  -2   7   9 10583.8 1460.22   4
  -2   7   9 11341.5 1408.26   6
   2  -7  -9 7922.64 1288.54   2
  -2   7   8 1376.83 482.863   6
  -2   7   8 2694.19 722.223   5
   2  -7  -8 2313.93 715.334   2
  -2   7   8 2451.60 797.278   4
   2  -7  -8 2240.84 736.793   3
   2  -7  -7 1782.94 690.664   3
  -2   7   7 2999.32 720.248   5
   2  -7  -7 2651.91 761.570   2
  -2   7   7 2083.90 859.372   4
  -2   7   7 2730.23 658.659   6
  -2   7   6 2908.18 789.573   5
   2  -7  -6 5034.45 1039.44   3
  -2   7   6 2950.67 892.246   4
  -2   7   5 11213.0 1374.62   5
  -2   7   5 9381.77 1373.12   4
   2  -7  -5 13643.9 1687.61   3
  -2   7   4 25419.2 2214.10   4
   2  -7  -4 30710.5 2517.25   3
   2  -7  -3 388.649 500.398   3
   2  -7  -3-108.973 406.074   1
  -2   7   3 436.214 530.368   4
   2  -7  -2-798.697 651.857   3
   2  -7  -1 4758.59 1092.71   3
   2  -7   0 7872.22 1400.51   3
   2  -7   1 6850.54 1301.84   3
   2  -6 -13 1358.05 736.683   2
  -2   6  12 9626.51 1436.02   4
   2  -6 -12 4768.07 1049.96   2
  -2   6  12 7966.96 1359.08   6
  -2   6  11 6068.90 1165.13   4
  -2   6  11 6753.12 1245.75   6
   2  -6 -11 5536.77 1114.45   2
  -2   6  10 11482.3 1477.44   6
   2  -6 -10 10871.8 1402.79   2
  -2   6  10 11547.8 1517.51   4
   2  -6  -9 1762.61 615.501   3
  -2   6   9 386.350 493.222   4
  -2   6   9 1067.93 525.225   6
   2  -6  -9 205.269 405.780   2
   2  -6  -8-713.759 541.330   3
  -2   6   8 229.117 327.961   6
  -2   6   8-820.205 652.487   4
   2  -6  -8 192.645 435.011   2
   2  -6  -7 1932.51 678.264   3
  -2   6   7 1291.12 490.247   6
  -2   6   7 2104.84 629.896   5
  -2   6   7 752.381 512.941   4
   2  -6  -7 2333.79 660.109   2
  -2   6   6 2661.94 628.518   5
   2  -6  -6 2650.41 790.369   3
  -2   6   6 2849.16 607.888   6
  -2   6   6 3808.13 860.127   4
   2  -6  -6 3521.07 730.120   2
  -2   6   5 28559.8 1627.17   6
  -2   6   5 26718.9 1882.08   5
  -2   6   5 28578.6 2136.63   4
   2  -6  -5 30124.2 2326.92   3
   2  -6  -4 624.625 504.601   3
  -2   6   4 539.917 309.000   6
  -2   6   4-381.099 456.018   4
  -2   6   3 919.090 558.610   4
  -2   6   3 902.891 265.436   6
   2  -6  -2 8455.08 1321.05   3
   2  -6  -2 7400.60 908.072   1
   2  -6  -1 38971.9 1842.22   1
   2  -6  -1 46388.7 3035.65   3
   2  -6   0 6871.17 1251.65   3
   2  -6   1 25143.5 2314.66   3
   2  -6   2-53.2058 574.422   3
   2  -6   3 8872.28 1465.13   3
   2  -6   4 7334.04 1386.94   3
   2  -5 -14-692.773 731.104   2
  -2   5  13 12367.9 1717.52   6
   2  -5 -13 10354.3 1558.14   2
  -2   5  13 11097.1 1603.64   4
  -2   5  12 4654.90 1094.58   6
  -2   5  12 2914.05 879.215   4
   2  -5 -12 3945.93 925.003   2
  -2   5  11 15214.4 1745.71   4
   2  -5 -11 15574.6 1636.28   2
  -2   5  11 16849.2 1802.47   6
   2  -5 -10 3036.85 699.071   3
  -2   5  10 2260.24 671.967   6
  -2   5  10 4185.95 954.596   4
   2  -5 -10 2986.70 711.095   2
  -2   5   9 15824.0 1586.90   6
   2  -5  -9 14823.3 1490.10   2
   2  -5  -9 17270.4 1521.90   3
  -2   5   9 16402.6 1626.81   4
  -2   5   8 4984.55 943.132   4
   2  -5  -8 3674.70 764.351   3
  -2   5   8 5268.66 929.289   6
   2  -5  -8 4012.98 747.294   2
   2  -5  -7 50664.3 2449.75   2
  -2   5   7 56469.5 2391.93   5
  -2   5   7 57892.8 2666.05   6
   2  -5  -7 55446.4 2769.52   3
  -2   5   7 59316.1 2918.39   4
   2  -5  -6 8676.78 1156.63   3
  -2   5   6 8389.16 957.374   5
  -2   5   6 10571.6 1254.04   4
  -2   5   6 11868.9 1153.74   6
   2  -5  -6 9995.69 1091.55   2
  -2   5   5 1645.82 511.972   5
  -2   5   5 2350.32 543.815   6
  -2   5   5 1222.68 526.173   4
   2  -5  -5 1555.68 454.159   2
   2  -5  -5 2178.04 678.561   3
  -2   5   4 413.111 252.348   6
   2  -5  -4 1834.17 691.579   3
  -2   5   4 1350.65 596.838   4
   2  -5  -3 10092.4 1296.04   3
  -2   5   3 9360.85 1178.35   4
  -2   5   3 8129.95 691.113   6
   2  -5  -2 37029.0 1918.41   1
   2  -5  -2 41782.9 2647.74   3
  -2   5   2 38677.6 1146.31   6
   2  -5  -1 7311.16 1167.16   3
   2  -5  -1 6585.92 755.515   1
   2  -5   0 1390.48 340.578   1
   2  -5   0 2232.59 809.303   3
   2  -5   1 1337.24 722.576   3
   2  -5   1 602.474 210.849   1
   2  -5   2 61736.0 3390.82   3
   2  -5   3 15391.8 1741.50   3
   2  -5   4 8764.22 1390.25   3
   2  -5   5 867.339 451.843   3
   2  -5   6 916.776 655.053   3
   2  -5   7 2936.54 878.555   3
  -2   5  -7 3145.07 993.380   2
   2  -4 -14 3538.55 969.338   2
  -2   4  13 6007.97 1251.38   6
   2  -4 -13 5791.22 1099.13   2
  -2   4  13 5818.38 1179.56   4
  -2   4  12-223.792 583.029   4
  -2   4  12-784.015 585.490   6
   2  -4 -12 96.2150 435.095   2
  -2   4  11 1398.24 565.144   4
   2  -4 -11 2485.45 674.750   2
   2  -4 -10 18429.2 1643.81   2
  -2   4  10 16104.4 1609.45   4
   2  -4 -10 15483.3 1217.97   3
  -2   4  10 18491.7 1798.51   6
  -2   4   9 27044.5 2061.53   6
   2  -4  -9 25541.8 1573.23   3
   2  -4  -9 27490.3 1879.76   2
  -2   4   9 22582.2 1856.05   4
   2  -4  -8 85370.9 3148.06   2
  -2   4   8 82657.9 3336.92   4
  -2   4   8 89522.4 3434.08   6
   2  -4  -8 87776.7 2947.11   3
   2  -4  -7 6431.39 861.349   3
  -2   4   7 4043.98 755.217   6
   2  -4  -7 5502.44 793.649   2
  -2   4   7 6443.88 957.928   4
  -2   4   6 14855.0 1109.83   5
  -2   4   6 17415.5 1342.99   6
  -2   4   6 15064.5 1225.28   2
   2  -4  -6 16287.1 1270.52   2
   2  -4  -6 16234.5 1392.28   6
  -2   4   6 16719.2 1459.33   4
   2  -4  -6 19386.9 1479.74   3
  -2   4   5 657.579 296.811   2
   2  -4  -5 1342.80 460.872   6
  -2   4   5 1438.75 429.535   6
  -2   4   5 1200.17 391.852   5
  -2   4   5 1006.89 518.836   4
   2  -4  -5 1096.29 375.012   2
   2  -4  -5 860.788 576.448   3
   2  -4  -4 31322.6 1633.21   2
  -2   4   4 28947.3 1850.29   4
  -2   4   4 27755.3 1547.77   2
  -2   4   4 30805.2 1471.47   6
   2  -4  -4 32720.0 2008.18   3
  -2   4   3 43998.7 1907.22   2
  -2   4   3 48511.9 1625.16   6
  -2   4   3 45797.6 2324.11   4
   2  -4  -3 47488.1 2496.99   3
   2  -4  -2 1314.72 633.615   3
  -2   4   2 109.450 141.749   6
  -2   4   2 734.461 359.660   2
   2  -4  -1 44147.3 2548.05   3
   2  -4  -1 43056.2 1736.44   1
  -2   4   1 42432.7 1854.89   2
   2  -4   0 2314.50 755.881   3
   2  -4   0 1766.82 353.550   1
  -2   4   0 1918.13 457.542   2
  -2   4  -1 64578.2 2408.60   2
   2  -4   1 66548.3 1668.14   1
   2  -4   2 21986.2 761.078   1
   2  -4   2 26829.7 2145.36   3
   2  -4   3 1805.23 668.664   3
   2  -4   4 75.0321 414.713   3
   2  -4   5 5972.38 1085.43   3
   2  -4   6 49329.0 2967.96   3
  -2   4  -7 25727.4 2252.42   2
   2  -4   7 24677.8 2170.21   3
   2  -4   8 6536.54 1224.59   3
  -2   4  -8 6172.94 1231.37   2
   2  -4   9-434.422 510.151   3
   2  -3 -14 9548.72 1429.43   2
   2  -3 -13 514.167 513.479   2
  -2   3  13 2062.89 753.582   6
   2  -3 -12 216.534 410.712   2
  -2   3  12 135.744 374.540   6
  -2   3  11 15138.4 1633.34   4
   2  -3 -11 14814.8 1493.82   2
  -2   3  11 14261.3 1656.71   6
   2  -3 -10 50760.7 2600.12   2
   2  -3 -10 51744.5 2055.23   3
  -2   3  10 50458.6 2761.25   4
  -2   3  10 48384.9 2758.61   6
   2  -3  -9 3096.12 537.401   3
  -2   3   9 4220.50 844.894   4
  -2   3   9 4227.81 816.404   6
   2  -3  -9 4478.10 761.039   2
  -2   3   8 37.6258 355.815   6
  -2   3   8-75.0993 453.299   4
   2  -3  -8 322.638 344.726   2
  -2   3   7 5085.14 705.496   2
  -2   3   7 4939.48 789.476   6
   2  -3  -7 3907.57 637.638   2
  -2   3   7 3202.67 659.039   4
   2  -3  -6 30101.1 1711.32   6
  -2   3   6 33089.5 1755.65   6
  -2   3   6 33926.0 1927.55   4
  -2   3   6 31504.8 1585.80   2
   2  -3  -6 33236.1 1658.45   2
  -2   3   5 51725.4 1737.12   5
   2  -3  -5 52062.9 1925.70   2
  -2   3   5 50157.3 2265.68   4
  -2   3   5 50487.7 1896.42   2
  -2   3   5 51551.5 2044.90   6
   2  -3  -5 53653.4 2101.58   6
  -2   3   4 104495. 2508.13   5
  -2   3   4 99643.3 3114.13   4
   2  -3  -4 99439.3 2613.77   6
  -2   3   4 96448.6 2523.68   2
   2  -3  -4 100760. 2986.40   3
   2  -3  -4 100630. 2552.80   2
  -2   3   4 105368. 2631.88   6
  -2   3   3 1719.11 364.347   2
  -2   3   3 1620.22 350.506   6
   2  -3  -3 2645.87 434.709   6
  -2   3   3 2160.76 530.937   4
   2  -3  -3 2152.47 404.916   2
   2  -3  -3 3195.98 647.495   3
  -2   3   2 3644.10 496.031   2
  -2   3   2 4158.00 413.734   6
   2  -3  -2 3221.56 416.425   6
   2  -3  -2 3716.08 715.847   3
  -2   3   1 5005.53 562.606   2
   2  -3  -1 4817.16 853.844   3
   2  -3  -1 4775.22 582.604   1
   2  -3   0 88818.5 2129.38   1
  -2   3   0 86295.7 2304.61   2
   2  -3   0 91019.3 3326.63   3
  -2   3  -1 33205.2 1503.23   2
   2  -3   1 36395.7 2225.50   3
   2  -3   1 35049.2 1191.05   1
   2  -3   2 144.486 142.140   1
   2  -3   2 973.843 557.995   3
   2  -3   3 762.642 636.406   3
   2  -3   3 614.083 117.591   1
   2  -3   4 12577.5 1395.63   3
   2  -3   5 37486.0 2371.76   3
  -2   3  -6 11270.2 1282.53   2
   2  -3   6 13740.1 1466.61   3
   2  -3   7 1305.93 528.696   3
  -2   3  -7 1747.79 579.457   2
   2  -3   8 3586.77 768.751   3
  -2   3  -8 3276.47 766.474   2
  -2   3  -9 3550.23 822.990   2
   2  -3   9 3350.95 851.008   3
   2  -3  10 9176.53 1303.47   3
  -2   3 -10 11516.1 1581.43   2
   2  -3  11 2277.91 679.015   3
   2  -2 -14-88.2197 478.152   2
   2  -2 -13-660.329 502.564   2
  -2   2  13 351.879 515.321   6
  -2   2  12 23841.7 2152.57   6
   2  -2 -12 21144.2 1852.21   2
  -2   2  11 25530.1 2076.88   6
   2  -2 -11 28616.7 2001.19   2
  -2   2  10 445.545 402.042   6
   2  -2 -10 114.617 418.405   2
   2  -2 -10-212.983 282.825   5
  -2   2  10 252.013 393.172   4
   2  -2 -10 205.819 270.210   3
  -2   2   9 11643.9 1268.13   6
   2  -2  -9 11929.8 874.575   5
  -2   2   9 11984.8 1257.38   4
   2  -2  -9 12021.8 1154.10   2
   2  -2  -9 11819.7 958.974   3
   2  -2  -8 52.5431 361.100   2
  -2   2   8 603.768 419.462   6
   2  -2  -8 348.742 193.624   5
  -2   2   8 594.894 439.611   4
  -2   2   8 134.826 241.704   2
   2  -2  -8-9.56480 254.051   3
  -2   2   7 18485.0 1404.67   6
   2  -2  -7 17121.1 1208.34   2
  -2   2   7 16539.5 1188.04   2
   2  -2  -7 17079.5 1130.34   3
  -2   2   7 18303.6 1393.33   4
   2  -2  -6 14257.4 1012.84   2
  -2   2   6 12476.4 1086.25   6
   2  -2  -6 13966.7 1151.28   6
  -2   2   6 12708.0 1119.87   4
  -2   2   6 12767.0 952.103   2
   2  -2  -6 13607.4 1154.97   4
   2  -2  -5 39433.6 1520.32   2
  -2   2   5 35341.0 1647.13   6
  -2   2   5 36488.7 1444.83   2
  -2   2   5 39105.6 1881.90   4
   2  -2  -5 36613.6 1828.55   4
   2  -2  -5 38747.4 1735.13   6
  -2   2   4 85990.7 2694.69   4
   2  -2  -4 83498.7 2292.51   6
   2  -2  -4 85688.3 2104.31   2
  -2   2   4 84529.4 1821.80   5
  -2   2   4 82372.1 2011.95   2
  -2   2   4 87441.0 2335.37   6
   2  -2  -3 51293.4 1496.42   2
  -2   2   3 49684.5 1999.71   4
  -2   2   3 48573.1 1459.84   2
  -2   2   3 47958.4 1558.06   6
   2  -2  -3 49220.8 1592.79   6
   2  -2  -2 64582.2 1573.75   2
  -2   2   2 62970.4 1552.26   6
   2  -2  -2 62329.5 1957.18   1
  -2   2   2 64055.7 1608.26   2
  -2   2   2 63351.4 2217.51   4
   2  -2  -2 61798.6 1556.46   6
  -2   2   1 113417. 2105.83   2
   2  -2  -1 115096. 3045.01   3
   2  -2  -1 113140. 2433.37   1
   2  -2  -1 113834. 1764.04   6
   2  -2   0 156160. 2642.31   1
  -2   2   0 158484. 2563.85   2
   2  -2   0 162469. 3818.00   3
   2  -2   1 10890.4 1097.98   3
   2  -2   1 11246.1 651.830   1
   2  -2   2 5786.27 876.684   3
   2  -2   2 6400.83 450.383   1
   2  -2   3 429.136 459.484   3
   2  -2   3-49.5243 128.916   1
   2  -2   4 16388.0 609.144   1
   2  -2   4 17194.4 1489.75   3
  -2   2  -5 301.960 337.125   2
   2  -2   5 176.499 420.067   3
   2  -2   5 72.7711 139.170   6
   2  -2   6 490.118 319.015   3
   2  -2   6 388.605 208.315   6
  -2   2  -6 217.492 274.286   2
   2  -2   7 1134.62 399.279   3
  -2   2  -7 1260.74 437.119   2
   2  -2   7 1138.75 277.636   6
  -2   2  -8 7444.34 1077.55   2
   2  -2   8 7428.66 689.720   6
   2  -2   8 8431.04 1095.29   3
   2  -2   9 12918.7 1351.44   3
  -2   2  -9 14362.9 1556.04   2
   2  -2  10 2144.18 623.476   3
  -2   2 -10 2433.47 687.710   2
   2  -2  11 7521.83 1062.40   3
  -2   2 -11 11005.3 1553.36   2
   2  -1 -15 842.295 459.318   1
   2  -1 -14 67.1196 553.044   2
  -2   1  14-144.150 517.645   6
   2  -1 -14 31.7219 423.949   1
   2  -1 -13 9319.57 1308.05   2
  -2   1  13 9266.13 1397.92   6
  -2   1  12 46408.6 2872.69   6
   2  -1 -12 45619.2 2697.94   2
   2  -1 -11 11229.7 1302.50   2
  -2   1  11 10443.7 1314.92   6
   2  -1 -10 97.4815 330.361   2
   2  -1 -10-179.888 287.636   3
  -2   1  10 129.684 387.940   6
   2  -1  -9 5324.33 836.312   2
  -2   1   9 5573.75 900.015   4
  -2   1   9 4559.67 824.548   6
   2  -1  -9 6041.44 713.443   3
  -2   1   8 28249.2 1805.09   6
   2  -1  -8 27413.7 1416.80   3
  -2   1   8 25783.1 1716.11   4
   2  -1  -8 25952.6 1581.57   2
  -2   1   8 25923.4 1605.49   2
   2  -1  -7 3339.61 556.247   2
   2  -1  -7 4195.78 531.216   3
  -2   1   7 3487.17 654.850   6
   2  -1  -7 3278.89 373.969   5
  -2   1   7 3818.65 577.232   2
  -2   1   7 3256.63 604.759   4
   2  -1  -6 14320.2 967.245   3
   2  -1  -6 13703.6 1108.19   6
   2  -1  -6 14299.7 675.666   5
  -2   1   6 13786.6 1096.77   4
   2  -1  -6 14612.9 1160.44   4
   2  -1  -6 13497.0 967.734   2
  -2   1   6 13093.2 954.025   2
  -2   1   6 14399.2 1127.55   6
  -2   1   5 23670.0 1339.85   4
   2  -1  -5 21761.9 1317.83   4
   2  -1  -5 21882.1 1078.76   2
  -2   1   5 23031.4 1117.18   2
  -2   1   5 21849.1 1279.61   6
   2  -1  -5 22941.2 1302.17   6
   2  -1  -4 11587.9 858.534   6
   2  -1  -4 11219.3 908.451   4
  -2   1   4 11756.4 906.852   4
  -2   1   4 11002.8 677.119   2
   2  -1  -4 11773.0 709.643   2
  -2   1   4 11617.8 849.859   6
  -2   1   3 7810.61 408.237   5
  -2   1   3 7715.85 485.587   2
  -2   1   3 7988.29 738.088   4
   2  -1  -3 7363.13 715.205   4
   2  -1  -3 8234.27 510.352   2
   2  -1  -3 6734.58 683.140   1
  -2   1   3 7817.83 650.003   6
   2  -1  -3 6873.41 604.296   6
   2  -1  -2 35198.1 1172.07   6
   2  -1  -2 33766.2 1363.68   1
  -2   1   2 33649.5 863.790   2
  -2   1   2 34696.8 1477.83   4
  -2   1   2 33708.0 1146.51   6
   2  -1  -2 35560.7 908.525   2
   2  -1  -1 91216.3 1626.27   6
  -2   1   1 92948.9 1379.89   2
   2  -1  -1 91431.1 2042.52   1
   2  -1   0 101736. 2002.38   1
  -2   1   0 104557. 2029.92   1
   2  -1   0 103582. 1466.60   6
   2  -1   1 16438.5 1110.78   3
   2  -1   1 17354.8 779.955   1
  -2   1  -1 16629.2 774.643   1
  -2   1  -2 8836.27 542.123   1
   2  -1   2 9508.25 930.498   3
   2  -1   2 8688.79 529.570   1
  -2   1  -3 141290. 2108.21   1
   2  -1   3 142451. 1935.13   6
   2  -1   3 144090. 2086.89   1
  -2   1  -3 144220. 2913.10   2
   2  -1   3 139483. 3539.12   3
   2  -1   4 5359.65 788.729   3
   2  -1   4 5120.99 431.397   6
   2  -1   4 4981.43 416.384   1
  -2   1  -4 5702.14 672.585   2
  -2   1  -4 5316.98 430.238   1
   2  -1   5 668.473 411.132   3
  -2   1  -5 652.194 294.560   2
   2  -1   5 839.209 251.597   6
  -2   1  -5 806.709 220.556   1
   2  -1   6 360.185 297.918   3
   2  -1   6 127.973 200.876   6
  -2   1  -6 166.386 161.087   1
  -2   1  -6 865.172 392.318   2
   2  -1   7 55460.0 1891.18   6
  -2   1  -7 54722.2 2530.13   2
  -2   1  -7 48920.1 1442.72   1
   2  -1   7 52371.7 2261.13   3
   2  -1   8 3558.39 631.750   3
  -2   1  -8 5602.15 895.309   2
   2  -1   8 4882.10 648.080   6
  -2   1  -8 4520.40 455.004   1
   2  -1   9 18969.9 1302.83   6
  -2   1  -9 20969.9 1764.52   2
   2  -1   9 16609.0 1332.14   3
   2  -1  10 2062.01 519.844   6
   2  -1  10 1697.90 517.953   3
  -2   1 -10 1614.02 637.344   2
  -2   1 -11 2195.09 671.183   2
   2  -1  11 1634.95 479.384   3
  -2   1 -12 18266.9 1986.28   2
   2   0 -14 3485.73 720.836   1
  -2   0  14 4677.51 1009.05   6
  -2   0  13 31243.4 2447.08   6
   2   0 -13 27035.0 2056.04   1
   2   0 -13 35334.7 2539.35   2
  -2   0  12 15070.5 1629.86   6
   2   0 -12 13198.7 1369.67   1
   2   0 -12 15917.1 1626.14   2
   2   0 -11 377.107 373.699   2
  -2   0  11-191.017 471.710   6
   2   0 -11 14.2332 346.310   1
  -2   0  10 37650.7 2288.01   6
   2   0 -10 38712.2 2139.62   1
   2   0 -10 38841.4 2233.66   2
   2   0 -10 35774.4 1890.25   3
   2   0  -9 50262.4 2359.86   2
   2   0  -9 45711.8 2019.99   3
  -2   0   9 48505.8 2443.50   6
  -2   0   8 85954.3 3063.98   6
   2   0  -8 83916.0 2832.43   2
   2   0  -8 82629.9 2548.73   3
  -2   0   7 4749.93 746.557   6
   2   0  -7 5465.96 631.838   3
  -2   0   7 4123.56 672.958   4
   2   0  -7 4589.59 645.973   2
  -2   0   6 955.271 377.781   6
   2   0  -6 565.542 221.762   3
   2   0  -6 1056.77 376.967   4
  -2   0   6 1343.03 443.847   4
   2   0  -6 957.619 316.796   2
   2   0  -6 1081.03 349.175   6
   2   0  -5 24797.6 1323.51   1
  -2   0   5 24763.0 1339.59   4
   2   0  -5 23938.9 1345.07   4
  -2   0   5 25470.8 1354.08   6
   2   0  -5 24897.2 1184.24   2
   2   0  -5 24973.4 1352.74   6
   2   0  -5 25718.9 1216.03   3
   2   0  -4 298.893 190.495   2
   2   0  -4 211.737 197.043   6
  -2   0   4 24.7109 219.204   6
  -2   0   4 208.521 259.239   4
   2   0  -4 292.909 222.126   1
   2   0  -4 81.1164 217.029   4
   2   0  -4 227.734 181.456   3
  -2   0   3 40.6084 190.751   6
   2   0  -3 22.4621 121.922   2
   2   0  -3 404.562 191.827   6
   2   0  -3 120.233 152.982   3
   2   0  -3 98.6578 191.106   1
  -2   0   3-41.8997 212.139   4
   2   0  -3-98.7372 226.708   4
   2   0  -2 108544. 2251.76   1
   2   0  -2 107218. 2111.19   6
   2   0  -2 105488. 2258.99   4
  -2   0   2 107189. 2271.21   4
   2   0  -2 107783. 1326.22   2
   2   0  -1 109519. 2130.87   1
  -2   0   1 110503. 2130.52   1
  -2   0   1 109667. 2210.97   4
  -2   0   0 148097. 2306.80   1
   2   0   0 149650. 2337.65   1
   2   0   1 435156. 3852.68   1
  -2   0  -1 427729. 3847.07   1
   2   0   2 166992. 2388.65   1
  -2   0  -2 172105. 2390.85   2
  -2   0  -2 165802. 2402.34   1
   2   0   3 76707.7 1667.54   1
  -2   0  -3 77235.5 1901.24   2
   2   0   3 79101.6 2202.20   3
  -2   0  -3 77341.1 1687.07   1
   2   0   4 2809.41 507.072   3
   2   0   4 2826.90 433.943   6
   2   0   4 2962.97 381.371   1
  -2   0  -4 3256.53 383.856   1
  -2   0  -4 2760.96 448.294   2
  -2   0  -5 49766.5 1505.13   1
   2   0   5 49257.6 1597.14   1
   2   0   5 50305.4 1704.79   6
   2   0   5 48301.5 1879.63   3
  -2   0  -5 49323.8 1896.31   2
   2   0   6 170372. 3358.22   6
  -2   0  -6 168883. 2922.69   1
  -2   0  -6 171144. 3858.85   2
   2   0   6 174436. 3501.31   3
  -2   0  -7 46747.1 1637.45   1
  -2   0  -7 48923.5 2226.05   2
   2   0   7 48682.2 1856.11   3
   2   0   7 48414.1 1932.18   6
  -2   0  -8 15325.8 1001.71   1
   2   0   8 16667.3 1243.84   6
  -2   0  -8 15614.6 1353.26   2
   2   0   8 14222.8 1045.65   3
  -2   0  -9 43323.3 2403.35   2
  -2   0  -9 40468.7 1702.18   1
   2   0   9 40993.1 2023.35   6
   2   0   9 40359.3 1786.85   3
   2   0  10 11211.8 1162.98   6
  -2   0 -10 12127.4 1356.88   2
   2   0  10 10725.7 957.136   3
  -2   0 -11 6418.78 1110.02   2
   2   0  11 5749.80 735.741   3
   2   0  11 5912.38 887.488   6
   2   0  12 12874.7 1387.85   6
  -2   0 -12 16592.4 1791.53   2
   2   1 -13 807.625 492.526   2
  -2  -1  12 1878.03 656.030   6
  -2  -1  12 1123.98 502.957   3
   2   1 -12 1379.43 502.822   1
   2   1 -12 1686.87 562.164   2
   2   1 -11 14993.8 1313.57   1
   2   1 -11 18469.0 1693.78   2
  -2  -1  11 20372.9 1766.01   6
  -2  -1  11 17706.5 1461.75   3
  -2  -1  10 13245.4 1347.81   6
   2   1 -10 14997.3 1462.77   2
  -2  -1  10 12839.3 1193.41   3
   2   1 -10 13428.4 1211.45   1
  -2  -1   9 94914.4 3383.19   6
   2   1  -9 86898.1 2875.26   1
   2   1  -9 95913.9 3417.17   2
  -2  -1   9 90373.2 2966.70   3
  -2  -1   8 20945.0 1505.08   6
   2   1  -8 21300.0 1363.87   1
   2   1  -8 20257.1 1493.59   2
   2   1  -8 19582.9 1359.47   3
  -2  -1   8 19233.1 1343.95   3
   2   1  -7 4931.72 666.610   3
   2   1  -7 4828.75 710.979   2
  -2  -1   7 5253.71 738.034   6
   2   1  -7 4114.30 578.325   1
  -2  -1   7 5025.66 675.489   3
   2   1  -6 99870.3 2610.49   1
   2   1  -6 97237.0 2926.94   4
   2   1  -6 99677.1 2893.54   6
   2   1  -6 99214.2 2773.88   2
  -2  -1   6 96528.2 2816.58   6
   2   1  -6 97653.9 2639.90   3
  -2  -1   6 92425.4 2584.02   3
   2   1  -5 195542. 3822.42   4
   2   1  -5 194360. 3437.82   1
   2   1  -5 193914. 3758.74   6
   2   1  -5 189822. 3527.06   2
   2   1  -5 189928. 3468.99   3
  -2  -1   5 196482. 3740.91   6
  -2  -1   5 190464. 3526.47   3
   2   1  -4 3959.03 493.533   3
   2   1  -4 3903.12 488.723   2
  -2  -1   4 3009.71 456.463   3
   2   1  -4 4294.19 546.164   6
  -2  -1   4 4007.76 515.926   4
   2   1  -4 3578.81 504.812   4
   2   1  -4 4114.05 485.036   1
  -2  -1   3 18702.2 981.745   4
   2   1  -3 19139.6 952.903   1
   2   1  -3 19018.2 1029.02   6
   2   1  -3 19682.5 1008.48   4
   2   1  -3 19207.3 977.465   3
  -2  -1   3 18597.9 980.550   3
  -2  -1   2 1601.99 335.670   3
   2   1  -2 1491.35 305.726   3
   2   1  -2 1892.82 317.778   1
   2   1  -2 1447.89 308.020   4
  -2  -1   2 1577.54 283.271   1
  -2  -1   2 868.977 221.977   4
   2   1  -2 1631.60 173.677   5
   2   1  -1 1087.83 262.854   1
   2   1  -1 1172.55 281.668   3
  -2  -1   1 1065.33 224.013   4
   2   1  -1 1315.99 263.991   4
  -2  -1   1 1071.98 158.092   5
  -2  -1   1 1289.30 269.203   1
  -2  -1   0 528334. 2805.54   2
   2   1   0 522056. 2999.82   2
   2   1   0 526061. 4407.69   1
  -2  -1   0 537042. 4417.11   1
  -2  -1   0 542172. 3644.25   4
  -2  -1  -1 8140.71 445.574   2
   2   1   1 7349.20 406.422   2
   2   1   1 7728.95 558.223   1
  -2  -1  -1 7841.85 561.025   1
  -2  -1  -2 11815.2 613.194   2
   2   1   2 11677.4 691.602   1
   2   1   2 10310.2 593.773   2
  -2  -1  -2 11779.4 698.663   1
  -2  -1  -3 13637.6 757.504   2
  -2  -1  -3 14269.2 798.435   1
   2   1   3 12752.1 765.031   2
   2   1   3 13309.7 766.089   1
   2   1   4 64111.5 1811.43   1
  -2  -1  -4 63186.4 1841.54   2
  -2  -1  -4 62609.8 1737.65   1
   2   1   4 62818.8 1873.62   2
   2   1   4 63448.6 1673.72   3
   2   1   5 130275. 3128.52   6
   2   1   5 137670. 2899.08   1
  -2  -1  -5 137202. 2724.94   1
  -2  -1  -5 137305. 3022.09   2
   2   1   5 139803. 3096.41   2
   2   1   5 134553. 2551.94   3
   2   1   6 117369. 3072.92   6
  -2  -1  -6 107224. 2569.63   1
  -2  -1  -6 108670. 2952.57   2
   2   1   6 114754. 3074.36   2
   2   1   6 113572. 2310.67   3
   2   1   7 300.121 317.661   6
   2   1   7 86.9401 199.252   3
  -2  -1  -7 166.899 316.634   2
  -2  -1  -7 167.331 299.024   1
   2   1   8 1744.14 328.212   3
  -2  -1  -8 2388.77 564.402   2
   2   1   8 1657.38 391.253   6
  -2  -1  -8 2596.02 528.542   1
  -2  -1  -9 27953.1 1590.27   1
   2   1   9 32830.1 1899.92   6
  -2  -1  -9 30051.5 1943.59   2
   2   1   9 29086.8 1242.56   3
   2   1  10 19522.7 1577.50   6
  -2  -1 -10 21984.7 1781.64   2
   2   1  10 18930.3 1027.14   3
  -2  -1 -11 9808.91 1278.95   2
   2   1  11 10385.7 1265.41   6
  -2  -1 -12-268.669 572.731   2
   2   1  12-490.337 516.991   6
  -2  -1 -13 352.314 525.069   2
   2   1  13 337.931 415.681   6
   2   1  14 5439.76 1092.37   6
  -2  -2  12 1197.47 489.448   3
   2   2 -12 1627.01 665.654   2
   2   2 -11 10975.9 1060.04   1
   2   2 -11 12013.5 1458.02   2
  -2  -2  11 11007.7 1238.96   3
   2   2 -10 2177.04 486.351   1
   2   2 -10 2741.58 663.376   2
  -2  -2  10 3055.77 668.606   3
   2   2  -9 22196.0 1361.38   1
   2   2  -9 26903.9 1960.21   2
  -2  -2   9 22426.8 1601.72   3
   2   2  -8 2810.33 478.161   1
  -2  -2   8 2636.14 574.780   3
   2   2  -8 2285.72 617.425   2
   2   2  -7 59978.9 2012.30   1
   2   2  -7 63269.6 2632.30   2
  -2  -2   7 61197.4 2379.61   3
   2   2  -6 203190. 3494.85   1
   2   2  -6 198211. 4171.47   6
   2   2  -6 200316. 4176.46   3
  -2  -2   6 194951. 4071.07   3
   2   2  -5 23574.1 1138.06   1
   2   2  -5 22646.2 1332.22   6
   2   2  -5 22384.7 1319.07   3
  -2  -2   5 23806.5 1340.33   3
   2   2  -5 24034.0 1396.37   4
   2   2  -4 23607.5 1068.45   1
   2   2  -4 25533.1 1302.98   6
   2   2  -4 22947.0 1255.77   4
   2   2  -4 23982.8 1279.67   3
  -2  -2   4 24035.3 1275.51   3
   2   2  -3 28300.2 1244.00   4
  -2  -2   3 29070.5 1134.32   1
   2   2  -3 29858.3 1306.12   6
   2   2  -3 31342.1 1379.73   3
  -2  -2   3 30646.2 1356.79   3
   2   2  -3 29724.5 1142.09   1
  -2  -2   2 429373. 4145.91   1
   2   2  -2 426179. 4315.62   4
   2   2  -2 426129. 4187.60   1
  -2  -2   2 431499. 4782.41   3
   2   2  -2 436727. 4765.84   3
   2   2  -1 87291.0 1626.27   4
   2   2  -1 89065.3 1767.78   5
   2   2  -1 87336.1 1861.85   1
   2   2  -1 89560.5 2028.13   3
  -2  -2   1 93535.7 2073.53   3
  -2  -2   1 87261.0 1849.34   1
   2   2   0 4067.13 407.993   2
   2   2   0 4108.44 436.277   3
   2   2   0 3812.80 286.874   4
   2   2   0 3786.08 389.641   5
   2   2   0 4311.40 453.550   1
  -2  -2   0 3661.15 407.309   1
  -2  -2   0 4326.81 452.816   3
  -2  -2  -1 8756.48 570.696   2
  -2  -2  -1 6954.08 529.897   5
   2   2   1 7217.92 549.966   2
   2   2   1 7869.04 600.435   1
  -2  -2  -1 7098.65 574.195   1
   2   2   1 7474.27 517.569   3
  -2  -2  -1 8755.44 562.470   3
  -2  -2  -2 2958.80 415.417   1
   2   2   2 2688.33 296.707   3
   2   2   2 3039.38 418.104   1
  -2  -2  -2 3155.64 404.479   2
   2   2   2 2896.52 381.805   2
   2   2   3 11400.3 790.638   1
  -2  -2  -3 11164.6 746.729   2
   2   2   3 11176.7 741.040   2
   2   2   3 10315.2 533.785   3
  -2  -2  -3 11699.2 795.015   1
  -2  -2  -4 10599.8 804.311   2
  -2  -2  -4 9430.68 762.803   1
   2   2   4 10511.6 774.968   2
   2   2   4 9084.27 774.654   1
   2   2   5 5933.83 686.704   1
  -2  -2  -5 6030.47 663.135   2
   2   2   5 6255.59 664.396   2
   2   2   5 5304.81 384.969   3
  -2  -2  -5 5193.41 629.829   1
   2   2   6 327.928 136.982   3
  -2  -2  -6 329.330 282.328   2
  -2  -2  -6 274.366 202.394   4
   2   2   6 209.368 202.907   2
   2   2   6 175.703 303.550   1
  -2  -2  -6 370.309 276.705   1
   2   2   6 608.665 382.713   6
  -2  -2  -7 20429.8 1329.77   1
   2   2   7 19390.1 1446.57   6
  -2  -2  -7 18909.5 1163.88   4
  -2  -2  -7 19818.3 1372.02   2
   2   2   7 19020.3 1357.46   2
   2   2   7 16950.9 595.816   3
  -2  -2  -8 38208.1 1768.92   4
  -2  -2  -8 36139.4 1866.09   1
  -2  -2  -8 40625.6 2075.35   2
   2   2   8 39659.9 2148.77   6
   2   2   8 34291.3 852.450   3
   2   2   9 45109.4 2418.34   6
  -2  -2  -9 43556.0 2312.45   2
   2   2  10 19366.6 1652.22   6
  -2  -2 -10 21402.9 1737.71   2
   2   2  11 9079.89 1218.59   6
  -2  -2 -11 10191.1 1288.09   2
  -2  -2 -12 8625.92 1264.99   2
   2   2  12 6734.53 1087.86   6
  -2  -2 -13 16077.4 1800.66   2
   2   2  13 15141.9 1695.24   6
   2   2  14 7860.98 1349.96   6
  -2  -3  12 16535.7 1633.07   3
  -2  -3  11-14.6477 389.114   3
   2   3 -11-214.477 486.248   2
  -2  -3  10 865.471 486.005   3
   2   3 -10 700.470 505.985   2
   2   3  -9 287.885 263.403   1
  -2  -3   9 138.302 312.635   3
   2   3  -9 378.510 432.254   2
   2   3  -8 17450.8 1634.21   2
  -2  -3   8 18437.5 1497.24   3
   2   3  -8 17160.0 1064.09   1
  -2  -3   7 31703.6 1867.50   3
   2   3  -7 29993.6 1340.25   1
  -2  -3   6 8363.15 948.431   3
   2   3  -6 7723.65 662.268   1
   2   3  -6 8374.36 895.444   6
   2   3  -5 165.053 291.003   3
  -2  -3   5-188.952 310.719   3
   2   3  -5 143.842 226.114   6
   2   3  -5 284.362 338.897   4
   2   3  -5 416.356 219.190   1
   2   3  -4 11739.6 929.064   6
   2   3  -4 12805.7 1073.14   3
   2   3  -4 11021.4 725.568   1
  -2  -3   4 12043.3 1010.56   3
  -2  -3   3 123218. 2292.71   1
   2   3  -3 121409. 2764.05   6
   2   3  -3 125446. 2365.81   1
   2   3  -3 124700. 3095.23   3
  -2  -3   3 123839. 3031.82   3
  -2  -3   2 43146.2 1351.03   1
   2   3  -2 41423.5 1344.27   1
   2   3  -2 43621.9 1714.60   3
  -2  -3   2 44160.5 1719.49   3
   2   3  -1 33431.5 1376.65   2
   2   3  -1 34071.8 1222.62   1
   2   3  -1 34834.0 1456.06   3
  -2  -3   1 34426.2 1224.64   1
  -2  -3   1 35818.4 1462.61   3
   2   3   0 55408.2 1692.40   2
   2   3   0 52253.0 1699.41   5
   2   3   0 53033.5 1555.21   1
  -2  -3   0 53941.9 1560.30   1
   2   3   0 55930.3 1715.05   3
  -2  -3   0 52706.8 1677.61   3
  -2  -3  -1 65425.3 1810.44   1
  -2  -3  -1 69151.2 1915.94   2
   2   3   1 68128.3 1936.86   5
   2   3   1 66704.5 1819.49   1
   2   3   1 68012.5 1929.36   2
   2   3   1 67904.0 1758.90   3
  -2  -3  -1 66467.6 1750.66   3
   2   3   2 15602.4 948.390   1
  -2  -3  -2 15360.6 965.340   2
  -2  -3  -2 14621.7 903.829   1
  -2  -3  -2 16085.2 971.636   5
  -2  -3  -2 16206.4 786.825   3
   2   3   2 16490.4 798.275   3
   2   3   2 15746.1 981.343   2
   2   3   3 2246.75 289.638   3
  -2  -3  -3 1582.75 326.060   5
  -2  -3  -3 2036.54 284.309   3
   2   3   3 1693.70 385.128   1
  -2  -3  -3 2097.51 413.983   1
  -2  -3  -3 2467.37 435.837   2
   2   3   3 2893.57 476.465   2
  -2  -3  -4 14711.8 561.967   4
   2   3   4 15717.8 1050.24   2
  -2  -3  -4 15264.3 1006.42   5
  -2  -3  -4 15604.0 1050.43   2
  -2  -3  -4 15330.7 1052.80   1
   2   3   4 14847.3 594.143   3
   2   3   4 14939.9 1073.04   1
   2   3   5 5591.03 709.915   1
  -2  -3  -5 7561.85 790.396   2
  -2  -3  -5 7225.51 796.141   1
  -2  -3  -5 7170.14 506.863   4
   2   3   5 6709.79 743.475   2
   2   3   5 5629.67 287.688   3
  -2  -3  -6 16162.5 875.617   4
   2   3   6 16839.2 1209.19   2
  -2  -3  -6 17226.1 1247.50   2
  -2  -3  -6 17180.4 1273.09   1
   2   3   6 17361.5 1384.18   6
   2   3   7 16565.2 1421.91   6
  -2  -3  -7 13576.1 1211.38   1
  -2  -3  -7 15693.2 1233.25   2
  -2  -3  -7 15777.5 983.595   4
   2   3   8 21238.4 1672.34   6
  -2  -3  -8 21105.1 1539.45   2
  -2  -3  -8 21352.6 1255.55   4
  -2  -3  -9 5714.21 865.914   2
  -2  -3  -9 6091.06 738.510   4
   2   3   9 5625.06 959.256   6
  -2  -3 -10 6680.18 969.288   2
   2   3  10 5430.97 951.103   6
  -2  -3 -11 13354.0 1459.16   2
   2   3  11 11231.2 1422.73   6
   2   3  12 14662.7 1637.89   6
  -2  -3 -12 15902.6 1702.52   2
   2   3  13 13627.0 1635.31   6
  -2  -3 -13 16330.7 1827.03   2
   2   3  14 924.920 645.208   6
  -2  -4  12 7114.06 1115.75   3
  -2  -4  11 7206.24 1091.06   3
  -2  -4  10 5972.69 975.634   3
   2   4 -10 5606.70 1187.05   2
  -2  -4   9 7660.71 1122.50   3
   2   4  -9 8216.17 1333.69   2
  -2  -4   8 14194.5 1447.25   3
  -2  -4   7 1293.15 506.976   3
   2   4  -7 384.467 214.355   1
  -2  -4   6 629.020 350.977   3
   2   4  -6 1179.44 312.726   1
  -2  -4   5 2543.99 603.193   3
   2   4  -5 2547.38 565.786   6
   2   4  -5 2219.12 364.911   1
   2   4  -4 8447.03 862.977   6
  -2  -4   4 10470.6 684.785   1
   2   4  -4 9480.45 678.562   1
  -2  -4   4 9469.74 1000.30   3
  -2  -4   3 9069.71 635.231   1
   2   4  -3 9136.37 663.289   1
  -2  -4   3 8682.55 919.237   3
  -2  -4   2 64.7472 253.663   3
   2   4  -2-64.3012 252.178   3
  -2  -4   2 161.765 166.554   1
   2   4  -2 425.866 252.908   1
   2   4  -1 26967.0 1437.61   2
   2   4  -1 25243.9 1144.77   1
   2   4  -1 26467.4 1455.37   3
  -2  -4   1 25178.5 1094.86   1
  -2  -4   1 27328.0 1450.16   3
   2   4   0 87862.0 2492.26   2
   2   4   0 86516.7 2170.98   1
  -2  -4   0 87909.5 2143.81   1
   2   4   0 88576.2 2492.00   3
  -2  -4   0 88951.4 2472.37   3
  -2  -4  -1 136357. 3168.73   2
   2   4   1 135217. 3126.38   2
  -2  -4  -1 135046. 2788.52   1
   2   4   1 141561. 2963.51   3
   2   4   1 135829. 2850.30   1
  -2  -4  -1 138197. 2886.52   3
   2   4   1 136527. 3198.43   5
  -2  -4  -2 89064.8 2590.22   2
   2   4   2 91478.2 2617.29   5
   2   4   2 91482.5 2481.83   1
   2   4   2 90422.3 2638.42   2
  -2  -4  -2 88403.9 2410.50   1
   2   4   2 92191.5 2276.00   3
  -2  -4  -2 89084.8 2178.70   3
  -2  -4  -3 84840.5 2562.87   5
   2   4   3 86557.5 2582.68   5
   2   4   3 84445.2 1356.77   4
  -2  -4  -3 85800.5 2504.16   1
   2   4   3 85056.0 2604.64   2
   2   4   3 87049.8 2040.32   3
  -2  -4  -3 91336.3 2046.62   3
   2   4   3 87360.9 2588.07   1
  -2  -4  -3 91196.2 2690.11   2
   2   4   4 16303.3 1250.03   1
  -2  -4  -4 17649.7 1213.34   5
   2   4   4 16634.5 629.760   4
   2   4   4 18313.9 1284.50   2
  -2  -4  -4 17563.5 1238.79   2
  -2  -4  -4 18450.5 1262.07   1
   2   4   4 18160.4 864.477   3
  -2  -4  -4 19174.7 865.611   3
   2   4   5 48812.2 2189.29   1
  -2  -4  -5 48635.5 1268.70   4
  -2  -4  -5 47387.7 1994.29   5
  -2  -4  -5 50835.0 2171.45   2
   2   4   5 46445.3 1211.22   4
  -2  -4  -5 46388.7 2115.48   1
   2   4   5 49406.3 2130.38   2
   2   4   5 49743.2 1269.99   3
  -2  -4  -5 53263.4 1229.72   3
  -2  -4  -6 49067.4 2311.28   1
   2   4   6 54348.2 2317.21   2
  -2  -4  -6 51010.7 2143.24   5
  -2  -4  -6 51995.9 2248.19   2
  -2  -4  -6 50554.1 1462.65   4
   2   4   7 6546.79 965.276   6
  -2  -4  -7 8033.40 971.262   2
  -2  -4  -7 7567.68 674.549   4
  -2  -4  -8 1547.20 409.571   4
   2   4   8 1591.02 555.694   6
  -2  -4  -8 2119.47 552.240   2
  -2  -4  -9 4067.73 609.304   4
   2   4   9 3869.71 850.542   6
  -2  -4  -9 3879.77 761.880   2
   2   4  10 498.072 519.369   6
  -2  -4 -10 234.304 464.780   2
   2   4  11 27305.3 2169.96   6
  -2  -4 -11 32688.6 2316.73   2
  -2  -4 -12 11165.4 1426.75   2
   2   4  12 11327.3 1488.82   6
  -2  -4 -13 560.831 454.235   2
   2   4  13 172.818 417.313   6
   2   4  14-828.670 858.642   6
  -2  -5  10 4045.15 846.850   3
  -2  -5   9 10415.1 1358.00   3
   2   5  -9 11236.0 1630.21   2
  -2  -5   8 3815.85 893.169   3
  -2  -5   7 2934.95 718.726   3
  -2  -5   6 4651.62 877.080   3
   2   5  -5 36571.2 1182.11   1
   2   5  -5 36316.4 1890.98   6
  -2  -5   4 7857.12 1035.04   3
   2   5  -4 7438.07 850.209   6
   2   5  -4 7767.91 604.088   1
  -2  -5   3 7861.69 595.860   1
   2   5  -3 7494.80 620.888   1
   2   5  -3 7670.22 811.403   6
  -2  -5   3 8584.37 1022.64   3
  -2  -5   2 871.279 262.977   1
   2   5  -2 360.061 237.075   1
  -2  -5   2 820.573 420.621   3
   2   5  -1 21398.5 1156.31   1
  -2  -5   1 20459.4 1063.43   1
  -2  -5   1 20661.2 1444.99   3
   2   5   0 94117.0 2539.60   1
   2   5   0 87578.7 2889.49   2
  -2  -5   0 96282.7 2429.40   1
   2   5   0 96315.1 3059.08   3
  -2  -5   0 95136.7 2933.56   3
   2   5   1 23699.9 1514.26   5
   2   5   1 22195.9 1442.35   2
   2   5   1 25010.5 1380.20   1
  -2  -5  -1 23024.9 1260.55   1
   2   5   1 24011.3 1500.25   3
  -2  -5  -1 23794.6 1423.11   3
   2   5   2 2731.62 524.766   3
  -2  -5  -2 2014.11 439.902   3
   2   5   2 1586.83 498.279   1
  -2  -5  -2 2576.72 499.515   2
   2   5   2 2180.40 527.671   5
   2   5   2 1842.68 419.537   2
  -2  -5  -2 1910.28 505.640   1
   2   5   3 5639.35 675.585   3
   2   5   3 4820.30 776.365   1
   2   5   3 4623.07 738.709   5
   2   5   3 3965.76 442.235   4
  -2  -5  -3 4975.23 745.859   2
  -2  -5  -3 4922.30 697.299   1
  -2  -5  -3 4800.95 603.171   3
   2   5   3 4962.94 753.045   2
  -2  -5  -4 69238.5 2603.05   1
   2   5   4 75217.0 2764.96   1
   2   5   4 69811.8 2609.46   5
   2   5   4 71614.1 2682.68   2
   2   5   4 70195.3 1640.69   4
   2   5   4 74561.1 2236.10   3
  -2  -5  -4 74700.4 2074.90   3
  -2  -5  -4 74155.0 2757.01   2
   2   5   5 152633. 2446.99   4
  -2  -5  -5 156792. 4091.04   2
   2   5   5 149087. 2995.61   3
  -2  -5  -5 157998. 2767.81   3
   2   5   6 3406.63 433.740   4
  -2  -5  -6 2760.40 604.289   2
  -2  -5  -6 3668.92 398.479   3
   2   5   6 3838.70 478.331   3
  -2  -5  -7 9663.87 749.784   4
   2   5   7 9780.80 1214.28   6
   2   5   7 9049.82 724.157   4
  -2  -5  -7 8630.82 1061.19   2
  -2  -5  -7 7677.18 431.219   3
  -2  -5  -8 18114.2 1567.55   2
  -2  -5  -8 18274.7 1118.35   4
   2   5   8 19592.8 1682.46   6
   2   5   9 32664.7 2256.11   6
  -2  -5  -9 32044.3 2133.97   2
  -2  -5  -9 30987.8 1579.87   4
   2   5  10 35798.0 2448.04   6
  -2  -5 -10 35577.7 2358.51   2
  -2  -5 -10 35607.6 1818.52   4
   2   5  11 5153.97 1094.08   6
  -2  -5 -11 6966.70 1184.66   2
   2   5  12-56.3707 505.744   6
  -2  -5 -12 982.156 537.275   2
   2   5  13 509.475 515.351   6
  -2  -5 -13-324.976 566.686   2
  -2  -6   8 7322.73 1247.13   3
  -2  -6   7 43932.8 2857.62   3
  -2  -6   6 39222.5 2617.69   3
  -2  -6   5 9462.66 1279.64   3
  -2  -6   4 569.767 437.837   3
   2   6  -4 922.140 366.427   6
  -2  -6   3 13994.8 772.479   1
   2   6  -3 12088.5 1051.86   6
  -2  -6   3 12674.9 1379.66   3
   2   6  -2 7443.49 716.713   1
  -2  -6   2 9196.46 1135.97   3
  -2  -6   2 8259.45 655.352   1
   2   6  -1 77068.3 2374.47   1
  -2  -6   1 84192.7 2267.34   1
  -2  -6   1 82283.5 3215.93   3
   2   6   0 10294.7 957.921   1
  -2  -6   0 10342.1 861.956   1
  -2  -6   0 11258.0 1172.28   3
  -2  -6  -1 19729.8 1269.62   1
  -2  -6  -1 18234.3 1473.09   3
  -2  -6  -2 730.507 385.566   3
   2   6   2 1093.69 410.275   5
  -2  -6  -2 1592.08 446.421   1
  -2  -6  -3 39980.3 2226.82   2
  -2  -6  -3 40490.6 2045.63   1
   2   6   3 40390.3 2110.10   3
  -2  -6  -3 41776.0 1959.48   3
   2   6   3 43029.9 2234.82   5
  -2  -6  -4 31729.0 1998.58   2
   2   6   4 31904.9 1825.32   3
  -2  -6  -4 31524.7 1636.33   3
   2   6   4 30680.5 1342.85   4
   2   6   4 32432.2 1960.28   5
   2   6   5 5199.14 762.079   3
  -2  -6  -5 5230.81 664.094   3
   2   6   5 5532.37 862.442   5
   2   6   5 4906.18 547.322   4
  -2  -6  -5 5022.35 867.716   2
   2   6   6 8808.70 738.119   4
   2   6   6 9336.76 898.930   3
  -2  -6  -6 8081.11 1051.02   2
  -2  -6  -6 9513.38 796.651   3
  -2  -6  -7 382.338 194.871   3
   2   6   7 763.905 588.192   6
   2   6   7 177.419 257.626   4
  -2  -6  -7 438.771 448.813   2
   2   6   8 133176. 4508.01   6
   2   6   8 130186. 3035.45   4
  -2  -6  -8 131726. 4441.00   2
   2   6   9 23182.6 1965.16   6
  -2  -6  -9 23034.0 1960.29   2
  -2  -6 -10 13502.0 1607.57   2
   2   6  10 14078.9 1632.09   6
   2   6  11 457.699 515.365   6
  -2  -6 -11 243.507 560.143   2
   2   6  12 8767.22 1449.83   6
  -2  -6 -12 6305.13 1157.32   2
   2   6  13 2086.71 710.718   6
  -2  -6 -13 3900.50 1088.60   2
  -2  -7   6 327.902 448.313   3
  -2  -7   5 4382.15 953.231   3
  -2  -7   4 5171.69 1025.91   3
  -2  -7   3 26578.2 2193.67   3
  -2  -7   2 39884.9 2572.05   3
  -2  -7   1-949.680 292.304   1
  -2  -7   1-254.932 315.565   3
  -2  -7   0 2230.75 643.568   3
  -2  -7   0 1829.77 436.979   1
  -2  -7  -1 2639.74 647.391   3
  -2  -7  -1 3359.00 582.591   1
   2   7   2 23600.7 1876.41   5
  -2  -7  -2 23669.9 1773.39   3
  -2  -7  -3 1518.18 486.918   3
   2   7   3 1717.01 584.987   5
  -2  -7  -4 6274.15 890.918   3
   2   7   4 4699.28 844.461   5
   2   7   4 4993.26 688.212   4
  -2  -7  -4 5745.60 992.328   2
   2   7   5 354.435 406.101   3
  -2  -7  -5 539.379 306.167   3
  -2  -7  -5 945.814 522.716   2
   2   7   5-148.939 334.906   5
   2   7   5 557.962 263.442   4
   2   7   6 16970.8 1640.22   6
  -2  -7  -6 18528.9 1706.46   2
   2   7   6 18713.1 1178.77   4
   2   7   6 17522.8 1431.22   3
  -2  -7  -6 19984.8 1335.58   3
  -2  -7  -7 19147.2 1761.68   2
   2   7   7 17192.6 1137.66   4
  -2  -7  -7 17818.7 1171.06   3
   2   7   7 17012.2 1677.39   6
  -2  -7  -8 10339.7 1336.77   2
   2   7   8 9770.40 892.821   4
  -2  -7  -8 10472.7 826.289   3
   2   7   8 10418.7 1359.50   6
   2   7   9 1296.94 576.594   6
   2   7   9 3428.57 564.813   4
  -2  -7  -9 2994.22 842.616   2
   2   7  10 4899.23 716.127   4
  -2  -7 -10 6064.12 1144.66   2
   2   7  10 5200.22 1097.98   6
   2   7  11 10572.8 1546.76   6
  -2  -7 -11 11732.2 1591.74   2
   2   7  12 11463.2 1629.55   6
  -2  -7 -12 8226.92 1374.03   2
  -2  -8   4 16146.1 1912.49   3
  -2  -8   3 619.173 488.858   3
  -2  -8   2 13115.8 1651.71   3
  -2  -8   1 7020.80 1209.04   3
  -2  -8   0 23462.7 2139.25   3
   2   8   1 21506.1 1963.72   5
  -2  -8  -1 21217.0 1910.27   3
   2   8   2 11442.8 1466.91   5
  -2  -8  -2 10888.8 1379.96   3
  -2  -8  -3 5107.86 939.016   3
   2   8   3 3609.48 850.877   5
  -2  -8  -4 792.528 463.777   3
   2   8   4 225.155 427.414   5
   2   8   4-150.071 381.040   4
  -2  -8  -5 11941.3 1502.65   2
   2   8   5 9642.69 1315.20   5
   2   8   5 9282.54 968.997   4
  -2  -8  -5 10145.8 1157.77   3
  -2  -8  -6 967.552 421.729   3
   2   8   6 1341.01 564.228   5
   2   8   6 606.435 323.169   4
  -2  -8  -6 1640.63 681.509   2
   2   8   6 930.067 686.151   6
  -2  -8  -7 1779.26 489.819   3
   2   8   7 1354.81 671.003   6
   2   8   7 1160.72 364.677   4
  -2  -8  -7 1259.09 590.971   2
   2   8   8 848.585 604.034   6
   2   8   8 1621.19 468.670   4
  -2  -8  -8 397.197 413.137   2
  -2  -8  -9 260.838 513.627   2
   2   8   9 331.388 466.901   6
   2   8  10 5697.25 1119.11   6
  -2  -8 -10 4591.43 1062.32   2
   2   8  11 13236.9 1787.71   6
  -2  -8 -11 13458.6 1796.73   2
  -2  -9   1 10183.8 1573.57   3
  -2  -9   0 17158.1 1926.04   3
   2   9   1 4454.41 1072.59   5
  -2  -9  -1 2557.04 722.566   3
  -2  -9  -2 2642.01 818.868   3
   2   9   2 2290.94 860.118   5
  -2  -9  -3 1155.74 558.921   3
   2   9   3 3190.11 831.991   5
   2   9   4 18911.9 1935.37   5
   2   9   4 14112.5 1351.41   4
   2   9   4 13086.4 1470.99   6
  -2  -9  -4 17006.8 1701.06   3
   2   9   5 14846.2 1584.12   6
   2   9   5 17162.9 1840.56   5
  -2  -9  -5 15257.0 1549.31   3
  -2  -9  -6 572.616 414.215   3
   2   9   6 1594.43 602.401   5
   2   9   6 562.879 581.654   6
  -2  -9  -6 881.542 660.109   2
  -2  -9  -7 975.157 448.356   3
   2   9   7 1072.45 637.111   6
  -2  -9  -7 115.088 502.443   2
   2   9   8-535.693 592.555   6
  -2  -9  -8-448.698 553.377   2
   2   9   9 6744.08 1264.73   6
  -2  -9  -9 9251.66 1527.58   2
   2   9  10 7887.92 1354.12   6
  -2 -10  -3 25143.7 2286.99   3
  -2 -10  -4 15574.3 1772.66   3
  -2 -10  -5-197.161 445.414   3
  -2 -10  -6 1345.48 579.917   3
   2  10   6 1123.33 598.173   6
   2  10   7 3777.90 948.414   6
   2  10   8 10513.5 1516.75   6
   2  10   9 11477.6 1626.69   6
  -3   8   5 11277.1 1577.81   5
   3  -7  -8 1734.01 791.359   3
   3  -7  -8 946.937 578.001   1
   3  -7  -7 8036.64 1389.69   3
   3  -7  -7 7048.31 1285.50   1
  -3   7   7 8824.55 1204.15   5
  -3   7   7 8309.66 1385.02   4
   3  -7  -6 6701.34 1345.11   3
   3  -7  -6 8066.75 1367.27   1
  -3   7   6 6399.69 1092.37   5
  -3   7   6 9712.26 1507.57   4
   3  -7  -5 3946.68 997.236   3
  -3   7   5 2981.74 858.707   4
  -3   7   5 2753.99 761.632   5
   3  -7  -5 2182.40 728.674   1
   3  -7  -4-1237.02 811.480   3
  -3   7   4-1334.14 725.548   4
   3  -7  -3 13614.3 1857.68   3
  -3   7   3 12505.0 1738.34   4
  -3   6  11 4483.66 974.973   6
  -3   6  10 1391.41 672.558   6
  -3   6  10 1150.52 679.751   4
   3  -6  -9 248.968 529.723   3
  -3   6   9 479.066 507.760   4
   3  -6  -9 622.211 479.619   2
  -3   6   9 611.344 461.588   6
   3  -6  -8 5072.88 1077.84   3
  -3   6   8 5798.05 982.292   6
  -3   6   8 5547.40 1093.91   4
   3  -6  -8 5314.71 940.062   2
   3  -6  -7 8241.92 1417.83   3
  -3   6   7 8232.35 1090.14   6
  -3   6   7 6816.75 944.719   5
  -3   6   7 6541.01 1198.24   4
   3  -6  -7 5980.12 925.823   2
   3  -6  -6 813.759 628.423   3
   3  -6  -6 1703.77 671.348   1
  -3   6   6 1474.81 498.129   6
  -3   6   6 1104.36 507.765   5
  -3   6   6 649.511 550.181   4
   3  -6  -5-1038.28 599.445   3
  -3   6   5 354.061 373.813   5
   3  -6  -5 116.741 441.675   1
  -3   6   5 319.750 479.453   4
   3  -6  -4 17145.4 1643.05   1
  -3   6   4 17636.1 1862.74   4
   3  -6  -4 18335.4 1986.45   3
   3  -6  -3 24030.1 1806.03   1
  -3   6   3 23449.6 2172.46   4
   3  -6  -3 24936.6 2376.78   3
   3  -6  -2 10028.0 1554.87   3
   3  -6  -2 10941.2 1175.30   1
   3  -6  -1 6015.50 1275.05   3
   3  -6   0-514.946 735.891   3
   3  -6   1 11251.6 1634.52   3
   3  -5 -13 741.090 672.176   2
  -3   5  12 5123.72 1100.25   6
  -3   5  12 4593.38 1149.91   4
   3  -5 -12 4269.32 1013.08   2
  -3   5  11 3293.46 1045.88   6
  -3   5  11 3363.77 978.503   4
   3  -5 -11 3732.74 837.044   2
  -3   5  10 3569.79 844.622   6
  -3   5  10 4023.45 1020.88   4
   3  -5 -10 3231.58 761.851   2
   3  -5 -10 4107.08 895.270   3
   3  -5  -9 32555.4 2331.73   3
  -3   5   9 31647.3 2319.60   6
   3  -5  -9 28785.3 1985.28   2
  -3   5   9 24984.4 2171.39   4
  -3   5   8 9359.10 1206.93   6
  -3   5   8 8815.35 1285.27   4
   3  -5  -8 6220.18 929.536   2
   3  -5  -8 9260.68 1287.75   3
  -3   5   7 1038.10 657.342   4
  -3   5   7 469.351 288.837   5
   3  -5  -7 843.191 344.706   2
  -3   5   7 861.164 465.343   6
   3  -5  -7 819.088 634.200   3
   3  -5  -6 683.294 592.912   3
  -3   5   6 872.626 588.360   4
  -3   5   6 588.974 380.137   6
  -3   5   6-199.355 316.575   5
   3  -5  -6 691.762 396.136   2
   3  -5  -5-23.3193 503.397   3
  -3   5   5 549.319 287.419   6
  -3   5   5 1056.93 398.074   5
   3  -5  -5 75.0415 367.961   1
  -3   5   5 1230.21 698.333   4
  -3   5   4 24432.6 2015.10   4
   3  -5  -4 22897.6 2129.46   3
   3  -5  -4 22841.5 1784.86   1
   3  -5  -3 13273.8 1292.81   1
  -3   5   3 10475.7 1379.44   4
   3  -5  -3 12823.9 1660.45   3
   3  -5  -2-460.773 654.644   3
   3  -5  -2-506.480 418.387   1
   3  -5  -1 7715.49 1371.46   3
   3  -5  -1 7602.44 893.998   1
   3  -5   0 38304.0 2865.04   3
   3  -5   0 36585.6 1694.64   1
   3  -5   1 14673.6 1817.67   3
   3  -5   2 24814.9 2391.66   3
   3  -5   3 1210.38 746.860   3
   3  -5   4 3025.25 953.824   3
   3  -5   5-493.006 562.220   3
  -3   5  -6 10237.9 1494.70   2
   3  -4 -14 4663.69 1077.78   2
   3  -4 -13 294.735 525.700   2
  -3   4  12 1285.53 571.870   6
  -3   4  12 302.611 595.481   4
   3  -4 -12 997.312 484.599   2
  -3   4  11 17984.8 1906.47   4
  -3   4  11 19996.2 2050.24   6
   3  -4 -11 19904.9 1776.80   2
  -3   4  10 44771.5 2865.40   4
   3  -4 -10 47331.8 2614.13   2
  -3   4  10 51636.0 3061.52   6
  -3   4   9 5887.45 1015.06   6
  -3   4   9 4294.99 920.345   4
   3  -4  -9 5658.68 890.724   2
   3  -4  -9 4430.58 855.467   3
  -3   4   8 4315.81 841.153   6
  -3   4   8 3780.45 827.351   4
   3  -4  -8 4764.27 791.833   2
   3  -4  -8 3505.27 764.538   3
  -3   4   7 2864.23 549.925   2
  -3   4   7 732.985 436.537   6
  -3   4   7 2281.99 760.814   4
   3  -4  -7 1526.52 417.593   2
   3  -4  -7 1928.84 638.255   3
  -3   4   6 3900.72 627.640   2
  -3   4   6 4557.61 752.500   6
  -3   4   6 3774.45 577.880   5
  -3   4   6 4723.14 911.952   4
   3  -4  -6 4675.27 704.335   2
   3  -4  -6 4800.60 908.295   3
   3  -4  -5 30826.0 1773.38   6
  -3   4   5 35163.2 1785.90   6
   3  -4  -5 31637.3 2078.16   1
  -3   4   5 33255.3 1685.15   5
   3  -4  -5 32878.0 1700.70   2
  -3   4   5 28787.9 1580.51   2
  -3   4   5 31814.0 2146.98   4
   3  -4  -5 34649.3 2213.97   3
  -3   4   4 31973.7 2144.62   4
   3  -4  -4 30765.3 1932.07   1
  -3   4   4 25088.3 1445.52   2
   3  -4  -4 30401.5 1602.60   6
   3  -4  -4 33016.0 2281.70   3
  -3   4   4 32223.3 1526.35   6
   3  -4  -3 19439.6 1497.15   1
  -3   4   3 21284.7 1771.88   4
  -3   4   3 18042.1 1231.30   2
   3  -4  -3 19764.1 1808.16   3
   3  -4  -2 2007.53 738.753   3
   3  -4  -2 1842.76 477.608   1
  -3   4   2 1132.74 342.611   2
   3  -4  -1 19395.6 1303.22   1
  -3   4   1 16470.2 1204.61   2
   3  -4  -1 20906.7 1960.18   3
  -3   4   0 40550.4 1897.73   2
   3  -4   0 44200.3 2826.48   3
   3  -4   0 42527.2 1778.13   1
   3  -4   1 13975.9 1648.06   3
   3  -4   1 16627.6 1009.28   1
   3  -4   2-469.457 567.238   3
   3  -4   2 155.821 178.744   1
   3  -4   3 11150.5 1592.34   3
   3  -4   4 24399.5 2296.87   3
  -3   4  -5 30419.2 2182.58   2
   3  -4   5 30736.9 2562.48   3
   3  -4   6 797.495 614.925   3
  -3   4  -6 2466.96 705.325   2
   3  -4   7 5427.44 1174.01   3
  -3   4  -7 3645.55 887.517   2
  -3   4  -8-109.109 420.592   2
   3  -3 -14 3509.62 942.639   2
  -3   3  13-190.864 669.211   6
  -3   3  13-698.249 565.010   4
   3  -3 -13 203.308 508.143   2
  -3   3  12 31779.1 2590.22   6
  -3   3  12 33917.8 2617.38   4
   3  -3 -12 33584.9 2348.13   2
  -3   3  11 4308.51 969.109   6
  -3   3  11 5935.04 1153.18   4
   3  -3 -11 3892.69 816.756   2
  -3   3  10 2759.11 810.413   6
  -3   3  10 2017.59 783.313   4
   3  -3 -10 2917.25 699.961   2
  -3   3   9 920.186 462.768   6
  -3   3   9-568.143 572.361   4
   3  -3  -9 566.710 433.952   2
  -3   3   8 5105.39 871.240   6
  -3   3   8 5920.06 971.790   4
   3  -3  -8 4278.20 699.365   2
  -3   3   8 3201.42 588.951   2
  -3   3   7 25418.8 1874.86   4
   3  -3  -7 24382.4 1490.33   2
  -3   3   7 21115.1 1349.92   2
  -3   3   7 27219.4 1786.20   6
   3  -3  -6 52738.9 2024.69   2
  -3   3   6 50334.1 1686.81   5
  -3   3   6 54634.2 2673.53   4
  -3   3   6 46662.6 1884.24   2
  -3   3   6 54295.7 2358.21   6
   3  -3  -5 38508.8 1865.69   6
   3  -3  -5 37129.8 2139.48   1
   3  -3  -5 39807.2 1668.32   2
  -3   3   5 36557.1 1492.31   5
  -3   3   5 38222.4 2208.73   4
  -3   3   5 34869.1 1542.16   2
  -3   3   5 39010.1 1836.19   6
  -3   3   4 176.120 207.988   2
   3  -3  -4-672.641 375.006   6
  -3   3   4-429.773 459.614   4
   3  -3  -4 151.537 222.734   2
   3  -3  -4-242.749 270.829   1
  -3   3   4-245.710 198.500   6
   3  -3  -3 21494.9 1178.72   6
   3  -3  -3 18127.3 1423.50   1
  -3   3   3 20724.1 1140.79   2
  -3   3   3 21824.9 1638.49   4
   3  -3  -3 23276.9 1710.54   3
   3  -3  -2 13426.8 1135.44   1
   3  -3  -2 14081.6 835.467   6
  -3   3   2 12709.7 900.017   2
   3  -3  -2 13082.2 1354.34   3
   3  -3  -1 74002.2 2419.10   1
   3  -3  -1 70928.1 1534.71   6
  -3   3   1 68562.7 2059.64   2
   3  -3  -1 75044.4 3241.50   3
   3  -3   0 1017.60 597.173   3
   3  -3   0 605.282 260.861   1
  -3   3   0 994.207 322.494   2
   3  -3   1 4450.46 971.989   3
  -3   3  -1 3036.51 510.052   2
   3  -3   1 4542.02 554.355   1
   3  -3   2 5319.20 1070.86   3
   3  -3   2 5571.03 558.436   1
   3  -3   3 38622.8 1223.02   1
   3  -3   3 41339.1 2687.00   3
   3  -3   4 5494.26 1105.14   3
   3  -3   4 4094.85 333.211   1
   3  -3   5 1748.47 758.401   3
  -3   3  -5 1185.51 505.902   2
   3  -3   6 4492.19 981.039   3
  -3   3  -6 5170.57 914.675   2
  -3   3  -7 11368.1 1393.57   2
   3  -3   7 12055.7 1565.44   3
  -3   3  -8 23888.3 2151.24   2
   3  -3   8 21540.0 2050.40   3
   3  -3   9 7464.48 1272.52   3
  -3   3  -9 8836.03 1353.35   2
   3  -3  10 1232.98 408.557   3
   3  -2 -14 94.5765 543.414   2
   3  -2 -14 300.173 559.594   1
   3  -2 -13 16724.7 1958.35   1
   3  -2 -13 20063.5 1919.18   2
  -3   2  13 21246.9 2159.82   6
   3  -2 -12 140.919 389.516   2
  -3   2  12 209.767 468.267   6
  -3   2  12-584.223 570.275   4
   3  -2 -12 531.147 409.318   1
   3  -2 -11 336.601 346.269   2
  -3   2  11-266.599 488.705   6
  -3   2  11-125.998 417.760   4
   3  -2 -10-304.668 378.278   2
  -3   2  10-123.444 438.212   6
  -3   2  10-72.1327 417.173   4
  -3   2   9 27788.9 1993.40   6
  -3   2   9 24828.5 1949.00   4
   3  -2  -9 28874.6 1754.55   2
  -3   2   8 19757.1 1657.89   4
   3  -2  -8 21539.0 1413.32   2
  -3   2   8 19534.8 1367.49   2
  -3   2   8 21235.9 1649.33   6
  -3   2   7 7191.54 944.450   6
   3  -2  -7 7985.50 837.920   2
  -3   2   7 6171.38 914.114   4
  -3   2   7 7150.14 759.338   2
   3  -2  -6 25209.1 1758.66   1
   3  -2  -6 27281.6 1343.94   2
  -3   2   6 27038.7 1780.28   4
  -3   2   6 23368.4 1231.84   2
  -3   2   6 25603.0 1573.18   6
  -3   2   5 42163.8 1889.48   6
   3  -2  -5 43989.9 1582.09   2
  -3   2   5 38525.0 2081.18   4
  -3   2   5 42423.9 1485.60   2
   3  -2  -5 38265.1 2056.45   1
   3  -2  -5 40893.8 1875.35   6
  -3   2   5 42027.3 1251.25   5
   3  -2  -4 52112.4 1941.34   6
  -3   2   4 53627.3 1946.52   6
   3  -2  -4 52716.0 1574.29   2
   3  -2  -4 51100.0 2231.99   1
  -3   2   4 51423.2 2332.35   4
  -3   2   4 49981.3 1484.17   2
   3  -2  -3 31814.2 1394.70   6
   3  -2  -3 34189.4 1162.33   2
  -3   2   3 31216.3 1117.83   2
  -3   2   3 34966.0 1917.96   4
   3  -2  -3 33563.5 1714.66   1
   3  -2  -2 40383.9 1404.12   6
  -3   2   2 39159.4 1235.27   2
  -3   2   2 38936.5 2010.91   4
   3  -2  -2 40224.7 1801.91   1
   3  -2  -1 2418.12 338.466   6
  -3   2   1 1991.19 316.525   2
   3  -2  -1 2366.85 632.426   3
   3  -2  -1 1987.63 403.151   1
   3  -2   0 1730.94 232.046   6
   3  -2   0 1459.69 367.279   1
  -3   2   0 1656.39 312.480   2
   3  -2   0 1937.88 597.407   3
   3  -2   1 18321.2 1534.34   3
   3  -2   1 17874.8 1016.90   1
   3  -2   2 25335.6 1930.87   3
   3  -2   2 26186.5 1150.18   1
   3  -2   3 9700.66 1329.34   3
   3  -2   3 10780.1 715.003   1
   3  -2   4 26108.6 1039.75   1
  -3   2  -4 25315.9 1616.94   2
   3  -2   4 24578.8 1998.09   3
   3  -2   5 2538.01 793.439   3
  -3   2  -5 3365.19 673.200   2
   3  -2   5 1163.98 155.547   6
   3  -2   5 1826.11 300.746   1
  -3   2  -6 25256.5 1788.68   2
   3  -2   6 22519.5 1901.18   3
  -3   2  -7 33688.2 2187.06   2
   3  -2   7 28212.1 2112.43   3
   3  -2   8 6729.92 1061.56   3
  -3   2  -8 7161.45 1151.51   2
   3  -2   9 6101.15 1066.41   3
  -3   2  -9 4495.01 939.253   2
   3  -2  10 4289.20 860.497   3
  -3   2 -10 8339.01 1319.13   2
   3  -1 -14 15400.6 1846.45   1
   3  -1 -14 20064.0 1992.69   2
   3  -1 -13 3871.76 883.724   2
  -3   1  13 3484.36 903.467   6
   3  -1 -13 2816.84 742.336   1
   3  -1 -12 983.426 530.413   2
  -3   1  12-135.200 392.651   6
   3  -1 -12 582.181 442.977   1
   3  -1 -11 10000.5 1339.47   1
  -3   1  11 9953.33 1337.06   6
   3  -1 -11 10314.8 1240.33   2
  -3   1  10 28327.1 2087.66   6
   3  -1 -10 27224.8 2064.06   1
  -3   1  10 24113.6 1950.35   4
   3  -1 -10 27815.5 1847.45   2
   3  -1  -9 22115.4 1787.40   1
   3  -1  -9 22789.1 984.234   5
   3  -1  -9 24303.0 1621.12   2
  -3   1   9 23714.8 1825.30   4
  -3   1   9 24192.6 1831.23   6
   3  -1  -8 1987.33 475.596   2
   3  -1  -8 1911.98 546.040   1
   3  -1  -8 2627.85 550.801   3
  -3   1   8 1764.81 545.990   6
  -3   1   8 1590.10 532.460   4
   3  -1  -7 4432.70 603.005   2
  -3   1   7 3583.26 663.830   6
   3  -1  -7 4122.26 737.827   1
   3  -1  -7 4268.47 656.291   3
  -3   1   7 2914.63 627.711   4
   3  -1  -6 437.975 264.778   2
  -3   1   6 135.503 193.479   2
  -3   1   6 340.377 314.044   6
   3  -1  -6 265.041 235.033   3
  -3   1   6-54.9996 322.983   4
   3  -1  -6 696.669 366.908   1
   3  -1  -5 64039.0 2306.05   6
  -3   1   5 61562.5 2247.68   6
   3  -1  -5 62455.0 2455.14   1
   3  -1  -5 64856.0 1773.70   2
  -3   1   5 62288.0 2458.72   4
   3  -1  -5 57982.9 2428.59   4
  -3   1   5 62189.2 1737.15   2
  -3   1   4 205.491 132.680   2
   3  -1  -4 226.972 230.788   6
  -3   1   4 177.147 93.7179   5
   3  -1  -4 440.515 300.602   1
  -3   1   4 374.551 380.816   4
   3  -1  -4 705.323 368.541   4
   3  -1  -4 245.882 179.149   2
   3  -1  -3 27222.6 1289.80   6
   3  -1  -3 29334.4 883.911   2
  -3   1   3 26552.2 1538.85   4
   3  -1  -3 27865.3 1487.91   1
  -3   1   3 23473.8 758.933   2
   3  -1  -2 26233.7 1368.97   1
   3  -1  -2 26653.2 1168.44   6
  -3   1   2 26378.2 1504.07   4
  -3   1   1 2111.47 214.064   2
   3  -1  -1 2416.99 342.135   6
   3  -1  -1 2554.12 441.339   1
   3  -1   0 37397.5 1122.01   6
  -3   1   0 38813.9 977.349   2
  -3   1   0 37682.1 1496.86   1
   3  -1   0 38630.8 1515.41   1
  -3   1  -1 149293. 2883.91   1
   3  -1   1 147758. 2833.28   1
  -3   1  -2 113298. 2445.09   1
   3  -1   2 107919. 3392.77   3
  -3   1  -2 112733. 2400.18   2
   3  -1   2 113113. 2398.24   1
  -3   1  -3 7087.84 605.922   1
   3  -1   3 7626.33 628.000   1
  -3   1  -3 6831.07 683.459   2
   3  -1   3 6994.00 1002.64   3
   3  -1   4 3389.89 781.123   3
  -3   1  -4 3046.18 541.517   2
   3  -1   4 3206.67 385.348   6
   3  -1   4 3932.76 460.225   1
  -3   1  -4 3311.69 422.137   1
  -3   1  -5 16375.0 932.592   1
   3  -1   5 17459.2 956.515   1
   3  -1   5 15736.9 843.205   6
  -3   1  -5 17549.2 1289.97   2
   3  -1   5 14422.1 1428.40   3
   3  -1   6 37493.2 1489.68   1
  -3   1  -6 37821.9 2024.34   2
   3  -1   6 32935.8 2111.75   3
   3  -1   6 35223.2 1347.74   6
  -3   1  -6 36102.2 1368.72   1
   3  -1   7 5652.19 900.260   3
  -3   1  -7 5727.21 855.745   2
   3  -1   7 5645.70 592.579   6
   3  -1   8 2335.69 655.092   3
  -3   1  -8 2057.32 609.969   2
   3  -1   8 1467.21 354.287   6
   3  -1   9 360.202 321.523   3
  -3   1  -9 58.8221 415.417   2
   3  -1  10 5667.21 909.760   3
  -3   1 -10 6250.90 1151.71   2
  -3   1 -11 5150.60 1037.85   2
   3   0 -14-431.898 744.984   2
   3   0 -14 22.6220 468.387   1
   3   0 -13 2911.41 810.732   2
  -3   0  13 3657.11 918.136   6
   3   0 -13 2888.04 779.647   1
   3   0 -12 697.651 359.770   2
   3   0 -12 1165.33 508.572   1
  -3   0  12 1282.95 563.623   6
  -3   0  11 30777.1 2271.63   6
   3   0 -11 27480.7 2062.22   1
   3   0 -11 31158.8 2085.13   2
  -3   0  10 35497.0 2301.39   6
   3   0 -10 35717.9 2096.50   2
   3   0 -10 33698.1 2166.73   1
   3   0  -9 897.142 338.996   2
  -3   0   9 600.067 427.316   6
   3   0  -9 1551.01 519.099   1
  -3   0   8 9839.51 1104.81   6
   3   0  -8 9215.00 1075.03   1
   3   0  -8 10227.6 989.164   2
  -3   0   8 9029.82 1102.96   4
   3   0  -8 9762.16 989.375   3
   3   0  -7 3299.31 571.624   2
   3   0  -7 3344.90 562.653   3
  -3   0   7 2804.19 579.368   6
   3   0  -7 2845.56 277.049   5
  -3   0   7 3928.26 705.857   4
   3   0  -7 3284.43 638.659   1
   3   0  -6 49677.4 2191.93   1
  -3   0   6 50903.6 2197.21   4
  -3   0   6 51359.1 2189.51   6
   3   0  -6 50957.4 1829.35   2
   3   0  -6 51215.1 2069.23   3
   3   0  -5 871.618 256.426   2
   3   0  -5 681.500 309.514   3
   3   0  -5 762.453 336.610   6
  -3   0   5 539.939 330.876   4
   3   0  -5 243.623 270.819   4
   3   0  -5 792.749 361.035   1
   3   0  -4 19607.5 1261.47   1
   3   0  -4 19291.3 1206.87   6
  -3   0   4 18037.4 1192.15   4
   3   0  -4 17913.5 1206.68   4
   3   0  -4 19323.6 854.340   2
   3   0  -4 18992.3 1191.88   3
   3   0  -3 1572.94 208.416   2
  -3   0   3 1134.36 382.137   4
   3   0  -3 1421.98 359.796   4
   3   0  -3 1155.78 360.431   1
   3   0  -3 1716.71 380.033   6
   3   0  -2 13.0797 178.368   6
  -3   0   2 70.2253 175.063   1
  -3   0   2 244.747 290.440   4
   3   0  -2 239.723 251.028   1
  -3   0   1 41722.2 1603.38   1
  -3   0   1 41749.1 1672.58   4
   3   0  -1 43519.5 1616.00   1
  -3   0   0 296500. 4046.61   1
   3   0   0 292038. 4042.75   1
  -3   0  -1 148456. 2836.60   1
  -3   0  -1 151108. 1838.63   2
   3   0   1 148988. 2826.90   1
  -3   0  -2 17784.7 980.006   1
  -3   0  -2 17540.6 802.307   2
   3   0   2 17530.7 975.950   1
   3   0   3 675.551 256.366   1
  -3   0  -3 561.150 241.246   1
  -3   0  -3 576.734 219.545   2
   3   0   3 253.515 310.562   3
   3   0   4 43885.9 2056.65   3
   3   0   4 43931.3 1566.58   1
  -3   0  -4 41787.8 1639.32   2
  -3   0  -4 45156.7 1600.02   1
   3   0   5 106134. 2644.40   6
   3   0   5 107694. 2539.48   1
  -3   0  -5 105352. 2860.38   2
   3   0   5 98416.4 3192.50   3
  -3   0  -5 104031. 2474.29   1
   3   0   6 13463.5 1000.34   6
   3   0   6 15777.4 1057.64   1
  -3   0  -6 13540.1 1127.32   2
   3   0   6 12324.3 1169.79   3
  -3   0  -6 13124.0 910.867   1
   3   0   7 31515.1 1586.24   6
   3   0   7 28503.4 1758.67   3
  -3   0  -7 29598.0 1414.46   1
  -3   0  -7 33259.1 1900.57   2
   3   0   8 3808.42 682.129   3
   3   0   8 3386.59 598.385   6
  -3   0  -8 2794.12 668.344   2
  -3   0  -8 3514.30 520.127   1
   3   0   9 4036.65 670.757   3
  -3   0  -9 5235.83 858.219   2
   3   0   9 4679.00 720.536   6
   3   0  10 4599.80 699.716   3
  -3   0 -10 7105.35 1099.00   2
   3   0  10 5434.01 805.782   6
  -3   0 -11 430.411 411.339   2
  -3   0 -12 1347.79 658.722   2
   3   1 -13-567.225 541.982   2
   3   1 -13-173.357 540.608   1
   3   1 -12 19738.2 1699.14   1
   3   1 -12 24136.7 2049.00   2
   3   1 -11 26729.7 1904.46   1
   3   1 -11 26984.1 2008.17   2
   3   1 -10 1620.52 514.586   2
   3   1 -10 1516.86 450.009   1
   3   1  -9 13844.3 1270.13   1
   3   1  -9 13798.5 1270.79   2
   3   1  -8 40595.9 2069.50   1
   3   1  -8 40302.0 2058.84   2
   3   1  -7 81960.7 2797.18   1
   3   1  -7 81835.8 2659.69   2
   3   1  -7 77759.4 2706.87   3
   3   1  -6 95014.8 2871.12   1
  -3  -1   6 97429.1 3035.69   4
   3   1  -6 96952.4 2700.64   2
   3   1  -6 99578.0 2916.90   3
   3   1  -5 4725.80 645.711   3
   3   1  -5 4506.30 605.435   1
   3   1  -5 5054.72 682.114   6
  -3  -1   5 4661.58 652.351   4
   3   1  -5 5761.26 709.946   4
   3   1  -5 4365.40 552.089   2
   3   1  -4 1067.98 355.640   3
   3   1  -4 745.693 214.471   2
   3   1  -4 529.860 280.724   6
  -3  -1   4 501.206 289.287   4
   3   1  -4 948.060 320.631   4
   3   1  -4 1119.07 369.283   1
   3   1  -3 17463.4 1086.80   1
   3   1  -3 15251.7 1019.92   6
  -3  -1   3 16501.8 1048.90   1
  -3  -1   3 16753.2 1008.70   4
   3   1  -3 16066.5 1035.62   4
   3   1  -3 15376.1 746.948   2
   3   1  -3 17072.5 1081.80   3
  -3  -1   2 58628.2 1881.94   1
  -3  -1   2 57882.6 1752.16   4
   3   1  -2 57336.9 1818.27   4
   3   1  -2 59605.3 1931.02   3
   3   1  -2 59923.3 1925.19   1
  -3  -1   1 5104.85 554.005   1
   3   1  -1 4549.22 267.422   2
  -3  -1   1 4726.13 511.191   4
   3   1  -1 4535.31 524.474   4
   3   1  -1 4818.66 555.044   1
  -3  -1   0 21924.7 1109.79   1
  -3  -1   0 20060.2 1000.33   4
   3   1   0 20590.5 1074.46   1
  -3  -1  -1 2744.04 420.212   1
  -3  -1  -1 2614.65 263.726   2
   3   1   1 2408.08 400.268   1
   3   1   1 1975.52 242.991   2
   3   1   2 6246.38 604.516   1
   3   1   2 6010.13 478.374   2
  -3  -1  -2 6243.79 472.714   2
  -3  -1  -2 6495.80 634.434   1
  -3  -1  -3 30636.8 1176.44   2
   3   1   3 31412.3 1332.57   1
   3   1   3 31868.7 1238.26   2
  -3  -1  -3 32048.2 1368.92   1
   3   1   4 192934. 3420.32   1
  -3  -1  -4 194907. 3353.37   2
   3   1   4 191516. 3441.10   2
  -3  -1  -4 192599. 3445.98   1
  -3  -1  -5 2470.54 452.727   2
   3   1   5 2698.57 487.624   2
  -3  -1  -5 2639.78 461.992   1
   3   1   5 2371.17 477.269   1
   3   1   5 2285.56 522.708   3
   3   1   6 503.695 303.100   3
  -3  -1  -6 314.282 294.873   2
  -3  -1  -6-137.090 241.450   1
   3   1   6 475.014 315.976   1
   3   1   6 381.909 331.797   6
   3   1   7 40638.8 2032.74   6
   3   1   7 40120.5 1901.64   1
  -3  -1  -7 40440.3 2023.65   2
  -3  -1  -7 39995.8 1767.20   1
   3   1   7 37475.8 1721.70   3
   3   1   8 69028.4 2686.37   6
  -3  -1  -8 71612.1 2872.38   2
  -3  -1  -8 63691.2 2322.21   1
   3   1   8 67741.7 2242.69   3
   3   1   9 16245.8 1419.79   6
  -3  -1  -9 19980.7 1645.20   2
  -3  -1  -9 17156.9 1272.90   1
   3   1   9 17832.9 1150.00   3
  -3  -1 -10 1291.17 466.687   2
   3   1  10-124.295 296.976   3
   3   1  10 897.448 434.103   6
  -3  -1 -11 102.359 512.651   2
   3   1  11-100.993 500.743   6
  -3  -1 -12 7603.65 1213.58   2
   3   1  12 7849.74 1176.93   6
   3   2 -12 12670.2 1550.50   2
  -3  -2  12 11349.6 1315.45   3
   3   2 -11 439.253 512.832   2
  -3  -2  11-218.770 432.975   3
   3   2 -11-342.523 414.103   1
  -3  -2  10 259.909 287.072   3
   3   2 -10 291.240 388.276   2
   3   2 -10-65.3371 326.738   1
   3   2  -9 21349.1 1491.08   1
   3   2  -9 22530.6 1739.78   2
  -3  -2   9 22259.7 1656.59   3
   3   2  -8 66511.7 2534.33   1
   3   2  -8 64343.8 2781.18   2
  -3  -2   8 63670.6 2698.09   3
   3   2  -7 40745.4 1904.27   1
   3   2  -7 44486.3 2149.70   2
  -3  -2   7 39151.8 2051.13   3
  -3  -2   6 489.846 328.019   3
   3   2  -6 109.748 251.360   2
   3   2  -6-5.95228 267.103   1
   3   2  -5 1915.47 465.637   3
  -3  -2   5 2222.47 514.896   3
   3   2  -5 1746.52 388.766   1
   3   2  -5 2865.07 544.539   4
   3   2  -5 1448.81 413.856   6
   3   2  -4 194886. 3964.63   6
  -3  -2   4 190319. 3598.32   1
   3   2  -4 190964. 3730.12   4
   3   2  -4 191175. 3857.73   3
  -3  -2   4 189343. 3899.44   3
   3   2  -4 186353. 3575.51   1
  -3  -2   3 18418.9 1082.25   1
   3   2  -3 17528.4 761.252   5
  -3  -2   3 18244.5 1069.73   4
   3   2  -3 18415.8 1072.83   4
   3   2  -3 17649.1 1119.22   3
   3   2  -3 17734.8 1068.92   1
  -3  -2   3 16646.7 1113.26   3
   3   2  -3 16270.6 1102.40   6
  -3  -2   2 3208.00 459.774   1
   3   2  -2 3377.62 495.074   3
   3   2  -2 3169.22 327.849   5
  -3  -2   2 3050.62 418.280   4
   3   2  -2 2807.27 404.517   4
  -3  -2   2 3709.88 536.648   3
   3   2  -2 2926.86 460.211   1
   3   2  -1 1985.16 384.878   3
  -3  -2   1 2370.04 392.338   1
  -3  -2   1 2070.05 329.975   4
   3   2  -1 1881.90 300.319   4
   3   2  -1 1973.45 400.902   1
   3   2  -1 2327.86 322.586   2
  -3  -2   0 27490.9 1036.77   5
   3   2   0 25827.3 998.458   2
  -3  -2   0 26255.7 905.681   4
   3   2   0 26991.2 976.180   4
   3   2   0 27300.0 1263.49   1
  -3  -2   0 28011.7 1282.21   1
   3   2   0 28974.1 1277.79   3
   3   2   1 4137.35 526.068   1
  -3  -2  -1 4561.42 428.807   2
   3   2   1 5453.07 482.534   2
  -3  -2  -1 4743.23 364.171   4
  -3  -2  -1 4481.64 548.230   1
   3   2   1 4155.67 506.077   3
   3   2   2 2492.63 421.398   1
   3   2   2 2838.49 350.465   2
   3   2   2 2877.14 400.206   3
  -3  -2  -2 3002.63 465.338   1
  -3  -2  -2 2578.70 356.959   2
  -3  -2  -3 33378.4 1313.86   2
   3   2   3 29671.7 1369.21   1
   3   2   3 29888.7 1204.55   2
  -3  -2  -3 30367.0 1395.08   1
  -3  -2  -4 1918.08 364.964   2
   3   2   4 1909.54 383.238   2
  -3  -2  -4 1817.16 416.534   1
   3   2   4 1822.61 431.192   1
   3   2   5 59040.6 2130.90   1
  -3  -2  -5 58884.3 2048.75   2
  -3  -2  -5 60552.5 2127.35   1
   3   2   5 61078.1 2090.13   2
  -3  -2  -6 38303.2 1812.07   2
  -3  -2  -6 37440.9 1736.35   1
   3   2   6 36586.5 1767.77   2
   3   2   6 36107.8 1442.54   3
   3   2   6 36722.6 1817.60   1
   3   2   7 179793. 4546.01   6
   3   2   7 183593. 4275.70   1
  -3  -2  -7 186301. 4269.76   2
  -3  -2  -7 176964. 3921.27   1
   3   2   7 179081. 3103.06   3
   3   2   8 21794.7 1679.34   6
  -3  -2  -8 20720.9 1557.93   2
   3   2   8 20484.2 993.373   3
  -3  -2  -9-65.7991 381.371   2
   3   2   9-11.6900 162.148   3
   3   2   9 607.266 411.319   6
  -3  -2 -10 1192.68 506.955   2
   3   2  10-15.7445 173.503   3
   3   2  10 778.045 522.173   6
   3   2  11 35819.4 2409.94   6
  -3  -2 -11 41484.9 2625.44   2
   3   2  12 17687.9 1740.38   6
  -3  -2 -12 21563.2 2001.04   2
  -3  -2 -13 462.973 540.382   2
   3   2  13-660.750 740.121   6
   3   2  14 3401.52 953.622   6
  -3  -3  12 3409.38 763.853   3
   3   3 -11 2626.31 799.216   2
  -3  -3  11 1287.69 363.426   3
   3   3 -10 7715.68 878.273   1
   3   3 -10 7402.57 1195.70   2
  -3  -3  10 5079.74 874.306   3
   3   3  -9 18060.2 1704.58   2
  -3  -3   9 17457.9 1563.67   3
   3   3  -9 16367.3 1232.03   1
   3   3  -8 1383.24 403.336   1
  -3  -3   8 1211.53 475.739   3
   3   3  -8 1392.38 545.417   2
   3   3  -7 1090.47 380.002   1
  -3  -3   7 1403.23 522.970   3
   3   3  -6 947.102 383.190   1
  -3  -3   6 818.899 433.284   3
   3   3  -5 112341. 3229.90   4
   3   3  -5 111103. 2816.44   1
  -3  -3   5 108810. 3291.59   3
   3   3  -4 8692.24 856.923   4
   3   3  -4 8334.01 871.117   6
  -3  -3   4 7947.01 738.919   1
   3   3  -4 8007.71 874.835   3
   3   3  -4 7253.63 732.516   1
  -3  -3   4 7060.27 817.377   3
   3   3  -3 585.711 256.801   3
  -3  -3   3 573.598 278.543   3
  -3  -3   3 822.544 259.172   1
   3   3  -3 871.658 334.248   4
   3   3  -3 766.438 266.042   1
   3   3  -2 28.4597 266.817   3
  -3  -3   2 70.2197 209.212   3
   3   3  -2 24.3460 195.341   5
   3   3  -2-178.019 229.925   1
   3   3  -2-95.2367 180.192   4
  -3  -3   2 33.9071 172.214   1
   3   3  -1 194179. 3279.03   2
   3   3  -1 201605. 3235.00   5
   3   3  -1 199912. 2799.59   4
   3   3  -1 207907. 3541.06   1
   3   3  -1 204780. 3674.42   3
  -3  -3   1 204374. 3705.41   3
  -3  -3   1 198455. 3440.40   1
   3   3   0 155866. 2832.11   5
   3   3   0 149161. 2051.49   4
   3   3   0 153661. 3074.48   1
  -3  -3   0 153097. 3053.95   1
   3   3   0 151939. 2808.89   2
   3   3   0 150354. 3057.50   3
  -3  -3   0 155540. 3091.14   3
  -3  -3  -1 16738.0 946.918   2
  -3  -3  -1 16161.7 971.096   5
   3   3   1 14709.9 943.463   2
   3   3   1 15709.3 1016.67   1
  -3  -3  -1 13436.4 944.154   1
   3   3   1 14207.4 901.471   3
  -3  -3  -1 14603.1 906.989   3
  -3  -3  -2 4683.25 597.952   1
  -3  -3  -2 4379.06 548.080   5
   3   3   2 5029.11 557.374   2
  -3  -3  -2 4220.07 537.994   2
   3   3   2 4104.77 563.310   1
   3   3   2 5069.31 529.789   3
  -3  -3  -3 8745.46 774.153   2
   3   3   3 8145.10 773.972   1
   3   3   3 8272.57 748.560   2
  -3  -3  -3 8518.55 814.006   1
   3   3   3 8878.77 650.617   3
  -3  -3  -4 9435.39 461.207   4
  -3  -3  -4 12983.7 986.938   2
   3   3   4 11394.7 959.502   1
   3   3   4 11758.1 908.530   2
  -3  -3  -4 11648.1 972.103   1
   3   3   4 10593.4 678.436   3
   3   3   5 5622.10 674.648   2
  -3  -3  -5 4832.29 424.628   4
   3   3   5 4686.92 700.522   1
  -3  -3  -5 5507.04 754.877   1
   3   3   5 4184.17 401.142   3
  -3  -3  -5 5524.15 705.907   2
   3   3   6 44978.2 2106.16   1
  -3  -3  -6 41788.5 1410.75   4
  -3  -3  -6 43498.5 1979.30   2
  -3  -3  -6 42226.8 1976.28   1
   3   3   6 40955.2 1893.76   2
   3   3   6 40216.3 1115.41   3
   3   3   7 9440.05 1186.73   6
   3   3   7 9937.29 1089.72   1
  -3  -3  -7 8680.22 733.671   4
  -3  -3  -7 8759.91 981.214   2
   3   3   7 8771.15 536.388   3
   3   3   7 7401.82 435.200   3
  -3  -3  -8 2229.95 602.667   2
   3   3   8 1262.68 148.152   3
   3   3   8 2635.75 705.732   6
  -3  -3  -8 2543.80 515.377   4
  -3  -3  -9 1420.00 480.732   2
   3   3   9 964.553 530.987   6
  -3  -3  -9 512.014 294.160   4
   3   3  10 26515.5 2060.93   6
  -3  -3 -10 29241.7 2060.73   2
   3   3  11 57604.8 3127.04   6
  -3  -3 -11 55544.5 3025.87   2
  -3  -3 -12 757.382 398.623   2
   3   3  12 1277.66 663.138   6
  -3  -3 -13 1008.27 692.501   2
   3   3  13-520.525 624.801   6
   3   3  14 1157.52 879.744   6
  -3  -4  12 1836.95 496.184   3
  -3  -4  11 5007.61 1002.23   3
  -3  -4  10 4678.72 982.536   3
   3   4 -10 2436.24 756.263   2
  -3  -4   9 524.611 428.425   3
   3   4  -9 311.902 427.698   2
  -3  -4   8 237.971 307.839   3
   3   4  -8 522.984 359.548   1
  -3  -4   7 1161.14 480.167   3
   3   4  -7 451.767 266.376   1
   3   4  -6 37775.4 1678.60   1
  -3  -4   6 36375.9 2144.97   3
   3   4  -5 37346.8 1639.44   1
  -3  -4   5 35715.9 2023.38   3
  -3  -4   4 167.038 254.151   3
   3   4  -4 682.755 315.279   1
   3   4  -4 540.150 270.828   4
  -3  -4   4 196.377 205.159   1
  -3  -4   3 224.547 221.111   1
  -3  -4   3 267.736 280.041   3
   3   4  -3-285.928 319.607   1
   3   4  -3 478.302 303.694   4
   3   4  -2 54440.7 2111.78   2
   3   4  -2 54556.2 1846.12   4
   3   4  -2 56101.2 1925.28   1
   3   4  -2 54985.7 2211.55   3
  -3  -4   2 58537.6 2269.61   3
  -3  -4   2 55633.7 1888.38   1
   3   4  -1 187620. 3730.84   2
   3   4  -1 182535. 3689.48   5
   3   4  -1 186036. 3035.42   4
   3   4  -1 193020. 3550.85   1
   3   4  -1 189341. 3937.91   3
  -3  -4   1 187248. 3484.23   1
  -3  -4   1 191087. 3910.05   3
   3   4   0 32477.9 1526.75   2
   3   4   0 30705.3 1519.80   5
   3   4   0 29900.4 1032.83   4
   3   4   0 30332.3 1458.09   1
  -3  -4   0 29981.6 1420.18   1
   3   4   0 31833.8 1536.10   3
  -3  -4   0 30616.5 1518.64   3
  -3  -4  -1 43735.4 1781.98   2
   3   4   1 42623.7 1774.03   5
   3   4   1 39062.8 908.928   4
   3   4   1 42814.9 1793.49   2
   3   4   1 43671.6 1756.99   1
  -3  -4  -1 43835.9 1757.42   1
   3   4   1 45259.8 1734.81   3
  -3  -4  -1 44011.5 1716.86   3
   3   4   2-120.002 226.577   3
  -3  -4  -2-19.8640 276.173   1
  -3  -4  -2-188.670 228.273   3
  -3  -4  -2 151.326 202.699   5
   3   4   2 221.260 290.697   1
  -3  -4  -2 88.4927 217.904   2
   3   4   2 394.780 247.739   2
  -3  -4  -3 50012.3 2001.76   2
  -3  -4  -3 48942.1 1978.62   5
   3   4   3 47539.3 1971.13   1
   3   4   3 49544.6 2039.28   2
  -3  -4  -3 49938.5 2022.79   1
   3   4   3 50224.5 1624.44   3
  -3  -4  -3 53646.1 1677.46   3
  -3  -4  -4 762.674 348.307   1
   3   4   4 714.139 318.129   2
   3   4   4 1070.21 247.174   3
  -3  -4  -4 600.112 311.155   5
   3   4   4 958.078 415.441   1
  -3  -4  -4 376.458 266.488   2
   3   4   5 15096.6 1245.11   1
  -3  -4  -5 15369.0 1212.54   5
  -3  -4  -5 14362.4 505.442   4
   3   4   5 15673.5 1220.87   2
  -3  -4  -5 15667.3 1247.34   1
  -3  -4  -5 17040.7 1277.96   2
   3   4   5 14781.5 748.697   3
   3   4   6 13624.9 1244.54   1
  -3  -4  -6 13894.3 1219.54   2
  -3  -4  -6 13383.2 658.626   4
   3   4   6 12926.6 592.753   3
   3   4   7 4310.74 784.403   1
  -3  -4  -7 4455.24 473.138   4
  -3  -4  -7 4654.81 804.030   2
   3   4   8 4496.92 911.394   6
  -3  -4  -8 4140.78 521.968   4
  -3  -4  -8 3573.22 703.319   2
  -3  -4  -9 8605.18 819.241   4
   3   4   9 10029.8 1312.67   6
  -3  -4  -9 10730.5 1257.47   2
  -3  -4 -10 67540.4 2442.11   4
  -3  -4 -10 65792.9 3142.61   2
   3   4  10 65851.6 3330.21   6
  -3  -4 -11 3092.82 772.565   2
   3   4  11 2268.09 828.710   6
  -3  -4 -12 4685.48 994.756   2
   3   4  12 4347.85 1066.66   6
  -3  -4 -13 3902.30 995.586   2
   3   4  13 5209.02 1200.74   6
   3   4  14 26300.6 2498.93   6
  -3  -5  10 1443.70 566.974   3
  -3  -5   9 1664.10 708.494   3
   3   5  -9 483.632 526.577   2
  -3  -5   8 1434.04 594.059   3
  -3  -5   7 45938.4 2694.13   3
   3   5  -6 22339.3 1273.38   1
  -3  -5   6 23042.6 1862.02   3
   3   5  -5 3709.27 558.686   1
  -3  -5   5 3417.90 753.046   3
  -3  -5   4 6434.09 954.926   3
  -3  -5   4 7285.87 703.997   1
   3   5  -4 6621.76 724.713   1
  -3  -5   3 7171.36 713.701   1
  -3  -5   3 7420.27 968.036   3
   3   5  -3 6593.60 710.195   1
   3   5  -2 72315.0 2284.77   1
  -3  -5   2 72152.9 2788.44   3
  -3  -5   2 68362.3 2154.00   1
   3   5  -1 43485.5 1825.71   1
  -3  -5   1 42042.2 1724.56   1
  -3  -5   1 44309.1 2094.02   3
   3   5   0 4077.56 633.994   3
  -3  -5   0 4681.51 687.348   3
   3   5   0 4502.40 687.484   5
  -3  -5   0 4155.04 584.885   1
   3   5   0 4319.05 625.019   1
   3   5   0 4570.84 695.921   2
   3   5   1 2462.69 532.952   3
  -3  -5  -1 1867.98 444.917   3
  -3  -5  -1 2278.10 486.683   1
   3   5   1 1718.21 465.835   5
   3   5   1 1743.70 476.666   1
   3   5   1 2279.30 507.294   2
  -3  -5  -2 68724.0 2573.57   2
   3   5   2 68067.1 2551.00   5
   3   5   2 68629.3 2571.68   2
   3   5   2 70145.0 2482.15   1
  -3  -5  -2 67372.2 2386.19   1
   3   5   2 71607.2 2309.38   3
  -3  -5  -2 71173.7 2329.24   3
  -3  -5  -3 12823.7 1160.12   2
   3   5   3 12523.8 1123.89   1
   3   5   3 13687.1 1212.09   2
  -3  -5  -3 12988.5 1114.19   1
   3   5   3 14797.0 1006.73   3
  -3  -5  -3 13831.7 970.378   3
  -3  -5  -4 62770.7 2580.59   2
   3   5   4 59077.7 2494.96   1
   3   5   4 62921.8 2566.30   2
   3   5   4 64851.2 1949.12   3
  -3  -5  -4 66491.7 1981.02   3
   3   5   5 20115.5 1561.39   1
  -3  -5  -5 22913.2 1609.84   2
   3   5   5 21358.3 1042.78   3
  -3  -5  -5 23288.9 1091.45   3
   3   5   6 12965.0 1354.48   1
  -3  -5  -6 15151.4 1367.46   2
   3   5   6 13360.9 744.927   3
   3   5   7 1106.14 212.935   3
  -3  -5  -7 1662.53 295.461   4
  -3  -5  -7 1150.17 448.568   2
   3   5   8 44980.4 2704.14   6
  -3  -5  -8 46922.9 2534.06   2
  -3  -5  -8 45474.8 1526.65   4
   3   5   9 10736.0 1399.05   6
  -3  -5  -9 12156.5 1370.11   2
  -3  -5  -9 10800.3 863.977   4
   3   5  10 2820.64 726.126   6
  -3  -5 -10 2972.58 773.209   2
   3   5  11-94.4285 510.483   6
  -3  -5 -11 602.686 440.136   2
   3   5  12 1428.29 778.277   6
  -3  -5 -12 1717.20 707.787   2
   3   5  13 14523.8 1805.70   6
  -3  -5 -13 17750.6 1996.18   2
  -3  -6   8 14129.6 1678.91   3
  -3  -6   7 8334.56 1277.78   3
  -3  -6   6 3786.52 824.095   3
  -3  -6   5 5124.31 956.229   3
  -3  -6   4 11949.1 887.641   1
   3   6  -4 10248.4 864.304   1
  -3  -6   4 12009.8 1352.29   3
  -3  -6   3 27875.3 1389.93   1
   3   6  -3 26620.4 1411.42   1
  -3  -6   3 28121.7 1998.40   3
   3   6  -2 27084.7 1483.48   1
  -3  -6   2 27575.4 1929.36   3
  -3  -6   2 29618.2 1463.88   1
   3   6  -1 36179.6 1754.61   1
  -3  -6   1 38042.2 1723.04   1
  -3  -6   1 36863.8 2119.61   3
   3   6   0 11268.5 1191.23   5
   3   6   0 11529.1 1042.19   1
  -3  -6   0 12827.6 1050.38   1
  -3  -6   0 12681.8 1240.24   3
   3   6   1 29178.7 1849.30   5
  -3  -6  -1 28249.3 1583.48   1
   3   6   1 29500.1 1698.76   1
  -3  -6  -1 26407.2 1659.98   3
   3   6   2 57989.4 2459.70   1
   3   6   2 60963.1 2645.47   5
  -3  -6  -2 60754.7 2429.28   1
   3   6   2 58569.4 2442.95   3
  -3  -6  -2 58954.6 2367.73   3
   3   6   3 5181.97 680.460   3
   3   6   3 4607.76 809.586   1
   3   6   3 5014.26 828.033   5
  -3  -6  -3 4997.32 708.032   3
   3   6   3 3337.26 376.995   4
  -3  -6  -3 4189.58 754.163   2
   3   6   4 3682.41 614.040   3
  -3  -6  -4 4134.55 612.020   3
   3   6   4 4013.38 776.796   1
   3   6   4 3126.31 290.245   4
  -3  -6  -4 4207.64 791.681   2
   3   6   5 39814.4 2315.95   1
  -3  -6  -5 33918.3 2096.89   2
   3   6   5 33189.2 1614.90   3
  -3  -6  -5 40123.3 1668.38   3
  -3  -6  -6 74141.1 3126.40   2
   3   6   6 69638.5 2178.90   3
  -3  -6  -6 77221.7 2123.91   3
  -3  -6  -7 32034.1 2145.07   2
   3   6   7 32252.2 1333.00   3
  -3  -6  -7 36799.6 1274.07   3
   3   6   8-18.0010 555.502   6
  -3  -6  -8 963.274 517.295   2
   3   6   9 6519.82 1134.22   6
  -3  -6  -9 7544.07 1170.94   2
   3   6  10 122.819 481.751   6
  -3  -6 -10-33.5242 424.589   2
   3   6  11 6614.53 1226.56   6
  -3  -6 -11 6831.06 1199.71   2
  -3  -6 -12 16234.9 1873.86   2
   3   6  12 15873.9 1905.86   6
   3   6  13 1358.36 788.355   6
  -3  -6 -13-396.392 583.654   2
  -3  -7   6 3999.08 928.261   3
  -3  -7   5 8787.22 1308.99   3
  -3  -7   4 16938.0 1740.99   3
  -3  -7   3 4420.16 914.898   3
   3   7  -3 3452.21 612.400   1
  -3  -7   2 130.572 311.905   3
   3   7  -2-198.299 379.710   1
   3   7  -1 22517.3 1505.42   1
  -3  -7   1 23709.2 1880.65   3
  -3  -7   1 24599.8 1444.55   1
   3   7   0 27278.3 1713.87   1
   3   7   0 27797.9 2017.57   5
  -3  -7   0 28014.0 1607.33   1
  -3  -7   0 29131.5 2011.49   3
   3   7   1 35530.9 2037.65   1
   3   7   1 34056.8 2218.53   5
  -3  -7  -1 37472.3 2196.86   3
  -3  -7  -2 1841.82 569.017   3
   3   7   2 1833.86 597.583   1
   3   7   2 1793.49 603.686   5
  -3  -7  -3 3627.81 694.506   3
   3   7   3 4328.42 851.907   1
   3   7   3 3759.61 807.841   5
  -3  -7  -3 4029.89 820.845   2
  -3  -7  -4 33601.4 2210.39   2
   3   7   4 35624.2 2225.68   5
   3   7   4 28073.2 1121.49   4
  -3  -7  -4 34783.3 1890.82   3
  -3  -7  -5 39482.3 2462.66   2
   3   7   5 36865.9 1205.03   4
   3   7   5 37169.1 2044.87   3
  -3  -7  -5 42673.7 1984.75   3
   3   7   6 3162.54 652.950   3
  -3  -7  -6 3067.73 546.667   3
   3   7   6 1410.32 260.142   4
  -3  -7  -6 1784.04 641.207   2
  -3  -7  -7 59.6312 213.612   3
   3   7   7 414.066 179.419   4
  -3  -7  -7 494.968 427.961   2
   3   7   7 737.285 332.216   3
   3   7   8 3191.39 983.591   6
  -3  -7  -8 2521.45 379.323   3
  -3  -7  -8 3042.64 797.589   2
  -3  -7  -9 9983.89 1420.11   2
   3   7   9 9103.19 1387.41   6
   3   7  10 21081.4 2125.45   6
  -3  -7 -10 21016.3 2049.54   2
   3   7  11 23961.9 2334.18   6
  -3  -7 -11 23081.1 2271.33   2
   3   7  12-624.288 860.463   6
  -3  -7 -12 356.148 691.387   2
  -3  -8   4 1340.12 665.978   3
  -3  -8   3 5196.70 1097.72   3
  -3  -8   2 7003.73 1210.20   3
  -3  -8   1 22888.2 2060.13   3
   3   8   0 12003.2 1507.49   5
  -3  -8   0 13674.8 1561.51   3
  -3  -8  -1-284.859 365.302   3
   3   8   1 512.938 421.523   5
  -3  -8  -2 3219.07 738.724   3
   3   8   2 4269.31 916.487   5
   3   8   3 17176.2 1693.28   5
  -3  -8  -3 18428.7 1624.46   3
  -3  -8  -4 13412.5 1620.86   2
   3   8   4 13646.6 1495.79   5
   3   8   4 13550.9 992.267   4
  -3  -8  -4 13138.2 1343.63   3
  -3  -8  -5 3666.73 728.810   3
   3   8   5 4219.44 893.309   5
   3   8   5 2732.72 420.570   4
  -3  -8  -5 3608.80 870.433   2
  -3  -8  -6 2656.93 578.057   3
  -3  -8  -6 1780.90 622.814   2
  -3  -8  -7 887.270 379.768   3
  -3  -8  -7 841.334 580.982   2
  -3  -8  -8 10610.8 1479.84   2
   3   8   8 8220.55 1405.29   6
   3   8   9 15086.2 1782.49   6
  -3  -8  -9 16219.6 1873.30   2
   3   8  10 11430.8 1650.70   6
  -3  -8 -10 8658.96 1380.28   2
   3   8  11 1637.07 657.827   6
  -3  -8 -11 5467.49 1187.58   2
  -3  -9   1 4539.42 1048.31   3
   3   9  -1 4391.93 1106.38   5
  -3  -9   0 798.142 449.347   3
   3   9   0 435.910 619.222   5
  -3  -9  -1 251.289 368.914   3
   3   9   1 2091.03 786.032   5
  -3  -9  -2 6328.35 1109.22   3
   3   9   2 10782.7 1481.08   5
   3   9   3 31312.0 2477.72   5
  -3  -9  -3 27401.6 2187.22   3
   3   9   4 10374.9 1500.97   5
  -3  -9  -4 12993.8 1448.17   3
  -3  -9  -5 94.0582 391.354   3
   3   9   5-488.633 621.642   5
  -3  -9  -6 180.166 360.944   3
  -3  -9  -6 372.573 543.505   2
   3   9   7 9414.01 1553.61   6
  -3  -9  -7 11467.3 1619.95   2
   3   9   8 6967.49 1321.81   6
  -3  -9  -8 4469.61 1105.84   2
   3   9   9 3839.77 1044.19   6
  -3  -9  -9 5501.33 1197.95   2
   3   9  10-1067.71 881.806   6
  -3 -10  -2 13744.8 1771.04   3
  -3 -10  -3 6655.92 1140.83   3
  -3 -10  -4-1128.85 703.981   3
  -3 -10  -5 230.812 454.308   3
   3  10   6 7182.22 1316.28   6
   3  10   7 9535.98 1479.70   6
   3  10   8 209.900 616.228   6
   3  10   9 1506.92 727.394   6
   4  -6  -9 11038.2 1755.25   3
   4  -6  -8 718.568 842.721   3
   4  -6  -8 418.038 554.625   1
   4  -6  -7-856.316 771.184   3
   4  -6  -7-404.752 586.244   1
   4  -6  -6 5747.28 1309.07   3
  -4   6   6 3692.32 1025.93   4
   4  -6  -6 5548.44 1073.06   1
   4  -6  -5 536.077 623.959   3
  -4   6   5 1991.64 571.969   5
   4  -6  -5 1211.26 666.414   1
  -4   6   5-185.474 747.827   4
   4  -6  -4 13637.6 1943.40   3
   4  -6  -4 9806.35 1288.47   1
  -4   6   4 11994.0 1706.55   4
   4  -6  -3 338.959 681.696   3
  -4   6   3-689.466 747.460   4
  -4   5  11 5452.46 1171.01   6
  -4   5  10 19201.6 1938.59   6
   4  -5 -10 17866.7 1895.79   3
   4  -5  -9 643.336 592.005   1
  -4   5   9 209.701 478.335   6
  -4   5   9 973.893 652.086   4
   4  -5  -9 833.209 635.567   3
  -4   5   8 7890.90 1130.40   6
  -4   5   8 5785.73 1198.53   4
   4  -5  -8 4864.23 1123.45   1
   4  -5  -8 6724.40 1329.99   3
   4  -5  -7-770.233 727.957   1
  -4   5   7-406.325 571.945   4
   4  -5  -7 834.588 592.542   3
   4  -5  -6 13092.0 1691.34   1
  -4   5   6 12521.9 1183.11   5
  -4   5   6 11401.1 1584.80   4
   4  -5  -6 14573.5 1818.34   3
   4  -5  -5 11736.4 1467.14   1
  -4   5   5 11103.6 1191.04   5
  -4   5   5 11991.8 1562.16   4
   4  -5  -5 12961.1 1876.98   3
   4  -5  -4 1342.22 599.733   3
   4  -5  -4 2167.55 709.030   1
  -4   5   4 1361.90 626.959   4
   4  -5  -3 510.142 574.529   3
   4  -5  -3 510.823 335.377   1
  -4   5   3 342.801 520.495   4
   4  -5  -2-351.622 732.658   3
   4  -5  -2 881.758 426.004   1
  -4   5   2 417.043 549.533   4
   4  -5  -1 11632.7 1757.37   3
   4  -5   0 1868.96 794.662   3
   4  -5   1 19918.4 2316.38   3
   4  -5   2 2465.09 975.747   3
  -4   4  12 5921.42 1210.47   6
  -4   4  11 2776.40 884.834   4
   4  -4 -11 3497.94 1035.98   1
  -4   4  10 944.760 594.505   6
  -4   4  10-299.953 571.104   4
   4  -4 -10 1274.62 775.572   1
   4  -4  -9 1468.85 756.906   1
  -4   4   9 2508.32 780.338   6
  -4   4   9 1395.60 694.155   4
   4  -4  -9 1340.52 608.887   3
  -4   4   8 1010.65 514.523   6
  -4   4   8 724.972 509.448   4
   4  -4  -8 163.044 280.817   2
   4  -4  -8 1272.58 598.796   1
   4  -4  -8 131.180 481.442   3
  -4   4   7 48515.9 2986.29   4
   4  -4  -7 52236.3 3114.63   1
   4  -4  -7 48360.7 2139.97   2
   4  -4  -7 53541.2 2987.17   3
   4  -4  -6 5265.45 1067.74   1
  -4   4   6 4016.14 622.983   5
  -4   4   6 4465.33 994.588   4
   4  -4  -6 5957.29 1135.86   3
  -4   4   5 5692.74 745.675   5
  -4   4   5 6968.37 1159.41   4
   4  -4  -5 8361.52 1178.72   1
   4  -4  -5 7954.92 1316.38   3
   4  -4  -4 4196.34 872.233   1
  -4   4   4 4680.05 994.361   4
   4  -4  -4 3385.98 922.334   3
   4  -4  -3 21938.2 1711.82   1
  -4   4   3 20857.2 1914.33   4
   4  -4  -3 24803.1 2199.16   3
   4  -4  -2 21640.7 1598.64   1
  -4   4   2 22869.2 2060.83   4
   4  -4  -2 21028.3 2113.39   3
   4  -4  -1 13463.8 1782.43   3
   4  -4  -1 11690.9 1140.58   1
   4  -4   0 1003.34 692.582   3
   4  -4   0 1613.56 422.163   1
   4  -4   1 1086.28 632.032   3
   4  -4   1 2161.50 496.408   1
   4  -4   2 15489.1 2009.44   3
   4  -4   3 7792.11 1429.83   3
   4  -4   4 1227.26 694.188   3
  -4   4  -4 1524.44 533.836   2
   4  -4   5 655.053 693.520   3
  -4   4  -5-195.689 446.382   2
  -4   3  12 1481.63 689.467   6
  -4   3  12 3528.05 1023.85   4
   4  -3 -12 2214.12 840.990   1
   4  -3 -11 250.604 429.501   1
  -4   3  11 275.743 445.595   6
  -4   3  11-680.084 759.659   4
   4  -3 -11-175.967 405.337   2
   4  -3 -10 123.560 418.030   1
  -4   3  10-282.882 474.642   6
  -4   3  10 689.419 539.807   4
   4  -3 -10-77.5572 363.742   2
  -4   3   9 20183.2 1810.09   6
   4  -3  -9 16523.1 1896.24   1
   4  -3  -9 17669.7 1412.63   2
  -4   3   9 18499.8 1856.87   4
   4  -3  -8 28498.4 2307.95   1
   4  -3  -8 26742.3 1593.67   2
  -4   3   8 27329.3 2200.22   4
  -4   3   8 26925.5 1963.63   6
  -4   3   7-153.970 288.316   2
  -4   3   7-186.097 354.430   6
  -4   3   7 173.901 409.741   4
   4  -3  -7 184.952 349.574   1
   4  -3  -7 238.458 266.833   2
  -4   3   6 417.729 200.529   2
   4  -3  -6-189.143 419.835   1
  -4   3   6 275.566 196.787   5
  -4   3   6-153.658 440.639   4
   4  -3  -6 132.861 234.368   2
   4  -3  -5 9571.01 1191.42   1
  -4   3   5 7219.69 709.492   5
  -4   3   5 6368.65 621.490   2
  -4   3   5 7288.79 1119.42   4
   4  -3  -4 34466.9 2102.85   1
   4  -3  -4 31265.4 1660.32   6
  -4   3   4 36380.0 2321.42   4
   4  -3  -3 39432.8 2159.75   1
   4  -3  -3 40010.1 1696.92   6
  -4   3   3 42160.3 2481.82   4
  -4   3   3 35427.9 1380.79   2
   4  -3  -3 40121.6 2552.67   3
   4  -3  -2 2528.43 390.719   6
  -4   3   2 2930.96 735.551   4
   4  -3  -2 2508.81 574.129   1
  -4   3   2 2090.47 370.291   2
   4  -3  -2 3920.60 1002.46   3
   4  -3  -1 1869.36 315.182   6
   4  -3  -1 1693.56 498.368   1
  -4   3   1 1192.54 275.888   2
   4  -3  -1 1270.76 665.183   3
   4  -3   0 2559.44 525.500   1
  -4   3   0 2347.71 439.435   2
   4  -3   0 3910.09 1061.47   3
  -4   3  -1 40082.8 1727.09   2
   4  -3   1 41226.5 2828.73   3
   4  -3   1 46087.2 1941.32   1
  -4   3  -2 24361.5 1452.95   2
   4  -3   2 24784.6 1343.87   1
   4  -3   2 26204.0 2349.10   3
   4  -3   3 623.481 273.580   1
   4  -3   3 340.560 539.542   3
  -4   3  -3 452.934 286.998   2
   4  -3   4-87.5584 614.951   3
  -4   3  -4 943.833 412.586   2
   4  -3   5 1038.30 689.002   3
  -4   3  -5 950.209 476.334   2
  -4   3  -6 21129.1 1834.35   2
   4  -3   6 21112.2 2265.82   3
  -4   3  -7 13749.0 1544.59   2
   4  -3   7 14050.8 1837.13   3
   4  -3   8 1600.49 895.992   3
  -4   3  -8 2279.43 734.381   2
   4  -2 -13 4413.39 1007.38   2
  -4   2  12 2551.94 791.417   6
  -4   2  12 991.742 716.702   4
   4  -2 -12 1206.03 623.260   1
   4  -2 -12 1220.24 484.401   2
  -4   2  11 14239.0 1693.20   6
   4  -2 -11 13326.3 1709.44   1
   4  -2 -11 15753.3 1534.21   2
  -4   2  11 12710.8 1646.55   4
  -4   2  10 45527.0 2829.54   6
   4  -2 -10 48497.7 3061.63   1
  -4   2  10 51356.8 3071.99   4
   4  -2 -10 53755.2 2563.14   2
  -4   2   9 15713.1 1565.40   6
   4  -2  -9 15646.3 1713.18   1
   4  -2  -9 17082.5 1341.77   2
  -4   2   9 14758.5 1598.31   4
  -4   2   8 544.669 340.393   2
  -4   2   8-24.8766 326.788   6
  -4   2   8 184.621 481.096   4
   4  -2  -8 727.021 353.547   1
   4  -2  -8 212.051 257.559   2
   4  -2  -7 4157.82 850.416   1
  -4   2   7 4464.76 571.681   2
  -4   2   7 4022.10 839.616   4
   4  -2  -7 4733.95 626.060   2
   4  -2  -6 7626.91 1066.66   1
   4  -2  -6 8591.35 761.688   2
  -4   2   6 8060.78 1129.56   4
  -4   2   6 6443.47 618.641   2
   4  -2  -5 23920.3 1772.90   1
   4  -2  -5 22773.8 1064.91   2
  -4   2   5 26880.3 1945.75   4
  -4   2   5 25253.4 992.751   5
  -4   2   5 20818.3 990.571   2
   4  -2  -4 11797.1 1196.93   1
   4  -2  -4 11463.8 1009.76   6
  -4   2   4 12207.3 1332.41   4
  -4   2   4 7877.49 532.707   2
  -4   2   3 1290.37 212.681   2
   4  -2  -3 2240.67 604.444   1
   4  -2  -3 2236.34 469.630   6
  -4   2   3 1480.03 596.503   4
  -4   2   2 1461.08 233.099   2
   4  -2  -2 1725.13 366.925   6
  -4   2   2 1801.38 600.534   4
   4  -2  -2 1747.40 503.971   1
   4  -2  -1 17257.6 930.571   6
  -4   2   1 15102.6 758.304   2
   4  -2  -1 19310.2 1645.43   3
   4  -2  -1 17596.5 1292.50   1
   4  -2   0 63112.5 1540.21   6
  -4   2   0 61713.7 1653.93   2
   4  -2   0 62297.8 2995.23   3
   4  -2   0 66687.8 2368.06   1
  -4   2  -1 56715.6 1760.67   2
   4  -2   1 58255.1 3007.62   3
   4  -2   1 61868.7 2194.04   1
   4  -2   2 1150.67 147.273   6
  -4   2  -2 2974.82 517.078   2
   4  -2   2 997.073 124.132   6
   4  -2   2 2928.63 493.524   1
   4  -2   2 2661.80 777.872   3
   4  -2   3 3683.32 943.260   3
   4  -2   3 5140.82 615.284   1
  -4   2  -3 4171.70 643.631   2
   4  -2   4 14834.1 968.974   1
  -4   2  -4 14462.0 1241.36   2
   4  -2   5 27427.0 1258.27   1
  -4   2  -5 27383.6 1787.55   2
   4  -2   5 25433.4 2300.26   3
   4  -2   6 10334.9 1519.64   3
  -4   2  -6 12834.5 1320.77   2
   4  -2   7 799.406 659.107   3
  -4   2  -7-47.7087 384.185   2
   4  -2   8 166.369 502.248   3
  -4   2  -8 1628.07 619.995   2
   4  -2   9-1567.26 853.354   3
  -4   2  -9 685.462 464.653   2
   4  -1 -14 51.4738 485.571   2
   4  -1 -13 1886.10 660.463   2
   4  -1 -13 764.196 443.319   1
   4  -1 -12 6760.98 1223.94   1
   4  -1 -12 9837.97 1278.51   2
   4  -1 -11 20714.1 1972.69   1
  -4   1  11 23869.9 2187.92   4
   4  -1 -11 27027.1 1956.53   2
  -4   1  11 25461.1 2173.47   6
   4  -1 -10 13386.3 1582.89   1
  -4   1  10 13169.1 1514.96   6
  -4   1  10 14413.2 1632.98   4
   4  -1 -10 16488.4 1396.67   2
   4  -1  -9 151.455 332.421   2
   4  -1  -9 928.283 529.555   1
  -4   1   9 556.283 428.126   4
   4  -1  -8 223.823 280.223   2
   4  -1  -8 106.726 338.113   1
  -4   1   8-653.593 485.178   4
   4  -1  -7 21288.1 1724.05   1
  -4   1   7 23605.5 1807.18   4
   4  -1  -7 22733.8 1273.19   2
   4  -1  -6 31638.6 2026.34   1
   4  -1  -6 33084.7 1379.54   2
   4  -1  -5 15412.6 1367.87   1
   4  -1  -5 16717.5 851.854   2
  -4   1   5 17840.2 1488.82   4
   4  -1  -4 5795.71 826.886   1
   4  -1  -4 5317.66 699.647   6
   4  -1  -4 5034.08 387.065   2
  -4   1   4 4655.43 339.768   5
  -4   1   4 5188.53 819.368   4
   4  -1  -3-207.658 296.056   6
  -4   1   3 100.773 369.436   4
   4  -1  -3 283.186 305.237   1
   4  -1  -2 9169.28 957.081   1
   4  -1  -2 10025.4 819.910   6
  -4   1   2 10498.7 1118.41   4
   4  -1  -1 31228.1 1322.64   6
  -4   1   1 33060.5 1904.26   4
   4  -1  -1 34008.1 1732.69   1
   4  -1   0 38546.1 1350.97   6
  -4   1   0 40456.5 1841.78   1
  -4   1   0 37671.8 935.571   2
   4  -1   0 38557.5 1787.48   1
  -4   1  -1 2504.95 347.244   2
  -4   1  -1 3550.38 558.561   1
   4  -1   1 3430.25 540.262   1
  -4   1  -2 15372.4 1099.33   1
  -4   1  -2 13798.9 914.316   2
   4  -1   2 16238.8 1525.41   3
   4  -1   2 15310.0 1086.55   1
   4  -1   3 4406.54 568.946   1
  -4   1  -3 3699.55 540.164   2
  -4   1  -3 4335.90 585.876   1
   4  -1   3 2657.81 754.471   3
   4  -1   4 40038.3 1359.23   6
  -4   1  -4 39413.6 1700.88   1
   4  -1   4 40517.3 1658.10   1
  -4   1  -4 41408.4 1854.00   2
   4  -1   4 38765.7 2504.44   3
   4  -1   5 8129.48 1270.64   3
  -4   1  -5 6191.30 686.574   1
   4  -1   5 6636.92 578.164   6
   4  -1   5 8086.15 765.082   1
  -4   1  -5 6771.61 851.900   2
   4  -1   6 1362.40 732.090   3
  -4   1  -6 2839.02 570.572   2
   4  -1   6 2594.39 390.487   6
   4  -1   6 2906.79 505.243   1
   4  -1   7-435.290 527.479   3
  -4   1  -7 173.759 300.988   2
  -4   1  -8 16537.0 1568.11   2
   4  -1   8 14469.2 1576.38   3
   4  -1   9 1174.81 483.819   3
  -4   1  -9 1411.20 578.984   2
   4  -1  10 1581.19 582.229   3
  -4   1 -10 2774.59 804.280   2
   4   0 -14 23.8553 546.951   2
   4   0 -13 25.7892 498.993   2
   4   0 -13 440.275 455.021   1
   4   0 -12 7977.53 1138.68   2
   4   0 -12 5392.11 997.765   1
   4   0 -11 7455.48 1050.85   2
   4   0 -11 5844.46 1080.92   1
   4   0 -10 147.076 283.043   2
   4   0 -10-481.350 470.333   1
   4   0  -9 5575.38 813.718   2
  -4   0   9 6144.67 1020.66   4
   4   0  -9 4374.73 859.705   1
   4   0  -8 16962.5 1541.99   1
  -4   0   8 17264.6 1562.79   4
   4   0  -8 18902.6 1307.94   2
   4   0  -7 45419.6 2412.10   1
  -4   0   7 45465.0 2387.33   4
   4   0  -7 46155.0 1850.74   2
   4   0  -6 81233.0 3078.21   1
  -4   0   6 82356.1 3028.43   4
   4   0  -6 82977.3 2227.87   2
   4   0  -5 18068.2 1421.82   1
  -4   0   5 18750.6 1410.50   4
   4   0  -5 20375.9 944.221   2
   4   0  -4 17800.7 1350.35   1
   4   0  -4 19078.2 1309.53   6
   4   0  -4 20135.7 766.536   2
  -4   0   4 19411.9 1379.26   4
   4   0  -4 17737.9 1410.47   4
   4   0  -3 8764.54 942.109   1
   4   0  -3 10342.5 912.927   6
  -4   0   3 10373.7 1016.48   4
   4   0  -2 74079.3 2533.66   1
   4   0  -2 72191.4 2225.82   6
  -4   0   2 72177.7 2491.76   1
  -4   0   2 72546.9 2552.59   4
   4   0  -1 730.499 344.846   1
   4   0  -1 1414.06 344.302   6
  -4   0   1 228.697 361.445   4
  -4   0   1 1552.23 420.204   1
  -4   0   0 32950.5 1597.58   1
  -4   0   0 32498.3 1700.87   4
   4   0   0 32805.1 1601.74   1
  -4   0  -1 18267.5 1181.71   1
  -4   0  -1 15648.7 607.292   2
   4   0   1 15803.3 1103.07   1
  -4   0  -2 2982.51 364.395   2
   4   0   2 3101.26 520.077   1
  -4   0  -2 3728.59 563.616   1
  -4   0  -3 33860.0 1612.12   1
  -4   0  -3 33258.3 1377.45   2
   4   0   3 33418.2 1574.60   1
   4   0   3 32320.9 1993.18   3
  -4   0  -4 5339.77 675.242   1
  -4   0  -4 5453.23 654.253   2
   4   0   4 6016.59 696.336   1
   4   0   4 5091.30 910.320   3
   4   0   5 978.920 656.358   3
  -4   0  -5-3.02585 237.779   2
   4   0   5 136.431 332.170   6
  -4   0  -5-147.141 221.950   1
   4   0   5 198.264 256.171   1
   4   0   6 2162.53 709.709   3
  -4   0  -6 2084.85 527.912   2
  -4   0  -6 2371.67 509.282   1
   4   0   6 2192.97 472.592   6
   4   0   6 2940.58 559.225   1
   4   0   7 69729.3 2418.20   6
   4   0   7 73127.8 2578.49   1
  -4   0  -7 76112.2 2973.19   2
   4   0   7 70639.6 3185.07   3
  -4   0  -7 65473.0 2311.56   1
   4   0   8 4541.85 782.368   3
  -4   0  -8 6915.07 987.153   2
   4   0   8 7008.36 832.431   6
  -4   0  -9 32667.3 2223.56   2
   4   0   9 25330.7 1842.83   3
   4   0  10 638.685 310.573   3
  -4   0 -10 2943.93 793.412   2
  -4   0 -11 8013.55 1285.96   2
   4   1 -13 6663.37 1156.41   2
   4   1 -13 7813.41 1212.22   1
   4   1 -12 4329.16 915.641   1
   4   1 -12 3766.57 852.232   2
   4   1 -11 1808.27 601.433   2
   4   1 -11 1967.59 655.577   1
   4   1 -10 13171.6 1409.34   1
   4   1 -10 16299.8 1462.94   2
   4   1  -9 35.3041 312.678   2
   4   1  -9 717.021 456.517   1
   4   1  -8 52592.2 2569.94   1
  -4  -1   8 52846.8 2661.63   4
   4   1  -8 48002.1 2173.46   2
   4   1  -7 4851.36 833.351   1
   4   1  -7 5148.18 674.290   2
  -4  -1   7 4371.26 817.151   4
   4   1  -6 1896.37 404.739   2
  -4  -1   6 2176.41 516.620   4
   4   1  -6 2425.45 583.844   1
   4   1  -5 18421.4 1390.33   1
  -4  -1   5 19434.3 1378.78   4
   4   1  -5 18779.0 1015.28   2
   4   1  -4 55954.4 2308.62   1
   4   1  -4 54840.7 2258.86   6
  -4  -1   4 54968.5 2171.23   4
   4   1  -4 52319.6 2235.92   4
   4   1  -4 54485.3 1487.36   2
   4   1  -4 57551.1 2338.49   3
   4   1  -3 55195.8 2133.27   6
  -4  -1   3 56645.7 2204.74   1
  -4  -1   3 54663.7 2064.24   4
   4   1  -3 53385.4 2155.77   4
   4   1  -3 55356.3 1224.76   2
   4   1  -3 55460.1 2233.82   3
   4   1  -3 56279.4 2235.72   1
  -4  -1   2 1021.70 368.336   1
   4   1  -2 838.934 113.516   2
   4   1  -2 1712.09 456.186   1
   4   1  -2 1448.46 391.543   3
   4   1  -2 1239.59 142.099   2
  -4  -1   2 1268.43 192.854   5
  -4  -1   2 1041.91 361.308   4
  -4  -1   1 58937.9 2147.05   1
  -4  -1   1 60291.2 2053.92   4
   4   1  -1 59674.9 2163.71   1
  -4  -1   0 31963.5 1558.09   1
  -4  -1   0 31059.9 1472.46   4
   4   1   0 29643.3 1509.59   1
  -4  -1  -1 173682. 3616.52   1
  -4  -1  -1 171980. 1957.50   2
   4   1   1 174791. 3605.66   1
  -4  -1  -2 24558.1 947.395   2
   4   1   2 23381.0 1335.93   1
  -4  -1  -2 23779.0 1352.92   1
  -4  -1  -3 7893.12 629.631   2
   4   1   3 7464.45 782.737   1
  -4  -1  -3 7658.59 789.746   1
  -4  -1  -4 12142.5 886.424   2
   4   1   4 11068.8 948.045   1
  -4  -1  -4 11302.4 981.061   1
   4   1   5 12935.2 1041.67   1
  -4  -1  -5 12945.2 1016.45   2
   4   1   5 11859.8 1173.38   3
  -4  -1  -5 11943.9 1024.55   1
   4   1   6 70154.5 2478.03   1
  -4  -1  -6 75271.1 2620.08   2
   4   1   6 67293.5 2831.04   3
  -4  -1  -6 72278.0 2505.61   1
   4   1   7 44944.7 2227.84   6
   4   1   7 47091.8 2189.83   1
  -4  -1  -7 49806.7 2319.02   2
   4   1   7 43853.4 2249.86   3
  -4  -1  -7 42651.8 1986.43   1
   4   1   8 3974.24 728.993   3
  -4  -1  -8 5471.94 835.451   2
   4   1   8 5629.22 844.069   6
   4   1   8 5449.36 839.468   1
   4   1   9 9971.62 1132.50   6
  -4  -1  -9 13269.7 1388.35   2
   4   1   9 9906.76 1080.58   3
   4   1  10 15311.2 1454.41   6
  -4  -1 -10 17101.6 1667.93   2
   4   1  10 12520.5 1130.51   3
   4   1  11 14575.0 1427.42   6
  -4  -1 -11 21491.9 2000.96   2
  -4  -1 -12 8499.47 1431.20   2
   4   2 -12 915.074 443.290   2
   4   2 -12 1349.85 531.963   1
   4   2 -11 17136.2 1589.97   1
   4   2 -11 18336.5 1730.90   2
   4   2 -10 5762.63 945.965   2
   4   2 -10 7538.31 1053.78   1
   4   2  -9 18409.3 1557.73   1
   4   2  -9 20209.0 1626.59   2
   4   2  -8 22646.7 1662.25   1
   4   2  -8 22048.9 1585.00   2
   4   2  -7 13.9937 271.250   2
   4   2  -7 353.488 356.521   1
   4   2  -6 5609.41 798.103   1
   4   2  -6 6118.20 759.373   2
   4   2  -5 60858.0 1213.76   5
  -4  -2   5 68105.5 2549.85   4
   4   2  -5 64286.9 2120.44   2
   4   2  -5 68800.4 2580.88   1
  -4  -2   4 1146.02 391.648   1
   4   2  -4 817.278 367.191   1
  -4  -2   4 1045.99 364.841   4
   4   2  -4 1316.31 374.086   4
   4   2  -3 2382.93 533.085   1
  -4  -2   3 1824.41 375.357   1
   4   2  -3 2079.18 489.677   3
   4   2  -3 2264.92 490.434   6
  -4  -2   3 1538.36 374.762   4
   4   2  -3 1927.97 456.362   4
   4   2  -2 1864.71 447.096   3
  -4  -2   2 1986.12 430.866   1
  -4  -2   2 1954.18 404.347   4
   4   2  -2 1175.49 368.517   4
   4   2  -2 1690.33 288.557   2
   4   2  -2 1480.86 390.751   1
  -4  -2   1 104587. 2844.73   1
  -4  -2   1 105656. 2054.32   5
   4   2  -1 103690. 1872.37   2
  -4  -2   1 104279. 2340.92   4
   4   2  -1 102943. 2536.07   4
   4   2  -1 104718. 2862.40   1
   4   2  -1 107692. 2934.60   3
  -4  -2   0 252321. 4399.12   1
   4   2   0 259485. 2810.22   2
  -4  -2   0 261256. 3551.63   4
   4   2   0 252772. 4398.25   1
   4   2   0 255678. 4413.92   3
  -4  -2  -1 65860.6 1471.02   2
  -4  -2  -1 64973.6 1754.16   4
   4   2   1 64567.7 1447.72   2
   4   2   1 65251.2 2220.20   1
  -4  -2  -1 63526.3 2204.67   1
   4   2   1 65745.9 2191.37   3
  -4  -2  -2 8329.74 630.841   2
   4   2   2 7582.52 570.686   2
   4   2   2 7219.54 763.937   1
  -4  -2  -2 8255.85 826.258   1
   4   2   3 683.601 217.087   2
  -4  -2  -3 342.591 250.322   1
  -4  -2  -3 331.010 229.118   2
   4   2   3 555.721 322.774   1
  -4  -2  -4 14873.1 992.797   2
   4   2   4 15175.8 1142.84   1
   4   2   4 13456.4 973.623   2
  -4  -2  -4 14522.5 1118.68   1
   4   2   5 55019.3 2203.08   1
  -4  -2  -5 53628.9 2036.76   2
   4   2   5 53471.3 2032.96   2
  -4  -2  -5 52180.9 2160.32   1
   4   2   6 40485.8 1996.62   1
  -4  -2  -6 42190.7 1945.02   2
   4   2   6 39626.9 1886.47   3
   4   2   6 38844.1 1892.93   2
  -4  -2  -6 39054.0 1929.37   1
   4   2   7 5972.19 794.701   3
   4   2   7 9425.28 1095.52   1
  -4  -2  -7 8333.10 958.178   2
   4   2   7 8585.64 1090.70   6
   4   2   8 4529.91 641.743   3
  -4  -2  -8 6986.21 961.725   2
   4   2   8 6797.96 975.771   1
   4   2   8 5817.32 945.594   6
   4   2   9 11050.9 1285.32   6
  -4  -2  -9 11662.2 1269.81   2
   4   2   9 8184.98 817.514   3
   4   2  10 24024.9 1947.20   6
  -4  -2 -10 31698.2 2220.20   2
  -4  -2 -11 6066.53 1109.60   2
   4   2  11 3497.18 767.860   6
  -4  -2 -12 772.539 426.669   2
   4   2  12 369.447 449.617   6
   4   3 -12 9488.10 1428.91   2
   4   3 -11 34869.1 2591.08   2
  -4  -3  11 30454.2 2306.61   3
  -4  -3  10 312.058 379.488   3
   4   3 -10 3.13785 385.353   1
   4   3 -10 576.093 432.687   2
   4   3  -9 682.973 413.899   1
  -4  -3   9 553.803 448.871   3
   4   3  -8 1572.05 514.620   1
   4   3  -8 1733.98 559.792   2
  -4  -3   8 1310.67 525.065   3
   4   3  -7 28711.2 1858.69   2
   4   3  -7 27631.0 1718.65   1
  -4  -3   7 28542.4 1921.68   3
   4   3  -6 37301.1 1933.91   1
  -4  -3   6 34934.7 2070.94   3
  -4  -3   5 696.655 435.102   3
   4   3  -5 379.768 270.494   1
  -4  -3   4 782.448 334.133   3
   4   3  -4 368.818 194.890   5
  -4  -3   4 238.896 206.721   1
   4   3  -4 1207.98 379.584   4
   4   3  -4 341.746 308.027   1
  -4  -3   3 53.7087 259.274   3
   4   3  -3 76.3195 167.165   5
  -4  -3   3-180.331 294.851   1
   4   3  -3-2.64193 227.270   4
   4   3  -3 146.332 300.243   1
  -4  -3   2 108158. 2950.19   1
   4   3  -2 101287. 2481.89   2
  -4  -3   2 104992. 2503.89   4
   4   3  -2 104128. 2543.76   4
   4   3  -2 103263. 2917.22   1
   4   3  -2 110203. 3093.82   3
  -4  -3   2 107443. 3083.88   3
  -4  -3   1 52437.5 2038.36   1
  -4  -3   1 50629.7 1552.34   4
   4   3  -1 51651.4 1674.19   2
   4   3  -1 52853.6 1653.95   4
   4   3  -1 49636.6 2014.78   1
   4   3  -1 52069.9 2058.25   3
  -4  -3   0 25526.6 1219.79   5
   4   3   0 23934.0 1147.76   2
  -4  -3   0 24341.8 955.724   4
   4   3   0 24124.2 1050.40   4
   4   3   0 27156.7 1471.81   1
   4   3   0 24390.9 1371.85   3
  -4  -3   0 24579.4 1413.79   1
  -4  -3  -1 7125.92 611.132   2
  -4  -3  -1 7343.35 698.864   5
   4   3   1 6656.11 623.409   2
  -4  -3  -1 6668.38 462.885   4
   4   3   1 7616.16 808.057   1
  -4  -3  -1 7122.66 781.744   1
   4   3   1 7062.58 748.795   3
  -4  -3  -2 22927.5 1159.90   2
   4   3   2 21381.4 1109.18   2
  -4  -3  -2 21389.3 738.321   4
   4   3   2 23072.3 1381.77   1
  -4  -3  -2 22978.5 1393.82   1
   4   3   2 20931.0 1232.38   3
  -4  -3  -3 17141.8 1099.16   2
  -4  -3  -3 17001.4 704.185   4
   4   3   3 14728.9 978.930   2
   4   3   3 14111.6 1125.13   1
  -4  -3  -3 15686.6 1194.07   1
   4   3   3 15774.7 1032.15   3
  -4  -3  -4 30975.5 1552.90   2
   4   3   4 33732.8 1741.97   1
   4   3   4 32909.2 1510.03   2
  -4  -3  -4 31667.8 1700.44   1
   4   3   4 32857.2 1452.31   3
   4   3   5 26804.4 1623.81   1
  -4  -3  -5 27488.6 1514.87   2
   4   3   5 25696.9 1428.45   2
   4   3   5 25728.2 1244.40   3
   4   3   6-66.4694 271.566   2
   4   3   6 587.049 257.056   3
   4   3   6 718.317 422.720   1
  -4  -3  -6 568.237 340.480   2
  -4  -3  -7 769.767 414.358   2
   4   3   7 816.081 257.948   3
   4   3   7 957.004 545.948   1
   4   3   7 578.477 336.884   3
   4   3   8 10058.9 1285.62   6
   4   3   8 10373.1 1165.54   1
  -4  -3  -8 10045.6 1133.71   2
   4   3   8 8143.39 715.557   3
   4   3   8 6991.73 593.471   3
   4   3   9 26446.6 2052.08   6
  -4  -3  -9 28040.2 1972.41   2
   4   3   9 22604.5 1054.39   3
  -4  -3 -10 3554.95 824.246   2
   4   3  10 4040.26 881.306   6
  -4  -3 -11 861.582 539.410   2
   4   3  11 82.1955 515.576   6
  -4  -3 -12 6845.67 1183.39   2
   4   3  12 5498.89 1064.82   6
   4   3  13 13074.8 1725.67   6
  -4  -3 -13 18446.8 2009.11   2
   4   3  14 3933.27 924.566   6
   4   4 -11 171.287 471.234   2
  -4  -4  11 320.035 539.765   3
   4   4 -10 3624.53 1028.60   2
  -4  -4  10 1647.82 603.169   3
  -4  -4   9 8278.62 1236.21   3
   4   4  -9 9449.98 1352.24   2
   4   4  -9 8222.46 983.307   1
   4   4  -8 39441.8 2532.29   2
   4   4  -8 37671.0 2021.54   1
  -4  -4   8 38361.2 2470.06   3
   4   4  -7 44154.6 2129.62   1
  -4  -4   7 42288.3 2499.98   3
   4   4  -6 13193.2 1167.41   1
  -4  -4   6 13234.1 1355.91   3
  -4  -4   5 1742.14 562.834   3
   4   4  -5 2238.67 516.141   1
  -4  -4   4 2451.81 471.351   1
  -4  -4   4 2637.11 649.311   3
   4   4  -4 2206.34 522.240   1
   4   4  -4 1968.81 499.808   4
  -4  -4   3 16599.8 1192.96   1
   4   4  -3 14571.5 1157.29   2
   4   4  -3 15097.4 1090.23   5
   4   4  -3 16783.4 1138.76   4
   4   4  -3 14823.6 1171.65   1
  -4  -4   3 16291.1 1354.29   3
  -4  -4   2 6597.75 768.217   1
  -4  -4   2 5747.38 811.974   3
   4   4  -2 5871.70 745.933   1
   4   4  -2 6347.89 692.316   5
   4   4  -2 5997.85 653.580   4
   4   4  -2 6041.35 717.061   2
   4   4  -1 1374.27 358.122   3
   4   4  -1 988.655 432.716   1
  -4  -4   1 1079.46 412.944   3
  -4  -4   1 1166.66 376.633   1
   4   4  -1 701.698 317.782   5
   4   4  -1 823.534 255.863   4
   4   4  -1 1272.19 334.639   2
   4   4   0 474.776 304.180   1
   4   4   0 504.335 291.133   3
  -4  -4   0 323.974 315.373   3
   4   4   0 154.750 146.733   4
   4   4   0 132.421 200.319   2
  -4  -4   0 633.247 294.734   1
  -4  -4  -1 7158.82 735.725   2
  -4  -4  -1 7134.29 767.831   5
   4   4   1 7050.77 765.029   2
   4   4   1 8004.72 852.843   1
  -4  -4  -1 8205.74 877.320   1
   4   4   1 7431.59 784.410   3
  -4  -4  -1 7738.58 793.626   3
  -4  -4  -2 12540.7 982.530   2
  -4  -4  -2 12953.2 1050.45   5
   4   4   2 12901.8 1000.81   2
   4   4   2 13610.9 1114.39   1
  -4  -4  -2 13863.1 1127.93   1
   4   4   2 13179.1 1014.69   3
   4   4   3 3962.50 549.113   3
  -4  -4  -3 4323.20 659.834   5
   4   4   3 3599.10 621.176   1
  -4  -4  -3 3422.94 581.356   2
   4   4   3 3881.76 593.297   2
  -4  -4  -4 56034.3 2260.79   2
  -4  -4  -4 50163.5 2159.30   5
   4   4   4 51426.2 2271.39   1
   4   4   4 56118.1 2196.48   2
   4   4   4 56199.9 1878.92   3
  -4  -4  -5 30069.6 1743.14   2
   4   4   5 32266.3 1856.09   1
   4   4   5 29037.9 1658.37   2
   4   4   5 29674.9 1300.26   3
   4   4   6 23489.8 1682.95   1
  -4  -4  -6 20704.1 1502.43   2
  -4  -4  -6 20367.3 795.813   4
   4   4   6 19966.2 1006.87   3
   4   4   7 27329.8 1909.14   1
  -4  -4  -7 25700.7 1756.77   2
  -4  -4  -7 26164.1 1082.44   4
   4   4   7 25304.9 1027.54   3
   4   4   8 43075.7 2459.65   1
  -4  -4  -8 39849.6 1527.80   4
  -4  -4  -8 40599.0 2290.18   2
   4   4   8 33054.6 1153.08   3
   4   4   8 30209.5 960.540   3
   4   4   9 6732.55 1183.84   6
  -4  -4  -9 7362.48 1050.21   2
   4   4  10 10.6580 504.812   6
  -4  -4 -10-178.688 539.765   2
   4   4  11 1577.94 710.826   6
  -4  -4 -11 1497.28 599.373   2
   4   4  12 14259.7 1782.37   6
  -4  -4 -12 16120.3 1787.29   2
   4   4  13 6444.25 1239.49   6
  -4  -4 -13 6061.32 1230.78   2
  -4  -5  10 1790.27 674.051   3
  -4  -5   9 7628.35 1204.28   3
   4   5  -9 9965.68 1440.55   2
  -4  -5   8 17743.2 1811.30   3
  -4  -5   7 4855.56 966.496   3
   4   5  -7 3870.72 670.291   1
  -4  -5   6 7641.52 1095.61   3
   4   5  -6 7863.03 925.067   1
  -4  -5   5 3712.16 710.483   3
   4   5  -5 2402.23 534.696   1
  -4  -5   4 28917.1 1621.99   1
   4   5  -4 31510.6 1722.31   1
  -4  -5   4 34335.2 2136.62   3
  -4  -5   3 29009.3 1595.44   1
   4   5  -3 28077.3 1577.74   4
   4   5  -3 26437.9 1582.06   1
  -4  -5   3 28373.2 1870.92   3
   4   5  -2 15.4416 313.800   1
  -4  -5   2 187.981 315.556   3
   4   5  -2 212.762 300.669   5
  -4  -5   2 225.792 222.145   1
   4   5  -2-141.704 250.300   4
  -4  -5   1 1453.64 358.578   1
  -4  -5   1 1898.42 534.994   3
   4   5  -1 1437.02 433.017   5
   4   5  -1 1097.26 300.066   4
   4   5  -1 1341.88 439.151   1
   4   5   0 14793.3 1200.86   2
   4   5   0 16986.5 1286.29   5
   4   5   0 16605.9 826.688   4
   4   5   0 16830.7 1258.70   1
  -4  -5   0 17091.9 1245.08   1
  -4  -5   0 15806.9 1253.87   3
   4   5   1 18050.4 1318.53   2
   4   5   1 18593.9 1319.53   5
   4   5   1 18207.1 687.975   4
   4   5   1 18325.1 1340.30   1
   4   5   1 20737.3 1383.50   3
  -4  -5  -1 19212.8 1338.63   3
  -4  -5  -2 9782.54 1006.99   2
   4   5   2 8624.18 978.033   2
   4   5   2 9664.99 1024.15   1
   4   5   2 8699.20 865.839   3
  -4  -5  -2 9128.98 898.516   3
   4   5   3 3433.78 561.501   3
  -4  -5  -3 4049.58 590.694   3
   4   5   3 4704.01 769.279   1
  -4  -5  -3 3950.40 665.175   2
   4   5   3 2809.90 577.531   2
  -4  -5  -4 8615.06 1013.49   2
   4   5   4 9240.62 1083.85   1
   4   5   4 10202.2 844.555   3
  -4  -5  -5 14471.4 1308.50   2
   4   5   5 13355.7 1290.58   1
   4   5   5 15227.7 972.250   3
   4   5   6 67965.2 3019.57   1
  -4  -5  -6 67887.7 2927.02   2
   4   5   6 71073.9 1906.33   3
  -4  -5  -7 9621.29 1158.46   2
   4   5   7 10091.0 1252.46   1
  -4  -5  -7 8804.85 451.966   4
   4   5   7 9523.41 610.388   3
   4   5   8 18469.8 1741.25   1
  -4  -5  -8 16108.4 1516.04   2
  -4  -5  -8 16559.0 821.987   4
   4   5   9 1563.91 709.665   6
  -4  -5  -9 1674.89 567.352   2
   4   5  10 1839.89 822.597   6
  -4  -5 -10 752.087 459.502   2
   4   5  11 35146.4 2672.10   6
  -4  -5 -11 31529.7 2428.49   2
   4   5  12 13307.8 1755.21   6
  -4  -5 -12 14631.6 1770.55   2
   4   5  13 2868.93 885.854   6
  -4  -5 -13 830.055 626.566   2
  -4  -6   8-99.6627 408.350   3
  -4  -6   7-50.0420 454.103   3
  -4  -6   6 6980.86 1171.73   3
   4   6  -5 30640.4 1728.78   1
  -4  -6   5 32506.6 2335.28   3
  -4  -6   4 24566.8 1500.08   1
   4   6  -4 22989.1 1506.97   1
  -4  -6   3 148.298 350.635   3
   4   6  -3-1.16550 319.767   1
  -4  -6   3 433.292 232.104   1
   4   6  -2 24306.0 1733.66   5
   4   6  -2 27965.8 1560.25   4
   4   6  -2 27228.4 1665.62   1
  -4  -6   2 26427.3 1886.42   3
   4   6  -1 34257.4 2018.30   5
   4   6  -1 34025.0 1561.75   4
   4   6  -1 33195.1 1854.81   1
  -4  -6   1 37143.5 2147.29   3
   4   6   0 125404. 3780.57   5
   4   6   0 122609. 2594.33   4
   4   6   0 122630. 3593.62   1
  -4  -6   0 124094. 3758.21   3
   4   6   1 8269.59 1005.70   5
   4   6   1 8387.43 583.098   4
   4   6   1 8621.80 1048.57   1
  -4  -6  -1 9164.38 1022.79   3
  -4  -6  -2 6965.62 947.672   2
   4   6   2 6800.69 932.041   5
   4   6   2 6600.90 883.370   1
  -4  -6  -2 6956.84 873.799   3
   4   6   3 69.6952 253.952   3
  -4  -6  -3 89.6845 252.411   3
   4   6   3 185.002 403.361   1
  -4  -6  -3 125.880 299.455   2
  -4  -6  -4 21338.3 1699.30   2
   4   6   4 21653.0 1681.50   1
   4   6   4 22984.7 1386.47   3
  -4  -6  -4 23553.8 1425.40   3
  -4  -6  -5 32558.6 2081.36   2
   4   6   5 34856.0 2212.06   1
   4   6   5 35263.1 1609.33   3
  -4  -6  -5 36971.3 1671.72   3
   4   6   6 2813.87 446.303   3
   4   6   6 2684.70 837.378   1
  -4  -6  -6 1722.07 605.328   2
   4   6   7 11592.1 1418.21   1
   4   6   7 10132.5 729.981   3
  -4  -6  -7 7859.43 1132.45   2
   4   6   8 16794.3 1748.15   1
  -4  -6  -8 15649.0 1623.71   2
   4   6   9 25845.7 2271.96   6
  -4  -6  -9 24942.5 2069.66   2
   4   6  10 28794.0 2497.17   6
  -4  -6 -10 26303.1 2220.40   2
   4   6  11 28411.0 2480.55   6
  -4  -6 -11 27254.5 2350.08   2
   4   6  12 782.063 635.897   6
  -4  -6 -12-399.476 547.633   2
  -4  -7   6 9815.34 1477.39   3
  -4  -7   5 340.530 444.986   3
  -4  -7   4 2029.90 609.789   3
   4   7  -4 822.596 362.428   1
  -4  -7   3 8539.99 1242.27   3
   4   7  -3 8437.33 978.613   1
   4   7  -2 17148.8 1610.22   5
   4   7  -2 16808.7 1376.61   1
  -4  -7   2 19288.9 1769.06   3
   4   7  -1 101441. 3809.49   5
   4   7  -1 98174.2 3314.29   1
   4   7  -1 97588.2 3010.57   4
  -4  -7   1 101488. 3836.28   3
  -4  -7   0 320.437 374.324   3
   4   7   0 1256.39 483.979   5
   4   7   0 396.112 300.289   4
   4   7   0 78.1882 376.565   1
  -4  -7  -1 887.233 452.137   3
   4   7   1 699.069 403.096   5
   4   7   1 392.655 196.962   4
   4   7   1 558.839 463.366   1
  -4  -7  -2 1756.64 565.992   3
   4   7   2 1270.44 568.379   5
   4   7   2 2232.37 663.857   1
   4   7   2 1318.52 283.490   4
  -4  -7  -3 69886.9 3170.17   2
   4   7   3 69757.8 3099.47   1
   4   7   3 67724.9 3076.08   5
  -4  -7  -3 74026.5 2882.92   3
  -4  -7  -4 8568.92 1170.99   2
   4   7   4 8306.21 1186.18   1
  -4  -7  -4 10007.4 1044.70   3
   4   7   5 1339.57 432.097   3
  -4  -7  -5 1334.89 439.350   3
   4   7   5 1272.10 595.371   1
  -4  -7  -5 473.485 388.767   2
   4   7   6 760.061 351.352   3
  -4  -7  -6 75.8334 227.976   3
   4   7   6 251.812 506.890   1
  -4  -7  -6 91.7947 370.084   2
   4   7   7 1240.96 740.740   1
  -4  -7  -7 968.009 643.970   2
  -4  -7  -8 20389.1 1887.43   2
   4   7   9 7187.23 1300.98   6
  -4  -7  -9 8288.68 1315.07   2
   4   7  10 8259.95 1460.35   6
  -4  -7 -10 7789.21 1283.56   2
   4   7  11 777.834 628.844   6
  -4  -7 -11 328.509 483.942   2
   4   7  12 2930.27 927.542   6
  -4  -7 -12 2256.49 775.203   2
  -4  -8   4 551.167 420.474   3
  -4  -8   3 10283.1 1488.40   3
  -4  -8   2 4218.31 944.486   3
   4   8  -2 4806.89 949.004   5
   4   8  -2 3797.56 737.063   1
  -4  -8   1-75.3998 505.906   3
   4   8  -1-108.895 426.480   5
   4   8  -1 216.734 387.840   1
  -4  -8   0 1262.34 557.237   3
   4   8   0 350.898 491.050   5
   4   8   0 118.848 453.192   1
  -4  -8  -1 7291.85 1122.66   3
   4   8   1 8758.51 1233.94   5
   4   8   1 6760.25 1087.60   1
   4   8   2 40282.2 2498.15   1
   4   8   2 38858.8 2525.88   5
  -4  -8  -2 42080.3 2483.78   3
   4   8   3 16277.9 1646.43   1
   4   8   3 15247.8 1627.72   5
  -4  -8  -3 17906.3 1591.22   3
   4   8   4 10937.3 1417.08   1
  -4  -8  -4 9732.27 1345.46   2
  -4  -8  -4 9595.34 1138.93   3
  -4  -8  -5 821.319 429.055   3
   4   8   5 1187.96 596.677   1
  -4  -8  -5 832.866 504.756   2
  -4  -8  -6 32398.8 2471.04   2
  -4  -8  -6 37311.8 1986.89   3
  -4  -8  -7 8970.81 1374.19   2
  -4  -8  -7 9952.73 974.096   3
  -4  -8  -8 3091.82 815.698   2
   4   8   9 901.610 657.870   6
  -4  -8  -9 11.6637 424.052   2
   4   8  10 2280.01 942.986   6
  -4  -8 -10 1804.49 697.338   2
   4   8  11 950.166 756.825   6
  -4  -8 -11-356.603 653.671   2
   4   9  -3-42.8962 627.990   5
  -4  -9   2 2609.28 786.486   3
   4   9  -2 1464.38 640.032   5
  -4  -9   1 196.843 453.629   3
   4   9  -1-1756.08 828.782   5
  -4  -9   0 1951.11 775.461   3
   4   9   0 2206.89 779.428   5
  -4  -9  -1 8923.05 1373.21   3
   4   9   1 8748.33 1350.48   5
  -4  -9  -2 6819.36 1139.64   3
   4   9   2 7808.97 1231.62   5
  -4  -9  -3 1863.58 620.120   3
   4   9   3 2220.07 761.275   5
  -4  -9  -4 1782.82 643.456   3
   4   9   4 1272.88 626.825   5
  -4  -9  -5 20374.4 2066.46   2
  -4  -9  -5 19292.8 1686.86   3
  -4  -9  -6 16985.3 1916.94   2
  -4  -9  -6 16996.8 1505.82   3
  -4  -9  -7 1889.62 631.446   2
  -4  -9  -8 571.028 654.091   2
   4   9   9-147.991 681.547   6
  -4  -9  -9 396.313 417.117   2
  -4 -10  -1 62.3833 525.663   3
  -4 -10  -2-361.604 592.552   3
  -4 -10  -3 356.272 599.624   3
  -4 -10  -4 6280.32 1100.14   3
  -4 -10  -5 16088.4 1654.75   3
   4  10   8 2443.15 1076.98   6
   5  -5  -9 2002.96 863.262   3
   5  -5  -8 12076.4 1862.08   3
   5  -5  -7 5790.75 1237.43   1
   5  -5  -7 6425.45 1332.74   3
   5  -5  -6 2003.84 863.138   1
   5  -5  -6 1698.13 997.408   3
   5  -5  -5 3468.42 1009.69   3
   5  -5  -5 4597.75 1069.42   1
   5  -5  -4 5030.38 1279.33   3
   5  -5  -4 3729.66 940.159   1
   5  -5  -3 2658.71 750.616   1
   5  -4 -10 3416.06 916.463   3
   5  -4  -9 35532.2 2978.37   1
   5  -4  -9 39209.7 2861.01   3
  -5   4   8 3903.06 1051.65   4
   5  -4  -8 3162.20 889.540   1
   5  -4  -8 4972.66 1111.79   3
   5  -4  -7 987.863 626.290   1
  -5   4   7 620.295 551.600   4
   5  -4  -7 430.791 571.179   3
   5  -4  -6 4265.57 955.887   1
  -5   4   6 6255.25 1207.68   4
   5  -4  -6 3913.78 1007.69   3
   5  -4  -5 16989.2 1783.54   1
  -5   4   5 15927.9 1839.01   4
   5  -4  -5 19165.5 2075.96   3
  -5   4   4 8743.32 1415.43   4
   5  -4  -4 11028.7 1396.07   1
   5  -4  -3 14312.0 1520.60   1
  -5   4   3 10019.5 1510.72   4
   5  -4  -3 16082.1 2029.76   3
   5  -4  -2 267.768 652.023   3
   5  -4  -2 481.425 360.332   1
  -5   4   2-856.659 744.760   4
   5  -4  -1 3774.84 1072.80   3
  -5   4   1 3904.65 1009.87   4
   5  -4  -1 2953.56 705.078   1
   5  -4   0 1479.16 872.654   3
   5  -4   1 1455.31 602.434   3
   5  -4   2 11545.8 1866.59   3
   5  -3 -10 25974.5 2521.76   1
  -5   3  10 21552.7 2210.93   4
  -5   3   9 687.797 579.844   4
   5  -3  -9 306.741 462.316   1
  -5   3   8 4699.76 1101.66   4
   5  -3  -8 5360.90 1121.96   1
   5  -3  -7 1048.64 583.777   1
  -5   3   7 1119.18 666.352   4
   5  -3  -6 18278.1 1836.49   1
  -5   3   6 16734.3 1811.17   4
   5  -3  -5 19929.2 1885.42   1
  -5   3   5 21917.8 1235.58   5
  -5   3   5 20950.3 1991.97   4
   5  -3  -4 16971.7 1658.25   1
  -5   3   4 15502.4 1725.21   4
   5  -3  -4 17507.9 1837.11   3
   5  -3  -3 517.465 462.088   1
  -5   3   3 83.6814 460.217   4
   5  -3  -3 1197.06 707.935   3
  -5   3   2 11306.7 1465.08   4
   5  -3  -2 11272.6 1246.65   1
   5  -3  -2 10399.2 1516.80   3
  -5   3   1 7356.75 1250.77   4
   5  -3  -1 7837.27 1027.44   1
   5  -3  -1 7953.45 1367.63   3
   5  -3   0 29403.8 2553.32   3
   5  -3   0 30127.4 1865.37   1
   5  -3   1 14917.4 1997.66   3
   5  -3   1 15405.6 1293.72   1
   5  -3   2-282.083 839.712   3
   5  -3   3 1216.56 674.951   3
   5  -3   4 2550.40 899.124   3
   5  -3   5 13210.3 1946.75   3
  -5   2  11 12746.3 1725.34   4
   5  -2 -11 9707.64 1583.23   1
  -5   2  10 3933.25 1014.52   4
   5  -2 -10 3946.13 998.450   1
  -5   2   9 9524.54 1358.74   4
   5  -2  -9 10982.1 1512.88   1
   5  -2  -8 698.652 620.634   1
  -5   2   8 495.306 473.349   4
   5  -2  -7 16614.5 1757.88   1
  -5   2   7 15179.0 1644.89   4
   5  -2  -6 14981.3 1595.08   1
  -5   2   6 15969.5 1712.80   4
   5  -2  -5-41.3049 397.006   1
  -5   2   5 80.8192 143.896   5
  -5   2   5 774.361 528.355   4
  -5   2   4 546.039 480.105   4
   5  -2  -4 210.197 443.340   1
   5  -2  -3 29127.7 1991.61   1
   5  -2  -3 28480.2 1579.77   6
  -5   2   3 28546.7 2145.88   4
   5  -2  -2 27500.5 1434.41   6
  -5   2   2 31287.1 2214.10   4
   5  -2  -2 30576.0 1950.95   1
  -5   2   1 25354.4 2030.73   4
   5  -2  -1 29562.2 2283.39   3
   5  -2  -1 29767.7 1856.47   1
  -5   2   0 8423.54 544.974   2
   5  -2   0 12217.6 1182.75   1
   5  -2   0 11731.5 1471.29   3
  -5   2  -1 9242.95 683.989   2
   5  -2   1 8714.41 994.354   1
   5  -2   1 10689.8 1466.71   3
  -5   2  -2 13125.6 963.919   2
   5  -2   2 13326.9 1148.39   1
   5  -2   2 11048.8 1601.46   3
   5  -2   3 8640.47 1481.36   3
   5  -2   3 8773.07 892.271   1
  -5   2  -3 7568.24 799.036   2
   5  -2   4 10310.1 1654.02   3
  -5   2  -4 12537.8 1167.52   2
   5  -2   5 16.7457 596.376   3
  -5   2  -5 397.232 334.828   2
   5  -2   6 866.469 772.150   3
   5  -2   7 208.314 586.174   3
   5  -2   8 4318.44 1078.05   3
   5  -1 -11 6532.55 1252.60   1
  -5   1  11 5080.01 1109.95   4
   5  -1 -10 2502.95 789.663   1
  -5   1  10 2335.06 785.166   4
   5  -1  -9 4439.34 955.726   1
  -5   1   9 4075.06 907.958   4
   5  -1  -9 6686.24 851.412   2
   5  -1  -8 38443.4 2577.64   1
   5  -1  -8 40226.5 1761.86   2
  -5   1   8 38592.3 2544.38   4
   5  -1  -7 10664.0 1347.30   1
   5  -1  -7 9712.02 783.450   2
  -5   1   7 8874.14 1272.56   4
   5  -1  -6 3928.59 857.822   1
   5  -1  -6 3082.01 398.238   2
  -5   1   6 4287.07 895.744   4
   5  -1  -5 704.271 122.286   2
   5  -1  -5 1264.37 481.856   1
   5  -1  -4 29220.8 2029.55   1
  -5   1   4 28729.6 2027.36   4
   5  -1  -3 17427.8 1505.65   1
   5  -1  -3 14594.9 1147.83   6
  -5   1   3 16107.0 1532.43   4
   5  -1  -2 180.123 284.897   1
   5  -1  -2 81.9554 240.881   6
  -5   1   2 494.366 466.144   4
   5  -1  -1 197.636 237.366   6
   5  -1  -1 351.147 274.670   1
   5  -1   0 5673.25 611.532   6
  -5   1   0 6373.22 1001.31   4
   5  -1   0 5253.30 767.595   1
   5  -1   1 30534.3 1290.66   6
  -5   1  -1 30873.7 956.654   2
  -5   1  -1 29647.7 940.595   2
   5  -1   1 34840.2 2372.95   3
   5  -1   1 33943.4 1846.93   1
   5  -1   2 8840.68 665.723   6
  -5   1  -2 10355.5 714.392   2
   5  -1   2 9912.83 1015.08   1
   5  -1   2 11101.3 1407.12   3
  -5   1  -3 32391.2 1470.06   2
   5  -1   3 32075.7 1729.66   1
   5  -1   3 28430.8 2299.90   3
   5  -1   4 39.5173 646.294   3
  -5   1  -4 948.657 372.957   2
   5  -1   4 764.775 359.070   1
   5  -1   5 7796.03 1410.49   3
   5  -1   5 8846.90 904.226   1
  -5   1  -5 8718.79 964.726   2
   5  -1   6 8184.27 1396.65   3
  -5   1  -6 6740.38 922.766   2
   5  -1   7 12738.7 1733.65   3
  -5   1  -7 17248.3 1538.65   2
   5  -1   8 6350.00 1217.34   3
  -5   1  -8 8570.65 1153.89   2
   5  -1   9 95.1006 622.401   3
  -5   1  -9 940.348 630.560   2
   5   0 -12 5124.68 1109.13   1
   5   0 -11 9695.67 1437.65   1
   5   0 -11 10325.2 1174.82   2
  -5   0  11 7747.59 1306.90   4
   5   0 -10 8220.29 1296.52   1
   5   0 -10 9541.96 1075.05   2
  -5   0  10 10341.9 1436.77   4
   5   0  -9 24865.3 2090.89   1
  -5   0   9 24024.1 2082.44   4
   5   0  -9 28144.3 1684.47   2
   5   0  -8 26064.9 2070.69   1
  -5   0   8 23432.5 1942.21   4
   5   0  -8 27322.4 1508.95   2
   5   0  -7 11451.2 1369.36   1
   5   0  -7 11026.2 863.341   2
  -5   0   7 10364.6 1254.59   4
  -5   0   6-195.492 408.353   4
   5   0  -6 847.094 523.819   1
   5   0  -6 430.213 214.311   2
   5   0  -5 55582.6 2736.38   1
   5   0  -5 55387.6 1280.74   2
  -5   0   5 58579.9 2732.42   4
   5   0  -4 15409.1 1416.57   1
  -5   0   4 15432.0 1406.93   4
   5   0  -3 557.800 392.781   1
  -5   0   3 21.4825 457.629   4
   5   0  -2 8693.84 860.887   6
  -5   0   2 7501.08 977.729   4
   5   0  -2 9346.86 1063.36   1
   5   0  -1 267.141 238.957   6
  -5   0   1 203.652 367.994   4
   5   0  -1 576.423 389.877   1
  -5   0   0 11096.9 1167.16   4
   5   0   0 10581.2 1076.41   1
   5   0   1 29970.2 1756.14   1
  -5   0  -2 7037.80 527.826   2
   5   0   2 7623.50 890.248   1
  -5   0  -3 2895.95 425.162   2
   5   0   3 2433.48 506.344   1
   5   0   3 2761.78 751.323   3
  -5   0  -4 16122.3 1078.03   2
   5   0   4 16588.0 1258.29   1
   5   0   5 24008.8 1518.86   1
  -5   0  -5 25223.8 1492.42   2
   5   0   5 21760.1 1975.61   3
   5   0   6 30867.3 1646.38   6
   5   0   6 33611.4 1841.78   1
  -5   0  -6 32457.0 1853.47   2
   5   0   6 30692.7 2389.31   3
   5   0   7 55815.4 2450.54   1
  -5   0  -7 56661.0 2643.32   2
   5   0   7 50906.9 3052.73   3
   5   0   8-900.860 677.412   3
  -5   0  -8 621.693 467.717   2
   5   0   9 615.767 530.948   3
  -5   0  -9-519.427 603.574   2
  -5   0 -10 2027.09 845.948   2
   5   1 -12 3622.57 818.258   2
   5   1 -12 535.434 462.663   1
   5   1 -11 6208.13 988.249   2
   5   1 -11 5325.84 1052.86   1
   5   1 -10 2705.81 610.463   2
   5   1 -10 2143.22 649.679   1
  -5  -1   9 11675.9 1458.11   4
   5   1  -9 11659.9 1153.23   2
   5   1  -9 8243.87 1219.53   1
   5   1  -8 3990.44 656.888   2
  -5  -1   8 2169.80 644.871   4
   5   1  -8 3793.97 854.888   1
   5   1  -7 1209.12 385.338   2
  -5  -1   7 1852.68 639.224   4
   5   1  -7 2359.00 635.702   1
   5   1  -6 29370.6 1997.25   1
  -5  -1   6 24959.9 1783.40   4
   5   1  -6 28473.5 1319.54   2
   5   1  -5 83803.7 3256.49   1
  -5  -1   5 80117.3 3011.10   4
   5   1  -5 87137.5 1957.37   2
  -5  -1   4 33932.3 1888.30   4
   5   1  -4 33686.6 963.985   2
   5   1  -4 34841.8 2053.26   1
   5   1  -3 257.906 399.992   1
  -5  -1   3 8.35459 314.470   4
  -5  -1   2 221.123 299.148   4
   5   1  -2-274.136 402.860   1
  -5  -1   1 91913.8 2926.80   4
   5   1  -1 93824.2 3089.07   1
  -5  -1   0 81086.8 2739.79   4
   5   1   0 83133.4 2877.05   1
   5   1   1-314.751 399.993   1
  -5  -1  -1-71.1038 336.566   4
   5   1   2 693.868 410.470   1
  -5  -1  -2 455.614 177.198   2
   5   1   3 769.225 403.535   1
  -5  -1  -3 157.769 205.527   2
  -5  -1  -4 4570.31 566.081   2
   5   1   4 4855.28 736.454   1
   5   1   5 27677.1 1686.89   1
  -5  -1  -5 28842.0 1529.96   2
   5   1   5 27184.1 2000.48   3
   5   1   6 17151.6 1381.35   1
  -5  -1  -6 17206.8 1307.51   2
   5   1   6 14152.6 1514.35   3
   5   1   7 829.297 559.188   3
  -5  -1  -7 420.672 305.631   2
   5   1   7 843.092 409.885   1
   5   1   7 38.9173 437.005   6
   5   1   8 3205.45 732.343   3
   5   1   8 2830.53 637.459   6
   5   1   8 3127.77 644.875   1
   5   1   9 8202.08 1102.97   3
  -5  -1  -9 10265.1 1286.01   2
  -5  -1 -10 26089.2 2098.21   2
  -5  -1 -11 5791.27 1129.19   2
   5   2 -12 11418.5 1427.22   2
   5   2 -12 10588.4 1420.57   1
   5   2 -11 4785.89 887.256   2
   5   2 -11 4036.38 861.093   1
   5   2 -10 244.356 307.875   2
   5   2 -10 392.400 325.903   1
   5   2  -9 3891.77 714.262   2
   5   2  -9 3723.56 847.065   1
   5   2  -8 3294.45 651.875   2
   5   2  -8 3755.06 800.227   1
   5   2  -7 8588.08 1127.22   1
  -5  -2   7 9542.83 1147.02   4
   5   2  -7 8404.50 911.436   2
  -5  -2   6 51909.8 2501.90   4
   5   2  -6 52845.4 2013.69   2
   5   2  -6 52578.6 2590.26   1
  -5  -2   5 27471.2 1715.90   4
   5   2  -5 26715.3 1311.96   2
   5   2  -5 25913.0 1785.49   1
   5   2  -4 1302.43 516.086   1
   5   2  -4 1378.02 315.392   2
  -5  -2   4 1154.73 450.350   4
   5   2  -3 17615.3 857.587   2
  -5  -2   3 18295.9 1270.28   4
   5   2  -3 17537.1 1376.40   4
   5   2  -3 17597.3 815.757   2
   5   2  -3 16920.9 1375.59   1
   5   2  -2 148053. 2118.65   2
  -5  -2   2 151810. 3418.21   4
   5   2  -2 151861. 3973.65   1
  -5  -2   1 99235.8 2177.57   5
  -5  -2   1 98964.0 2691.71   4
   5   2  -1 100110. 3168.23   1
   5   2   0 2665.83 559.633   1
   5   2   0 1780.12 215.326   2
  -5  -2   0 2774.15 489.095   4
   5   2   1 128.843 98.9833   2
   5   2   1-124.796 331.215   1
  -5  -2  -1-64.3553 247.560   4
  -5  -2  -1 26.9320 117.127   2
  -5  -2  -2 8374.67 589.421   2
  -5  -2  -2 8862.49 844.936   4
   5   2   2 8126.20 939.418   1
   5   2   2 7615.38 567.499   2
  -5  -2  -3 7681.50 685.018   2
   5   2   3 9068.07 974.383   1
   5   2   3 7422.94 649.784   2
  -5  -2  -4 15333.1 1039.88   2
   5   2   4 15368.3 1291.51   1
   5   2   4 13750.4 988.318   2
  -5  -2  -5 19842.0 1269.31   2
   5   2   5 17613.3 1390.70   1
   5   2   5 16845.4 1191.67   2
  -5  -2  -6 1123.86 398.651   2
   5   2   6 937.107 457.493   1
   5   2   6 371.854 391.324   3
  -5  -2  -7 3169.23 633.096   2
   5   2   7 3217.81 716.454   1
   5   2   7 1925.70 647.964   3
   5   2   8 26349.9 2043.72   6
   5   2   8 26940.3 1932.62   1
  -5  -2  -8 27465.5 1858.23   2
   5   2   8 21419.1 1702.09   3
   5   2   9 7433.47 994.668   3
   5   2   9 10088.1 1268.05   6
   5   2   9 10809.9 1280.31   1
  -5  -2  -9 11529.2 1318.67   2
  -5  -2 -10 7290.94 1158.27   2
   5   2  10 5813.71 1015.87   6
  -5  -2 -11 1732.90 634.695   2
  -5  -2 -12 13511.2 1676.36   2
   5   3 -12 4321.75 985.578   2
   5   3 -11-200.434 554.142   1
   5   3 -11 724.282 510.643   2
   5   3 -10 4584.81 878.312   1
   5   3 -10 4800.99 904.701   2
   5   3  -9 15732.6 1523.96   2
   5   3  -9 12716.9 1379.84   1
   5   3  -8 13962.8 1323.69   2
   5   3  -8 13975.8 1392.09   1
   5   3  -7 4353.35 764.547   2
   5   3  -7 5273.24 899.336   1
   5   3  -6 4291.98 699.237   2
   5   3  -6 4254.83 389.814   5
   5   3  -6 3859.10 722.657   1
   5   3  -5 3879.55 770.611   1
  -5  -3   4 17269.3 1284.30   4
   5   3  -4 18228.2 1442.72   1
   5   3  -3 9068.37 782.083   2
  -5  -3   3 8213.84 873.573   4
   5   3  -3 9810.88 977.953   4
   5   3  -3 8527.92 986.396   1
   5   3  -2 26610.5 1230.23   2
  -5  -3   2 23685.2 1312.65   4
   5   3  -2 25688.4 1480.97   4
   5   3  -2 24870.8 1639.84   1
   5   3  -1 212.490 298.761   1
  -5  -3   1 406.175 222.441   4
   5   3  -1 665.636 279.592   2
  -5  -3   0 7785.43 694.258   5
   5   3   0 8732.11 674.232   2
  -5  -3   0 7708.95 654.966   4
   5   3   0 8204.36 952.105   1
  -5  -3  -1 63975.6 1720.84   2
  -5  -3  -1 66003.2 2153.07   5
  -5  -3  -1 64384.0 1749.51   4
   5   3   1 64062.6 1769.62   2
   5   3   1 64143.5 2547.34   1
  -5  -3  -2 80167.1 2081.77   2
  -5  -3  -2 79541.1 1928.24   4
   5   3   2 76208.6 2009.84   2
   5   3   2 80039.5 2831.17   1
   5   3   2 79270.2 2707.12   3
  -5  -3  -3 13321.8 977.375   2
  -5  -3  -3 13063.4 828.369   4
   5   3   3 12824.8 1154.69   1
   5   3   3 11947.1 868.635   2
   5   3   3 12117.4 1076.59   3
   5   3   4 790.234 289.819   2
   5   3   4 1643.73 441.540   3
   5   3   4 1277.43 517.514   1
  -5  -3  -4 1705.70 442.963   2
  -5  -3  -5 27122.3 1545.26   2
   5   3   5 24170.5 1650.14   1
   5   3   5 22014.3 1380.10   2
   5   3   5 22431.3 1375.71   3
   5   3   6 24157.4 1701.73   1
  -5  -3  -6 26353.1 1629.53   2
   5   3   7 23481.6 1747.24   1
  -5  -3  -7 25420.2 1722.11   2
   5   3   7 20095.0 1430.70   3
   5   3   8-445.401 461.234   3
   5   3   8-380.222 477.344   1
  -5  -3  -8 230.110 358.101   2
  -5  -3  -9 871.996 463.782   2
   5   3   9 355.232 267.540   3
   5   3   9 260.936 511.450   6
   5   3   9 1162.87 569.192   1
  -5  -3 -10 686.224 532.091   2
   5   3  10 1254.92 748.208   6
  -5  -3 -11 9054.59 1389.68   2
   5   3  11 7488.29 1287.15   6
   5   3  12 15228.0 1832.00   6
  -5  -3 -12 21573.3 2128.72   2
   5   4 -11 6960.58 1272.92   2
   5   4 -10 20664.1 1726.20   1
  -5  -4  10 21452.8 2046.20   3
   5   4  -9 10775.2 1369.64   2
  -5  -4   9 8882.79 1298.60   3
   5   4  -9 10537.0 1242.86   1
   5   4  -8 19.8799 329.226   2
  -5  -4   8 314.845 361.289   3
  -5  -4   7 3526.83 771.924   3
   5   4  -7 3586.57 557.867   5
   5   4  -7 2938.40 657.758   1
  -5  -4   6 6585.46 1043.05   3
   5   4  -6 6205.08 691.372   5
   5   4  -6 6995.92 943.101   1
  -5  -4   5 8593.92 1099.45   3
   5   4  -5 8798.68 783.045   5
   5   4  -5 7929.06 1024.63   1
  -5  -4   4 730.871 381.693   3
   5   4  -4 741.187 241.944   5
   5   4  -4 781.270 416.459   1
   5   4  -4 295.245 291.605   2
  -5  -4   3-45.1524 317.698   3
   5   4  -3-57.2972 367.014   1
   5   4  -3 5.23775 280.466   4
   5   4  -3 237.841 236.005   2
   5   4  -2-3.87641 333.881   1
   5   4  -2 19.8614 273.808   4
   5   4  -2 38.9579 231.572   2
   5   4  -1 1596.73 492.499   1
   5   4  -1 1346.82 385.837   4
   5   4  -1 1140.33 357.915   2
   5   4   0 58112.7 2103.31   2
   5   4   0 59622.0 2487.49   1
  -5  -4  -1 37007.5 1775.62   5
  -5  -4  -1 35055.3 1081.88   4
   5   4   1 37342.5 1666.17   2
   5   4   1 37604.3 2001.60   1
  -5  -4  -2 40009.1 1696.68   2
  -5  -4  -2 35879.1 1794.24   5
   5   4   2 36651.3 1687.20   2
   5   4   2 38080.7 2018.39   1
   5   4   2 37164.7 1844.97   3
   5   4   3 1285.00 417.389   2
   5   4   3 479.676 244.711   3
  -5  -4  -3 462.656 125.074   4
  -5  -4  -3 833.661 336.624   2
   5   4   3 1081.87 443.768   1
  -5  -4  -4 38732.1 1912.97   2
   5   4   4 41643.2 2175.79   1
  -5  -4  -4 36803.3 890.379   4
   5   4   4 39096.1 1811.64   2
   5   4   4 42882.2 1883.13   3
  -5  -4  -5 85371.7 2945.43   2
   5   4   5 82240.6 3143.39   1
  -5  -4  -5 79714.4 1587.52   4
   5   4   5 75627.6 2646.30   2
   5   4   5 77337.5 2459.27   3
   5   4   6 36836.1 2191.30   1
  -5  -4  -6 34972.6 2027.25   2
   5   4   6 30313.0 1513.82   3
   5   4   7 3074.96 498.004   3
  -5  -4  -7 4026.84 475.665   4
   5   4   7 3724.89 814.429   1
  -5  -4  -7 3955.82 740.871   2
   5   4   8 2040.44 685.774   1
  -5  -4  -8 2468.69 643.089   2
   5   4   8 1211.68 359.567   3
   5   4   9 215.537 553.138   6
   5   4   9 842.238 625.769   1
  -5  -4  -9 913.353 471.058   2
   5   4  10 809.529 619.172   6
  -5  -4 -10 504.413 453.808   2
   5   4  11 15098.0 1829.62   6
  -5  -4 -11 15216.0 1756.99   2
   5   4  12-276.145 490.427   6
  -5  -4 -12 1135.80 706.479   2
   5   4  13-579.552 612.223   6
   5   5 -10 2806.29 729.668   2
  -5  -5   9 407.822 405.666   3
   5   5  -9 1029.91 589.352   2
  -5  -5   8 3787.57 904.456   3
   5   5  -8 3216.20 741.184   1
  -5  -5   7 9465.85 1305.75   3
   5   5  -7 9642.85 1128.51   1
   5   5  -6 32168.5 1839.59   5
   5   5  -6 31680.7 1995.61   1
  -5  -5   6 30238.6 2193.50   3
   5   5  -5 10958.5 1088.08   5
   5   5  -5 10386.9 1153.89   1
  -5  -5   5 11906.8 1379.44   3
  -5  -5   4 5474.56 899.065   3
   5   5  -4 4906.70 800.799   1
   5   5  -4 4338.13 691.373   5
   5   5  -3 4656.23 789.294   1
  -5  -5   3 6476.47 960.311   3
   5   5  -3 5159.00 718.613   5
   5   5  -3 5228.90 735.429   4
   5   5  -2 4398.12 762.643   1
  -5  -5   2 3682.58 712.498   3
   5   5  -2 5339.66 726.112   5
   5   5  -2 5646.69 700.898   4
   5   5  -1 23369.6 1212.76   4
   5   5  -1 23651.8 1649.90   1
  -5  -5   1 19896.3 1549.13   3
   5   5   0 22008.6 1486.90   2
   5   5   0 23755.2 1079.81   4
   5   5   0 23743.7 1638.85   1
  -5  -5   0 23531.0 1623.41   3
   5   5   1 11792.3 1107.75   2
   5   5   1 12930.4 1244.16   1
  -5  -5  -2 24103.1 1529.01   2
   5   5   2 23063.1 1550.20   2
   5   5   2 24342.7 1682.26   1
  -5  -5  -3 9560.83 1039.08   2
   5   5   3 9383.18 1035.17   2
   5   5   3 10016.3 1123.73   1
   5   5   3 9872.67 1000.07   3
  -5  -5  -4 20050.0 1512.26   2
   5   5   4 23047.3 1704.84   1
   5   5   4 24042.7 1449.04   3
  -5  -5  -5 49200.3 2390.10   2
   5   5   5 50528.4 2576.02   1
   5   5   5 48705.4 1966.49   3
   5   5   6 7827.35 1102.11   1
   5   5   6 8297.76 780.313   3
  -5  -5  -6 7833.85 1023.02   2
   5   5   7 2257.77 395.537   3
   5   5   7 1237.66 553.248   1
  -5  -5  -7 2307.49 700.802   2
   5   5   8 1515.62 618.173   1
  -5  -5  -8 1017.00 483.940   2
   5   5   9 28421.5 2307.56   1
  -5  -5  -9 30015.7 2177.78   2
   5   5  10 23313.8 2252.24   6
  -5  -5 -10 24629.9 2109.10   2
   5   5  11 1849.81 874.758   6
  -5  -5 -11 1387.51 630.534   2
   5   5  12-35.3442 592.370   6
  -5  -5 -12 593.911 713.858   2
  -5  -6   8 8522.01 1354.49   3
  -5  -6   7 43284.1 2915.21   3
   5   6  -6 4341.09 747.451   1
  -5  -6   6 5500.84 1057.92   3
   5   6  -5 7156.76 1013.63   1
  -5  -6   5 5438.04 1052.67   3
   5   6  -5 6565.84 933.850   5
   5   6  -4 1674.62 558.428   1
  -5  -6   4 1576.46 606.901   3
   5   6  -4 1668.54 568.282   5
   5   6  -3 22098.4 1643.17   5
   5   6  -3 23043.2 1695.74   1
  -5  -6   3 25123.2 1973.05   3
   5   6  -2 15840.7 1380.25   5
   5   6  -2 15439.2 1137.56   4
   5   6  -2 15595.3 1390.21   1
  -5  -6   2 15007.7 1479.03   3
   5   6  -1 65547.4 2736.24   5
   5   6  -1 64448.9 2056.98   4
   5   6  -1 59747.2 2688.33   1
  -5  -6   1 63342.8 2901.18   3
  -5  -6   0 1830.96 532.204   3
   5   6   0 1565.64 505.891   5
   5   6   0 2073.61 337.191   4
   5   6   0 1202.93 464.679   1
  -5  -6  -1 2524.76 595.418   3
   5   6   1 2087.94 597.360   1
  -5  -6  -2 41.7623 295.762   3
   5   6   2 33.3347 405.290   1
  -5  -6  -3 9676.45 1128.98   2
   5   6   3 9211.61 1150.05   1
  -5  -6  -3 11440.4 1105.84   3
  -5  -6  -4 15245.1 1452.59   2
   5   6   4 16097.3 1543.51   1
   5   6   4 17454.8 1286.31   3
   5   6   5 261.324 268.061   3
   5   6   5 28.1097 542.447   1
  -5  -6  -5 343.883 359.776   2
   5   6   6 354.965 294.655   3
   5   6   6-376.606 489.910   1
  -5  -6  -6 177.906 341.576   2
   5   6   7 9008.12 1327.77   1
  -5  -6  -7 7392.06 1125.21   2
   5   6   8 73937.4 3657.45   1
  -5  -6  -8 70201.5 3371.54   2
   5   6   9 11436.4 1546.92   1
  -5  -6  -9 10136.6 1377.96   2
   5   6  10 10492.9 1640.32   6
  -5  -6 -10 8842.50 1378.74   2
   5   6  11 3751.14 1153.29   6
  -5  -6 -11 4180.09 1058.42   2
   5   6  12 6836.46 1440.13   6
  -5  -6 -12 9160.67 1459.05   2
  -5  -7   6 586.080 575.844   3
  -5  -7   5 409.414 564.586   3
   5   7  -5-568.151 535.318   5
   5   7  -4 13876.7 1471.11   5
   5   7  -4 14147.4 1377.92   1
  -5  -7   4 14449.8 1652.58   3
   5   7  -3 12407.8 1399.21   5
   5   7  -3 13971.4 1378.87   1
  -5  -7   3 14135.2 1602.65   3
   5   7  -2 15817.9 1529.15   5
   5   7  -2 15241.4 1467.24   1
  -5  -7   2 13396.4 1497.24   3
  -5  -7   1 1110.81 485.595   3
   5   7  -1 2203.61 655.513   5
   5   7  -1 1007.08 519.928   1
   5   7   0 21801.9 1757.04   5
   5   7   0 21317.8 1711.05   1
  -5  -7   0 20640.2 1758.29   3
   5   7   1 9801.76 1194.62   5
   5   7   1 10038.0 1232.97   1
  -5  -7  -1 11195.5 1246.14   3
   5   7   2 33710.4 2181.34   1
  -5  -7  -2 31149.6 2030.93   3
  -5  -7  -3 9277.30 1205.95   2
   5   7   3 10641.4 1295.16   1
  -5  -7  -3 10428.4 1154.58   3
  -5  -7  -4-472.642 355.532   3
   5   7   4-566.512 618.258   1
  -5  -7  -4 81.0506 343.324   2
   5   7   5 37.7533 525.564   1
  -5  -7  -5 672.558 510.574   2
  -5  -7  -6 18221.4 1716.66   2
   5   7   6 19857.4 1946.81   1
   5   7   7 14328.8 1708.01   1
  -5  -7  -7 14943.5 1613.38   2
   5   7   8-147.610 600.572   1
  -5  -7  -8-169.146 446.279   2
  -5  -7  -9-141.315 428.482   2
   5   7  10 1421.94 761.677   6
  -5  -7 -10 3326.52 885.032   2
   5   7  11 8287.16 1526.38   6
  -5  -7 -11 8728.45 1469.34   2
   5   8  -6 1033.03 630.751   5
   5   8  -5 7706.27 1284.03   5
  -5  -8   4 4682.37 1052.26   3
   5   8  -4 3492.74 857.772   5
  -5  -8   3 734.542 543.166   3
   5   8  -3 1475.05 534.216   5
  -5  -8   2 866.422 426.851   3
   5   8  -2 700.238 556.330   5
   5   8  -2 1243.97 623.607   1
   5   8  -1 18897.6 1834.58   5
   5   8  -1 18682.0 1699.48   1
  -5  -8   1 20863.5 1963.16   3
   5   8   0 26486.2 2131.88   5
   5   8   0 22680.8 1902.59   1
  -5  -8   0 25691.1 2087.78   3
   5   8   1 13240.1 1499.74   5
   5   8   1 12474.5 1431.93   1
  -5  -8  -1 16328.6 1617.23   3
  -5  -8  -2 7454.92 1106.55   3
   5   8   2 7493.18 1129.36   5
   5   8   2 7698.68 1180.17   1
  -5  -8  -3-109.217 328.852   3
   5   8   3-40.8299 509.324   1
  -5  -8  -4 20814.7 1914.56   2
   5   8   4 23340.4 2089.63   1
  -5  -8  -4 25925.2 1840.10   3
  -5  -8  -5 20032.5 1926.86   2
   5   8   5 19448.0 1948.90   1
  -5  -8  -5 21352.6 1623.97   3
  -5  -8  -6 6000.31 844.370   3
   5   8   6 5810.70 1121.98   1
  -5  -8  -6 5687.18 1066.67   2
   5   8   7 1959.40 807.061   1
  -5  -8  -7 1569.97 694.949   2
  -5  -8  -8 631.027 490.096   2
  -5  -8  -9 1154.87 646.708   2
   5   8  10 7509.67 1527.33   6
  -5  -8 -10 6730.51 1261.64   2
   5   9  -4-189.758 551.621   5
   5   9  -3-5.12980 520.848   5
   5   9  -2 6369.23 1153.78   5
  -5  -9   1 12615.6 1668.29   3
   5   9  -1 10043.3 1463.09   5
  -5  -9   0 911.339 544.270   3
   5   9   0 473.896 490.314   5
   5   9   0 260.051 470.320   1
  -5  -9  -1-162.906 570.898   3
   5   9   1-383.653 484.778   5
   5   9   1 42.2047 514.435   1
  -5  -9  -2-627.004 516.228   3
   5   9   2-993.376 764.273   1
   5   9   2-335.010 493.536   5
  -5  -9  -3 9381.05 1303.67   3
   5   9   3 11053.6 1489.72   1
   5   9   4 16855.3 1905.31   1
  -5  -9  -4 16598.4 1650.73   3
   5   9   5 11001.7 1612.41   1
  -5  -9  -5 11682.6 1622.74   2
  -5  -9  -5 10547.4 1259.62   3
   5   9   6 1266.35 802.933   1
  -5  -9  -6 1533.99 686.919   2
  -5  -9  -7 479.855 458.734   2
  -5  -9  -8 6808.63 1265.99   2
  -5  -9  -9 7103.91 1395.32   2
  -5 -10  -1 726.226 586.557   3
  -5 -10  -2 890.252 558.941   3
  -5 -10  -3 8182.43 1309.47   3
  -5 -10  -4 6080.03 1094.97   3
  -5 -10  -5 2025.03 702.199   3
   6  -4  -6 7125.99 1310.36   1
   6  -4  -5 3366.01 916.050   1
   6  -4  -4 4812.75 992.347   1
   6  -4  -3-479.075 621.916   1
   6  -3  -7 20939.6 2194.69   1
  -6   3   7 15747.1 1925.81   4
  -6   3   6 2156.30 767.483   4
   6  -3  -6 1824.85 798.673   1
   6  -3  -5 1200.75 591.404   1
  -6   3   5-275.152 575.438   4
   6  -3  -5 42.4504 615.423   3
   6  -3  -4 2579.94 853.964   1
  -6   3   4 2253.68 900.180   4
   6  -3  -4 2732.16 944.026   3
   6  -3  -3 7913.31 1235.62   1
  -6   3   3 6769.61 1286.81   4
   6  -3  -3 6467.02 1346.40   3
  -6   3   2 6037.97 1220.47   4
   6  -3  -2 7346.72 1116.97   1
   6  -3  -2 7927.83 1493.01   3
  -6   3   1 6811.28 1316.34   4
   6  -3  -1 10548.1 1300.63   1
   6  -3  -1 9565.12 1659.77   3
   6  -3   0 2144.49 947.610   3
   6  -3   0 1768.42 627.783   1
  -6   3   0 1263.33 702.840   4
   6  -3   1-546.393 959.049   3
  -6   2   9 22327.5 2294.67   4
   6  -2  -8 23049.1 2287.16   1
  -6   2   8 18114.8 2047.44   4
  -6   2   7 2694.01 778.625   4
   6  -2  -7 2219.54 802.679   1
  -6   2   6 252.730 520.806   4
   6  -2  -6 1621.77 694.995   1
   6  -2  -5 12279.3 1562.96   1
  -6   2   5 11386.5 1519.62   4
  -6   2   4 21594.8 2091.74   4
   6  -2  -4 21236.0 1921.14   1
   6  -2  -3 10228.6 1326.99   1
  -6   2   3 10871.7 1470.16   4
  -6   2   2 150.643 470.712   4
   6  -2  -2 367.728 390.133   1
  -6   2   1 989.004 608.519   4
   6  -2  -1 556.299 484.748   1
   6  -2  -1 998.719 646.425   3
   6  -2   0 1358.82 531.356   1
  -6   2   0 1198.54 614.137   4
   6  -2   0 2715.98 968.076   3
   6  -2   1 9493.68 1150.28   1
   6  -2   1 8679.25 1478.23   3
   6  -2   2 16226.3 1449.15   1
   6  -2   2 15240.2 2061.27   3
   6  -2   3 4000.71 1266.99   3
   6  -2   4 38.3591 586.449   3
   6  -2   5 1583.43 784.277   3
  -6   1   9 10397.5 1560.01   4
   6  -1  -9 9975.11 1518.01   1
  -6   1   8 1047.41 603.951   4
   6  -1  -8-458.711 556.865   1
  -6   1   7 1199.84 596.563   4
   6  -1  -7 1982.55 696.135   1
   6  -1  -6 11017.0 1471.57   1
  -6   1   6 9508.56 1335.87   4
   6  -1  -5 40318.2 2642.33   1
  -6   1   5 38578.2 2617.38   4
   6  -1  -4 6309.46 1068.39   1
  -6   1   4 6816.18 1148.51   4
   6  -1  -3 1140.59 506.072   1
  -6   1   3 1906.04 686.728   4
  -6   1   2 449.198 420.166   4
   6  -1  -2-458.306 556.537   1
  -6   1   1 12502.5 1462.27   4
   6  -1  -1 13888.0 1404.15   1
  -6   1   0 11985.7 1482.42   4
   6  -1   0 13737.9 1364.57   1
  -6   1  -1 19245.4 1834.01   4
   6  -1   1 21179.0 2083.93   3
   6  -1   1 20925.7 1623.43   1
   6  -1   2 1780.99 502.183   1
   6  -1   2 766.806 688.091   3
   6  -1   3 4691.14 784.700   1
   6  -1   3 4935.45 1156.30   3
   6  -1   4 903.563 779.086   3
   6  -1   4 1209.50 450.787   1
   6  -1   5 9976.99 1716.35   3
   6  -1   6 12185.9 1781.93   3
   6  -1   7 3594.69 1149.17   3
   6  -1   8 656.622 780.072   3
  -6   0  10 6559.72 1312.99   4
   6   0 -10 6306.53 1250.91   1
  -6   0   9 2010.94 757.298   4
   6   0  -9 1015.13 727.909   1
  -6   0   8 3176.05 813.075   4
   6   0  -8 3482.02 904.911   1
   6   0  -7 7052.98 1186.87   1
  -6   0   7 4710.92 961.031   4
   6   0  -6 21224.1 1940.46   1
  -6   0   6 18851.6 1760.79   4
  -6   0   5 15848.0 1591.38   4
   6   0  -5 17444.3 1725.30   1
   6   0  -4 43.8070 330.808   1
  -6   0   4-7.24709 406.066   4
   6   0  -3 2292.90 655.255   1
  -6   0   3 1897.50 649.721   4
  -6   0   2 13671.7 1442.50   4
   6   0  -2 13502.5 1409.29   1
  -6   0   1 57718.3 2892.72   4
   6   0  -1 59405.4 2807.40   1
   6   0   0 3867.15 758.533   1
  -6   0   0 4208.91 890.695   4
  -6   0  -1 9413.03 1230.66   4
   6   0   1 9570.32 1117.91   1
   6   0   2 10624.1 1171.38   1
   6   0   3 854.744 443.353   1
   6   0   3 1017.19 618.308   3
   6   0   4 7400.11 987.276   1
   6   0   4 5821.18 1172.30   3
   6   0   5 7533.90 989.338   1
   6   0   5 6048.16 1196.86   3
   6   0   6 7865.74 1460.03   3
   6   0   6 8486.90 1064.40   1
   6   0   7 3368.81 926.243   3
   6   0   8 8990.70 1498.94   3
   6   1 -11 10387.3 1467.41   1
   6   1 -10 1022.40 610.850   1
  -6  -1  10 1987.12 737.020   4
   6   1  -9 2980.69 804.233   1
  -6  -1   9 3094.86 839.546   4
   6   1  -8 146.261 495.663   1
  -6  -1   8 74.3167 421.720   4
  -6  -1   7 21761.1 1861.27   4
   6   1  -7 24521.8 2061.75   1
  -6  -1   6 29928.0 2127.86   4
   6   1  -6 27489.7 2133.84   1
   6   1  -5 470.181 562.175   1
  -6  -1   5 18.0728 430.952   4
   6   1  -4 393.089 294.734   1
  -6  -1   4-57.5288 404.420   4
  -6  -1   3 11804.4 1226.78   4
   6   1  -3 11857.4 1320.58   1
  -6  -1   2 83456.7 3168.12   4
   6   1  -2 88543.0 3434.90   1
  -6  -1   1 3948.40 727.763   4
   6   1  -1 4512.64 833.947   1
  -6  -1   0 23785.3 1717.47   4
   6   1   0 23382.3 1740.70   1
   6   1   1 1086.79 524.853   1
  -6  -1  -1 356.247 356.919   4
  -6  -1  -2 20396.9 1614.34   4
   6   1   2 21782.3 1634.61   1
   6   1   3 4793.30 790.084   1
  -6  -1  -3 3010.12 414.411   2
  -6  -1  -4 5996.10 645.217   2
   6   1   4 5144.81 821.665   1
  -6  -1  -5 856.862 246.703   2
   6   1   5 687.419 416.541   1
   6   1   5-26.9796 569.631   3
  -6  -1  -6 1658.70 476.255   2
   6   1   6 817.950 369.863   1
   6   1   6 472.348 613.022   3
   6   1   7 11091.5 1508.26   3
   6   1   7 13735.8 1378.86   1
  -6  -1  -7 14870.6 1316.65   2
   6   1   8 3752.00 970.379   3
   6   2 -11 173.020 479.042   1
   6   2 -10 21124.8 2058.06   1
   6   2  -9 977.333 517.100   1
  -6  -2   8 40790.8 2608.84   4
   6   2  -8 44120.0 2794.70   1
   6   2  -7 5728.99 724.538   2
   6   2  -7 5829.05 1032.64   1
  -6  -2   7 6021.59 1025.65   4
   6   2  -6 905.118 475.283   1
   6   2  -6 408.055 281.445   2
  -6  -2   6 904.593 442.154   4
   6   2  -5 189.252 161.960   2
  -6  -2   5-428.306 503.685   4
   6   2  -5 60.7523 385.530   1
  -6  -2   4 28443.2 1817.44   4
   6   2  -4 26784.6 933.338   2
  -6  -2   3 18371.6 1411.97   4
   6   2  -3 20173.3 1669.88   1
  -6  -2   2 580.468 223.889   5
  -6  -2   2 366.425 327.205   4
   6   2  -2 341.401 336.638   1
  -6  -2   1 489.576 197.774   5
   6   2  -1 816.909 419.662   1
  -6  -2   1-31.3847 372.060   4
   6   2   0-60.0342 402.963   1
  -6  -2   0-174.267 386.825   4
  -6  -2  -1 96425.3 3003.19   4
   6   2   1 102659. 3540.64   1
  -6  -2  -2 10115.5 560.581   2
  -6  -2  -2 13207.1 1176.52   4
   6   2   2 13880.2 1322.63   1
   6   2   3-412.836 466.795   1
  -6  -2  -3-332.366 390.907   4
  -6  -2  -3-166.467 214.519   2
  -6  -2  -4 271.977 253.558   2
   6   2   4-191.976 341.395   1
  -6  -2  -5 27816.3 1550.52   2
   6   2   5 27204.3 1863.14   1
   6   2   6 17358.6 1526.41   1
  -6  -2  -6 18222.8 1374.24   2
   6   2   6 14587.3 1602.35   3
   6   2   7 20552.9 1705.89   1
   6   2   7 16687.0 1768.44   3
  -6  -2  -8 5027.71 802.841   2
   6   2   8 3927.07 928.823   3
   6   2   8 4468.15 998.146   6
   6   2   8 6002.86 1063.81   1
  -6  -2  -9 1839.58 636.863   2
   6   2   9 1514.22 567.636   1
  -6  -2 -10 869.333 478.076   2
   6   3 -11 8006.61 1282.85   1
   6   3 -10 12385.8 1549.18   1
   6   3  -9 7196.98 1018.41   2
   6   3  -9 6791.39 1154.23   1
   6   3  -8 197.272 286.641   2
   6   3  -8-139.808 424.204   1
   6   3  -7 1880.20 512.637   2
   6   3  -7 1767.11 587.809   1
   6   3  -6 6603.34 786.601   2
   6   3  -6 7316.22 1110.95   1
  -6  -3   5 29821.1 1932.52   4
   6   3  -5 29938.7 1483.46   2
   6   3  -5 33847.4 2209.85   1
   6   3  -4 6742.62 691.435   2
  -6  -3   4 7152.00 908.694   4
   6   3  -4 6242.35 650.539   2
   6   3  -4 6661.16 999.742   1
  -6  -3   3 934.157 367.224   4
   6   3  -3 1611.03 552.461   1
   6   3  -3 1635.98 343.112   2
   6   3  -2 10018.5 690.877   2
  -6  -3   2 10801.6 982.059   4
   6   3  -2 12612.1 1322.06   1
  -6  -3   1 30013.9 1428.54   5
  -6  -3   1 28737.9 1490.66   4
   6   3  -1 27864.6 1024.82   2
   6   3  -1 30974.2 2004.71   1
  -6  -3   0 99972.0 2725.96   5
  -6  -3   0 94036.4 2600.35   4
   6   3   0 97801.8 3481.30   1
  -6  -3  -1 28860.9 1546.14   5
  -6  -3  -1 28384.7 1408.62   4
   6   3   1 25110.9 990.387   2
   6   3   1 30985.2 1970.32   1
   6   3   2 4378.40 768.495   1
  -6  -3  -2 5527.02 530.597   2
   6   3   2 4302.06 477.031   2
  -6  -3  -2 4891.04 612.942   4
   6   3   3 1155.46 270.445   2
  -6  -3  -3 1354.66 384.357   4
  -6  -3  -3 1731.21 394.028   2
   6   3   3 2208.84 613.041   1
  -6  -3  -4 36747.3 1713.92   2
  -6  -3  -4 35069.9 1665.66   4
   6   3   4 33571.7 2068.99   1
   6   3   4 29821.9 1496.02   2
  -6  -3  -5 34901.9 1828.39   2
   6   3   5 32250.1 2062.52   1
   6   3   5 28450.9 1578.79   2
  -6  -3  -6 8297.11 977.939   2
   6   3   6 8524.90 1130.82   1
   6   3   7-224.819 513.024   1
  -6  -3  -7-225.561 324.513   2
   6   3   7 244.718 477.982   3
   6   3   8-244.039 576.840   1
  -6  -3  -8 457.636 395.174   2
   6   3   8-592.131 576.549   3
   6   3   9 880.955 575.595   6
   6   3   9 1382.28 734.189   1
  -6  -3  -9 609.107 429.642   2
   6   3  10 6686.08 1264.26   6
   6   3  10 8847.85 1434.91   1
  -6  -3 -10 6956.74 1212.23   2
  -6  -3 -11 7651.44 1295.41   2
   6   4 -10 1196.59 497.311   2
   6   4 -10 1337.51 612.964   1
   6   4  -9 52.9407 305.072   2
   6   4  -9-112.244 586.795   1
   6   4  -8 2234.67 609.137   2
   6   4  -8 4433.01 974.855   1
   6   4  -7 16926.9 1499.08   2
   6   4  -7 19133.2 1754.13   1
   6   4  -6 18329.4 1678.44   1
   6   4  -5 11963.4 1343.17   1
   6   4  -4 5778.93 962.064   1
   6   4  -4 5610.73 737.164   2
   6   4  -3 1141.84 543.988   1
   6   4  -3 1561.20 349.302   2
   6   4  -2 23740.5 1373.32   2
  -6  -4   2 23218.2 1372.24   4
   6   4  -2 24351.4 1564.76   4
   6   4  -2 24643.8 1842.34   1
   6   4  -1 55978.1 2062.32   2
  -6  -4   1 56383.0 1970.81   4
   6   4  -1 60562.1 2786.52   1
  -6  -4   0 21375.3 1363.42   5
  -6  -4   0 20089.7 1094.70   4
   6   4   0 20515.0 1214.41   2
   6   4   0 19981.2 1630.72   1
   6   4   1 1854.61 370.976   2
   6   4   1 1483.01 556.353   1
  -6  -4  -1 920.378 352.990   5
  -6  -4  -1 2022.52 358.449   4
   6   4   2 178.983 380.154   1
   6   4   2 769.492 322.794   2
  -6  -4  -2 75.8320 172.537   4
  -6  -4  -2 702.609 270.462   2
  -6  -4  -3 28974.7 1525.65   2
  -6  -4  -3 28122.3 1062.42   4
   6   4   3 28799.4 1950.67   1
   6   4   3 27721.4 1451.57   2
  -6  -4  -4 14874.1 1189.03   2
  -6  -4  -4 14725.9 790.177   4
   6   4   4 12226.2 1019.50   2
   6   4   5 617.058 247.348   2
  -6  -4  -5 828.031 268.810   4
   6   4   5 1203.41 545.262   1
  -6  -4  -5 1513.82 469.105   2
   6   4   6 23.2357 460.965   1
  -6  -4  -6 258.813 280.973   2
   6   4   7 7614.32 1152.77   1
  -6  -4  -7 6936.36 1031.86   2
   6   4   8 7237.08 1198.43   1
  -6  -4  -8 6411.74 1015.87   2
   6   4   8 3976.44 699.331   3
   6   4   9 10307.1 1430.44   1
  -6  -4  -9 5836.85 1058.35   2
   6   4  10 2697.19 850.308   6
   6   4  10 3339.01 1009.73   1
  -6  -4 -10 2505.33 823.365   2
   6   4  11 6283.22 1249.02   6
  -6  -4 -11 6450.05 1176.55   2
   6   4  12 2515.55 906.767   6
  -6  -4 -12-401.553 704.046   2
   6   5 -10 1924.45 699.893   2
   6   5  -9 2792.78 815.561   2
   6   5  -8 10167.6 1347.08   1
   6   5  -8 10070.2 1410.13   2
   6   5  -7 9951.16 1269.97   1
   6   5  -6 2466.14 778.981   1
   6   5  -5 9042.04 1179.23   1
   6   5  -4 4004.76 804.942   1
   6   5  -3 5045.38 883.512   1
   6   5  -2 26456.0 1565.59   4
   6   5  -2 28116.6 1956.57   1
   6   5  -1 14577.9 1256.50   2
   6   5  -1 17056.3 1178.14   4
   6   5  -1 17180.1 1526.66   1
   6   5   0 757.059 500.874   1
   6   5   0-8.45437 274.343   2
   6   5   1 152.155 425.294   1
   6   5   1 313.164 245.672   2
   6   5   2 12761.4 1158.69   2
   6   5   2 12211.3 1305.48   1
  -6  -5  -3 17481.4 1322.54   2
   6   5   3 15039.6 1223.71   2
   6   5   3 16712.5 1523.95   1
   6   5   4 3690.11 824.197   1
  -6  -5  -4 3604.96 713.614   2
   6   5   5 1069.45 574.278   1
  -6  -5  -5 898.932 450.767   2
   6   5   6 8694.40 1235.38   1
  -6  -5  -6 5645.99 887.477   2
   6   5   7 40028.4 2615.48   1
  -6  -5  -7 38118.1 2320.04   2
   6   5   8 6995.60 1195.92   1
  -6  -5  -8 6545.10 1043.15   2
   6   5   9 2981.02 927.341   1
  -6  -5  -9 560.745 626.701   2
   6   5  10 4041.85 1127.36   6
   6   5  10 6337.39 1330.10   1
  -6  -5 -10 5689.28 1101.81   2
   6   5  11 2733.13 1052.01   6
  -6  -5 -11 2507.92 720.671   2
   6   6  -7-127.198 472.488   1
  -6  -6   7 576.039 591.224   3
   6   6  -6 1390.16 647.513   1
  -6  -6   6 945.336 580.438   3
   6   6  -5-283.210 544.617   1
  -6  -6   5 1007.58 514.591   3
   6   6  -4 911.345 483.107   1
  -6  -6   4 681.224 485.098   3
   6   6  -4 1193.07 360.855   5
   6   6  -3 10655.9 1294.68   1
  -6  -6   3 10631.2 1346.61   3
   6   6  -2 626.055 451.479   1
  -6  -6   2 687.557 453.189   3
   6   6  -1 8035.63 1131.54   1
  -6  -6   1 9274.73 1216.50   3
   6   6   0 2515.70 708.289   1
   6   6   1 22491.3 1825.58   1
   6   6   2 47102.0 2598.09   1
  -6  -6  -3 3532.06 688.295   2
   6   6   3 5512.66 980.786   1
   6   6   4 495.225 516.366   1
  -6  -6  -4-447.105 377.614   2
   6   6   5 4109.38 871.856   1
  -6  -6  -5 3757.11 756.218   2
  -6  -6  -6 90919.8 3641.70   2
   6   6   6 97827.4 4050.54   1
   6   6   7 81.7273 693.667   1
  -6  -6  -7 197.820 353.787   2
   6   6   8 1714.80 686.875   1
  -6  -6  -8 1852.17 674.511   2
   6   6   9 3142.84 961.319   1
  -6  -6  -9 1465.54 664.766   2
   6   6  10 11015.0 1675.39   1
  -6  -6 -10 8408.02 1401.34   2
   6   6  11 8534.64 1580.90   6
  -6  -6 -11 10514.5 1543.73   2
  -6  -7   5 11743.9 1599.66   3
   6   7  -5 10319.4 1295.18   1
  -6  -7   4 1836.18 711.698   3
   6   7  -4 1480.46 535.209   5
   6   7  -4 1180.11 528.328   1
  -6  -7   3 4127.13 906.998   3
   6   7  -3 3027.00 725.555   5
   6   7  -3 3493.04 745.435   1
   6   7  -2 17511.6 1602.43   5
   6   7  -2 16893.4 1609.85   1
  -6  -7   2 17043.1 1741.42   3
  -6  -7   1 1219.18 556.105   3
   6   7  -1 1562.68 587.076   1
   6   7   0 33745.1 2327.53   1
  -6  -7   0 38581.8 2460.44   3
   6   7   1 12253.5 1421.28   1
  -6  -7  -1 14662.7 1485.97   3
  -6  -7  -2 1571.14 591.281   3
   6   7   2 1639.04 621.925   1
   6   7   3 2494.08 732.609   1
  -6  -7  -4 19216.7 1738.94   2
   6   7   4 24390.3 2048.77   1
  -6  -7  -5 44298.9 2619.27   2
   6   7   5 48866.2 2943.77   1
   6   7   6 1945.80 753.841   1
  -6  -7  -6 1503.43 567.340   2
   6   7   7 1122.08 597.955   1
  -6  -7  -7 277.110 419.017   2
   6   7   8 6140.23 1303.66   1
  -6  -7  -8 6405.98 1118.76   2
   6   7   9 24704.3 2409.40   1
  -6  -7  -9 20043.0 2079.19   2
   6   7  10 14229.7 1906.19   1
  -6  -7 -10 11221.9 1597.04   2
  -6  -7 -11 5298.04 1180.83   2
   6   8  -4 963.831 433.211   5
  -6  -8   3 8001.71 1384.36   3
   6   8  -3 4919.76 1066.77   5
   6   8  -3 7292.92 1193.87   1
   6   8  -2 12627.8 1492.84   5
   6   8  -2 14203.9 1606.38   1
  -6  -8   2 16978.5 1847.04   3
   6   8  -1 10414.6 1373.68   5
   6   8  -1 8965.03 1232.57   1
  -6  -8   1 11824.6 1558.76   3
  -6  -8   0 406.357 401.613   3
   6   8   0 1604.40 717.785   1
  -6  -8  -1 1058.28 547.836   3
   6   8   1-353.599 617.380   1
  -6  -8  -2 348.448 388.823   3
   6   8   2-237.918 468.132   1
   6   8   3 14706.1 1689.52   1
  -6  -8  -3 16027.5 1579.23   3
   6   8   4 10120.8 1435.78   1
  -6  -8  -5 13771.6 1646.08   2
   6   8   5 16486.8 1827.24   1
   6   8   6 3405.01 1010.91   1
  -6  -8  -6 1496.96 628.495   2
   6   8   7 932.013 595.061   1
  -6  -8  -7 2509.95 893.753   2
   6   8   8 20274.6 2222.44   1
  -6  -8  -8 15552.9 1849.27   2
  -6  -8  -9 17342.0 1958.92   2
  -6  -8 -10 723.178 608.110   2
   6   9  -3 19166.0 2059.16   5
   6   9  -2 2476.12 816.199   5
  -6  -9   1-738.104 647.719   3
   6   9  -1-30.5425 560.505   5
   6   9  -1 669.294 632.708   1
  -6  -9   0 242.932 502.606   3
   6   9   0 211.762 421.180   5
   6   9   0 438.112 636.727   1
  -6  -9  -1 3409.24 921.799   3
   6   9   1 2809.18 909.531   1
  -6  -9  -2 5767.37 1053.49   3
   6   9   2 2574.32 884.691   1
  -6  -9  -3 3135.07 820.464   3
   6   9   3 3678.91 1058.96   1
  -6  -9  -4 6827.20 1120.91   3
   6   9   4 5831.88 1170.30   1
  -6  -9  -5 464.819 308.065   3
   6   9   5 672.290 671.005   1
   6   9   6 3272.86 1072.02   1
  -6  -9  -6 3551.59 973.259   2
   6   9   7 11984.4 1822.92   1
  -6  -9  -7 8055.96 1421.66   2
  -6  -9  -8 10074.9 1556.41   2
   6  10   1 8773.62 1455.74   1
  -6 -10  -2 556.957 622.445   3
   6  10   2 1043.05 704.353   1
  -6 -10  -3 2580.09 801.395   3
   6  10   3 2861.82 1022.36   1
  -6 -10  -4 1504.27 642.290   3
   6  10   4 1589.01 905.828   1
   7  -3  -4 3474.68 935.882   1
   7  -3  -3 11013.8 1533.23   1
   7  -3  -2 754.994 530.298   1
   7  -2  -5 9192.01 1447.09   1
  -7   2   5 7589.18 1424.54   4
   7  -2  -4 5450.46 1082.91   1
  -7   2   4 2282.96 884.265   4
  -7   2   3 6229.40 1253.29   4
   7  -2  -3 7711.13 1356.14   1
  -7   2   2 650.971 676.033   4
   7  -2  -2 369.417 524.057   1
   7  -2  -1 1937.97 810.617   1
  -7   2   1 1128.91 806.698   4
  -7   2   0 12913.0 1873.14   4
   7  -2   0 18797.4 1819.82   1
  -7   1   7 14543.0 1854.54   4
   7  -1  -7 21518.6 2231.07   1
  -7   1   6 11262.1 1586.45   4
   7  -1  -6 13318.4 1705.03   1
   7  -1  -5 9156.07 1423.49   1
  -7   1   5 9152.45 1455.44   4
  -7   1   4 43.8149 510.465   4
   7  -1  -4-240.043 431.102   1
  -7   1   3 2823.88 863.775   4
   7  -1  -3 3474.86 891.858   1
  -7   1   2 10186.3 1483.16   4
   7  -1  -2 10991.1 1481.66   1
   7  -1  -1 6056.03 1110.15   1
  -7   1   1 5775.78 1208.18   4
   7  -1   0 205.111 496.746   1
  -7   1   0-419.981 484.806   4
   7  -1   1 583.619 387.314   1
  -7   1  -1 678.239 535.446   4
   7  -1   1 318.741 580.060   3
   7  -1   2 4512.95 855.559   1
  -7   1  -2 4007.82 1001.17   4
   7  -1   2 4489.58 1214.08   3
   7  -1   3 1165.90 805.819   3
  -7   0   8 7940.82 1376.17   4
   7   0  -7 4275.09 1036.92   1
  -7   0   7 2464.84 858.339   4
  -7   0   6 14193.0 1664.14   4
   7   0  -6 17121.0 1887.02   1
   7   0  -5 1134.29 581.526   1
  -7   0   5 1374.55 569.705   4
  -7   0   4 27352.0 2241.05   4
   7   0  -4 30652.7 2389.63   1
  -7   0   3 21378.8 1952.02   4
   7   0  -3 21058.8 1972.14   1
  -7   0   2 5647.68 1036.40   4
   7   0  -2 9577.13 1362.49   1
   7   0  -1 759.652 554.597   1
  -7   0   1-16.5595 480.766   4
   7   0   0 867.931 419.481   1
  -7   0   0 234.243 603.544   4
   7   0   1 2234.84 704.513   1
  -7   0  -1 1739.01 616.309   4
   7   0   2 1446.93 598.433   1
  -7   0  -2 2425.07 659.669   4
   7   0   2 2016.46 822.886   3
   7   0   3 3276.38 782.127   1
   7   0   3 2135.01 870.389   3
   7   0   4 2010.19 658.658   1
   7   0   4-473.570 693.514   3
   7   0   5 799.558 943.705   3
   7   0   6 1180.95 985.984   3
   7   0   7 8747.55 1636.51   3
  -7  -1   9 2966.17 902.832   4
   7   1  -8 1735.93 639.404   1
  -7  -1   8 2015.11 793.561   4
   7   1  -7 299.564 590.930   1
  -7  -1   7 621.658 577.571   4
   7   1  -6 369.323 389.818   1
  -7  -1   6-104.190 555.259   4
  -7  -1   5 9518.37 1248.34   4
   7   1  -5 13746.1 1631.19   1
  -7  -1   4 9137.18 1259.73   4
   7   1  -4 11069.6 1458.46   1
  -7  -1   3 3803.66 789.887   4
   7   1  -3 4568.05 981.616   1
  -7  -1   2 2053.84 638.240   4
   7   1  -2 3291.06 781.230   1
   7   1  -1 3654.52 865.576   1
  -7  -1   1 2354.00 771.442   4
  -7  -1   0 12397.4 1416.83   4
   7   1   0 12100.0 1395.27   1
  -7  -1  -1 35284.8 2342.08   4
   7   1   1 44865.8 2620.62   1
   7   1   2 6863.51 1068.63   1
  -7  -1  -2 6087.33 1045.64   4
   7   1   3-654.841 552.905   1
  -7  -1  -3-75.8941 423.094   4
   7   1   4-263.158 438.490   1
   7   1   4 106.459 541.601   3
   7   1   5 2481.63 678.984   1
   7   1   5 3189.05 1044.54   3
   7   1   6 5469.74 935.364   1
   7   1   6 3953.19 1088.80   3
   7   1   7 10495.2 1763.35   3
  -7  -2   9 3121.11 917.902   4
   7   2  -8 8001.38 1346.49   1
  -7  -2   8 8145.50 1282.46   4
  -7  -2   7 823.457 571.292   4
   7   2  -7 1253.93 578.082   1
  -7  -2   6 5161.99 976.897   4
   7   2  -6 4501.44 929.494   1
  -7  -2   5 5244.59 869.675   4
   7   2  -5 7319.11 1225.46   1
  -7  -2   4 809.436 471.848   4
   7   2  -4 511.099 427.440   1
  -7  -2   3 1143.72 482.680   4
   7   2  -3 864.666 471.288   1
   7   2  -2-50.4720 444.656   1
  -7  -2   2 298.088 356.070   4
  -7  -2   1 37774.7 2164.27   4
   7   2  -1 42259.5 2586.34   1
  -7  -2   0 61470.0 2708.92   4
   7   2   0 65829.6 3163.02   1
  -7  -2  -1 12254.3 1240.32   4
   7   2   1 12922.2 1400.43   1
   7   2   2 2366.70 686.782   1
  -7  -2  -2 1654.08 556.651   4
   7   2   3 9331.69 1192.43   1
  -7  -2  -3 7991.13 1055.08   4
  -7  -2  -4 5691.09 969.130   4
   7   2   4 7012.56 1100.45   1
   7   2   5 31496.5 2209.82   1
   7   2   6 1368.70 700.450   1
   7   2   6 1149.87 549.771   3
   7   2   7 4.02518 582.559   1
   7   2   7-106.856 907.250   3
   7   3  -9 259.979 407.882   1
   7   3  -8 8199.86 1321.29   1
   7   3  -7 28890.0 2370.27   1
  -7  -3   6 14575.4 1493.94   4
   7   3  -6 18395.0 1842.04   1
  -7  -3   5 7315.66 1043.32   4
   7   3  -5 5943.07 1053.91   1
  -7  -3   4 5508.78 923.227   4
   7   3  -4 6435.17 1086.82   1
   7   3  -3 3323.77 791.409   1
  -7  -3   3 3714.58 706.965   4
  -7  -3   2 13004.1 1180.89   4
   7   3  -2 18056.5 1718.82   1
  -7  -3   1 16988.6 1315.56   4
   7   3  -1 17917.2 1693.88   1
   7   3   0-395.240 502.380   1
  -7  -3   0-27.3174 326.995   4
   7   3   1 244.474 384.820   1
  -7  -3  -1 183.273 365.811   4
   7   3   2 7059.21 1074.60   1
  -7  -3  -2 6475.50 786.322   4
  -7  -3  -3 15733.7 1240.23   4
   7   3   3 18890.5 1695.60   1
  -7  -3  -4 26371.4 1648.63   4
   7   3   4 30363.6 2163.28   1
  -7  -3  -5 42.0183 326.073   4
   7   3   5 1263.92 651.082   1
   7   3   6 6340.80 1097.56   1
   7   3   7 5190.05 996.906   1
   7   3   7 2596.76 786.498   3
   7   3   8 16575.9 1850.75   1
   7   3   9 4909.53 1127.54   1
   7   4  -9 7344.16 1186.03   1
   7   4  -8 27024.5 2303.34   1
   7   4  -7 10008.3 1386.74   1
   7   4  -6 7524.46 1237.62   1
   7   4  -5 1595.55 463.146   1
   7   4  -4 23153.0 2002.87   1
  -7  -4   3 11083.8 1164.53   4
   7   4  -3 13342.6 1501.93   1
   7   4  -2 3310.46 791.360   1
  -7  -4   2 3193.17 598.719   4
   7   4  -1 1375.82 658.446   1
  -7  -4   1 778.404 328.682   4
   7   4   0 962.604 577.551   1
  -7  -4   0 1000.06 343.044   4
   7   4   1 7932.59 1147.05   1
  -7  -4  -1 6088.19 663.378   4
   7   4   2 5158.98 924.236   1
  -7  -4  -2 6141.41 650.402   4
  -7  -4  -3 722.142 279.043   2
   7   4   3 1575.98 501.582   1
  -7  -4  -4 437.266 279.553   2
   7   4   4 728.972 503.008   1
  -7  -4  -5 8908.85 965.081   2
   7   4   5 9391.19 1274.34   1
  -7  -4  -6 32496.7 1978.23   2
   7   4   6 38243.3 2574.24   1
  -7  -4  -7 19182.6 1693.22   2
   7   4   7 24663.7 2108.90   1
   7   4   8 6477.47 1122.03   1
   7   4   9 995.899 630.753   1
   7   4  10 3576.32 1064.57   6
   7   4  10 5154.16 1187.47   1
   7   5  -9 5720.96 1221.44   1
   7   5  -8 445.781 546.599   1
   7   5  -7 226.381 481.968   1
   7   5  -6 2906.39 785.955   1
   7   5  -5 11946.4 1469.68   1
   7   5  -4 14619.0 1583.33   1
   7   5  -3 4012.56 884.918   1
   7   5  -2 3096.53 773.386   1
   7   5  -1 6446.08 1067.26   1
   7   5   0 33945.0 2331.75   1
   7   5   1 8726.89 1214.60   1
   7   5   2 11175.9 1382.97   1
  -7  -5  -3 5050.87 726.265   2
   7   5   3 7107.68 1106.45   1
  -7  -5  -4 2342.81 543.138   2
   7   5   4 1884.00 594.305   1
  -7  -5  -5 17576.2 1459.20   2
   7   5   5 19481.3 1837.04   1
  -7  -5  -6 10233.1 1198.36   2
   7   5   6 10563.1 1390.01   1
   7   5   7-1030.66 708.037   1
  -7  -5  -7 45.1449 420.876   2
   7   5   8-244.291 529.744   1
  -7  -5  -8 640.091 368.477   2
   7   5   9 5378.38 1134.60   1
  -7  -5  -9 3321.18 857.122   2
   7   5  10 5140.31 1437.08   6
   7   5  10 3448.27 1064.04   1
  -7  -5 -10 5361.42 1147.85   2
   7   6  -7-256.288 819.167   1
   7   6  -6 11479.6 1510.64   1
   7   6  -5 3162.72 843.805   1
   7   6  -4 1992.20 742.263   1
   7   6  -3 608.387 463.683   1
   7   6  -2 17642.8 1726.91   1
   7   6  -1 19108.3 1814.08   1
   7   6   0 54566.7 3022.49   1
   7   6   1 11082.9 1413.86   1
   7   6   2 2136.11 717.826   1
   7   6   3 3662.00 868.524   1
  -7  -6  -4 10533.6 1172.98   2
   7   6   4 13846.4 1621.03   1
   7   6   5 13389.6 1592.95   1
  -7  -6  -5 8351.33 1148.40   2
   7   6   6 1938.94 757.929   1
  -7  -6  -6 1013.30 494.703   2
   7   6   7 3160.03 904.802   1
  -7  -6  -7 2044.23 710.980   2
   7   6   8 568.637 594.769   1
  -7  -6  -8 2438.24 778.939   2
   7   6   9 17051.0 2055.20   1
  -7  -6  -9 13909.6 1748.16   2
  -7  -6 -10 3442.91 1008.84   2
   7   7  -5-204.805 521.198   1
   7   7  -4 490.618 604.474   1
   7   7  -3 4367.61 866.418   1
   7   7  -2 4727.60 1000.60   1
   7   7  -1 32864.9 2382.58   1
   7   7   0 254.386 505.542   1
   7   7   1 449.337 427.792   1
   7   7   2 3126.68 911.428   1
   7   7   3 27517.8 2276.40   1
  -7  -7  -4 20110.0 1748.41   2
   7   7   4 24298.4 2167.36   1
   7   7   5 1727.70 775.379   1
  -7  -7  -5 670.072 395.592   2
   7   7   6 137.827 532.103   1
  -7  -7  -6 403.090 518.668   2
   7   7   7 2995.31 907.794   1
  -7  -7  -7 2288.86 804.205   2
  -7  -7  -8 19982.1 2005.45   2
   7   7   8 25972.6 2493.29   1
  -7  -7  -9-195.722 488.351   2
  -7  -7 -10-909.644 632.919   2
   7   8  -4 2225.83 728.557   1
   7   8  -3 6744.75 1190.16   1
  -7  -8   2 539.002 550.773   3
   7   8  -2-941.393 647.619   1
  -7  -8   1 1720.91 714.279   3
   7   8  -1 3458.84 912.135   1
   7   8   0 1231.57 623.727   1
   7   8   1 5357.15 1123.05   1
   7   8   2 8800.97 1383.68   1
   7   8   3 13620.1 1691.35   1
   7   8   4 684.066 729.863   1
   7   8   5 4381.31 1052.94   1
  -7  -8  -5 3536.09 898.679   2
  -7  -8  -6 18160.2 2000.92   2
   7   8   6 26692.6 2479.69   1
  -7  -8  -7 21672.1 2161.64   2
  -7  -8  -8 1937.96 844.933   2
  -7  -8  -9-612.575 761.602   2
   7   9  -2 1333.47 691.371   1
   7   9  -1 4899.98 1218.40   1
  -7  -9   0 8836.04 1394.10   3
   7   9   0 7594.56 1361.79   1
  -7  -9  -1 24.8541 463.312   3
   7   9   1 826.527 533.889   1
  -7  -9  -2 123.291 506.790   3
   7   9   2 100.519 522.724   1
   7   9   3-207.267 586.459   1
   7   9   4 3987.50 1060.09   1
  -7  -9  -6 6633.44 1260.56   2
  -7  -9  -7 1189.91 553.729   2
  -7 -10  -3-798.364 617.898   3
   8  -1  -2-312.218 526.315   1
   8  -1  -1 5800.95 1132.42   1
   8  -1   0-1489.83 762.088   1
  -8   0   5 6210.40 1208.46   4
  -8   0   4 2045.74 747.967   4
  -8   0   3 1505.69 686.131   4
   8   0  -3 462.799 537.181   1
   8   0  -2 1380.78 750.333   1
  -8   0   2 158.374 470.197   4
   8   0  -1 365.560 544.300   1
  -8   0   1 97.1234 538.742   4
  -8   0   0 12234.5 1644.11   4
   8   0   0 16441.2 1844.44   1
  -8   0  -1 10619.6 1549.35   4
   8   0   1 15816.8 1739.93   1
   8   0   2 1513.89 656.471   1
  -8   0  -2-1522.41 849.817   4
  -8   0  -3-1438.81 1045.71   4
  -8  -1   7 4334.90 1059.89   4
  -8  -1   6 889.998 576.955   4
  -8  -1   5 6224.11 1141.22   4
  -8  -1   4 2294.63 831.253   4
   8   1  -4 2681.91 861.185   1
  -8  -1   3 3435.74 844.649   4
   8   1  -3 2596.25 729.827   1
   8   1  -2 1012.13 659.627   1
  -8  -1   2 638.327 436.243   4
  -8  -1   1 42443.6 2766.41   4
   8   1  -1 45388.6 2965.47   1
   8   1   0 4550.91 920.713   1
  -8  -1   0 4183.63 978.792   4
   8   1   1 5346.03 1032.78   1
  -8  -1  -1 6975.09 1250.87   4
   8   1   2 408.087 542.427   1
  -8  -1  -2-156.610 469.383   4
   8   1   3 1525.08 719.021   1
  -8  -1  -3 403.399 614.771   4
   8   1   3 1011.06 799.619   3
  -8  -1  -4 5779.55 1185.35   4
   8   1   4 7553.74 1244.94   1
   8   1   4 3404.72 1133.20   3
  -8  -2   7 10425.2 1432.17   4
  -8  -2   6 3195.49 901.341   4
  -8  -2   5 4287.24 923.978   4
   8   2  -5 2778.78 870.131   1
  -8  -2   4 1090.92 534.807   4
   8   2  -4 2016.26 732.113   1
   8   2  -3 2979.42 818.216   1
  -8  -2   3 3637.12 863.052   4
  -8  -2   2 19803.3 1751.13   4
   8   2  -2 24842.8 2221.24   1
   8   2  -1 814.624 499.780   1
  -8  -2   1 2400.42 677.082   4
   8   2   0 13587.4 1613.07   1
  -8  -2   0 13975.6 1459.37   4
   8   2   1 2418.72 719.046   1
  -8  -2  -1 3643.55 808.382   4
   8   2   2 10250.6 1415.30   1
  -8  -2  -2 6962.20 1085.53   4
   8   2   3 10718.4 1414.30   1
   8   2   4 6860.56 1274.91   1
   8   2   5 2199.53 740.761   1
   8   2   5 285.262 624.328   3
   8   2   6 1484.84 662.039   1
   8   2   6-1329.92 1031.84   3
  -8  -3   7-998.299 737.374   4
  -8  -3   6 891.348 592.296   4
  -8  -3   5 1865.35 644.172   4
   8   3  -5 3886.33 907.154   1
  -8  -3   4 18400.3 1666.37   4
   8   3  -4 20125.1 2089.66   1
   8   3  -3 392.984 420.383   1
  -8  -3   3 622.541 469.043   4
   8   3  -2 1271.72 448.587   1
  -8  -3   2 904.682 424.722   4
   8   3  -1 38.3577 569.042   1
  -8  -3   1 92.7005 412.336   4
   8   3   0 752.729 442.689   1
  -8  -3   0 789.726 486.973   4
  -8  -3  -1 11972.6 1197.32   4
   8   3   1 13240.5 1636.56   1
   8   3   2 22803.3 2026.84   1
   8   3   3 1858.91 739.977   1
   8   3   4 939.818 653.515   1
   8   3   5 5144.37 1012.24   1
   8   3   6 20078.2 2000.80   1
   8   3   6 13193.9 1807.63   3
   8   3   7 17354.1 1856.17   1
   8   4  -5 22238.2 2181.84   1
   8   4  -4 138.572 593.621   1
  -8  -4   4 52.4487 475.293   4
   8   4  -3 84.8202 458.417   1
  -8  -4   3 8.90202 441.483   4
   8   4  -2 498.903 557.771   1
  -8  -4   2 191.298 358.026   4
   8   4  -1 16326.2 1777.24   1
   8   4   0 16094.6 1748.84   1
   8   4   1 10414.8 1460.60   1
   8   4   2 554.027 494.226   1
   8   4   3 958.336 516.380   1
   8   4   4 7494.53 1231.54   1
   8   4   5 24000.4 2156.75   1
   8   4   6 15454.0 1798.66   1
   8   4   7 571.959 576.658   1
   8   5  -5 281.770 497.643   1
   8   5  -4 104.513 595.089   1
   8   5  -3 5231.90 1093.32   1
   8   5  -2 20260.5 2015.27   1
   8   5  -1 18109.6 1864.56   1
   8   5   0 4751.64 995.316   1
   8   5   1-638.688 562.106   1
   8   5   2 467.364 546.976   1
   8   5   3 4654.24 1034.95   1
   8   5   4 5030.33 1051.23   1
   8   5   5 5298.51 1103.38   1
   8   5   6 569.733 600.518   1
   8   5   7-227.717 744.909   1
   8   6  -5 275.831 682.793   1
   8   6  -4 1477.20 745.765   1
   8   6  -3 5764.33 1161.90   1
   8   6  -2 17294.6 1894.18   1
   8   6  -1 42.1741 577.920   1
   8   6   0 513.268 492.610   1
   8   6   1 4090.11 986.758   1
   8   6   2 2527.49 868.367   1
   8   6   3 3945.19 993.995   1
   8   6   4 3673.91 979.313   1
   8   6   5 5178.84 1114.75   1
   8   6   6 271.221 599.831   1
   8   7  -3 16597.6 1879.16   1
   8   7  -2 2243.17 738.397   1
   8   7  -1 1374.43 714.014   1
   8   7   0 3268.72 863.669   1
   8   7   1 13627.8 1689.04   1
   8   7   2 4553.27 1041.47   1
   8   7   3 3891.63 1059.97   1
   8   7   4 679.344 647.501   1
  -9  -1   2 2274.67 828.898   4
  -9  -2   5 3515.14 977.119   4
  -9  -2   4 1623.41 558.011   4
  -9  -2   3 339.975 521.061   4
   0   0   0    0.00    0.00   0
TITL V in P-1
REM P-1 (#2 in standard setting)
CELL 0.71073   6.977383   7.929435  11.441382  72.2529  89.5253  64.4515
ZERR    1.00   0.000324   0.000424   0.000504   0.0043   0.0037   0.0049
LATT  1
SFAC C H N O S Zn
UNIT 10.00 26.00 4.00 14.00 2.00 1.00
TREF
HKLF 4
END
;
_shelx_hkl_checksum              79438
_shelx_res_file
;
    V.res created by SHELXL-2014/7
TITL V in P-1 #2
REM reset to P-1 #2
CELL 0.71073 6.977 7.929 11.441 72.25 89.53 64.45
ZERR 1 0.003 0.003 0.004 0.03 0.03 0.03
LATT 1
SFAC C H N O S Zn
UNIT 10 26 4 14 2 1
EQIV $1 1-X,1-Y,-Z
EQIV $2 2-X,-Y,1-Z
EQIV $3 1-X,2-Y,-Z
EQIV $4 2-X,1-Y,-Z
DFIX 0.84 O1W H1Wa O1W H1Wb O3W H3Wb O3W H3Wa O2W H2Wa O2W H2Wb
L.S. 10
PLAN  20
HTAB O1W O1
HTAB O3W O3_$1
HTAB O2W O1
HTAB O2W O2_$1
HTAB N1 O1
HTAB N2 O3
HTAB N2 O4_$2
HTAB C6 O3W_$3
HTAB O1W O2_$4
HTAB O3W O4_$4
BOND $H
htab 2
LIST 6
MORE -1
CONF
fmap 2
acta 52
OMIT 0 0 1
REM <olex2.extras>
REM <HklSrc "%.\\V.hkl">
REM </olex2.extras>
WGHT    0.023000    0.501000
FVAR       7.18870
ZN1   6    0.500000    1.000000    0.000000    10.50000    0.01482    0.01567 =
         0.01162   -0.00385    0.00165   -0.00715
O1W   4    0.822778    0.796519    0.066214    11.00000    0.01661    0.01836 =
         0.01473   -0.00233    0.00317   -0.00684
H1WA  2    0.839732    0.684080    0.107725    11.00000   -1.50000
H1WB  2    0.918739    0.781466    0.019531    11.00000   -1.50000
O2W   4    0.401541    0.781650    0.077058    11.00000    0.01655    0.01776 =
         0.01506   -0.00297   -0.00126   -0.00886
H2WA  2    0.508112    0.678203    0.114276    11.00000   -1.50000
H2WB  2    0.327265    0.762788    0.030561    11.00000   -1.50000
O3W   4    0.515825    0.954865   -0.172083    11.00000    0.01701    0.02583 =
         0.01558   -0.00928    0.00374   -0.01179
H3WA  2    0.443487    0.912879   -0.199751    11.00000   -1.50000
H3WB  2    0.635555    0.915305   -0.194922    11.00000   -1.50000
S1    5    0.866338    0.262778    0.199701    11.00000    0.01512    0.01683 =
         0.01116   -0.00439    0.00158   -0.00787
O1    4    0.784249    0.465244    0.210081    11.00000    0.02202    0.01679 =
         0.01661   -0.00516    0.00257   -0.00780
O2    4    0.842263    0.283358    0.067529    11.00000    0.01937    0.03014 =
         0.01319   -0.00848    0.00398   -0.01360
O3    4    0.741753    0.166135    0.269760    11.00000    0.01844    0.02437 =
         0.01653   -0.00775    0.00473   -0.01348
O4    4    1.094699    0.148006    0.254292    11.00000    0.01598    0.02196 =
         0.01503   -0.00426    0.00131   -0.00914
N1    3    0.745616    0.509135    0.440128    11.00000    0.01650    0.02199 =
         0.01146   -0.00581    0.00153   -0.00784
AFIX  43
H1    2    0.742610    0.498449    0.367664    11.00000   -1.20000
AFIX   0
C2    1    0.780844    0.349195    0.540285    11.00000    0.01153    0.01879 =
         0.01620   -0.00475    0.00204   -0.00632
N2    3    0.808987    0.181415    0.524035    11.00000    0.02525    0.02035 =
         0.01118   -0.00445    0.00364   -0.01126
AFIX  93
H2A   2    0.804715    0.175263    0.450406    11.00000   -1.20000
H2B   2    0.831464    0.079042    0.587153    11.00000   -1.20000
AFIX   0
C3    1    0.786485    0.369795    0.658421    11.00000    0.01519    0.02368 =
         0.01624   -0.00588    0.00254   -0.00852
AFIX  43
H3    2    0.811453    0.262838    0.729472    11.00000   -1.20000
AFIX   0
C4    1    0.755178    0.547208    0.668099    11.00000    0.01696    0.03083 =
         0.02044   -0.01355    0.00293   -0.01038
AFIX  43
H4    2    0.758939    0.560561    0.745921    11.00000   -1.20000
AFIX   0
C5    1    0.717231    0.710050    0.560876    11.00000    0.01944    0.02249 =
         0.02740   -0.01025    0.00069   -0.00876
AFIX  43
H5    2    0.694401    0.831359    0.567084    11.00000   -1.20000
AFIX   0
C6    1    0.714669    0.686518    0.449023    11.00000    0.01594    0.01694 =
         0.02254   -0.00218   -0.00191   -0.00596
AFIX  43
H6    2    0.691623    0.792073    0.377464    11.00000   -1.20000
AFIX   0
HKLF 4
REM  V in P-1 #2
REM R1 =  0.0370 for    2120 Fo > 4sig(Fo)  and  0.0515 for all    2563 data
REM    160 parameters refined using      6 restraints
END
WGHT      0.0230      0.5056
REM Instructions for potential hydrogen bonds
HTAB O1W O1
HTAB O1W S1_$4
HTAB O1W O2_$4
HTAB O2W S1
HTAB O2W O1
HTAB O2W O2_$1
HTAB O3W O3_$1
HTAB O3W O4_$4
HTAB N1 S1
HTAB N1 O1
HTAB N2 S1
HTAB N2 O3
HTAB N2 S1_$2
HTAB N2 O4_$2
EQIV $5 -x+2, -y+1, -z+1
HTAB C5 O4_$5
HTAB C6 O3W_$3
REM Highest difference peak  0.380,  deepest hole -0.564,  1-sigma level  0.090
Q1    1   0.8734  0.2583  0.1270  11.00000  0.05    0.38
Q2    1   0.8406  0.3108  0.3615  11.00000  0.05    0.38
Q3    1   0.7532  0.0746  0.2760  11.00000  0.05    0.37
Q4    1   0.5560  1.0893 -0.3154  11.00000  0.05    0.36
Q5    1   0.8886  0.1572  0.1122  11.00000  0.05    0.36
Q6    1   0.5453  0.4648  0.1381  11.00000  0.05    0.33
Q7    1   0.3790  0.9099  0.0789  11.00000  0.05    0.32
Q8    1   1.1015  0.2035  0.2414  11.00000  0.05    0.32
Q9    1   0.2978  0.8190  0.1380  11.00000  0.05    0.31
Q10   1   0.8285  0.4617  0.6425  11.00000  0.05    0.31
Q11   1   0.4823  0.8383 -0.0029  11.00000  0.05    0.31
Q12   1   0.0468  0.9987 -0.0624  11.00000  0.05    0.31
Q13   1   1.0275  0.1171  0.2794  11.00000  0.05    0.30
Q14   1   0.7473  0.3972  0.2218  11.00000  0.05    0.30
Q15   1   0.7798  0.3993  0.8841  11.00000  0.05    0.30
Q16   1   0.8041  0.3506  0.5919  11.00000  0.05    0.30
Q17   1   0.4474  1.1763  0.0132  11.00000  0.05    0.29
Q18   1   1.0211  0.0183  0.1462  11.00000  0.05    0.29
Q19   1   0.7813  0.4416  0.7234  11.00000  0.05    0.29
Q20   1   1.0766  0.3087  0.2847  11.00000  0.05    0.29
;
_shelx_res_checksum              11027
loop_
_space_group_symop_operation_xyz
'x, y, z'
'-x, -y, -z'
loop_
_atom_site_type_symbol
_atom_site_label
_atom_site_fract_x
_atom_site_fract_y
_atom_site_fract_z
_atom_site_U_iso_or_equiv
_atom_site_adp_type
_atom_site_calc_flag
_atom_site_occupancy
Zn Zn1 0.5000 1.0000 0.0000 0.01411(12) Uani d 1
O O1W 0.8228(3) 0.7965(3) 0.06621(16) 0.0178(4) Uani d 1
H H1WA 0.840(5) 0.684(3) 0.108(2) 0.027 Uiso d 1
H H1WB 0.919(4) 0.781(4) 0.020(2) 0.027 Uiso d 1
O O2W 0.4015(3) 0.7817(3) 0.07706(16) 0.0166(4) Uani d 1
H H2WA 0.508(4) 0.678(3) 0.114(2) 0.025 Uiso d 1
H H2WB 0.327(4) 0.763(4) 0.031(2) 0.025 Uiso d 1
O O3W 0.5158(3) 0.9549(3) -0.17208(16) 0.0181(4) Uani d 1
H H3WA 0.443(4) 0.913(4) -0.200(3) 0.027 Uiso d 1
H H3WB 0.636(3) 0.915(4) -0.195(3) 0.027 Uiso d 1
S S1 0.86634(10) 0.26278(9) 0.19970(5) 0.01418(15) Uani d 1
O O1 0.7842(3) 0.4652(3) 0.21008(16) 0.0189(4) Uani d 1
O O2 0.8423(3) 0.2834(3) 0.06753(15) 0.0197(4) Uani d 1
O O3 0.7418(3) 0.1661(3) 0.26976(15) 0.0181(4) Uani d 1
O O4 1.0947(3) 0.1480(3) 0.25429(15) 0.0179(4) Uani d 1
N N1 0.7456(3) 0.5091(3) 0.44013(19) 0.0169(4) Uani d 1
H H1 0.7426 0.4984 0.3677 0.020 Uiso calc 1
C C2 0.7808(4) 0.3492(4) 0.5403(2) 0.0160(5) Uani d 1
N N2 0.8090(3) 0.1814(3) 0.52404(19) 0.0188(5) Uani d 1
H H2A 0.8047 0.1753 0.4504 0.023 Uiso calc 1
H H2B 0.8315 0.0790 0.5872 0.023 Uiso calc 1
C C3 0.7865(4) 0.3698(4) 0.6584(2) 0.0187(5) Uani d 1
H H3 0.8115 0.2628 0.7295 0.022 Uiso calc 1
C C4 0.7552(4) 0.5472(4) 0.6681(2) 0.0216(6) Uani d 1
H H4 0.7589 0.5606 0.7459 0.026 Uiso calc 1
C C5 0.7172(4) 0.7100(4) 0.5609(3) 0.0229(6) Uani d 1
H H5 0.6944 0.8314 0.5671 0.027 Uiso calc 1
C C6 0.7147(4) 0.6865(4) 0.4490(2) 0.0201(6) Uani d 1
H H6 0.6916 0.7921 0.3775 0.024 Uiso calc 1
loop_
_atom_site_aniso_label
_atom_site_aniso_U_11
_atom_site_aniso_U_22
_atom_site_aniso_U_33
_atom_site_aniso_U_12
_atom_site_aniso_U_13
_atom_site_aniso_U_23
Zn1 0.0148(2) 0.0157(2) 0.0116(2) -0.00715(17) 0.00165(15) -0.00385(16)
O1W 0.0166(9) 0.0184(10) 0.0147(9) -0.0068(8) 0.0032(7) -0.0023(8)
O2W 0.0166(10) 0.0178(10) 0.0151(9) -0.0089(8) -0.0013(7) -0.0030(8)
O3W 0.0170(10) 0.0258(10) 0.0156(9) -0.0118(8) 0.0037(7) -0.0093(8)
S1 0.0151(3) 0.0168(3) 0.0112(3) -0.0079(3) 0.0016(2) -0.0044(2)
O1 0.0220(10) 0.0168(9) 0.0166(9) -0.0078(8) 0.0026(7) -0.0052(7)
O2 0.0194(9) 0.0301(11) 0.0132(9) -0.0136(8) 0.0040(7) -0.0085(8)
O3 0.0184(9) 0.0244(10) 0.0165(9) -0.0135(8) 0.0047(7) -0.0077(8)
O4 0.0160(9) 0.0220(10) 0.0150(9) -0.0091(8) 0.0013(7) -0.0043(7)
N1 0.0165(11) 0.0220(12) 0.0115(10) -0.0078(9) 0.0015(8) -0.0058(9)
C2 0.0115(12) 0.0188(13) 0.0162(12) -0.0063(10) 0.0020(9) -0.0048(10)
N2 0.0252(12) 0.0203(12) 0.0112(10) -0.0113(10) 0.0036(9) -0.0045(9)
C3 0.0152(13) 0.0237(14) 0.0162(13) -0.0085(11) 0.0025(10) -0.0059(11)
C4 0.0170(13) 0.0308(16) 0.0204(13) -0.0104(12) 0.0029(10) -0.0135(12)
C5 0.0194(14) 0.0225(15) 0.0274(15) -0.0088(12) 0.0007(11) -0.0102(12)
C6 0.0159(13) 0.0169(14) 0.0225(14) -0.0060(11) -0.0019(10) -0.0022(11)
loop_
_atom_type_symbol
_atom_type_description
_atom_type_scat_dispersion_real
_atom_type_scat_dispersion_imag
_atom_type_scat_source
C C 0.0033 0.0016 'International Tables Vol C Tables 4.2.6.8 and 6.1.1.4'
H H 0.0000 0.0000 'International Tables Vol C Tables 4.2.6.8 and 6.1.1.4'
N N 0.0061 0.0033 'International Tables Vol C Tables 4.2.6.8 and 6.1.1.4'
O O 0.0106 0.0060 'International Tables Vol C Tables 4.2.6.8 and 6.1.1.4'
S S 0.1246 0.1234 'International Tables Vol C Tables 4.2.6.8 and 6.1.1.4'
Zn Zn 0.2839 1.4301 'International Tables Vol C Tables 4.2.6.8 and 6.1.1.4'
loop_
_exptl_crystal_face_index_h
_exptl_crystal_face_index_k
_exptl_crystal_face_index_l
_exptl_crystal_face_perp_dist
-5 -3 0 0.1387
5 3 -1 0.1753
0 4 5 0.0420
0 -1 -1 0.0155
5 2 4 0.1564
0 0 1 0.1159
0 1 -1 0.1055
1 0 5 0.1102
5 2 -2 0.1634
2 1 -5 0.1461
1 1 -5 0.1245
-5 2 5 0.1165
loop_
_geom_angle_atom_site_label_1
_geom_angle_atom_site_label_2
_geom_angle_atom_site_label_3
_geom_angle_site_symmetry_1
_geom_angle_site_symmetry_3
_geom_angle
_geom_angle_publ_flag
O1W Zn1 O1W 2_675 . 180.0 n
O1W Zn1 O3W . 2_675 86.88(8) y
O1W Zn1 O3W . . 93.12(8) y
O1W Zn1 O3W 2_675 2_675 93.12(8) n
O1W Zn1 O3W 2_675 . 86.88(8) n
O2W Zn1 O1W . 2_675 88.54(8) y
O2W Zn1 O1W . . 91.46(8) y
O2W Zn1 O1W 2_675 . 88.54(8) n
O2W Zn1 O1W 2_675 2_675 91.46(8) n
O2W Zn1 O2W . 2_675 180.0 n
O2W Zn1 O3W . 2_675 87.20(7) y
O2W Zn1 O3W 2_675 2_675 92.80(7) n
O2W Zn1 O3W . . 92.80(7) y
O2W Zn1 O3W 2_675 . 87.20(7) n
O3W Zn1 O3W 2_675 . 180.000(15) n
Zn1 O1W H1WA . . 113(2) ?
Zn1 O1W H1WB . . 122(2) ?
H1WA O1W H1WB . . 107(3) ?
Zn1 O2W H2WA . . 108(2) ?
Zn1 O2W H2WB . . 118(2) ?
H2WA O2W H2WB . . 111(3) ?
Zn1 O3W H3WA . . 125(2) ?
Zn1 O3W H3WB . . 117(2) ?
H3WA O3W H3WB . . 110(3) ?
O2 S1 O1 . . 108.64(11) ?
O2 S1 O3 . . 111.43(10) ?
O2 S1 O4 . . 110.26(11) ?
O3 S1 O1 . . 108.21(10) ?
O3 S1 O4 . . 109.74(11) ?
O4 S1 O1 . . 108.48(11) ?
C2 N1 H1 . . 118.5 ?
C2 N1 C6 . . 122.9(2) ?
C6 N1 H1 . . 118.5 ?
N1 C2 C3 . . 117.6(2) ?
N2 C2 N1 . . 119.4(2) ?
N2 C2 C3 . . 123.1(2) ?
C2 N2 H2A . . 120.0 ?
C2 N2 H2B . . 120.0 ?
H2A N2 H2B . . 120.0 ?
C2 C3 H3 . . 120.1 ?
C4 C3 C2 . . 119.9(2) ?
C4 C3 H3 . . 120.1 ?
C3 C4 H4 . . 119.8 ?
C3 C4 C5 . . 120.4(2) ?
C5 C4 H4 . . 119.8 ?
C4 C5 H5 . . 120.6 ?
C6 C5 C4 . . 118.7(3) ?
C6 C5 H5 . . 120.6 ?
N1 C6 H6 . . 119.7 ?
C5 C6 N1 . . 120.5(2) ?
C5 C6 H6 . . 119.7 ?
loop_
_geom_bond_atom_site_label_1
_geom_bond_atom_site_label_2
_geom_bond_site_symmetry_2
_geom_bond_distance
_geom_bond_publ_flag
Zn1 O1W 2_675 2.097(2) ?
Zn1 O1W . 2.097(2) y
Zn1 O2W . 2.0813(19) y
Zn1 O2W 2_675 2.0813(19) ?
Zn1 O3W . 2.0996(18) y
Zn1 O3W 2_675 2.0996(18) ?
O1W H1WA . 0.828(17) ?
O1W H1WB . 0.844(17) ?
O2W H2WA . 0.820(17) ?
O2W H2WB . 0.833(17) ?
O3W H3WA . 0.823(17) ?
O3W H3WB . 0.828(17) ?
S1 O1 . 1.4971(18) ?
S1 O2 . 1.4736(18) ?
S1 O3 . 1.4744(18) ?
S1 O4 . 1.475(2) ?
N1 H1 . 0.8600 ?
N1 C2 . 1.353(3) ?
N1 C6 . 1.364(3) ?
C2 N2 . 1.330(3) ?
C2 C3 . 1.413(3) ?
N2 H2A . 0.8600 ?
N2 H2B . 0.8600 ?
C3 H3 . 0.9300 ?
C3 C4 . 1.367(4) ?
C4 H4 . 0.9300 ?
C4 C5 . 1.410(4) ?
C5 H5 . 0.9300 ?
C5 C6 . 1.350(4) ?
C6 H6 . 0.9300 ?
loop_
_geom_hbond_atom_site_label_D
_geom_hbond_atom_site_label_H
_geom_hbond_atom_site_label_A
_geom_hbond_site_symmetry_A
_geom_hbond_distance_DH
_geom_hbond_distance_HA
_geom_hbond_distance_DA
_geom_hbond_angle_DHA
O1W H1WA O1 . 0.828(17) 1.966(19) 2.765(3) 162(3)
O1W H1WB O2 2_765 0.844(17) 1.893(18) 2.731(3) 172(3)
O2W H2WA O1 . 0.820(17) 1.966(18) 2.775(3) 169(3)
O2W H2WB O2 2_665 0.833(17) 1.854(18) 2.687(3) 178(3)
O3W H3WA O3 2_665 0.823(17) 1.930(18) 2.752(3) 176(3)
O3W H3WB O4 2_765 0.828(17) 1.905(18) 2.729(3) 174(3)
N1 H1 O1 . 0.86 1.90 2.754(3) 171
N2 H2A O3 . 0.86 2.15 2.997(3) 171
N2 H2B O4 2_756 0.86 2.01 2.860(3) 173
C6 H6 O3W 2_675 0.93 2.51 3.370(4) 153
loop_
_geom_torsion_atom_site_label_1
_geom_torsion_atom_site_label_2
_geom_torsion_atom_site_label_3
_geom_torsion_atom_site_label_4
_geom_torsion
N1 C2 C3 C4 0.5(4)
C2 N1 C6 C5 -0.3(4)
C2 C3 C4 C5 0.0(4)
N2 C2 C3 C4 -179.7(2)
C3 C4 C5 C6 -0.7(4)
C4 C5 C6 N1 0.8(4)
C6 N1 C2 N2 179.8(2)
C6 N1 C2 C3 -0.4(3)
