#------------------------------------------------------------------------------
#$Date: 2016-07-21 04:10:27 +0300 (Thu, 21 Jul 2016) $
#$Revision: 184561 $
#$URL: file:///home/coder/svn-repositories/cod/cif/2/02/05/2020555.cif $
#------------------------------------------------------------------------------
#
# This file is available in the Crystallography Open Database (COD),
# http://www.crystallography.net/. The original data for this entry
# were provided by IUCr Journals, http://journals.iucr.org/.
#
# The file may be used within the scientific community so long as
# proper attribution is given to the journal article from which the
# data were obtained.
#
data_2020555
loop_
_publ_author_name
'Kim, Sun Woo'
'Emge, Thomas J.'
'Greenblatt, Martha'
_publ_section_title
;
 A new one-dimensional strontium vanadium tellurite, Sr~7~V~4~Te~12~O~41~
;
_journal_coeditor_code           OV3079
_journal_issue                   8
_journal_name_full               'Acta Crystallographica Section C'
_journal_page_first
;
;
_journal_paper_doi               10.1107/S2053229616011475
_journal_volume                  72
_journal_year                    2016
_chemical_formula_iupac          'Sr7 V4 Te12 O41'
_chemical_formula_moiety         'O41 Sr7 Te12 V4'
_chemical_formula_sum            'O41 Sr7 Te12 V4'
_chemical_formula_weight         3004.30
_chemical_name_common
;
Strontium vanadium tellurite
;
_chemical_name_systematic
;
Heptastrontium tetravanadium dodecatelluride hentetracontaoxide
;
_space_group_crystal_system      triclinic
_space_group_IT_number           2
_space_group_name_Hall           '-P 1'
_space_group_name_H-M_alt        'P -1'
_symmetry_space_group_name_Hall  '-P 1'
_symmetry_space_group_name_H-M   'P -1'
_audit_creation_method           SHELXL-2014/7
_cell_angle_alpha                96.7621(12)
_cell_angle_beta                 91.9467(12)
_cell_angle_gamma                100.1115(12)
_cell_formula_units_Z            1
_cell_length_a                   7.1772(5)
_cell_length_b                   9.9314(6)
_cell_length_c                   14.4116(9)
_cell_measurement_reflns_used    4967
_cell_measurement_temperature    100(2)
_cell_measurement_theta_max      33.18
_cell_measurement_theta_min      2.38
_cell_volume                     1002.69(11)
_computing_cell_refinement
;
SAINT (Bruker, 2012)
;
_computing_data_collection
;
APEX2 (Bruker, 2012)
;
_computing_data_reduction
;
SAINT (Bruker, 2012)
;
_computing_molecular_graphics
;
SHELXTL (Sheldrick, 2008)
;
_computing_publication_material
;
SHELXTL (Sheldrick, 2008)
;
_computing_structure_refinement
;
SHELXL2014 (Sheldrick, 2015)
;
_computing_structure_solution
;
SHELXS97 (Sheldrick, 2008)
;
_diffrn_ambient_temperature      100(2)
_diffrn_measured_fraction_theta_full 0.999
_diffrn_measured_fraction_theta_max 0.995
_diffrn_measurement_device_type  'Bruker SMART APEX CCD'
_diffrn_measurement_method       '\f and \w scans'
_diffrn_radiation_type           MoK\a
_diffrn_radiation_wavelength     0.71073
_diffrn_reflns_av_R_equivalents  0.0349
_diffrn_reflns_limit_h_max       9
_diffrn_reflns_limit_h_min       -9
_diffrn_reflns_limit_k_max       13
_diffrn_reflns_limit_k_min       -13
_diffrn_reflns_limit_l_max       19
_diffrn_reflns_limit_l_min       -19
_diffrn_reflns_number            12141
_diffrn_reflns_theta_full        25.242
_diffrn_reflns_theta_max         29.125
_diffrn_reflns_theta_min         1.425
_exptl_absorpt_coefficient_mu    18.795
_exptl_absorpt_correction_T_max  0.4353
_exptl_absorpt_correction_T_min  0.1016
_exptl_absorpt_correction_type   numerical
_exptl_absorpt_process_details
;
(SADABS; Bruker, 2001)
;
_exptl_crystal_colour            orange
_exptl_crystal_density_diffrn    4.975
_exptl_crystal_description       lathe
_exptl_crystal_F_000             1310
_exptl_crystal_size_max          0.300
_exptl_crystal_size_mid          0.220
_exptl_crystal_size_min          0.050
_refine_diff_density_max         2.535
_refine_diff_density_min         -2.227
_refine_ls_extinction_method     none
_refine_ls_goodness_of_fit_ref   1.070
_refine_ls_hydrogen_treatment    undef
_refine_ls_matrix_type           full
_refine_ls_number_parameters     292
_refine_ls_number_reflns         5374
_refine_ls_number_restraints     0
_refine_ls_restrained_S_all      1.070
_refine_ls_R_factor_all          0.0362
_refine_ls_R_factor_gt           0.0331
_refine_ls_shift/su_max          0.002
_refine_ls_shift/su_mean         0.000
_refine_ls_structure_factor_coef Fsqd
_refine_ls_weighting_details
'w=1/[\s^2^(Fo^2^)+(0.0402P)^2^+1.8895P] where P=(Fo^2^+2Fc^2^)/3'
_refine_ls_weighting_scheme      calc
_refine_ls_wR_factor_gt          0.0834
_refine_ls_wR_factor_ref         0.0848
_reflns_number_gt                4972
_reflns_number_total             5374
_reflns_threshold_expression     'I > 2\s(I)'
_cod_data_source_file            ov3079sup1.cif
_cod_data_source_block           I
_cod_database_code               2020555
_shelx_space_group_comment
;
The symmetry employed for this shelxl refinement is uniquely defined
by the following loop, which should always be used as a source of
symmetry information in preference to the above space-group names.
They are only intended as comments.
;
_shelx_estimated_absorpt_t_min   0.071
_shelx_estimated_absorpt_t_max   0.453
_shelx_hkl_file
;
  -1   0   0 130.303 8.09319   3
  -1   0   0 126.445 8.11541   2
  -1   0   0 124.212 8.25169   1
  -2   0   0 994.271 66.1188   1
  -2   0   0 1055.56 65.8635   3
  -2   0   0 1072.84 65.9350   2
  -3   0   0 1.44067 0.59819   2
  -3   0   0 1.30160 0.74910   1
  -3   0   0 1.84769 0.42434   3
  -4   0   0 498.055 32.6121   1
  -4   0   0 517.550 32.2142   3
  -4   0   0 502.831 32.4266   2
  -5   0   0 301.717 19.0477   3
  -5   0   0 294.211 19.4171   2
  -5   0   0 293.701 19.4891   1
  -6   0   0 124.398 9.02088   2
  -6   0   0 127.781 8.90032   1
  -6   0   0 125.994 8.35959   3
  -7   0   0 439.490 27.6054   3
  -7   0   0 419.802 28.1001   1
  -8   0   0 2.19756 1.23641   3
  -8   0   0 2.78505 1.89714   1
   8   0   0 4.79200 3.63593   2
  10   0   0 -1.2981 1.79784   3
   9  -1   0 23.7402 2.68359   3
  -9   1   0 25.2622 3.53452   1
  -8   1   0 78.2383 7.12194   2
  -8   1   0 79.5682 6.31639   1
  -7   1   0 104.846 7.81471   2
  -7   1   0 103.115 7.73407   1
  -7   1   0 105.207 7.08739   3
  -6   1   0 1332.91 84.6044   1
  -6   1   0 1355.94 84.1411   3
  -6   1   0 1292.14 84.4749   2
  -5   1   0 126.028 8.98264   1
  -5   1   0 132.475 8.87702   2
  -5   1   0 135.377 8.60297   3
  -4   1   0 5.17955 0.76676   3
  -4   1   0 4.80068 0.90874   2
  -4   1   0 4.05069 1.03186   1
  -3   1   0 6.48624 0.71019   3
  -3   1   0 8.60999 0.89049   2
  -3   1   0 6.54955 1.13918   1
  -2   1   0 77.2328 5.14631   2
  -2   1   0 81.8823 5.09673   3
  -2   1   0 77.5344 5.30602   1
  -1   1   0 281.026 18.3932   1
  -1   1   0 299.010 18.3352   3
  -1   1   0 286.620 18.3236   2
   0  -1   0 134.951 8.38031   1
   0  -1   0 132.916 8.34687   3
   0   1   0 126.154 8.35149   2
  -1  -1   0 172.069 12.0267   1
  -1  -1   0 191.576 11.6120   3
   1   1   0 197.445 11.5872   4
   1   1   0 160.418 11.9287   2
  -2  -1   0 15.5157 1.20626   3
  -2  -1   0 18.4096 2.30932   1
   2   1   0 19.3170 2.11413   2
  -3  -1   0 26.4108 2.53824   1
  -3  -1   0 25.9749 1.90869   3
   3   1   0 28.3418 2.50900   2
  -4  -1   0 5.13130 1.33754   1
  -4  -1   0 4.11686 0.70904   3
   4   1   0 2.55073 1.38021   2
  -5  -1   0 228.170 15.7273   1
  -5  -1   0 233.633 15.2228   3
   5   1   0 250.155 16.0100   2
  -6  -1   0 13.3790 1.68853   3
  -6  -1   0 16.5592 2.35527   1
   6   1   0 19.8112 3.48658   2
   6   1   0 17.0748 1.59780   4
  -7  -1   0 36.3517 3.17071   3
  -7  -1   0 37.5904 3.87547   1
   7   1   0 44.5152 3.04009   4
   7   1   0 38.6849 5.92698   2
  -8  -1   0 244.853 16.2581   1
  -8  -1   0 233.399 15.6580   3
  10   1   0 5.29054 1.98295   3
  -9   2   0 20.8934 3.27401   1
   8  -2   0 1.33512 1.11034   3
  -8   2   0 -2.4432 1.62511   1
  -8   2   0 3.74028 2.18037   2
  -7   2   0 27.7754 3.26368   2
  -7   2   0 36.7902 3.55305   1
  -6   2   0 279.256 17.1005   3
  -6   2   0 258.824 17.3613   2
  -6   2   0 255.299 17.5526   1
  -5   2   0 171.917 11.5800   2
  -5   2   0 174.749 11.8431   1
  -5   2   0 179.779 11.3769   3
  -4   2   0 103.492 7.05964   2
  -4   2   0 109.905 7.35006   1
  -4   2   0 105.859 6.90359   3
  -3   2   0 8.65224 1.15554   1
  -3   2   0 6.80076 0.85948   2
  -3   2   0 7.42756 0.72291   3
  -2   2   0 99.2934 6.61015   1
  -2   2   0 100.551 6.47694   2
   1  -2   0 648.899 41.5464   1
  -1   2   0 661.236 41.4742   2
   0  -2   0 464.139 28.8027   1
   0  -2   0 454.371 28.7270   3
   0   2   0 442.846 28.7562   2
  -1  -2   0 17.8478 1.27064   3
  -1  -2   0 17.0834 1.57040   1
   1   2   0 18.5390 1.52161   2
  -2  -2   0 36.8169 2.37259   3
  -2  -2   0 24.7638 3.34759   1
   2   2   0 34.8865 3.50124   2
  -3  -2   0 129.422 9.03456   1
  -3  -2   0 119.058 7.56248   3
   3   2   0 96.5623 8.41271   2
   3   2   0 116.479 7.45859   4
  -4  -2   0 219.788 14.6571   1
  -4  -2   0 223.074 13.8047   3
   4   2   0 219.456 13.6567   4
   4   2   0 176.830 14.8378   2
  -5  -2   0 1496.59 93.8891   3
  -5  -2   0 1486.46 94.5335   1
   5   2   0 1532.94 93.7295   4
   5   2   0 1396.00 95.1779   2
  -6  -2   0 249.278 17.2705   1
  -6  -2   0 266.198 16.7295   3
   6   2   0 258.653 16.5269   4
   6   2   0 251.269 18.6674   2
  -7  -2   0 204.677 12.4870   3
  -7  -2   0 166.716 12.8462   1
   7   2   0 198.008 15.1351   2
  -8  -2   0 15.5571 2.16158   3
  -9  -2   0 14.0648 2.13952   3
  10   2   0 104.093 7.75831   3
  10  -3   0 27.7472 3.80982   1
   9  -3   0 3.15574 2.01451   1
  -9   3   0 5.80254 2.84385   2
  -8   3   0 332.194 22.0200   2
   7  -3   0 199.736 12.8265   3
  -7   3   0 198.599 13.5188   1
  -7   3   0 192.298 13.2566   2
   6  -3   0 363.799 23.7601   3
  -6   3   0 380.796 24.0848   2
  -6   3   0 373.905 24.3519   1
   5  -3   0 257.238 17.0243   3
  -5   3   0 273.770 17.2813   2
  -5   3   0 271.183 17.5710   1
   4  -3   0 12.8192 1.06153   3
  -4   3   0 14.2003 1.66468   1
  -4   3   0 13.8712 1.37373   2
   3  -3   0 730.253 46.5690   1
   3  -3   0 711.003 46.2275   3
  -3   3   0 751.790 46.3822   2
   2  -3   0 392.209 25.2037   1
  -2   3   0 395.365 25.0527   2
   1  -3   0 9998.24 624.870   1
  -1   3   0 9691.58 623.506   2
   0  -3   0 285.583 17.6945   3
   0  -3   0 289.260 17.8289   1
   0   3   0 261.283 17.7402   2
  -1  -3   0 201.623 13.2795   1
  -1  -3   0 211.306 13.0848   3
   1   3   0 200.831 13.1817   2
  -2  -3   0 1.45513 0.45813   3
  -2  -3   0 2.56189 1.68948   1
   2   3   0 2.70845 0.96953   2
  -3  -3   0 622.385 44.6908   1
  -3  -3   0 700.013 43.2729   3
   3   3   0 712.610 43.9391   2
  -4  -3   0 138.599 9.73817   1
  -4  -3   0 117.323 8.10062   3
   4   3   0 122.138 9.63165   2
  -5  -3   0 128.411 9.56729   3
  -5  -3   0 162.518 10.6648   1
   5   3   0 159.874 11.6032   2
   5   3   0 149.412 9.53159   4
  -6  -3   0 282.583 18.9072   1
  -6  -3   0 279.556 18.1803   3
   6   3   0 277.480 20.0635   2
  -7  -3   0 68.0231 5.14589   3
  -7  -3   0 74.3448 5.99806   1
  -8  -3   0 191.085 12.8171   3
  -9  -3   0 8.92492 2.00153   3
  10   3   0 376.541 24.8322   3
  10  -4   0 108.710 8.44371   1
   9  -4   0 13.4595 2.53517   1
  -9   4   0 4.30836 2.52107   2
   8  -4   0 14.2253 2.49908   1
  -8   4   0 16.0697 2.46722   2
   7  -4   0 849.232 55.0141   1
  -7   4   0 863.677 54.7862   2
   6  -4   0 2.05509 1.47786   1
   6  -4   0 0.70453 0.62755   3
  -6   4   0 1.26075 1.06698   2
   5  -4   0 5.13802 1.51205   1
   5  -4   0 5.86355 0.84709   3
  -5   4   0 5.53579 1.08548   2
   4  -4   0 313.646 20.4044   1
   4  -4   0 313.495 19.9000   3
  -4   4   0 312.089 20.1143   2
   3  -4   0 157.205 10.3769   1
  -3   4   0 154.220 10.1172   2
   2  -4   0 182.018 11.9161   1
  -2   4   0 182.775 11.7441   2
   1  -4   0 420.489 26.6110   3
   1  -4   0 425.203 26.8524   1
  -1   4   0 415.183 26.7238   2
   0  -4   0 196.911 12.4513   1
   0  -4   0 200.942 12.2604   3
   0   4   0 178.226 12.3186   2
  -1  -4   0 41.2157 3.12048   1
  -1  -4   0 41.1738 2.80272   3
   1   4   0 40.2958 2.89864   2
  -2  -4   0 108.929 7.39650   3
  -2  -4   0 130.278 8.51301   1
   2   4   0 109.240 7.59130   2
  -3  -4   0 122.190 11.3313   1
  -3  -4   0 154.713 9.84903   3
   3   4   0 164.898 10.2819   2
  -4  -4   0 16.1298 1.64123   3
  -4  -4   0 28.4825 4.71168   1
   4   4   0 16.9325 2.42119   2
  -5  -4   0 99.3710 8.12013   1
  -5  -4   0 101.066 6.82706   3
   5   4   0 98.0046 7.77346   2
  -6  -4   0 36.4293 3.97802   1
  -6  -4   0 38.0393 3.12982   3
   6   4   0 39.1878 4.71107   2
  -7  -4   0 246.074 16.1752   3
  -8  -4   0 93.2793 6.81142   3
  -9  -4   0 30.0606 3.38376   3
  10  -5   0 21.2947 3.61342   1
   9  -5   0 9.86858 2.55688   1
  -9   5   0 13.7343 2.75473   2
   8  -5   0 78.5566 6.46887   1
  -8   5   0 79.4473 6.17807   2
   7  -5   0 239.721 16.1123   1
  -7   5   0 234.449 15.6987   2
   6  -5   0 243.208 15.9991   1
  -6   5   0 230.671 15.5649   2
   5  -5   0 144.921 10.1206   1
  -5   5   0 146.151 9.71212   2
   4  -5   0 60.9155 4.54968   1
  -4   5   0 55.4249 4.10190   2
   3  -5   0 87.1339 6.16565   1
  -3   5   0 87.8796 5.87949   2
   2  -5   0 1470.77 92.4731   1
  -2   5   0 1444.34 92.2747   2
   1  -5   0 143.082 9.04886   3
   1  -5   0 145.580 9.39860   1
  -1   5   0 136.751 9.19576   2
   0  -5   0 120.681 7.63577   3
   0  -5   0 120.994 7.90957   1
   0   5   0 112.986 7.72575   2
  -1  -5   0 269.971 17.3202   1
  -1  -5   0 265.154 16.9444   3
   1   5   0 260.285 17.0399   2
  -2  -5   0 376.045 23.4180   1
  -2  -5   0 348.616 22.4760   3
   2   5   0 335.974 22.5954   2
  -3  -5   0 244.509 20.0379   1
  -3  -5   0 296.347 18.6693   3
   3   5   0 315.872 18.9461   2
  -4  -5   0 791.048 52.1691   3
  -4  -5   0 821.742 54.4043   1
   4   5   0 850.486 52.5345   2
  -5  -5   0 533.441 32.9537   1
  -5  -5   0 469.164 30.9664   3
   5   5   0 462.346 31.4069   2
  -6  -5   0 126.736 8.94643   3
   6   5   0 140.182 9.73909   2
  -7  -5   0 34.3522 3.22812   3
  -8  -5   0 9.20501 1.96136   3
  -9  -5   0 98.9114 7.39786   3
  10  -6   0 9.65420 2.71539   1
 -10   6   0 10.7374 3.32334   2
   9  -6   0 345.106 23.8668   1
  -9   6   0 368.904 23.7763   2
   8  -6   0 71.3406 6.30490   1
  -8   6   0 81.2441 6.10002   2
   7  -6   0 246.013 17.0568   1
  -7   6   0 255.203 16.6483   2
   6  -6   0 90.3940 6.99691   1
  -6   6   0 94.2820 6.58393   2
   5  -6   0 0.39852 1.37868   1
  -5   6   0 1.29864 1.08463   2
   4  -6   0 440.447 27.9887   1
  -4   6   0 421.829 27.6010   2
   3  -6   0 280.575 18.4943   1
  -3   6   0 284.141 18.2110   2
   2  -6   0 3062.92 191.966   1
  -2   6   0 3001.47 191.717   2
   1  -6   0 506.758 31.9745   1
   1  -6   0 497.484 31.5688   3
  -1   6   0 490.381 31.7336   2
   0  -6   0 59.9450 4.41160   1
   0  -6   0 60.5542 3.99193   3
   0   6   0 57.3442 4.11364   2
  -1  -6   0 82.9950 6.04253   1
  -1  -6   0 81.8700 5.48159   3
   1   6   0 82.6769 5.61525   2
  -2  -6   0 426.932 27.5504   3
  -2  -6   0 450.340 28.5749   1
   2   6   0 421.086 27.6698   2
  -3  -6   0 2.86967 2.64916   1
  -3  -6   0 0.98585 0.80609   3
   3   6   0 2.28447 1.08472   2
  -4  -6   0 29.2610 2.55821   3
  -4  -6   0 26.9712 5.06681   1
   4   6   0 31.7388 2.97319   2
  -5  -6   0 150.056 11.8667   1
  -5  -6   0 137.948 9.34667   3
   5   6   0 132.882 9.64916   2
  -6  -6   0 235.735 15.5525   3
  -7  -6   0 158.813 10.8286   3
  -8  -6   0 18.0419 2.69065   3
  -9  -6   0 66.3843 5.48347   3
  10  -7   0 8.58453 2.80562   1
 -10   7   0 12.3596 3.37619   2
   9  -7   0 81.8443 7.26365   1
  -9   7   0 92.0997 7.15143   2
   8  -7   0 389.035 25.5344   1
  -8   7   0 374.924 25.1047   2
   7  -7   0 8.79956 2.30240   1
  -7   7   0 6.94971 1.92633   2
   6  -7   0 13.6398 2.52756   1
  -6   7   0 15.5492 2.21643   2
   5  -7   0 225.922 15.0649   1
  -5   7   0 216.864 14.5541   2
   4  -7   0 43.5391 3.93992   1
  -4   7   0 40.1051 3.28028   2
   3  -7   0 229.113 15.1620   1
  -3   7   0 226.737 14.8085   2
   2  -7   0 844.754 53.8722   1
  -2   7   0 841.583 53.5858   2
   1  -7   0 60.7283 4.07994   3
   1  -7   0 66.2385 4.77157   1
  -1   7   0 60.2518 4.31901   2
   0  -7   0 68.9448 4.94216   1
   0  -7   0 64.8554 4.38513   3
   0   7   0 62.4202 4.54102   2
  -1  -7   0 216.612 13.8971   3
  -1  -7   0 215.132 14.5550   1
   1   7   0 213.589 14.0030   2
  -2  -7   0 296.272 19.5659   1
  -2  -7   0 281.179 18.2592   3
   2   7   0 276.652 18.3812   2
  -3  -7   0 3.23768 1.01848   3
  -3  -7   0 3.62642 3.07401   1
   3   7   0 4.74080 1.27391   2
  -4  -7   0 73.0620 8.41754   1
  -4  -7   0 82.6189 5.71465   3
   4   7   0 80.6309 5.90888   2
  -5  -7   0 31.2518 3.00849   3
   5   7   0 38.2926 3.57299   2
  -6  -7   0 145.298 9.93669   3
  -7  -7   0 24.3926 2.76490   3
  -8  -7   0 144.511 10.1639   3
  10  -8   0 33.2340 4.83052   1
 -10   8   0 45.4115 5.19365   2
   9  -8   0 114.751 9.67097   1
  -9   8   0 131.589 9.46785   2
   8  -8   0 295.215 20.5484   1
  -8   8   0 303.606 20.0567   2
   7  -8   0 95.9097 7.83149   1
  -7   8   0 98.1880 7.22054   2
   6  -8   0 103.288 8.25850   1
  -6   8   0 109.928 7.63128   2
   5  -8   0 28.3135 3.51882   1
  -5   8   0 26.6004 2.71797   2
   4  -8   0 82.2727 6.00727   1
  -4   8   0 69.1776 5.29210   2
   3  -8   0 424.254 27.0064   1
  -3   8   0 403.515 26.5526   2
   2  -8   0 9.82088 1.83113   1
  -2   8   0 7.00181 1.20158   2
   1  -8   0 376.791 24.5053   3
   1  -8   0 392.314 25.1709   1
  -1   8   0 389.095 24.7590   2
   0  -8   0 390.111 26.4675   1
   0  -8   0 418.754 25.8719   3
   0   8   0 405.117 26.0441   2
  -1  -8   0 578.635 38.8268   1
  -1  -8   0 608.330 38.0311   3
   1   8   0 601.121 38.1694   2
  -2  -8   0 250.791 17.8441   1
  -2  -8   0 252.480 16.2626   3
   2   8   0 248.481 16.3710   2
  -3  -8   0 503.208 40.2703   1
  -3  -8   0 616.742 38.3364   3
   3   8   0 650.211 38.5050   2
  -4  -8   0 274.521 17.9041   3
   4   8   0 273.272 18.0332   2
  -5  -8   0 15.3717 2.17830   3
  -6  -8   0 75.7164 5.75511   3
  -7  -8   0 1.05317 1.65806   3
  -8  -8   0 72.6419 5.87976   3
   9  -9   0 31.1363 4.72251   1
  -9   9   0 39.5922 4.58760   2
   8  -9   0 44.3018 5.21922   1
  -8   9   0 47.8408 4.65058   2
   7  -9   0 72.3300 6.71871   1
  -7   9   0 78.6013 6.07115   2
   6  -9   0 17.1786 3.06967   1
  -6   9   0 18.2326 2.50129   2
   5  -9   0 197.496 13.7888   1
  -5   9   0 195.857 13.1279   2
   4  -9   0 170.440 12.0278   1
  -4   9   0 170.267 11.3975   2
   3  -9   0 657.862 42.5651   1
  -3   9   0 657.967 42.0544   2
   2  -9   0 390.689 25.1786   1
  -2   9   0 374.713 24.6207   2
   1  -9   0 2.11293 1.83440   1
  -1   9   0 0.67986 1.02166   2
   0  -9   0 321.302 21.5867   1
   0  -9   0 322.339 20.6819   3
   0   9   0 324.892 20.9008   2
  -1  -9   0 108.613 7.29596   3
  -1  -9   0 98.3188 8.48259   1
   1   9   0 114.597 7.51160   2
  -2  -9   0 38.3765 5.53336   1
  -2  -9   0 36.4590 3.05744   3
   2   9   0 36.4815 3.24333   2
  -3  -9   0 12.9143 1.89149   3
  -3  -9   0 7.06785 4.80140   1
   3   9   0 15.5752 2.23178   2
  -4  -9   0 210.638 14.1542   3
   4   9   0 215.989 14.2571   2
  -5  -9   0 175.770 11.9079   3
  -6  -9   0 87.4920 6.50418   3
  -7  -9   0 16.0160 2.47255   3
   9 -10   0 98.7087 9.16638   1
  -9  10   0 119.259 8.87213   2
   8 -10   0 8.84144 3.28993   1
  -8  10   0 13.5903 2.82541   2
   7 -10   0 0.65815 2.55099   1
  -7  10   0 1.90494 1.86101   2
   6 -10   0 68.1846 6.41730   1
  -6  10   0 68.5396 5.43674   2
   5 -10   0 3.99076 2.40099   1
  -5  10   0 2.82995 1.47224   2
   4 -10   0 527.327 34.3551   1
  -4  10   0 518.606 33.6546   2
   3 -10   0 526.108 33.9586   1
  -3  10   0 509.494 33.2521   2
   2 -10   0 19.0469 3.25437   1
  -2  10   0 15.2271 2.05288   2
   1 -10   0 3.40410 2.37225   1
  -1  10   0 5.30678 1.32289   2
   0 -10   0 59.1882 5.74353   1
   0  10   0 58.5035 4.46039   2
  -1 -10   0 356.467 24.6230   1
  -1 -10   0 344.439 22.9196   3
   1  10   0 370.389 23.1610   2
  -2 -10   0 9.39147 5.10587   1
  -2 -10   0 6.91700 1.45439   3
   2  10   0 7.98083 1.73963   2
  -3 -10   0 138.152 9.89929   3
   3  10   0 155.876 10.1056   2
  -4 -10   0 36.7221 3.44917   3
   4  10   0 36.3558 3.67887   2
  -5 -10   0 39.4664 3.67806   3
  -6 -10   0 10.2555 2.12578   3
   8 -11   0 11.0520 3.67767   1
  -8  11   0 13.4468 2.89199   2
   7 -11   0 2.15897 3.07355   1
  -7  11   0 7.05936 2.22810   2
   6 -11   0 24.7735 4.08256   1
  -6  11   0 22.6943 3.02141   2
   5 -11   0 46.1511 5.29059   1
  -5  11   0 48.0370 4.13113   2
   4 -11   0 363.457 24.2003   1
  -4  11   0 350.788 23.2497   2
   3 -11   0 2.71701 2.47433   1
  -3  11   0 3.49977 1.40765   2
   2 -11   0 408.208 26.7109   1
  -2  11   0 386.751 25.6697   2
   1 -11   0 149.860 11.5517   1
  -1  11   0 153.149 10.3430   2
   0 -11   0 313.043 22.6364   1
   0  11   0 335.132 21.2974   2
  -1 -11   0 107.057 10.1391   1
   1  11   0 110.564 7.73479   2
  -2 -11   0 191.313 13.2620   3
   2  11   0 212.561 13.5304   2
  -3 -11   0 119.048 8.81412   3
   3  11   0 139.467 9.12845   2
  -4 -11   0 12.6527 2.14217   3
  -5 -11   0 85.8489 6.55623   3
  -6 -11   0 1.35768 1.88298   3
   8 -12   0 77.5697 8.20934   1
  -8  12   0 90.2586 7.14877   2
   7 -12   0 5.55638 3.57268   1
  -7  12   0 6.20549 2.36242   2
   6 -12   0 87.9294 8.39121   1
  -6  12   0 89.6609 6.88819   2
   5 -12   0 32.7206 5.07754   1
  -5  12   0 30.6239 3.33934   2
   4 -12   0 16.5109 3.71206   1
  -4  12   0 11.5687 2.10362   2
   3 -12   0 281.218 20.1503   1
  -3  12   0 291.871 18.9921   2
   2 -12   0 -1.7613 3.06525   1
  -2  12   0 1.76661 1.53373   2
   1 -12   0 372.357 25.4051   1
  -1  12   0 356.234 23.6248   2
   0 -12   0 2.57177 4.01392   1
   0  12   0 6.17035 1.75539   2
  -1 -12   0 14.2112 5.65873   1
   1  12   0 9.50106 2.06861   2
   2  12   0 106.759 7.73459   2
  -4 -12   0 124.093 8.90261   3
  -5 -12   0 48.7164 4.49435   3
   7 -13   0 30.7298 5.40954   1
  -7  13   0 27.2606 3.81259   2
   6 -13   0 8.34233 4.20726   1
  -6  13   0 3.18418 2.11553   2
   5 -13   0 376.538 25.8281   1
  -5  13   0 361.952 24.2289   2
   4 -13   0 293.639 20.0849   1
  -4  13   0 264.988 18.3556   2
   3 -13   0 1.52437 3.58107   1
  -3  13   0 0.74430 1.82389   2
   2 -13   0 3.47976 4.07336   1
  -2  13   0 3.30258 1.64464   2
   1 -13   0 -0.4592 4.74529   1
  -1  13   0 4.49154 1.89537   2
   0 -13   0 120.702 12.2972   1
   0  13   0 127.680 8.97284   2
   1  13   0 68.1419 5.56617   2
   2  13   0 41.4541 4.12325   2
   6 -14   0 33.5662 5.79830   1
   5 -14   0 87.8512 9.19235   1
  -5  14   0 92.6853 7.17268   2
   4 -14   0 9.30275 4.66941   1
  -4  14   0 8.21581 2.33144   2
   3 -14   0 192.890 15.2706   1
  -3  14   0 179.055 12.7317   2
   2 -14   0 5.82292 5.26766   1
  -2  14   0 5.66540 2.04798   2
   1 -14   0 156.709 14.9749   1
  -1  14   0 159.894 11.1975   2
   0  14   0 53.2407 4.80472   2
   1  14   0 77.1586 6.21433   2
   3 -15   0 7.99864 5.33675   1
  -3  15   0 5.10432 2.23929   2
   2 -15   0 205.383 18.4837   1
  -2  15   0 225.010 15.1278   2
  -1  15   0 40.2542 4.15640   2
  -1  15  -1 110.777 8.25183   2
  -2  15  -1 9.08765 2.40279   2
   2 -15   1 15.7571 5.92203   1
  -3  15  -1 40.7598 4.23511   2
   3 -15   1 44.5354 7.62579   1
   1  14  -1 23.5535 3.17397   2
   0  14  -1 58.0786 4.92744   2
  -1  14  -1 3.21995 1.80371   2
   1 -14   1 -5.3187 5.07828   1
  -2  14  -1 72.8773 5.96049   2
   2 -14   1 77.2888 8.77097   1
  -3  14  -1 36.9184 3.87135   2
   3 -14   1 40.8952 6.86021   1
  -4  14  -1 4.40314 2.03114   2
   4 -14   1 5.52139 4.08374   1
  -5  14  -1 149.763 10.7990   2
   5 -14   1 153.665 12.8567   1
   6 -14   1 5.32034 3.75673   1
   1  13  -1 21.5463 2.85304   2
   0  13  -1 24.6526 2.94673   2
   0 -13   1 22.1800 5.86567   1
  -1  13  -1 60.3308 4.96427   2
   1 -13   1 61.2374 7.67349   1
  -2  13  -1 91.2423 6.76619   2
   2 -13   1 91.9218 8.87430   1
  -3  13  -1 39.3979 3.72621   2
   3 -13   1 34.8004 5.55998   1
  -4  13  -1 24.3161 3.05089   2
   4 -13   1 23.6412 4.65538   1
  -5  13  -1 3.66197 1.91421   2
   5 -13   1 -1.2677 3.22363   1
  -6  13  -1 96.3774 7.33154   2
   6 -13   1 89.9940 8.71077   1
  -7  13  -1 528.734 34.7423   2
   7 -13   1 533.094 35.9841   1
   5  12  -1 87.6364 6.82969   3
   2  12  -1 193.042 13.0059   2
   1  12  -1 206.256 13.6453   2
  -1 -12   1 197.279 16.3505   1
   0  12  -1 52.3041 4.29092   2
   0 -12   1 53.1119 6.89471   1
  -1  12  -1 63.9195 5.11132   2
   1 -12   1 78.4285 7.21359   1
  -2  12  -1 3.00756 1.45049   2
   2 -12   1 7.27405 3.00576   1
  -3  12  -1 232.042 15.4818   2
   3 -12   1 233.515 16.6004   1
  -4  12  -1 13.3169 2.17960   2
   4 -12   1 16.7048 3.48787   1
  -5  12  -1 485.339 31.7392   2
   5 -12   1 493.212 32.8068   1
  -6  12  -1 2.33931 1.90717   2
   6 -12   1 2.41006 3.16100   1
  -7  12  -1 103.472 8.04342   2
   7 -12   1 109.034 9.34979   1
  -8  12  -1 16.1393 3.06488   2
   8 -12   1 12.1474 3.85426   1
  -5 -11   1 3.80018 1.79775   3
  -4 -11   1 0.67021 1.62861   3
   3  11  -1 22.2214 2.73707   2
  -3 -11   1 19.6644 2.51069   3
   2  11  -1 3.24141 1.50244   2
  -2 -11   1 -1.5847 4.65978   1
  -2 -11   1 2.70164 1.29562   3
   1  11  -1 87.9505 6.51587   2
  -1 -11   1 99.6117 8.93308   1
   0  11  -1 68.4671 5.16870   2
   0 -11   1 74.4299 6.99513   1
  -1  11  -1 191.162 12.6976   2
   1 -11   1 190.322 13.8013   1
  -2  11  -1 167.771 11.3220   2
   2 -11   1 171.587 12.3812   1
  -3  11  -1 37.9997 3.35289   2
   3 -11   1 37.5313 4.42262   1
  -4  11  -1 313.661 20.5539   2
   4 -11   1 313.311 21.3860   1
  -5  11  -1 15.6604 2.45140   2
   5 -11   1 18.4318 3.42380   1
  -6  11  -1 232.542 15.5219   2
   6 -11   1 228.557 16.4171   1
  -7  11  -1 41.6718 4.30858   2
   7 -11   1 46.2326 5.50102   1
  -8  11  -1 59.1326 5.50620   2
   8 -11   1 53.2387 6.23499   1
  -6 -10   1 8.91806 2.05104   3
  -5 -10   1 462.090 29.9954   3
  -4 -10   1 -0.0067 1.36453   3
   3  10  -1 7.70448 1.74036   2
  -3 -10   1 17.1156 6.54733   1
  -3 -10   1 7.67932 1.55269   3
   2  10  -1 10.4242 1.72387   2
  -2 -10   1 10.7394 1.61395   3
  -2 -10   1 12.1332 4.61655   1
   1  10  -1 25.0988 2.39364   2
  -1 -10   1 29.1312 4.36807   1
  -1 -10   1 20.1877 2.05188   3
   0  10  -1 48.6403 3.88670   2
   0 -10   1 50.4408 5.14447   1
  -1  10  -1 174.486 11.5207   2
   1 -10   1 172.476 12.3477   1
  -2  10  -1 9.64527 1.47328   2
   2 -10   1 4.78461 2.22792   1
  -3  10  -1 24.1247 2.50319   2
   3 -10   1 24.2131 3.34692   1
  -4  10  -1 49.6450 3.93276   2
   4 -10   1 44.8072 4.75290   1
  -5  10  -1 254.738 16.4805   2
   5 -10   1 241.702 17.0637   1
  -6  10  -1 755.008 48.4829   2
   6 -10   1 755.149 49.1475   1
  -7  10  -1 49.4081 4.57544   2
   7 -10   1 49.2405 5.35242   1
  -8  10  -1 28.8150 3.80049   2
   8 -10   1 21.9956 3.85320   1
  -9  10  -1 18.5204 3.32248   2
   9 -10   1 11.8529 3.41914   1
  -7  -9   1 77.6782 6.04680   3
  -6  -9   1 75.2181 5.80783   3
  -5  -9   1 30.9640 3.11712   3
   4   9  -1 2.30348 1.38648   2
  -4  -9   1 1.35251 1.25013   3
   3   9  -1 400.642 26.4478   2
  -3  -9   1 438.071 30.3027   1
  -3  -9   1 407.738 26.4487   3
   2   9  -1 180.930 11.7703   2
  -2  -9   1 178.235 13.7270   1
  -2  -9   1 174.048 11.6732   3
   1   9  -1 20.3924 2.03779   2
  -1  -9   1 17.3243 1.76057   3
  -1  -9   1 16.2782 3.10384   1
   0   9  -1 45.5034 3.27942   2
   0  -9   1 43.3432 4.16141   1
   0  -9   1 37.9161 2.93759   3
  -1   9  -1 10.1966 1.42978   2
   1  -9   1 10.9065 2.15618   1
  -2   9  -1 280.005 17.9665   2
   2  -9   1 272.627 18.4516   1
  -3   9  -1 26.0634 2.47875   2
   3  -9   1 25.7754 3.18454   1
  -4   9  -1 712.092 45.2803   2
   4  -9   1 704.067 45.7696   1
  -5   9  -1 157.579 10.5787   2
   5  -9   1 153.820 11.1388   1
  -6   9  -1 274.914 18.1183   2
   6  -9   1 273.315 18.6756   1
  -7   9  -1 88.0061 6.43178   2
   7  -9   1 76.8526 6.98453   1
  -8   9  -1 55.3376 4.97834   2
   8  -9   1 47.2130 5.37731   1
  -9   9  -1 91.8654 7.45317   2
   9  -9   1 89.7899 7.80901   1
  -7  -8   1 111.675 8.09201   3
  -6  -8   1 22.7761 2.67370   3
  -5  -8   1 29.0186 2.78783   3
   4   8  -1 24.0686 2.51060   2
  -4  -8   1 24.0440 6.63352   1
  -4  -8   1 19.8049 2.25265   3
   3   8  -1 354.388 23.0024   2
  -3  -8   1 385.367 26.2601   1
  -3  -8   1 345.554 22.9565   3
   2   8  -1 260.335 17.0571   2
  -2  -8   1 263.972 17.0243   3
  -2  -8   1 265.260 18.4975   1
   1   8  -1 208.394 13.4816   2
  -1  -8   1 206.382 13.3821   3
  -1  -8   1 204.411 14.2435   1
   0   8  -1 279.141 17.6468   2
   0  -8   1 266.870 17.4851   3
   0  -8   1 274.837 18.1350   1
  -1   8  -1 366.996 23.3168   2
   1  -8   1 353.119 23.0957   3
   1  -8   1 371.997 23.7492   1
  -2   8  -1 166.631 11.0843   2
   2  -8   1 170.885 11.5249   1
  -3   8  -1 271.457 17.4165   2
   3  -8   1 264.929 17.7897   1
  -4   8  -1 31.2831 2.72970   2
   4  -8   1 29.4812 3.30588   1
  -5   8  -1 791.019 50.5388   2
   5  -8   1 791.638 50.9885   1
  -6   8  -1 51.7785 4.43556   2
   6  -8   1 57.1802 5.07687   1
  -7   8  -1 113.308 8.08863   2
   7  -8   1 108.597 8.58107   1
  -8   8  -1 151.609 10.2716   2
   8  -8   1 132.320 10.5373   1
  -9   8  -1 97.9839 7.55450   2
   9  -8   1 87.9177 7.73436   1
 -10   8  -1 155.519 11.0892   2
  10  -8   1 136.967 10.9356   1
  -8  -7   1 1.26961 1.65692   3
  -7  -7   1 73.6117 5.65329   3
  -6  -7   1 359.417 23.3545   3
  -5  -7   1 57.7866 8.76582   1
  -5  -7   1 45.2967 3.69804   3
   4   7  -1 115.511 7.42380   2
  -4  -7   1 111.959 7.35665   3
  -4  -7   1 66.5514 9.91140   1
   3   7  -1 21.8673 2.06057   2
  -3  -7   1 24.9460 5.15354   1
  -3  -7   1 20.3405 2.00321   3
   2   7  -1 25.7924 2.18709   2
  -2  -7   1 22.3317 3.49146   1
  -2  -7   1 23.9372 2.08409   3
   1   7  -1 62.1854 4.47692   2
  -1  -7   1 62.2294 5.09995   1
  -1  -7   1 67.0194 4.40000   3
   0   7  -1 244.530 16.0882   2
   0  -7   1 250.399 16.4700   1
   0  -7   1 253.972 15.9862   3
  -1   7  -1 67.2929 4.34381   2
   1  -7   1 60.8036 4.08500   3
   1  -7   1 59.1450 4.68846   1
  -2   7  -1 16.8099 1.65218   2
   2  -7   1 16.4814 2.13274   1
  -3   7  -1 134.234 8.80168   2
   3  -7   1 130.495 9.12064   1
  -4   7  -1 536.356 35.2001   2
   4  -7   1 565.754 35.5950   1
  -5   7  -1 138.404 9.63379   2
   5  -7   1 148.377 10.1013   1
  -6   7  -1 196.463 13.3299   2
   6  -7   1 202.997 13.7956   1
  -7   7  -1 199.303 13.1592   2
   7  -7   1 187.959 13.5023   1
  -8   7  -1 23.5559 3.08428   2
   8  -7   1 21.4361 3.50035   1
  -9   7  -1 0.75411 2.35106   2
   9  -7   1 2.61045 2.29747   1
 -10   7  -1 123.571 9.33909   2
  10  -7   1 110.505 9.00773   1
   9   6  -1 39.2836 4.05737   3
  -8  -6   1 31.1609 3.31647   3
  -7  -6   1 5.62748 1.57696   3
  -6  -6   1 19.4349 2.21914   3
   5   6  -1 38.8340 3.34978   2
  -5  -6   1 32.9272 2.95642   3
  -5  -6   1 55.6367 7.32760   1
   4   6  -1 326.284 20.9236   2
  -4  -6   1 319.084 20.8103   3
   3   6  -1 138.954 9.44493   2
  -3  -6   1 141.727 9.39294   3
  -3  -6   1 154.749 12.1709   1
   2   6  -1 31.3843 2.45605   2
  -2  -6   1 33.7674 3.73636   1
  -2  -6   1 30.0060 2.37028   3
   1   6  -1 3.49647 0.69574   2
  -1  -6   1 0.98458 1.11835   1
  -1  -6   1 2.35009 0.60667   3
   0   6  -1 145.016 9.59473   2
   0  -6   1 149.630 9.49464   3
   0  -6   1 147.415 9.87349   1
  -1   6  -1 259.541 16.1310   2
   1  -6   1 254.085 16.3638   1
   1  -6   1 240.952 15.9492   3
  -2   6  -1 10.5916 1.21103   2
   2  -6   1 11.4551 1.62819   1
  -3   6  -1 538.251 34.8559   2
   3  -6   1 555.411 35.1277   1
  -4   6  -1 1208.53 76.8437   2
   4  -6   1 1212.66 77.1211   1
  -5   6  -1 221.228 14.7331   2
   5  -6   1 228.927 15.1035   1
  -6   6  -1 326.879 20.6288   2
   6  -6   1 304.603 20.9214   1
  -7   6  -1 7.18179 1.85957   2
   7  -6   1 5.39470 2.00709   1
  -8   6  -1 72.1908 5.71839   2
   8  -6   1 69.2686 5.93947   1
  -9   6  -1 78.6142 6.30245   2
   9  -6   1 70.6745 6.28602   1
 -10   6  -1 174.931 12.7523   2
  10  -6   1 167.907 12.2870   1
  -8  -5   1 133.843 9.37220   3
  -7  -5   1 123.136 8.54078   3
  -6  -5   1 131.294 8.78163   3
  -6  -5   1 122.720 10.6165   1
   5   5  -1 33.6307 3.43620   2
  -5  -5   1 37.6484 3.01208   3
  -5  -5   1 44.0187 6.09402   1
   4   5  -1 1043.84 61.8401   2
  -4  -5   1 938.758 61.6671   3
  -4  -5   1 917.250 64.1879   1
   3   5  -1 474.724 29.7401   2
  -3  -5   1 459.339 29.6206   3
  -3  -5   1 455.665 31.5124   1
   2   5  -1 447.604 30.1489   2
  -2  -5   1 511.782 31.0307   1
  -2  -5   1 468.232 30.1233   3
   1   5  -1 282.771 18.3706   2
  -1  -5   1 289.351 18.7144   1
  -1  -5   1 289.262 18.3273   3
   0   5  -1 462.604 29.8065   2
   0  -5   1 469.351 29.7333   3
   0  -5   1 474.386 30.0129   1
  -1   5  -1 334.809 21.5412   2
   1  -5   1 343.473 21.7385   1
   1  -5   1 335.353 21.4082   3
  -2   5  -1 243.790 15.6799   2
   2  -5   1 244.408 15.8564   1
  -3   5  -1 21.7718 1.84605   2
   3  -5   1 22.2178 2.11426   1
  -4   5  -1 1480.36 94.6540   2
   4  -5   1 1506.71 94.9100   1
  -5   5  -1 17.1385 1.89344   2
   5  -5   1 17.0809 2.20467   1
  -6   5  -1 105.910 7.53133   2
   6  -5   1 111.508 7.89391   1
  -7   5  -1 306.455 20.5707   2
   7  -5   1 321.238 20.8828   1
  -8   5  -1 152.950 10.7518   2
   8  -5   1 154.154 10.8965   1
  -9   5  -1 202.271 13.8797   2
   9  -5   1 195.058 13.7384   1
 -10   5  -1 93.8352 8.06624   2
  10  -5   1 98.5221 7.68493   1
  -8  -4   1 289.861 19.0661   3
  -7  -4   1 106.745 8.61377   1
  -7  -4   1 101.839 7.23624   3
   6   4  -1 150.563 10.1765   2
  -6  -4   1 130.842 9.23603   3
  -6  -4   1 138.715 10.6714   1
   5   4  -1 446.383 29.6118   2
  -5  -4   1 446.667 29.1110   3
  -5  -4   1 477.802 31.1359   1
   4   4  -1 29.2833 2.85329   2
  -4  -4   1 28.4198 4.80479   1
  -4  -4   1 29.1571 2.35385   3
   3   4  -1 65.0795 4.36350   2
  -3  -4   1 60.3638 4.12766   3
  -3  -4   1 46.0879 5.81888   1
   2   4  -1 20.3555 1.69570   2
  -2  -4   1 24.4101 2.88592   1
  -2  -4   1 19.0747 1.58919   3
   1   4  -1 203.741 13.4151   2
  -1  -4   1 211.315 13.7066   1
  -1  -4   1 212.899 13.3906   3
   0   4  -1 52.5840 3.64854   2
   0  -4   1 54.6206 3.58578   3
   0  -4   1 58.1516 3.85482   1
  -1   4  -1 100.829 6.58917   2
   1  -4   1 101.912 6.73995   1
  -2   4  -1 92.3398 6.27709   2
   2  -4   1 99.5796 6.44602   1
  -3   4  -1 578.438 37.2580   2
   3  -4   1 593.257 37.4425   1
  -4   4  -1 3.41445 0.81877   2
   4  -4   1 2.32134 0.40292   3
   4  -4   1 2.87932 1.08841   1
  -5   4  -1 349.070 21.7447   2
   5  -4   1 352.907 21.9910   1
   5  -4   1 314.145 21.4104   3
  -6   4  -1 178.462 12.0413   2
   6  -4   1 190.276 11.6760   3
   6  -4   1 170.796 12.2464   1
  -7   4  -1 98.1982 7.24384   2
   7  -4   1 101.640 7.38153   1
  -8   4  -1 7.26593 2.14139   2
   8  -4   1 8.71290 2.11137   1
  -9   4  -1 355.003 23.3199   2
   9  -4   1 342.404 23.1140   1
  10   3  -1 49.8332 4.70490   3
  -8  -3   1 89.4794 6.48134   3
  -7  -3   1 1.80337 2.21869   1
  -7  -3   1 0.56823 1.12767   3
   6   3  -1 47.8870 5.80879   2
  -6  -3   1 47.2461 4.71084   1
  -6  -3   1 39.5677 3.31145   3
   5   3  -1 25.3632 3.89282   2
   5   3  -1 23.9575 1.96658   4
  -5  -3   1 26.4934 3.77525   1
  -5  -3   1 19.8737 1.99841   3
   4   3  -1 321.152 20.5553   2
  -4  -3   1 300.591 21.6115   1
  -4  -3   1 299.576 19.6457   3
   3   3  -1 53.7213 4.06291   2
  -3  -3   1 34.0383 5.09592   1
  -3  -3   1 53.3030 3.50672   3
   2   3  -1 41.8199 2.94375   2
  -2  -3   1 38.4857 2.78427   3
  -2  -3   1 47.5971 4.38208   1
   1   3  -1 293.809 19.5142   2
  -1  -3   1 317.318 19.5115   3
  -1  -3   1 309.139 19.7760   1
   0   3  -1 160.262 10.5545   2
   0  -3   1 168.358 10.6917   1
   0  -3   1 167.031 10.5160   3
  -1   3  -1 5.98456 0.62125   2
   1  -3   1 3.64056 0.67755   1
  -2   3  -1 44.8615 3.02623   2
   2  -3   1 43.9543 3.16070   1
  -3   3  -1 7697.14 509.575   2
  -3   3  -1 8288.29 509.089   3
   3  -3   1 8154.40 510.392   1
  -4   3  -1 177.024 11.1827   3
  -4   3  -1 172.187 11.3971   2
   4  -3   1 173.733 11.5722   1
  -5   3  -1 956.969 61.2631   2
  -5   3  -1 969.250 61.0251   3
  -6   3  -1 1.71613 0.70686   3
  -6   3  -1 2.27672 1.15868   2
  -7   3  -1 150.907 9.82561   3
  -7   3  -1 141.393 10.2871   2
   7  -3   1 155.043 10.3574   1
  -8   3  -1 122.007 9.01839   2
   8  -3   1 123.871 8.86975   1
  -9   3  -1 306.472 18.9347   2
   9  -3   1 250.524 18.2129   1
  10   2  -1 17.4551 2.74334   3
   9   2  -1 45.7514 4.08504   3
  -8  -2   1 122.621 8.57523   3
  -8  -2   1 127.927 9.49001   1
  -7  -2   1 113.664 7.82239   3
  -7  -2   1 115.491 8.76328   1
   6   2  -1 5.80088 3.21276   2
   6   2  -1 2.19484 0.81578   4
  -6  -2   1 1.80517 1.83519   1
  -6  -2   1 1.75775 0.94304   3
   5   2  -1 1339.20 95.8344   2
   5   2  -1 1588.24 94.6519   4
  -5  -2   1 1518.04 95.7636   1
  -5  -2   1 1520.81 94.8258   3
   4   2  -1 407.592 24.6509   4
   4   2  -1 341.759 25.6651   2
  -4  -2   1 398.851 24.8124   3
  -4  -2   1 390.563 25.9731   1
   3   2  -1 1055.22 75.3725   2
   3   2  -1 1256.57 74.6518   4
  -3  -2   1 1245.48 74.7869   3
  -3  -2   1 1145.40 76.4945   1
   2   2  -1 356.295 21.2828   4
   2   2  -1 343.207 21.6401   2
  -2  -2   1 352.596 21.3573   3
  -2  -2   1 271.380 22.3103   1
   1   2  -1 364.447 23.2622   2
  -1  -2   1 375.212 23.5367   1
  -1  -2   1 360.432 23.2453   3
   0   2  -1 235.339 15.6933   2
   0  -2   1 256.522 15.6853   3
   0  -2   1 250.124 15.7944   1
  -1   2  -1 56.9338 3.82773   2
   1  -2   1 60.8479 3.92135   1
  -2   2  -1 4.16516 0.41176   3
  -2   2  -1 4.48928 0.59965   2
   2  -2   1 3.75895 0.66988   1
  -3   2  -1 115.161 7.29308   3
  -3   2  -1 112.429 7.43711   2
  -3   2  -1 112.602 7.55039   1
  -4   2  -1 26.9983 1.96299   3
  -4   2  -1 26.9223 2.19969   2
  -4   2  -1 27.3912 2.34893   1
  -5   2  -1 59.4581 3.93685   3
  -5   2  -1 54.3576 4.23749   2
  -5   2  -1 57.4553 4.38302   1
  -6   2  -1 481.668 30.8025   2
  -6   2  -1 479.792 30.4351   3
  -6   2  -1 469.921 30.8610   1
  -7   2  -1 167.657 12.2500   2
  -7   2  -1 183.142 11.7189   3
  -7   2  -1 182.675 12.2151   1
  -8   2  -1 283.817 17.9028   3
  -8   2  -1 269.088 18.6936   2
  -8   2  -1 270.076 18.3682   1
   9  -2   1 23.2331 3.15622   1
  10   1  -1 1.95389 1.97592   3
   9   1  -1 464.141 30.0299   3
  -8  -1   1 1.77253 2.04348   1
  -8  -1   1 0.43061 1.16217   3
   7   1  -1 291.547 18.5928   2
  -7  -1   1 240.799 17.1713   1
  -7  -1   1 246.709 16.4518   3
  -6  -1   1 388.857 25.6047   3
  -6  -1   1 412.750 26.4291   1
   5   1  -1 268.159 16.7964   2
  -5  -1   1 242.481 16.8014   1
  -5  -1   1 240.201 15.9966   3
   4   1  -1 30.0882 3.00927   2
  -4  -1   1 33.7642 3.29438   1
  -4  -1   1 29.9020 2.28569   3
   3   1  -1 43.2715 3.23550   2
  -3  -1   1 40.2550 2.77936   3
  -3  -1   1 36.4292 3.71533   1
   2   1  -1 12.4912 1.73776   2
  -2  -1   1 13.9475 2.47994   1
  -2  -1   1 13.0332 1.03064   3
   1   1  -1 20.6457 1.52864   2
  -1  -1   1 19.1343 1.32529   3
  -1  -1   1 16.9351 2.12923   1
   0   1  -1 11.9340 0.82178   3
   0   1  -1 11.0866 0.81384   2
   0  -1   1 14.2474 0.90674   1
  -1   1  -1 91.1409 5.96363   2
  -1   1  -1 93.3463 5.91905   3
   1  -1   1 94.1182 5.98783   1
  -2   1  -1 506.235 32.1467   3
  -2   1  -1 504.486 32.2818   1
  -2   1  -1 512.417 32.2280   2
  -3   1  -1 138.263 9.08550   3
  -3   1  -1 147.556 9.24318   2
  -3   1  -1 139.502 9.31411   1
  -4   1  -1 215.259 13.9398   3
  -4   1  -1 224.935 14.2608   1
  -4   1  -1 212.813 14.1249   2
  -5   1  -1 164.682 10.7268   3
  -5   1  -1 164.215 11.0832   1
  -5   1  -1 167.627 11.0302   2
  -6   1  -1 185.786 12.2829   2
  -6   1  -1 179.002 11.7431   3
  -6   1  -1 177.864 12.1296   1
  -7   1  -1 65.6018 5.59056   2
  -7   1  -1 60.2726 5.16921   1
  -7   1  -1 68.8361 4.68079   3
  -8   1  -1 740.600 50.1075   2
  -8   1  -1 769.474 49.5329   1
  -8   1  -1 793.483 49.1283   3
  10   0  -1 64.3081 5.25993   3
   9   0  -1 499.141 30.4197   3
  -9   0   1 437.890 30.9180   1
  -8   0   1 8.88575 2.44074   1
  -7   0   1 33.0923 3.73352   1
  -7   0   1 32.9059 2.79799   3
  -6   0   1 5.21512 0.98467   3
  -6   0   1 3.49276 1.57417   1
  -6   0   1 2.77470 1.76778   2
  -5   0   1 258.461 17.3639   1
  -5   0   1 265.425 16.7267   3
  -5   0   1 254.727 17.0264   2
  -4   0   1 105.179 7.38144   2
  -4   0   1 107.786 7.81317   1
  -4   0   1 115.692 7.23003   3
  -3   0   1 241.916 15.9537   2
  -3   0   1 238.622 16.4038   1
  -3   0   1 263.122 15.9009   3
  -2   0   1 395.242 24.3047   3
  -2   0   1 393.722 24.3215   2
  -2   0   1 355.850 24.7352   1
   1   0  -1 2.81559 0.27302   3
  -1   0   1 1.46330 0.69989   1
  -1   0   1 2.48986 0.25958   2
   0   0  -1 0.52411 0.48938   3
   0   0   1 1.21541 0.30257   2
   0   0   1 1.45598 0.30976   1
  -1   0  -1 2.47300 0.30343   3
  -1   0  -1 1.93239 0.36313   2
  -1   0  -1 3.28198 0.36046   1
  -2   0  -1 9645.17 621.599   3
  -2   0  -1 9999.99 621.974   2
  -2   0  -1 9775.77 622.362   1
  -3   0  -1 122.062 8.05361   1
  -3   0  -1 121.460 7.84674   3
  -3   0  -1 120.684 8.03186   2
  -4   0  -1 967.577 60.5322   2
  -4   0  -1 923.714 60.5094   1
  -4   0  -1 961.581 60.2701   3
  -5   0  -1 63.4133 4.31438   3
  -5   0  -1 63.9859 4.84163   2
  -5   0  -1 60.6525 4.67066   1
  -6   0  -1 372.303 23.5894   3
  -6   0  -1 371.722 24.2550   2
  -6   0  -1 359.534 23.9140   1
  -7   0  -1 121.064 8.29237   1
  -7   0  -1 117.968 7.87563   3
   7   0   1 106.279 8.76632   2
  -8   0  -1 351.813 23.9820   1
  -8   0  -1 359.183 23.6292   3
   8   0   1 382.227 23.5076   4
   8   0   1 374.080 25.1084   2
  -9   0  -1 411.785 26.6914   3
  10   0   1 35.2128 3.73717   3
   9  -1  -1 23.9580 2.72908   3
  -9   1   1 23.4413 3.80329   1
   8  -1  -1 131.361 8.81849   3
  -8   1   1 130.540 10.1635   2
  -8   1   1 128.723 9.63037   1
  -7   1   1 84.0413 6.28253   1
  -7   1   1 68.3678 5.94794   2
  -6   1   1 934.721 61.0123   2
  -6   1   1 927.016 61.2704   1
  -6   1   1 1003.33 60.7324   3
  -5   1   1 108.248 7.75298   1
  -5   1   1 99.7049 7.26634   2
  -5   1   1 113.291 7.12247   3
  -4   1   1 1297.57 85.1519   1
  -4   1   1 1322.88 84.7751   2
  -4   1   1 1390.40 84.6848   3
  -3   1   1 77.3222 5.80882   1
  -3   1   1 82.4193 5.48996   2
  -3   1   1 88.5043 5.45443   3
   2  -1  -1 45.5504 3.06654   3
  -2   1   1 49.3802 3.11427   2
  -2   1   1 46.5372 3.40333   1
   1  -1  -1 3.56689 0.38613   3
  -1   1   1 3.42943 0.55348   1
  -1   1   1 5.06887 0.40111   2
   0  -1  -1 14.6663 1.00833   1
   0  -1  -1 14.8924 1.01806   3
   0   1   1 14.5157 1.09034   2
  -1  -1  -1 1.96818 0.82404   1
  -1  -1  -1 2.87824 0.37080   3
   1   1   1 2.33092 0.44539   4
   1   1   1 0.42612 1.17874   2
  -2  -1  -1 21.6333 1.56886   3
  -2  -1  -1 22.6619 1.95178   1
   2   1   1 21.9310 1.51258   4
   2   1   1 18.0290 2.33259   2
  -3  -1  -1 78.7944 5.85887   1
  -3  -1  -1 85.4068 5.57080   3
   3   1   1 89.5940 5.49914   4
   3   1   1 83.8595 6.02233   2
  -4  -1  -1 7.53449 0.99814   3
  -4  -1  -1 7.53580 1.23615   1
   4   1   1 9.53062 1.78912   2
   4   1   1 10.2833 1.00015   4
  -5  -1  -1 36.6865 2.79507   3
  -5  -1  -1 36.3601 3.18040   1
   5   1   1 41.5869 4.09594   2
   5   1   1 39.1120 2.72930   4
  -6  -1  -1 19.0330 2.29629   1
  -6  -1  -1 17.8633 1.88411   3
   6   1   1 18.1915 3.54349   2
   6   1   1 20.4089 1.78567   4
  -7  -1  -1 192.422 14.2672   1
  -7  -1  -1 217.796 14.0382   3
   7   1   1 227.483 13.8784   4
   7   1   1 223.324 15.9318   2
  -8  -1  -1 22.6579 2.49239   3
   8   1   1 35.2662 6.75092   2
  -9  -1  -1 2.28552 1.57052   3
  -9   2   1 16.8367 2.87284   1
   8  -2  -1 283.387 18.1210   3
  -8   2   1 264.448 18.9244   2
  -8   2   1 285.078 18.9379   1
   7  -2  -1 79.2086 5.41257   3
  -7   2   1 78.4159 6.26141   1
  -7   2   1 75.0499 5.93539   2
   6  -2  -1 169.717 10.9640   3
  -6   2   1 177.324 11.6885   1
  -6   2   1 159.478 11.2305   2
   5  -2  -1 48.7262 3.35114   3
  -5   2   1 47.9743 3.58232   2
  -5   2   1 48.3798 4.00576   1
   4  -2  -1 21.0068 1.63346   3
  -4   2   1 25.1082 2.35847   1
  -4   2   1 23.2175 1.85826   2
   3  -2  -1 267.041 17.5691   3
  -3   2   1 285.817 17.9917   1
  -3   2   1 278.574 17.6619   2
   2  -2  -1 76.6778 4.80597   3
  -2   2   1 75.8669 4.86569   2
  -2   2   1 69.4442 5.06890   1
   1  -2  -1 2.01952 0.52148   1
   1  -2  -1 -0.2747 0.65279   3
  -1   2   1 2.28969 0.33365   2
   0  -2  -1 9.09404 0.77761   1
   0  -2  -1 9.04997 0.68696   3
   0   2   1 7.81865 0.76199   2
  -1  -2  -1 75.2170 4.73111   3
  -1  -2  -1 72.6893 4.85442   1
   1   2   1 67.7643 5.09109   2
  -2  -2  -1 934.840 52.2546   3
  -2  -2  -1 770.637 52.9473   1
   2   2   1 748.652 52.9574   2
  -3  -2  -1 36.7971 3.30074   1
  -3  -2  -1 35.2823 2.46888   3
   3   2   1 33.0999 2.42465   4
   3   2   1 30.7432 4.02797   2
  -4  -2  -1 3.01661 1.14838   1
  -4  -2  -1 2.40260 0.66301   3
   4   2   1 2.37251 0.64284   4
   4   2   1 3.86034 2.86755   2
  -5  -2  -1 46.1166 3.31464   3
  -5  -2  -1 42.1223 3.70738   1
   5   2   1 46.4509 3.21002   4
   5   2   1 46.2291 6.33511   2
  -6  -2  -1 109.485 7.97430   1
  -6  -2  -1 108.773 7.62901   3
   6   2   1 115.023 7.49466   4
   6   2   1 143.431 10.8469   2
  -7  -2  -1 879.835 56.3871   3
  -7  -2  -1 857.950 56.7047   1
   7   2   1 936.909 59.0497   2
  -8  -2  -1 343.148 22.3455   3
  -9  -2  -1 2.77328 1.67889   3
  10  -3  -1 448.023 29.6924   1
  -8   3   1 19.1111 3.15087   1
   7  -3  -1 111.700 7.44261   3
  -7   3   1 109.266 7.89656   2
  -7   3   1 114.223 8.39542   1
   6  -3  -1 360.938 22.6897   3
  -6   3   1 359.684 22.9397   2
  -6   3   1 342.289 23.3630   1
   5  -3  -1 27.9308 2.09220   3
  -5   3   1 29.5224 2.37771   2
  -5   3   1 28.4967 2.92156   1
   4  -3  -1 667.531 43.5200   3
  -4   3   1 677.824 43.6567   2
  -4   3   1 718.415 44.0687   1
   3  -3  -1 20.2284 1.49481   3
  -3   3   1 21.2193 1.65557   2
  -3   3   1 22.3011 1.98150   1
   2  -3  -1 13.0790 1.43338   1
   2  -3  -1 14.4181 1.64628   3
  -2   3   1 14.4218 1.16808   2
   1  -3  -1 1.36845 0.53132   1
   1  -3  -1 1.68273 0.28791   3
  -1   3   1 0.89045 0.35181   2
   0  -3  -1 12.4411 1.11646   1
   0  -3  -1 13.7675 0.97487   3
   0   3   1 10.2745 1.05750   2
  -1  -3  -1 5171.94 322.030   1
  -1  -3  -1 4994.18 322.603   3
   1   3   1 5114.72 322.027   2
  -2  -3  -1 299.085 17.9488   3
  -2  -3  -1 265.362 18.5969   1
   2   3   1 271.675 18.3787   2
  -3  -3  -1 854.794 52.8030   1
  -3  -3  -1 811.897 51.4477   3
   3   3   1 765.879 52.2828   2
  -4  -3  -1 88.3603 5.85209   3
  -4  -3  -1 88.0320 6.68332   1
   4   3   1 75.8053 7.62660   2
  -5  -3  -1 676.873 44.0016   1
  -5  -3  -1 710.669 43.5758   3
   5   3   1 622.089 45.1338   2
   5   3   1 705.285 43.5162   4
  -6  -3  -1 17.4745 1.92693   3
  -6  -3  -1 14.0594 2.28058   1
   6   3   1 19.8998 4.80767   2
  -7  -3  -1 423.464 26.8404   3
   7   3   1 398.336 29.2903   2
  -8  -3  -1 108.622 7.68720   3
  -9  -3  -1 67.9247 5.41390   3
  10  -4  -1 1.70382 2.28566   1
   9  -4  -1 42.2169 4.55113   1
  -9   4   1 38.9228 4.75258   2
   8  -4  -1 110.600 8.33500   1
  -8   4   1 109.682 8.03937   2
  -7   4   1 151.855 10.3812   2
   6  -4  -1 20.0820 1.72083   3
  -6   4   1 18.6021 2.08117   2
  -6   4   1 21.9249 2.80251   1
   5  -4  -1 1026.29 66.0336   3
  -5   4   1 1084.53 66.7149   1
  -5   4   1 1020.58 66.2321   2
   4  -4  -1 17.0028 1.34177   3
  -4   4   1 14.4271 1.50847   2
   3  -4  -1 1.76545 1.00246   1
   3  -4  -1 3.34426 0.83425   3
  -3   4   1 1.96115 0.62612   2
   2  -4  -1 149.654 9.82782   1
  -2   4   1 147.703 9.61558   2
   1  -4  -1 83.8194 5.33207   3
   1  -4  -1 85.1742 5.60824   1
  -1   4   1 79.1155 5.45085   2
   0  -4  -1 49.3361 3.27798   3
   0  -4  -1 49.6333 3.45520   1
   0   4   1 48.7362 3.41339   2
  -1  -4  -1 306.173 19.3540   3
  -1  -4  -1 312.441 19.5530   1
   1   4   1 290.533 19.5071   2
  -2  -4  -1 21.4601 2.86447   1
  -2  -4  -1 21.2928 1.70092   3
   2   4   1 20.8077 2.14196   2
  -3  -4  -1 61.4153 4.20072   3
  -3  -4  -1 54.0184 5.59447   1
   3   4   1 63.0074 4.85938   2
  -4  -4  -1 100.756 6.68053   3
  -4  -4  -1 112.650 8.51071   1
   4   4   1 84.4245 7.47920   2
  -5  -4  -1 44.4325 3.35047   3
  -5  -4  -1 38.8287 4.18254   1
   5   4   1 44.0386 5.02360   2
  -6  -4  -1 103.995 7.12765   3
   6   4   1 98.1104 8.71851   2
  -7  -4  -1 86.8590 6.36188   3
   7   4   1 94.8849 8.56419   2
  -8  -4  -1 5.13037 1.72497   3
  -9  -4  -1 131.641 9.34214   3
  10  -5  -1 16.5289 3.18428   1
   9  -5  -1 81.6335 7.12553   1
  -9   5   1 93.9034 7.09694   2
   8  -5  -1 7.93463 2.34047   1
  -8   5   1 10.0067 2.21190   2
   7  -5  -1 101.565 8.09257   1
  -7   5   1 108.877 7.53145   2
   6  -5  -1 91.8976 7.10738   1
  -6   5   1 91.7002 6.47033   2
   5  -5  -1 94.7064 6.98927   1
  -5   5   1 92.3402 6.42722   2
   4  -5  -1 292.564 19.3402   1
  -4   5   1 293.652 18.8945   2
   3  -5  -1 257.214 17.1860   1
  -3   5   1 267.443 16.9078   2
   2  -5  -1 4.00755 1.02159   1
  -2   5   1 3.54187 0.68381   2
   1  -5  -1 4.32905 0.59586   3
   1  -5  -1 4.98941 0.98145   1
  -1   5   1 5.59941 0.79508   2
   0  -5  -1 21.1435 1.97543   1
   0   5   1 25.1136 1.91344   2
  -1  -5  -1 415.824 26.5572   1
  -1  -5  -1 413.857 26.2526   3
   1   5   1 406.312 26.4088   2
  -2  -5  -1 10.9258 2.18596   1
  -2  -5  -1 9.31561 1.14901   3
   2   5   1 8.03152 1.37975   2
  -3  -5  -1 353.544 24.1516   1
  -3  -5  -1 351.031 22.7275   3
   3   5   1 358.981 23.1571   2
  -4  -5  -1 26.8473 2.27852   3
  -4  -5  -1 37.7021 4.96280   1
   4   5   1 21.3503 3.00583   2
  -5  -5  -1 168.818 10.7779   3
  -5  -5  -1 164.567 11.9131   1
   5   5   1 147.223 11.4051   2
  -6  -5  -1 836.800 52.4483   3
   6   5   1 802.952 53.1839   2
  -7  -5  -1 403.033 26.1802   3
  -8  -5  -1 -0.1456 1.54468   3
  -9  -5  -1 5.52056 2.03273   3
  10  -6  -1 15.1226 3.12558   1
   9  -6  -1 -1.3485 2.20382   1
  -9   6   1 1.65316 2.26075   2
   8  -6  -1 162.863 12.3748   1
  -8   6   1 181.381 11.9563   2
   7  -6  -1 434.078 28.2887   1
  -7   6   1 420.174 27.6921   2
   6  -6  -1 5.61668 2.08545   1
  -6   6   1 8.23861 1.57036   2
   5  -6  -1 415.001 24.9585   1
  -5   6   1 346.119 24.3440   2
   4  -6  -1 2.91903 1.39588   1
  -4   6   1 2.96291 0.88819   2
   3  -6  -1 21.2875 2.39865   1
  -3   6   1 19.9067 1.78400   2
   2  -6  -1 42.1817 3.35298   1
  -2   6   1 38.8408 2.93875   2
   1  -6  -1 24.9872 1.76474   3
   1  -6  -1 23.5209 2.28915   1
  -1   6   1 23.7121 2.00347   2
   0  -6  -1 3898.48 243.130   1
   0  -6  -1 3920.42 242.801   3
   0   6   1 3708.18 242.916   2
  -1  -6  -1 219.836 13.8085   3
  -1  -6  -1 208.530 14.2206   1
   1   6   1 212.548 13.9699   2
  -2  -6  -1 275.781 17.7958   3
  -2  -6  -1 287.404 18.8977   1
   2   6   1 268.117 17.9942   2
  -3  -6  -1 19.9041 1.89700   3
  -3  -6  -1 18.4924 3.45440   1
   3   6   1 18.8305 2.40190   2
  -4  -6  -1 444.528 28.8116   3
  -4  -6  -1 475.678 31.0877   1
   4   6   1 435.965 29.1949   2
  -5  -6  -1 5.79486 1.36141   3
   5   6   1 6.94620 2.30347   2
  -6  -6  -1 106.529 7.79263   3
   6   6   1 121.781 8.80991   2
  -7  -6  -1 55.7199 4.52052   3
  -8  -6  -1 50.9538 4.42183   3
  -9  -6  -1 123.402 8.98204   3
  10  -7  -1 1.09686 2.53601   1
   9  -7  -1 125.952 10.1476   1
  -9   7   1 140.511 9.95184   2
   8  -7  -1 3.61585 2.43322   1
  -8   7   1 12.2198 2.40566   2
   7  -7  -1 117.903 9.14988   1
  -7   7   1 120.135 8.47740   2
   6  -7  -1 569.232 37.7897   1
  -6   7   1 588.429 37.2435   2
   5  -7  -1 88.9197 6.99366   1
  -5   7   1 92.3086 6.41827   2
   4  -7  -1 8.14328 2.01336   1
  -4   7   1 8.50619 1.34873   2
   3  -7  -1 63.7747 5.14769   1
  -3   7   1 66.6860 4.64968   2
   2  -7  -1 4.19274 0.60144   3
   2  -7  -1 6.29665 1.46036   1
  -2   7   1 4.96158 0.96674   2
   1  -7  -1 390.755 24.0119   3
   1  -7  -1 384.436 24.5372   1
  -1   7   1 355.737 24.1890   2
   0  -7  -1 607.282 39.7136   1
   0  -7  -1 641.509 39.2792   3
   0   7   1 603.409 39.4538   2
  -1  -7  -1 34.4228 3.40182   1
  -1  -7  -1 34.3672 2.58539   3
   1   7   1 32.3166 2.81854   2
  -2  -7  -1 32.1222 2.65822   3
  -2  -7  -1 34.5003 4.40287   1
   2   7   1 34.0838 2.93663   2
  -3  -7  -1 242.488 16.0142   3
  -3  -7  -1 244.501 17.8400   1
   3   7   1 251.555 16.2778   2
  -4  -7  -1 251.730 16.5645   3
   4   7   1 255.584 16.9377   2
  -5  -7  -1 102.963 7.41779   3
   5   7   1 111.137 8.01336   2
  -6  -7  -1 268.266 17.6930   3
  -7  -7  -1 14.8499 2.31722   3
  -8  -7  -1 108.475 7.94994   3
  10  -8  -1 18.2945 3.72079   1
 -10   8   1 19.9147 3.91407   2
   9  -8  -1 276.525 19.9833   1
  -9   8   1 299.492 19.6123   2
   8  -8  -1 13.6182 3.25142   1
  -8   8   1 20.2921 2.94454   2
   7  -8  -1 75.3480 6.66511   1
  -7   8   1 75.1919 5.89776   2
   6  -8  -1 190.226 13.5036   1
  -6   8   1 188.174 12.7237   2
   5  -8  -1 76.7078 6.13493   1
  -5   8   1 67.1036 5.22052   2
   4  -8  -1 119.937 8.87645   1
  -4   8   1 120.831 8.21704   2
   3  -8  -1 3.64368 1.73567   1
  -3   8   1 3.43863 1.09189   2
   2  -8  -1 1.77942 1.51513   1
  -2   8   1 1.39267 0.90231   2
   1  -8  -1 159.760 10.6803   1
   1  -8  -1 151.843 9.89700   3
  -1   8   1 150.002 10.1673   2
   0  -8  -1 93.0545 6.11858   3
   0  -8  -1 82.8820 6.77693   1
   0   8   1 96.3795 6.41797   2
  -1  -8  -1 207.282 13.4797   3
  -1  -8  -1 212.670 14.4575   1
   1   8   1 204.152 13.6782   2
  -2  -8  -1 516.120 32.8149   3
  -2  -8  -1 502.149 34.4489   1
   2   8   1 516.788 33.0183   2
  -3  -8  -1 144.369 9.52716   3
  -3  -8  -1 123.353 11.3062   1
   3   8   1 148.225 9.82349   2
  -4  -8  -1 79.5351 5.88483   3
   4   8   1 85.4285 6.30318   2
  -5  -8  -1 618.181 40.3377   3
   5   8   1 638.354 40.6100   2
  -6  -8  -1 149.239 10.3177   3
  -7  -8  -1 0.83942 1.65384   3
  -8  -8  -1 47.5773 4.38621   3
   9  -9  -1 54.3256 6.23189   1
  -9   9   1 64.4246 6.03310   2
   8  -9  -1 193.735 14.8614   1
  -8   9   1 213.077 14.2184   2
   7  -9  -1 13.0972 3.24677   1
  -7   9   1 13.3863 2.38345   2
   6  -9  -1 98.5963 8.04896   1
  -6   9   1 96.4327 7.08299   2
   5  -9  -1 -0.6372 2.07135   1
  -5   9   1 3.22207 1.39046   2
   4  -9  -1 17.2747 2.98848   1
  -4   9   1 23.4665 2.41164   2
   3  -9  -1 25.8434 3.32915   1
  -3   9   1 24.1142 2.45717   2
   2  -9  -1 5.18434 2.08183   1
  -2   9   1 0.19330 0.99604   2
   1  -9  -1 614.261 42.5110   1
  -1   9   1 693.855 41.9608   2
   0  -9  -1 142.033 10.4691   1
   0  -9  -1 143.775 9.47666   3
   0   9   1 146.961 9.77658   2
  -1  -9  -1 47.7657 3.72738   3
  -1  -9  -1 51.1679 5.28069   1
   1   9   1 54.9390 4.14449   2
  -2  -9  -1 133.118 11.6432   1
  -2  -9  -1 139.598 9.23428   3
   2   9   1 134.941 9.42089   2
  -3  -9  -1 225.073 15.1218   3
   3   9   1 235.477 15.3619   2
  -4  -9  -1 6.51709 1.66388   3
   4   9   1 9.39461 2.18835   2
  -5  -9  -1 1.18854 1.57323   3
  -6  -9  -1 73.4828 5.70517   3
  -7  -9  -1 47.4459 4.28045   3
   9 -10  -1 42.2684 5.70679   1
  -9  10   1 50.7691 5.39882   2
   8 -10  -1 229.421 17.6411   1
  -8  10   1 260.971 16.9253   2
   7 -10  -1 209.005 15.0767   1
  -7  10   1 201.935 14.0170   2
   6 -10  -1 84.7343 7.45565   1
  -6  10   1 83.2710 6.43494   2
   5 -10  -1 11.0679 2.94220   1
  -5  10   1 14.3100 2.11928   2
   4 -10  -1 103.546 8.30221   1
  -4  10   1 101.709 7.28410   2
   3 -10  -1 18.8330 3.10640   1
  -3  10   1 15.2293 2.10404   2
   2 -10  -1 264.834 17.7969   1
  -2  10   1 252.255 16.8949   2
   1 -10  -1 462.122 29.5253   1
  -1  10   1 427.219 28.5844   2
   0 -10  -1 20.6456 3.65828   1
   0  10   1 16.8219 2.30795   2
  -1 -10  -1 3.80242 1.22409   3
  -1 -10  -1 8.48018 3.50214   1
   1  10   1 6.19310 1.62808   2
  -2 -10  -1 129.974 9.10927   3
   2  10   1 140.504 9.45152   2
  -3 -10  -1 258.375 17.1488   3
   3  10   1 263.323 17.3588   2
  -4 -10  -1 3.98624 1.70853   3
   4  10   1 5.04094 2.10866   2
  -5 -10  -1 239.064 15.9891   3
  -6 -10  -1 13.6707 2.35767   3
   8 -11  -1 36.2209 5.60787   1
  -8  11   1 37.0425 4.31631   2
   7 -11  -1 127.932 11.4251   1
  -7  11   1 155.709 10.4479   2
   6 -11  -1 -1.7695 2.85459   1
  -6  11   1 3.81528 1.86567   2
   5 -11  -1 17.6213 3.59648   1
  -5  11   1 19.2008 2.70307   2
   4 -11  -1 14.1408 3.47551   1
  -4  11   1 11.7640 2.04084   2
   3 -11  -1 12.2885 3.12874   1
  -3  11   1 7.80804 1.66847   2
   2 -11  -1 148.844 11.4616   1
  -2  11   1 145.144 10.0610   2
   1 -11  -1 4.57470 3.10683   1
  -1  11   1 2.01294 1.48772   2
   0 -11  -1 149.809 12.4883   1
   0  11   1 162.357 10.8321   2
  -1 -11  -1 256.230 20.2729   1
   1  11   1 281.675 18.0730   2
  -2 -11  -1 162.744 11.3664   3
   2  11   1 177.150 11.7072   2
  -3 -11  -1 37.4418 3.62000   3
   3  11   1 45.0991 4.16449   2
  -4 -11  -1 274.341 18.1787   3
  -5 -11  -1 52.7009 4.62435   3
   8 -12  -1 -0.2589 3.69775   1
  -8  12   1 5.10105 2.59261   2
   7 -12  -1 -0.6425 3.48984   1
  -7  12   1 3.97893 2.34014   2
   6 -12  -1 12.5673 3.91363   1
  -6  12   1 10.9064 2.53300   2
   5 -12  -1 11.5390 3.80967   1
  -5  12   1 10.9746 2.22612   2
   4 -12  -1 39.6174 5.70727   1
  -4  12   1 36.2761 3.62570   2
   3 -12  -1 7.34181 3.46873   1
  -3  12   1 5.60984 1.72058   2
   2 -12  -1 45.2776 6.10935   1
  -2  12   1 47.1664 4.22496   2
   1 -12  -1 181.749 14.5220   1
  -1  12   1 185.564 12.5280   2
   0 -12  -1 26.0970 5.83594   1
   0  12   1 24.3510 3.09555   2
   1  12   1 216.174 14.6086   2
   2  12   1 34.3157 3.78996   2
   3  12   1 4.12515 2.22354   2
  -4 -12  -1 114.329 8.34134   3
   7 -13  -1 32.5867 6.11230   1
  -7  13   1 43.2404 4.58962   2
   6 -13  -1 24.5341 5.08158   1
  -6  13   1 19.7874 3.15843   2
   5 -13  -1 32.8137 5.58775   1
  -5  13   1 34.0499 3.82495   2
   4 -13  -1 28.2206 5.12672   1
  -4  13   1 24.6120 3.27598   2
   3 -13  -1 313.604 23.0575   1
  -3  13   1 323.439 21.2194   2
   2 -13  -1 280.869 21.4500   1
  -2  13   1 297.685 19.4383   2
   1 -13  -1 4.96646 4.75066   1
  -1  13   1 1.96230 1.76760   2
   0  13   1 4.86417 2.07296   2
   1  13   1 44.1264 4.30103   2
   2  13   1 106.537 8.03720   2
   5 -14  -1 14.2275 4.91006   1
  -5  14   1 16.6616 2.80289   2
   4 -14  -1 18.6357 5.55042   1
  -4  14   1 16.8655 2.88226   2
   3 -14  -1 2.72413 4.81708   1
  -3  14   1 7.27747 2.37066   2
   2 -14  -1 11.0525 5.75036   1
  -2  14   1 6.16064 2.09549   2
  -1  14   1 122.340 9.08541   2
   0  14   1 85.6734 6.82123   2
   1  14   1 137.923 10.0313   2
   2  14   1 28.1324 4.04684   2
   3 -15  -1 8.23307 5.70715   1
  -3  15   1 0.86176 2.27761   2
  -2  15   1 85.6935 7.01763   2
   0  15  -2 2.52639 1.93587   2
  -1  15  -2 148.120 10.2697   2
   1 -15   2 133.984 13.9123   1
  -2  15  -2 193.028 13.0955   2
   2 -15   2 182.417 16.0594   1
  -3  15  -2 30.5323 3.51718   2
   3 -15   2 28.4995 5.84562   1
   4 -15   2 52.2668 7.45928   1
   0  14  -2 55.9917 4.68075   2
   0 -14   2 60.8201 9.43664   1
  -1  14  -2 20.5812 2.89275   2
   1 -14   2 20.3272 5.65964   1
  -2  14  -2 7.56152 2.04653   2
   2 -14   2 13.8778 4.49666   1
  -3  14  -2 12.3705 2.39242   2
   3 -14   2 7.82746 4.24666   1
  -4  14  -2 34.4094 3.65892   2
   4 -14   2 35.8649 5.65952   1
  -5  14  -2 6.59842 2.18327   2
   5 -14   2 10.1290 3.98622   1
   6 -14   2 32.3680 5.64192   1
   1  13  -2 122.879 8.49486   2
  -1 -13   2 109.914 12.3077   1
   0  13  -2 36.7937 3.50075   2
   0 -13   2 41.9089 6.90383   1
  -1  13  -2 21.1596 2.67579   2
   1 -13   2 25.5646 4.88656   1
  -2  13  -2 -1.0105 1.52037   2
   2 -13   2 1.13228 3.27526   1
  -3  13  -2 7.66854 1.84018   2
   3 -13   2 8.78012 3.38103   1
  -4  13  -2 28.2885 3.25428   2
   4 -13   2 35.6453 5.03057   1
  -5  13  -2 26.6181 3.32972   2
   5 -13   2 32.2476 4.95344   1
  -6  13  -2 51.2948 4.68138   2
   6 -13   2 48.0867 6.16563   1
  -7  13  -2 3.56772 2.29669   2
   7 -13   2 4.63864 3.82756   1
   5  12  -2 3.76760 2.23117   3
   4  12  -2 115.019 8.34644   3
   2  12  -2 3.57520 1.62472   2
  -2 -12   2 1.20009 5.79616   1
   1  12  -2 30.8389 3.00487   2
  -1 -12   2 27.1740 5.55130   1
   0  12  -2 384.995 24.3689   2
   0 -12   2 360.845 26.0250   1
  -1  12  -2 210.304 13.9529   2
   1 -12   2 210.126 15.3104   1
  -2  12  -2 32.2903 3.15360   2
   2 -12   2 33.9784 4.65152   1
  -3  12  -2 149.598 10.2464   2
   3 -12   2 149.100 11.3059   1
  -4  12  -2 16.9921 2.45659   2
   4 -12   2 17.7337 3.40274   1
  -5  12  -2 53.4783 4.54595   2
   5 -12   2 50.0898 5.71130   1
  -6  12  -2 42.0954 4.17451   2
   6 -12   2 46.0345 5.50680   1
  -7  12  -2 339.999 21.9357   2
   7 -12   2 315.377 22.7661   1
  -8  12  -2 21.2286 3.29042   2
   8 -12   2 16.2366 4.04953   1
   6  11  -2 19.7565 2.89811   3
   5  11  -2 45.9065 4.39387   3
   2  11  -2 32.9944 3.09884   2
  -2 -11   2 36.7904 6.54875   1
   1  11  -2 41.2532 3.47844   2
  -1 -11   2 43.3055 5.82961   1
   0  11  -2 79.9326 5.64433   2
   0 -11   2 74.6996 7.15160   1
  -1  11  -2 0.55353 1.13982   2
   1 -11   2 2.35383 2.44811   1
  -2  11  -2 5.37405 1.44079   2
   2 -11   2 5.20044 2.32706   1
  -3  11  -2 55.2794 4.31865   2
   3 -11   2 53.4680 5.23502   1
  -4  11  -2 17.9123 2.26821   2
   4 -11   2 15.7308 3.06367   1
  -5  11  -2 -0.0069 1.46599   2
   5 -11   2 1.87040 2.37503   1
  -6  11  -2 55.6117 4.70314   2
   6 -11   2 52.5831 5.61114   1
  -7  11  -2 35.0629 3.93459   2
   7 -11   2 40.7056 4.93770   1
  -8  11  -2 84.6873 7.02695   2
   8 -11   2 85.0785 7.66866   1
   6  10  -2 130.319 9.33401   3
  -4 -10   2 96.9742 6.94962   3
   3  10  -2 522.649 33.1055   2
  -3 -10   2 539.839 37.6820   1
  -3 -10   2 498.503 33.1442   3
   2  10  -2 75.5335 5.37581   2
  -2 -10   2 72.5633 5.34108   3
  -2 -10   2 85.9097 8.46083   1
   1  10  -2 5.45863 1.27935   2
  -1 -10   2 8.48840 2.88089   1
   0  10  -2 29.4989 2.60983   2
   0 -10   2 29.4976 3.94423   1
  -1  10  -2 2.98964 1.07125   2
   1 -10   2 5.84357 2.10509   1
  -2  10  -2 34.7184 3.02094   2
   2 -10   2 36.5487 3.91002   1
  -3  10  -2 162.633 10.6450   2
   3 -10   2 153.377 11.2144   1
  -4  10  -2 5.58895 1.43042   2
   4 -10   2 5.18984 2.13544   1
  -5  10  -2 81.5117 6.10684   2
   5 -10   2 85.7000 6.86152   1
  -6  10  -2 34.7608 3.32974   2
   6 -10   2 25.3694 4.06499   1
  -7  10  -2 36.2626 3.75262   2
   7 -10   2 33.9068 4.50810   1
  -8  10  -2 444.197 29.1704   2
   8 -10   2 442.006 29.6993   1
  -9  10  -2 31.1200 4.03019   2
   9 -10   2 27.6516 4.52203   1
   7   9  -2 50.4362 4.63700   3
  -5  -9   2 120.708 8.48229   3
  -4  -9   2 166.176 10.9516   3
  -4  -9   2 146.004 16.0719   1
   3   9  -2 16.9519 1.94710   2
  -3  -9   2 19.3715 6.38713   1
  -3  -9   2 13.0506 1.87415   3
   2   9  -2 9.72276 1.38277   2
  -2  -9   2 9.58340 3.46339   1
  -2  -9   2 6.43364 1.22905   3
   1   9  -2 606.824 39.0821   2
  -1  -9   2 621.554 40.0713   1
  -1  -9   2 611.041 39.0209   3
   0   9  -2 133.471 8.78201   2
   0  -9   2 128.443 9.55788   1
  -1   9  -2 11.1034 1.54317   2
   1  -9   2 9.85024 2.01929   1
  -2   9  -2 185.979 12.1268   2
   2  -9   2 182.093 12.6267   1
  -3   9  -2 1.00693 1.03567   2
   3  -9   2 1.65476 1.67569   1
  -4   9  -2 88.6992 6.20919   2
   4  -9   2 87.0386 6.77835   1
  -5   9  -2 140.020 9.58548   2
   5  -9   2 140.520 10.1257   1
  -6   9  -2 405.065 25.8589   2
   6  -9   2 388.168 26.2891   1
  -7   9  -2 11.0993 2.25870   2
   7  -9   2 6.17921 2.53125   1
  -8   9  -2 188.353 12.4780   2
   8  -9   2 164.264 12.6802   1
  -9   9  -2 -1.0602 2.39385   2
   9  -9   2 2.03450 2.52676   1
   8   8  -2 20.7685 3.07948   3
  -6  -8   2 24.9693 2.80398   3
  -5  -8   2 241.669 20.9190   1
  -5  -8   2 242.897 15.9879   3
   4   8  -2 41.6552 3.21336   2
  -4  -8   2 29.4951 7.55757   1
  -4  -8   2 36.4527 3.19602   3
   3   8  -2 175.143 11.5347   2
  -3  -8   2 170.537 11.5711   3
  -3  -8   2 198.957 15.3831   1
   2   8  -2 8.98587 1.39241   2
  -2  -8   2 10.0500 3.00070   1
  -2  -8   2 8.53231 1.24700   3
   1   8  -2 1002.65 63.6009   2
  -1  -8   2 981.421 63.5497   3
  -1  -8   2 1024.52 64.3598   1
   0   8  -2 56.3942 4.10028   2
   0  -8   2 59.8216 4.71620   1
  -1   8  -2 25.1957 1.91206   3
  -1   8  -2 27.2366 2.22053   2
   1  -8   2 27.7812 2.85414   1
  -2   8  -2 140.288 9.68851   2
   2  -8   2 155.209 10.1607   1
  -3   8  -2 117.497 7.74495   2
   3  -8   2 111.435 8.14537   1
  -4   8  -2 132.603 8.62353   2
   4  -8   2 120.084 8.97171   1
  -5   8  -2 46.9388 3.71468   2
   5  -8   2 41.2406 4.13515   1
  -6   8  -2 195.791 12.7677   2
   6  -8   2 181.445 13.1358   1
  -7   8  -2 416.024 26.8145   2
   7  -8   2 404.680 27.1917   1
  -8   8  -2 19.1277 2.84216   2
   8  -8   2 13.9200 2.94961   1
  -9   8  -2 77.4317 6.39290   2
   9  -8   2 70.1787 6.49431   1
 -10   8  -2 210.066 14.1330   2
  10  -8   2 183.083 13.9194   1
   8   7  -2 127.363 9.17394   3
  -7  -7   2 184.976 12.5113   3
  -6  -7   2 16.0059 2.20280   3
  -5  -7   2 5.31241 5.77230   1
  -5  -7   2 8.41494 1.48403   3
   4   7  -2 404.067 25.8403   2
  -4  -7   2 400.987 25.8985   3
   3   7  -2 2.62523 0.88008   2
  -3  -7   2 1.53364 0.87617   3
  -3  -7   2 2.62130 3.74177   1
   2   7  -2 52.6667 3.56225   2
  -2  -7   2 52.8411 5.10042   1
  -2  -7   2 46.0151 3.53097   3
   1   7  -2 81.6653 5.52718   2
  -1  -7   2 83.1298 5.47267   3
  -1  -7   2 80.8968 6.22388   1
   0   7  -2 35.3066 2.62390   2
   0  -7   2 34.0560 3.10669   1
   0  -7   2 34.9188 2.47500   3
  -1   7  -2 22.5973 1.94984   2
  -1   7  -2 23.6473 1.69486   3
   1  -7   2 24.3147 2.44207   1
  -2   7  -2 408.820 26.0460   2
   2  -7   2 404.889 26.3292   1
  -3   7  -2 9.46533 1.38719   2
   3  -7   2 10.3971 1.81663   1
  -4   7  -2 122.738 8.17182   2
   4  -7   2 118.427 8.48160   1
  -5   7  -2 34.7683 3.12324   2
   5  -7   2 38.8895 3.61460   1
  -6   7  -2 54.8775 4.31945   2
   6  -7   2 49.8571 4.70658   1
  -7   7  -2 198.214 13.2659   2
   7  -7   2 192.855 13.5863   1
  -8   7  -2 144.301 9.75023   2
   8  -7   2 126.080 9.87101   1
  -9   7  -2 32.1629 3.97774   2
   9  -7   2 29.5602 4.06352   1
 -10   7  -2 23.9501 3.95379   2
  10  -7   2 18.3862 3.33491   1
   9   6  -2 -0.1047 1.85472   3
   8   6  -2 74.5854 5.79788   3
  -7  -6   2 32.4841 3.06468   3
  -6  -6   2 47.1659 3.87149   3
  -6  -6   2 62.8885 7.95022   1
  -5  -6   2 83.7620 10.2690   1
  -5  -6   2 89.8013 6.19646   3
   4   6  -2 3.25294 1.00307   2
  -4  -6   2 2.69753 3.84860   1
  -4  -6   2 2.56806 0.95052   3
   3   6  -2 12.7184 1.37732   2
  -3  -6   2 10.1769 1.33819   3
  -3  -6   2 16.8537 4.42644   1
   2   6  -2 338.253 22.0730   2
  -2  -6   2 334.636 22.0881   3
  -2  -6   2 371.296 23.1237   1
   1   6  -2 1.05714 0.60059   2
  -1  -6   2 3.00906 1.21448   1
  -1  -6   2 2.73469 0.56297   3
   0   6  -2 0.89433 0.56151   2
   0  -6   2 -0.3628 0.40306   3
   0  -6   2 0.38402 0.88633   1
  -1   6  -2 329.511 21.2727   2
  -1   6  -2 335.761 21.1292   3
   1  -6   2 332.799 21.5239   1
  -2   6  -2 42.8128 3.11172   2
   2  -6   2 43.3239 3.40499   1
  -3   6  -2 64.9834 4.47576   2
   3  -6   2 63.2608 4.74511   1
  -4   6  -2 461.869 29.0515   2
   4  -6   2 444.310 29.2889   1
  -5   6  -2 278.507 17.5422   2
   5  -6   2 258.584 17.7543   1
  -6   6  -2 404.700 26.4386   2
   6  -6   2 412.249 26.7270   1
  -7   6  -2 256.424 17.2195   2
   7  -6   2 262.693 17.4767   1
  -8   6  -2 102.251 7.56712   2
   8  -6   2 100.695 7.77130   1
  -9   6  -2 48.4943 4.82188   2
   9  -6   2 49.2032 4.79128   1
 -10   6  -2 9.64953 3.27570   2
  10  -6   2 10.9072 2.78658   1
   9   5  -2 60.9541 5.13714   3
  -7  -5   2 4.68416 1.47795   3
  -6  -5   2 432.373 28.7750   1
  -6  -5   2 400.375 26.5391   3
   5   5  -2 2.88857 1.15479   2
  -5  -5   2 5.85137 4.03768   1
  -5  -5   2 1.92934 0.92378   3
   4   5  -2 210.206 11.7624   2
  -4  -5   2 124.768 13.9683   1
  -4  -5   2 169.811 11.6538   3
   3   5  -2 1.38151 0.68220   2
  -3  -5   2 0.17856 2.95487   1
  -3  -5   2 0.75283 0.64317   3
   2   5  -2 2715.53 173.719   2
  -2  -5   2 2885.88 174.614   1
  -2  -5   2 2649.57 173.722   3
   1   5  -2 85.3432 5.61870   2
  -1  -5   2 83.3272 6.07059   1
  -1  -5   2 86.7446 5.61249   3
   0   5  -2 2.65964 0.54012   2
   0  -5   2 1.66970 0.43824   3
   0  -5   2 7.98953 1.14121   1
  -1   5  -2 423.528 26.3666   3
  -1   5  -2 407.582 26.4813   2
   1  -5   2 416.334 26.6834   1
  -2   5  -2 168.500 10.7062   2
   2  -5   2 161.456 10.8785   1
  -3   5  -2 367.133 23.7300   2
   3  -5   2 374.463 23.9088   1
  -4   5  -2 11.7469 1.47743   2
   4  -5   2 11.9390 1.83494   1
  -5   5  -2 235.592 15.7324   2
   5  -5   2 246.624 15.9767   1
  -6   5  -2 342.770 22.2843   2
   6  -5   2 342.834 22.4767   1
  -7   5  -2 3.76884 1.63126   2
   7  -5   2 1.85348 1.63877   1
  -8   5  -2 86.5516 6.66256   2
   8  -5   2 88.0780 6.76526   1
  -9   5  -2 659.497 41.6039   2
   9  -5   2 620.078 41.4131   1
 -10   5  -2 87.0741 7.67783   2
  10  -5   2 87.2897 7.04251   1
   9   4  -2 69.8665 5.58280   3
  -7  -4   2 27.5161 4.51132   1
  -7  -4   2 24.5645 2.56672   3
  -6  -4   2 43.9654 5.86060   1
  -6  -4   2 43.2018 3.42843   3
   5   4  -2 151.373 9.58710   2
  -5  -4   2 130.990 9.20998   3
  -5  -4   2 138.132 11.7551   1
   4   4  -2 47.4224 3.39564   2
  -4  -4   2 28.7091 5.43649   1
  -4  -4   2 43.6500 3.18621   3
   3   4  -2 361.190 22.3954   2
  -3  -4   2 352.182 22.3668   3
  -3  -4   2 324.458 24.3185   1
   2   4  -2 32.9718 2.44399   2
  -2  -4   2 39.5247 3.68277   1
  -2  -4   2 35.7219 2.48180   3
   1   4  -2 11.9114 0.99480   2
  -1  -4   2 11.1158 0.97386   3
  -1  -4   2 13.6362 1.53810   1
   0   4  -2 48.2967 3.26029   2
   0  -4   2 49.3120 3.50280   1
  -1   4  -2 290.584 19.0670   2
  -1   4  -2 297.788 18.9842   3
   1  -4   2 310.071 19.2429   1
  -2   4  -2 24.2072 1.84534   2
   2  -4   2 24.6971 2.03436   1
  -3   4  -2 143.951 9.32871   2
   3  -4   2 141.640 9.45217   1
  -4   4  -2 62.1916 4.07104   3
  -4   4  -2 63.1383 4.39119   2
   4  -4   2 61.4801 4.56816   1
  -5   4  -2 87.9342 5.52919   3
  -5   4  -2 83.6247 5.88103   2
   5  -4   2 77.6687 6.03276   1
  -6   4  -2 55.5387 3.81791   3
  -6   4  -2 53.9334 4.31629   2
   6  -4   2 55.9798 4.51259   1
  -7   4  -2 261.253 17.6350   2
   7  -4   2 271.582 17.7515   1
  -8   4  -2 83.7707 6.59779   2
   8  -4   2 85.4733 6.54947   1
   9  -4   2 203.457 13.9625   1
  10   3  -2 3.06056 2.07490   3
   9   3  -2 41.1436 3.90232   3
  -8  -3   2 81.4804 7.40120   1
  -7  -3   2 12.2213 1.84840   3
  -7  -3   2 14.9843 3.45387   1
  -6  -3   2 2.67226 1.01094   3
  -6  -3   2 4.23644 2.53514   1
   5   3  -2 5.59928 2.25831   2
  -5  -3   2 4.26412 2.54621   1
  -5  -3   2 2.53591 0.83169   3
   4   3  -2 39.2330 2.65452   4
   4   3  -2 38.0947 3.52081   2
  -4  -3   2 28.1185 4.93715   1
  -4  -3   2 35.6030 2.72328   3
   3   3  -2 195.055 12.2950   2
  -3  -3   2 153.543 13.9114   1
  -3  -3   2 198.195 12.1826   3
   2   3  -2 28.2414 2.05303   2
  -2  -3   2 33.0847 3.55935   1
  -2  -3   2 29.0929 2.09037   3
   1   3  -2 7.52881 0.66668   2
  -1  -3   2 7.19603 1.10850   1
  -1  -3   2 7.53132 0.72327   3
   0   3  -2 140.689 9.07283   3
   0   3  -2 141.568 9.09236   2
   0  -3   2 144.808 9.27941   1
  -1   3  -2 160.535 10.3508   2
  -1   3  -2 160.434 10.3582   3
   1  -3   2 163.927 10.4663   1
  -2   3  -2 14.5094 1.23190   2
   2  -3   2 15.7501 1.38605   1
  -3   3  -2 854.383 54.0175   2
  -3   3  -2 838.965 53.8460   3
   3  -3   2 861.014 54.1070   1
  -4   3  -2 43.4220 3.01045   3
  -4   3  -2 48.8977 3.32879   2
   4  -3   2 43.4859 3.42553   1
  -5   3  -2 2054.40 131.838   3
  -5   3  -2 2105.66 132.104   2
   5  -3   2 2095.73 132.194   1
  -6   3  -2 272.077 17.2417   3
  -6   3  -2 264.799 17.5872   2
   6  -3   2 267.092 17.6610   1
  -7   3  -2 213.606 14.2681   2
  -7   3  -2 207.954 13.7156   3
   7  -3   2 214.510 14.1886   1
  -8   3  -2 0.16758 1.78910   2
   8  -3   2 0.74653 1.49118   1
   9  -3   2 19.2106 2.92856   1
  10   2  -2 111.812 8.22955   3
   9   2  -2 76.7845 5.88788   3
   8   2  -2 19.3612 2.41679   3
  -8  -2   2 23.0521 3.60862   1
  -7  -2   2 213.572 14.4135   1
  -7  -2   2 190.169 13.0585   3
   6   2  -2 2.37393 2.78238   2
  -6  -2   2 0.98507 0.91318   3
  -6  -2   2 2.86712 2.07530   1
   5   2  -2 369.703 22.3465   4
   5   2  -2 321.793 23.5181   2
  -5  -2   2 337.491 23.7907   1
  -5  -2   2 360.528 22.5685   3
   4   2  -2 10.3770 2.32605   2
  -4  -2   2 10.6170 2.87770   1
  -4  -2   2 8.76987 1.08280   3
   3   2  -2 6812.47 438.521   2
   3   2  -2 7231.85 437.964   4
  -3  -2   2 6742.60 440.240   3
   2   2  -2 103.425 6.46987   2
  -2  -2   2 97.0521 6.41745   3
  -2  -2   2 91.1662 7.79816   1
   1   2  -2 68.0751 4.40214   2
  -1  -2   2 69.6023 4.85665   1
   0   2  -2 740.958 45.0860   3
   0   2  -2 736.423 45.0726   2
   0  -2   2 658.903 45.1823   1
  -1   2  -2 4.26633 0.91603   3
  -1   2  -2 6.36020 0.60203   2
   1  -2   2 6.87364 0.76843   1
  -2   2  -2 221.769 14.8378   2
  -2   2  -2 238.946 14.7378   3
   2  -2   2 234.393 14.8833   1
  -3   2  -2 9.32318 1.09745   2
  -3   2  -2 9.99912 0.84407   3
   3  -2   2 9.94671 1.13914   1
  -4   2  -2 319.241 20.2488   2
  -4   2  -2 310.553 20.0345   3
   4  -2   2 313.855 20.2752   1
  -5   2  -2 286.384 18.2928   2
  -5   2  -2 276.674 17.9867   3
  -6   2  -2 2.64807 0.80632   3
  -6   2  -2 3.94031 1.45051   2
  -7   2  -2 111.309 7.18502   3
  -7   2  -2 107.639 7.85395   2
   7  -2   2 100.213 7.51945   1
  -8   2  -2 663.187 41.0031   3
  -8   2  -2 613.255 41.6804   2
   8  -2   2 643.958 41.3407   1
  -9   2  -2 109.856 9.17807   2
  10   1  -2 80.6426 6.29007   3
   9   1  -2 535.957 33.2367   3
  -9  -1   2 488.496 34.0394   1
   8   1  -2 6.26327 1.49807   3
  -8  -1   2 4.63259 2.43846   1
  -7  -1   2 140.933 10.5713   1
   6   1  -2 45.7676 4.83384   2
  -6  -1   2 45.9055 4.54597   1
  -6  -1   2 44.0186 3.38190   3
   5   1  -2 573.664 35.4296   2
  -5  -1   2 522.969 35.7741   1
  -5  -1   2 541.049 34.7816   3
   4   1  -2 369.117 22.4024   2
  -4  -1   2 354.523 21.9951   3
  -4  -1   2 301.910 22.8472   1
   3   1  -2 924.120 54.4333   2
  -3  -1   2 867.301 54.1900   3
  -3  -1   2 761.804 55.2594   1
   2   1  -2 3.46786 0.85810   2
  -2  -1   2 2.02972 1.72337   1
  -2  -1   2 2.16363 0.41104   3
   1   1  -2 289.021 19.4678   3
  -1  -1   2 331.838 20.1915   1
   0   1  -2 1.55667 0.21371   2
   0   1  -2 1.07312 0.27177   3
   0  -1   2 1.68371 0.19732   4
   0  -1   2 1.40669 0.35242   1
  -1   1  -2 3.85048 0.45846   3
  -1   1  -2 3.83096 0.48779   2
   1  -1   2 4.21442 0.50023   1
  -2   1  -2 78.8537 4.80167   3
  -2   1  -2 69.0149 4.90163   2
   2  -1   2 72.7966 4.86773   1
  -3   1  -2 98.1267 6.61310   2
  -3   1  -2 100.905 6.59173   1
  -3   1  -2 98.9894 6.44737   3
  -4   1  -2 122.685 8.36556   3
  -4   1  -2 133.104 8.60894   1
  -4   1  -2 133.491 8.66539   2
  -5   1  -2 231.835 14.8982   3
  -5   1  -2 233.398 15.1557   1
  -5   1  -2 228.326 15.2274   2
  -6   1  -2 332.610 21.7504   1
  -6   1  -2 337.987 21.9486   2
  -6   1  -2 332.644 21.4607   3
  -7   1  -2 84.3001 6.64452   2
  -7   1  -2 78.8479 6.02212   1
  -7   1  -2 83.7410 5.70857   3
  -8   1  -2 299.895 19.6255   3
   8  -1   2 304.598 19.5305   4
  -9   1  -2 24.9192 2.74570   3
   9  -1   2 22.1334 4.25676   2
  10   0  -2 1.11097 1.84947   3
   9   0  -2 94.9688 7.03299   3
  -9   0   2 102.117 8.25051   1
   8   0  -2 82.1573 5.90891   3
  -8   0   2 81.2430 6.92706   1
   7   0  -2 91.9131 6.27313   3
  -7   0   2 89.0225 7.34772   1
  -6   0   2 7.85813 2.07629   1
  -6   0   2 4.35912 1.76704   2
  -5   0   2 7.31490 1.87937   1
  -5   0   2 9.42065 1.54445   2
  -5   0   2 8.78336 1.18334   3
  -4   0   2 23.4227 2.14196   2
  -4   0   2 28.3435 1.98017   3
  -4   0   2 21.5518 2.79665   1
  -3   0   2 124.971 9.14553   1
  -3   0   2 133.960 8.46155   2
   2   0  -2 1.94020 0.35074   3
  -2   0   2 1.44438 0.33416   2
  -2   0   2 0.18722 0.96314   1
   1   0  -2 112.427 6.90461   3
  -1   0   2 87.8793 7.50321   1
  -1   0   2 113.028 6.84865   2
   0   0  -2 0.76237 0.93934   3
   0   0   2 1.61093 0.56187   1
   0   0   2 2.91719 0.63010   2
  -1   0  -2 17.9694 1.47911   2
  -1   0  -2 18.0788 1.35769   3
   1   0   2 19.5659 1.33528   4
   1   0   2 20.8082 1.30518   1
  -2   0  -2 1163.28 72.0820   3
  -2   0  -2 1116.03 72.1117   1
  -2   0  -2 1138.63 72.2164   2
  -3   0  -2 3.05609 0.62383   1
  -3   0  -2 4.09626 0.57601   3
  -3   0  -2 1.31064 0.76573   2
  -4   0  -2 2528.13 160.931   2
  -4   0  -2 2585.11 160.823   1
  -4   0  -2 2509.36 160.644   3
  -5   0  -2 133.034 8.91840   3
  -5   0  -2 130.008 9.38064   2
  -5   0  -2 143.796 9.18448   1
  -6   0  -2 303.133 20.6741   1
  -6   0  -2 321.668 20.5051   3
   6   0   2 330.890 20.4067   4
  -7   0  -2 110.386 7.41329   3
  -7   0  -2 108.956 7.69398   1
   7   0   2 108.952 8.51089   2
   7   0   2 106.006 7.29171   4
  -8   0  -2 119.865 8.06022   3
   8   0   2 118.725 7.94192   4
   8   0   2 107.632 9.59804   2
  -9   0  -2 3.93703 1.60367   3
 -10   0  -2 249.872 16.6420   3
 -10   1   2 108.822 9.07825   1
   9  -1  -2 88.5446 6.20187   3
  -9   1   2 76.7281 7.18215   1
   8  -1  -2 107.434 7.25712   3
  -8   1   2 100.322 8.21144   1
   7  -1  -2 19.0196 1.98061   3
  -7   1   2 20.3538 2.82279   2
  -7   1   2 17.5450 3.01477   1
   6  -1  -2 359.214 22.8776   3
  -6   1   2 367.545 23.7920   1
  -6   1   2 344.354 23.1770   2
   5  -1  -2 61.9779 4.23904   3
  -5   1   2 64.0723 4.46640   2
  -5   1   2 60.3644 4.99429   1
   4  -1  -2 4218.79 271.367   3
  -4   1   2 4349.20 272.059   1
  -4   1   2 4318.95 271.447   2
   3  -1  -2 14.8338 1.22955   3
  -3   1   2 17.9028 1.98248   1
  -3   1   2 17.7117 1.30158   2
   2  -1  -2 397.877 24.7375   3
  -2   1   2 400.174 24.7224   2
  -2   1   2 368.224 25.1368   1
   1  -1  -2 164.082 10.8214   3
  -1   1   2 173.558 10.7418   2
  -1   1   2 167.778 11.0122   1
   0  -1  -2 40.2378 2.70068   3
   0   1   2 39.5126 2.58328   1
   0   1   2 36.2407 2.74533   2
  -1  -1  -2 47.1879 3.11162   3
   1   1   2 45.8533 4.15112   2
  -2  -1  -2 109.248 7.51476   1
  -2  -1  -2 119.565 7.50908   3
   2   1   2 118.767 7.45702   4
   2   1   2 117.068 8.01089   2
  -3  -1  -2 180.692 11.1437   3
  -3  -1  -2 164.716 11.2072   1
   3   1   2 163.712 11.5606   2
   3   1   2 178.391 11.0532   4
  -4  -1  -2 100.862 6.45900   3
  -4  -1  -2 84.0552 6.50822   1
   4   1   2 104.846 7.22484   2
   4   1   2 104.934 6.37442   4
  -5  -1  -2 11.1332 1.56666   1
  -5  -1  -2 10.3607 1.32732   3
   5   1   2 11.0481 2.37017   2
   5   1   2 12.3795 1.32862   4
  -6  -1  -2 12.6170 1.80457   1
  -6  -1  -2 13.6505 1.62453   3
   6   1   2 13.9636 1.54240   4
   6   1   2 8.45702 2.94921   2
  -7  -1  -2 205.620 14.4638   1
  -7  -1  -2 221.863 14.3050   3
   7   1   2 226.441 14.1556   4
   7   1   2 216.909 15.9786   2
  -8  -1  -2 12.8062 1.93601   3
   8   1   2 17.6815 5.28983   2
  -9  -1  -2 86.3751 6.37856   3
 -10  -1  -2 2.83096 1.89928   3
 -10   2   2 348.393 23.7639   1
  -9   2   2 11.6921 2.91760   1
   8  -2  -2 164.698 10.9076   3
  -8   2   2 161.591 11.9799   1
  -8   2   2 164.217 11.7606   2
   7  -2  -2 2.02786 0.92434   3
  -7   2   2 0.85350 1.40210   2
  -7   2   2 1.35275 1.85801   1
   6  -2  -2 462.297 29.7037   3
  -6   2   2 460.813 29.9499   2
  -6   2   2 475.029 30.5474   1
   5  -2  -2 117.649 7.70227   3
  -5   2   2 121.196 7.87384   2
  -5   2   2 113.778 8.37527   1
   4  -2  -2 619.168 39.6723   3
  -4   2   2 611.055 39.7415   2
  -4   2   2 648.576 40.3220   1
   3  -2  -2 16.0431 1.21816   3
  -3   2   2 14.2172 1.25638   2
  -3   2   2 16.1271 1.81075   1
   2  -2  -2 180.744 11.6922   3
  -2   2   2 181.756 12.0057   1
  -2   2   2 185.395 11.6875   2
  -1   2   2 374.900 24.1356   2
  -1   2   2 385.678 24.2669   1
   0  -2  -2 407.893 26.3471   3
   0  -2  -2 435.591 26.3642   1
   0   2   2 400.612 26.4595   2
  -1  -2  -2 66.3495 4.31812   1
  -1  -2  -2 66.0999 4.29352   3
   1   2   2 59.5500 4.90091   2
  -2  -2  -2 24.8034 2.31104   1
  -2  -2  -2 16.5362 1.41042   3
   2   2   2 17.0026 2.75979   2
  -3  -2  -2 48.9535 3.67100   1
  -3  -2  -2 49.6982 3.44073   3
   3   2   2 48.9619 3.43195   4
   3   2   2 57.6857 5.42404   2
  -4  -2  -2 454.017 29.1397   3
  -4  -2  -2 437.969 29.3164   1
   4   2   2 452.381 29.0558   4
   4   2   2 499.351 30.6456   2
  -5  -2  -2 324.379 22.8331   1
  -5  -2  -2 361.023 22.7180   3
   5   2   2 379.570 24.5103   2
   5   2   2 362.725 22.6032   4
  -6  -2  -2 9.84345 1.38243   3
  -6  -2  -2 7.28355 1.41742   1
   6   2   2 8.86799 1.33182   4
   6   2   2 17.2466 4.46087   2
  -7  -2  -2 262.594 17.9069   3
   7   2   2 313.533 21.2820   2
  -8  -2  -2 23.0969 2.67632   3
   8   2   2 33.7292 7.73864   2
  -9  -2  -2 162.943 11.1514   3
 -10  -2  -2 245.769 16.5248   3
  11  -3  -2 15.4006 3.40033   1
  -9   3   2 92.3995 7.69138   1
  -8   3   2 147.206 11.0973   2
  -8   3   2 167.880 11.6188   1
   7  -3  -2 90.0995 6.05945   3
  -7   3   2 90.8166 7.16322   1
  -7   3   2 85.0282 6.45721   2
   6  -3  -2 6.94247 0.99984   3
  -6   3   2 9.63797 2.09839   1
  -6   3   2 4.71841 1.18212   2
   5  -3  -2 881.386 56.3205   3
  -5   3   2 861.039 56.4500   2
  -5   3   2 926.307 57.0491   1
   4  -3  -2 31.5530 2.25724   3
  -4   3   2 30.3745 2.86075   1
  -4   3   2 31.4590 2.34872   2
   3  -3  -2 101.917 6.88023   3
  -3   3   2 109.008 6.94208   2
  -3   3   2 107.367 7.30149   1
   2  -3  -2 695.381 42.0978   3
  -2   3   2 629.482 41.8478   1
  -2   3   2 648.626 41.6372   2
   1  -3  -2 87.6041 5.79982   1
   1  -3  -2 85.5544 5.66555   3
  -1   3   2 86.0733 5.66445   2
   0  -3  -2 96.3857 6.30907   3
   0  -3  -2 102.556 6.38484   1
   0   3   2 92.5067 6.43748   2
  -1  -3  -2 206.538 12.8941   1
  -1  -3  -2 210.276 12.8319   3
   1   3   2 178.826 13.0746   2
  -2  -3  -2 260.432 16.3919   3
   2   3   2 248.400 17.0094   2
  -3  -3  -2 4314.93 238.028   1
  -3  -3  -2 3605.05 237.066   3
   3   3   2 3330.23 238.031   2
  -4  -3  -2 36.5327 2.71109   3
  -4  -3  -2 33.6718 3.05051   1
   4   3   2 31.0712 4.70274   2
  -5  -3  -2 366.498 22.4474   3
  -5  -3  -2 333.537 22.6174   1
   5   3   2 339.021 24.4226   2
  -6  -3  -2 70.1929 4.92490   3
   6   3   2 50.7859 7.73941   2
  -7  -3  -2 195.336 12.8499   3
   7   3   2 182.386 15.9628   2
  -8  -3  -2 38.4439 3.56013   3
  -9  -3  -2 232.179 15.5407   3
 -10  -3  -2 11.3045 2.33526   3
  10  -4  -2 43.0719 5.06706   1
  -8   4   2 20.6017 3.02519   2
  -8   4   2 19.8146 3.23366   1
  -7   4   2 132.490 9.67968   1
  -7   4   2 128.809 8.98519   2
   6  -4  -2 135.382 9.00547   3
  -6   4   2 138.098 9.26277   2
  -6   4   2 140.173 9.90493   1
   5  -4  -2 1728.47 106.554   3
  -5   4   2 1680.37 107.198   1
  -5   4   2 1640.95 106.679   2
   4  -4  -2 30.9045 2.35455   3
  -4   4   2 32.6352 2.45751   2
  -4   4   2 31.7908 2.98845   1
   3  -4  -2 598.862 37.8123   3
  -3   4   2 580.762 37.4710   2
   2  -4  -2 9.86886 1.42877   1
   2  -4  -2 11.9764 1.18419   3
  -2   4   2 11.3404 1.09226   2
   1  -4  -2 12.3556 0.98764   3
   1  -4  -2 10.9572 1.28330   1
  -1   4   2 11.2059 1.09994   2
   0  -4  -2 3.18949 0.69788   1
   0  -4  -2 2.21662 0.49413   3
   0   4   2 4.28377 0.78831   2
  -1  -4  -2 0.48986 0.47597   3
  -1  -4  -2 0.68200 0.68466   1
   1   4   2 0.87565 0.85857   2
  -2  -4  -2 174.242 10.3060   3
  -2  -4  -2 141.670 10.7309   1
   2   4   2 152.996 10.7218   2
  -3  -4  -2 115.963 7.65988   3
  -3  -4  -2 117.999 8.91378   1
   3   4   2 112.235 8.39482   2
  -4  -4  -2 22.2817 2.05775   3
  -4  -4  -2 23.2859 3.20200   1
   4   4   2 23.3481 3.40448   2
  -5  -4  -2 3.33468 1.12173   3
  -5  -4  -2 1.72050 1.31954   1
   5   4   2 4.26278 2.66481   2
  -6  -4  -2 10.5539 1.60369   3
   6   4   2 4.22352 3.31884   2
  -7  -4  -2 13.7568 2.10875   3
   7   4   2 7.57903 4.14479   2
  -8  -4  -2 159.564 10.9882   3
  -9  -4  -2 96.6756 7.18643   3
  10  -5  -2 3.13736 2.68206   1
   9  -5  -2 155.439 11.7747   1
  -9   5   2 156.983 11.3022   2
   8  -5  -2 4.51051 2.34253   1
  -8   5   2 7.61153 2.11874   2
   7  -5  -2 191.051 13.5268   1
  -7   5   2 193.864 12.9191   2
   6  -5  -2 84.4210 6.55754   1
  -6   5   2 79.1661 5.81888   2
   5  -5  -2 598.120 40.5229   1
  -5   5   2 652.022 40.0060   2
   4  -5  -2 80.4560 5.78750   3
   4  -5  -2 77.5956 5.97664   1
  -4   5   2 74.0651 5.26806   2
   3  -5  -2 10.9491 1.82129   1
   3  -5  -2 13.5148 1.36960   3
  -3   5   2 11.0172 1.29721   2
   2  -5  -2 322.888 21.1668   1
   2  -5  -2 333.621 20.7686   3
  -2   5   2 321.491 20.9036   2
   1  -5  -2 315.119 20.2171   3
   1  -5  -2 323.799 20.5302   1
  -1   5   2 314.133 20.3720   2
   0  -5  -2 7.83312 1.30611   1
   0  -5  -2 8.77434 0.98635   3
   0   5   2 11.1359 1.28931   2
  -1  -5  -2 73.8156 5.10002   3
  -1  -5  -2 79.0571 5.43408   1
   1   5   2 76.5678 5.38219   2
  -2  -5  -2 20.6608 2.88438   1
  -2  -5  -2 20.6185 1.78430   3
   2   5   2 20.7232 2.29723   2
  -3  -5  -2 223.164 13.9514   3
  -3  -5  -2 227.536 15.1953   1
   3   5   2 192.129 14.3970   2
  -4  -5  -2 66.6787 5.67798   1
  -4  -5  -2 40.6107 3.28025   3
   4   5   2 34.4980 4.14676   2
  -5  -5  -2 195.886 12.3182   3
   5   5   2 169.357 13.1359   2
  -6  -5  -2 94.7027 6.72753   3
   6   5   2 93.8981 7.88333   2
  -7  -5  -2 11.0095 1.91360   3
   7   5   2 11.2669 3.60060   2
  -8  -5  -2 240.047 16.0375   3
  -9  -5  -2 203.704 13.8800   3
  10  -6  -2 67.6222 6.60177   1
   9  -6  -2 173.372 12.8882   1
  -9   6   2 175.987 12.4397   2
   8  -6  -2 22.0462 3.84290   1
  -8   6   2 22.7775 3.11909   2
   7  -6  -2 53.0651 5.27711   1
  -7   6   2 56.2937 4.56754   2
   6  -6  -2 397.479 26.3324   1
  -6   6   2 396.277 25.6841   2
   5  -6  -2 103.445 7.55458   1
  -5   6   2 93.3080 6.73246   2
   4  -6  -2 192.726 12.8215   1
  -4   6   2 181.852 12.2316   2
   3  -6  -2 586.751 37.3119   1
  -3   6   2 570.551 36.8896   2
   2  -6  -2 206.711 13.8028   1
   2  -6  -2 210.272 13.2513   3
  -2   6   2 204.539 13.4735   2
   1  -6  -2 129.398 8.93023   1
   1  -6  -2 132.457 8.51248   3
  -1   6   2 131.600 8.71263   2
   0  -6  -2 171.926 11.4167   1
   0  -6  -2 172.417 11.0998   3
   0   6   2 170.412 11.3168   2
  -1  -6  -2 118.945 8.00621   3
  -1  -6  -2 118.757 8.42930   1
   1   6   2 129.227 8.36295   2
  -2  -6  -2 1576.84 100.072   3
   2   6   2 1582.67 100.432   2
  -3  -6  -2 1.83331 0.90519   3
  -3  -6  -2 3.03273 2.12467   1
   3   6   2 2.83462 1.52341   2
  -4  -6  -2 120.407 7.90548   3
   4   6   2 107.743 8.47559   2
  -5  -6  -2 15.4520 1.98466   3
   5   6   2 16.8435 2.89361   2
  -6  -6  -2 203.890 13.3853   3
   6   6   2 194.346 14.1895   2
  -7  -6  -2 56.5086 4.59724   3
  -8  -6  -2 100.398 7.41698   3
  10  -7  -2 25.0308 4.13343   1
   9  -7  -2 0.70299 2.47847   1
  -9   7   2 4.81298 2.57869   2
   8  -7  -2 53.1612 5.86140   1
  -8   7   2 67.1698 5.35843   2
   7  -7  -2 251.638 17.9206   1
  -7   7   2 263.587 17.1965   2
   6  -7  -2 273.039 18.3066   1
  -6   7   2 262.273 17.5498   2
   5  -7  -2 243.871 16.4735   1
  -5   7   2 236.595 15.7317   2
   4  -7  -2 554.365 36.8884   1
  -4   7   2 580.282 36.3685   2
   3  -7  -2 147.563 9.93772   1
  -3   7   2 135.499 9.33764   2
   2  -7  -2 3.05864 0.58293   3
   2  -7  -2 0.41298 1.30562   1
  -2   7   2 2.66192 0.87761   2
   1  -7  -2 55.0064 3.78982   3
   1  -7  -2 56.7975 4.47869   1
  -1   7   2 54.8754 4.05006   2
   0  -7  -2 72.0409 4.94511   3
   0  -7  -2 75.8280 5.57372   1
   0   7   2 72.1046 5.21384   2
  -1  -7  -2 187.293 12.2604   3
  -1  -7  -2 183.793 12.8840   1
   1   7   2 194.832 12.6105   2
  -2  -7  -2 220.695 14.6703   3
  -2  -7  -2 229.633 16.2496   1
   2   7   2 228.494 14.9983   2
  -3  -7  -2 3.37092 2.63907   1
  -3  -7  -2 1.81988 1.01124   3
   3   7   2 3.37779 1.52957   2
  -4  -7  -2 6.93842 1.40655   3
   4   7   2 13.4590 2.38717   2
  -5  -7  -2 63.7358 4.88868   3
   5   7   2 65.7447 5.73405   2
  -6  -7  -2 96.8779 7.17110   3
   6   7   2 105.747 8.14529   2
  -7  -7  -2 122.890 8.75602   3
  -8  -7  -2 285.827 19.0842   3
  10  -8  -2 76.0249 7.40317   1
   9  -8  -2 1.69238 2.72325   1
  -9   8   2 2.90395 2.66457   2
   8  -8  -2 104.150 9.06221   1
  -8   8   2 116.970 8.50029   2
   7  -8  -2 407.740 27.4712   1
  -7   8   2 408.622 26.7036   2
   6  -8  -2 263.541 18.4033   1
  -6   8   2 267.970 17.5963   2
   5  -8  -2 39.4621 4.46747   1
  -5   8   2 40.5222 3.50845   2
   4  -8  -2 12.9646 2.53995   1
  -4   8   2 9.51937 1.56020   2
   3  -8  -2 118.932 8.64412   1
  -3   8   2 115.977 7.97752   2
   2  -8  -2 291.621 19.0874   1
  -2   8   2 280.364 18.5608   2
   1  -8  -2 4.69838 1.82837   1
   1  -8  -2 6.76678 1.04513   3
  -1   8   2 6.47553 1.30490   2
   0  -8  -2 77.5592 5.50169   3
   0  -8  -2 82.7776 6.34091   1
   0   8   2 86.5686 5.90771   2
  -1  -8  -2 9.12867 2.41470   1
  -1  -8  -2 6.99649 1.17821   3
   1   8   2 7.81882 1.61732   2
  -2  -8  -2 80.2169 5.79671   3
  -2  -8  -2 82.8525 7.70752   1
   2   8   2 87.7989 6.21402   2
  -3  -8  -2 4.73598 1.25638   3
   3   8   2 3.91459 1.77551   2
  -4  -8  -2 331.682 21.4203   3
   4   8   2 325.188 21.7858   2
  -5  -8  -2 19.5545 2.48111   3
   5   8   2 20.6782 3.03721   2
  -6  -8  -2 4.06678 1.72054   3
  -7  -8  -2 178.650 12.2701   3
   9  -9  -2 3.48125 3.16435   1
  -9   9   2 9.21576 3.14200   2
   8  -9  -2 73.4567 7.41276   1
  -8   9   2 79.8446 6.48128   2
   7  -9  -2 259.267 18.7682   1
  -7   9   2 272.407 17.8684   2
   6  -9  -2 65.7095 6.44686   1
  -6   9   2 67.3212 5.30754   2
   5  -9  -2 97.6504 8.19324   1
  -5   9   2 100.983 7.13709   2
   4  -9  -2 224.090 15.6781   1
  -4   9   2 226.251 14.9193   2
   3  -9  -2 146.402 10.6306   1
  -3   9   2 144.435 9.83077   2
   2  -9  -2 48.4871 4.71781   1
  -2   9   2 46.7922 3.82075   2
   1  -9  -2 53.8440 5.00076   1
  -1   9   2 51.8846 4.14581   2
   0  -9  -2 13.4209 1.56712   3
   0  -9  -2 18.3611 3.13923   1
   0   9   2 16.3268 2.30206   2
  -1  -9  -2 201.838 14.5105   1
  -1  -9  -2 198.144 13.1009   3
   1   9   2 200.496 13.3813   2
  -2  -9  -2 13.8910 1.87430   3
   2   9   2 14.5961 2.21334   2
  -3  -9  -2 58.6787 4.63133   3
   3   9   2 63.0720 5.21150   2
  -4  -9  -2 4.47681 1.59001   3
   4   9   2 4.62710 2.16867   2
  -5  -9  -2 184.189 13.1834   3
   5   9   2 213.958 13.9463   2
  -6  -9  -2 48.7063 4.41699   3
  -7  -9  -2 6.20228 2.03638   3
   9 -10  -2 10.6985 3.66078   1
  -9  10   2 16.3919 3.59321   2
   8 -10  -2 86.0759 8.34570   1
  -8  10   2 90.3390 7.27671   2
   7 -10  -2 4.12143 3.12983   1
  -7  10   2 2.97777 2.07032   2
   6 -10  -2 298.703 20.8716   1
  -6  10   2 297.380 19.7594   2
   5 -10  -2 218.039 15.2550   1
  -5  10   2 205.455 14.0948   2
   4 -10  -2 178.497 13.2531   1
  -4  10   2 183.815 12.2802   2
   3 -10  -2 7.94147 2.71604   1
  -3  10   2 6.16214 1.50837   2
   2 -10  -2 54.8187 5.56338   1
  -2  10   2 53.5726 4.32887   2
   1 -10  -2 130.532 10.2908   1
  -1  10   2 131.724 9.11655   2
   0 -10  -2 220.170 16.0947   1
   0  10   2 223.340 14.8426   2
  -1 -10  -2 246.865 16.4443   3
  -1 -10  -2 229.957 18.3311   1
   1  10   2 274.254 16.8775   2
  -2 -10  -2 6.95497 1.53673   3
   2  10   2 6.29347 1.85382   2
  -3 -10  -2 14.1001 2.11720   3
   3  10   2 18.8868 2.72427   2
  -4 -10  -2 121.740 9.05517   3
   4  10   2 142.053 9.59584   2
  -5 -10  -2 99.5236 7.38010   3
  -6 -10  -2 28.5205 3.27950   3
   8 -11  -2 326.105 23.9453   1
  -8  11   2 350.802 22.9334   2
   7 -11  -2 118.922 10.2625   1
  -7  11   2 116.029 8.77361   2
   6 -11  -2 4.79992 3.34725   1
  -6  11   2 6.41157 2.09590   2
   5 -11  -2 28.8864 4.79716   1
  -5  11   2 37.4851 3.54339   2
   4 -11  -2 -0.6431 2.78355   1
  -4  11   2 2.20699 1.63632   2
   3 -11  -2 96.2977 8.53898   1
  -3  11   2 94.1232 6.95292   2
   2 -11  -2 109.566 9.27092   1
  -2  11   2 107.547 7.77612   2
   1 -11  -2 5.75934 3.43656   1
  -1  11   2 4.35696 1.74086   2
   0 -11  -2 8.47988 4.23474   1
   0  11   2 10.7620 2.12329   2
   1  11   2 1.04768 1.82970   2
  -2 -11  -2 12.7609 2.02264   3
   2  11   2 17.9198 2.64325   2
  -3 -11  -2 361.206 24.4093   3
   3  11   2 390.281 24.8085   2
  -4 -11  -2 6.04046 2.02902   3
   4  11   2 6.56793 2.46639   2
  -5 -11  -2 1.18855 1.77156   3
  -8  12   2 95.1047 7.89012   2
   7 -12  -2 29.4607 5.49151   1
  -7  12   2 31.5190 4.02694   2
   6 -12  -2 37.9629 5.98431   1
  -6  12   2 40.7508 4.22310   2
   5 -12  -2 15.3419 4.34338   1
  -5  12   2 18.6634 2.86374   2
   4 -12  -2 62.8039 7.20004   1
  -4  12   2 61.7838 5.25335   2
   3 -12  -2 21.4527 4.66271   1
  -3  12   2 20.7067 2.80944   2
   2 -12  -2 7.20676 4.20351   1
  -2  12   2 3.03817 1.71919   2
   1 -12  -2 5.53374 4.15940   1
  -1  12   2 3.17782 1.89348   2
   0  12   2 22.0867 3.10466   2
   1  12   2 25.9357 3.40371   2
   2  12   2 26.5590 3.71900   2
   3  12   2 67.8372 6.03227   2
  -4 -12  -2 76.5910 6.13951   3
   7 -13  -2 146.695 12.8538   1
  -7  13   2 152.434 11.1351   2
   6 -13  -2 47.3803 7.47165   1
  -6  13   2 58.5835 5.32249   2
   5 -13  -2 128.034 11.7865   1
  -5  13   2 132.990 9.72958   2
   4 -13  -2 82.7612 8.67239   1
  -4  13   2 70.5075 6.08655   2
   3 -13  -2 14.8705 4.95266   1
  -3  13   2 16.0783 2.60762   2
   2 -13  -2 178.381 16.2426   1
  -2  13   2 223.896 14.3017   2
  -1  13   2 288.250 19.3303   2
   0  13   2 185.778 13.0334   2
   1  13   2 3.04326 2.22959   2
   2  13   2 6.45028 2.48183   2
   3  13   2 121.898 9.36612   2
   5 -14  -2 33.0744 6.37635   1
  -5  14   2 41.0296 4.50632   2
   4 -14  -2 5.79676 5.52489   1
  -4  14   2 5.03423 2.41288   2
   3 -14  -2 68.5084 9.46967   1
  -3  14   2 78.3023 6.41448   2
   2 -14  -2 6.26365 5.81594   1
  -2  14   2 0.88192 2.04497   2
  -1  14   2 27.1062 3.83147   2
   0  14   2 5.93669 2.41643   2
   1  14   2 39.0610 4.58163   2
   0 -15   3 18.1552 7.04275   1
  -1  15  -3 2.48980 1.98441   2
   1 -15   3 5.89471 5.10283   1
  -2  15  -3 8.18319 2.25465   2
   2 -15   3 7.24150 5.07648   1
  -3  15  -3 92.2586 6.99902   2
   3 -15   3 91.0005 9.22757   1
   4 -15   3 195.676 15.3728   1
  -1 -14   3 16.5215 7.14646   1
   0  14  -3 320.088 20.7567   2
   0 -14   3 305.192 23.8511   1
  -1  14  -3 9.36211 2.11348   2
   1 -14   3 12.4756 4.83284   1
  -2  14  -3 248.469 16.4858   2
   2 -14   3 245.680 18.4387   1
  -3  14  -3 2.51862 1.79698   2
   3 -14   3 4.35554 3.67097   1
  -4  14  -3 25.5398 3.25105   2
   4 -14   3 28.9240 4.94248   1
  -5  14  -3 12.2339 2.41551   2
   5 -14   3 11.2760 3.86212   1
   1  13  -3 183.296 12.1631   2
  -1 -13   3 171.244 15.1644   1
   0  13  -3 93.0055 6.68112   2
   0 -13   3 90.4746 9.27448   1
  -1  13  -3 253.725 16.5429   2
   1 -13   3 242.204 18.2565   1
  -2  13  -3 52.8567 4.56679   2
   2 -13   3 60.5333 6.32589   1
  -3  13  -3 63.2991 5.20126   2
   3 -13   3 72.2593 6.72846   1
  -4  13  -3 0.04099 1.62992   2
   4 -13   3 0.78948 2.74716   1
  -5  13  -3 18.8008 2.81316   2
   5 -13   3 22.1645 4.11655   1
  -6  13  -3 24.7283 3.23907   2
   6 -13   3 18.2658 3.91984   1
  -7  13  -3 5.24349 2.44926   2
   7 -13   3 3.13595 3.33897   1
   5  12  -3 17.7986 2.87291   3
   4  12  -3 17.8999 2.74550   3
  -2 -12   3 72.6345 9.80394   1
   1  12  -3 23.4230 2.65435   2
  -1 -12   3 25.6013 5.09741   1
   0  12  -3 3.00091 1.40794   2
   0 -12   3 4.83375 3.36322   1
  -1  12  -3 31.9414 3.05793   2
   1 -12   3 36.0500 4.73871   1
  -2  12  -3 231.610 14.6424   2
   2 -12   3 205.526 15.5431   1
  -3  12  -3 369.507 23.5981   2
   3 -12   3 353.570 24.3738   1
  -4  12  -3 1.91105 1.55384   2
   4 -12   3 0.11471 2.48388   1
  -5  12  -3 108.374 7.82288   2
   5 -12   3 107.852 8.73985   1
  -6  12  -3 14.2059 2.47928   2
   6 -12   3 14.2397 3.37004   1
  -7  12  -3 0.50728 2.08221   2
   7 -12   3 0.37474 2.97298   1
  -8  12  -3 17.0169 3.08832   2
   8 -12   3 14.8921 3.83953   1
   6  11  -3 200.888 13.8649   3
   5  11  -3 128.037 9.24270   3
   4  11  -3 36.1682 3.70401   3
   3  11  -3 8.44590 1.95828   3
  -3 -11   3 17.8828 7.57751   1
   2  11  -3 59.7683 4.62032   2
   2  11  -3 62.4312 4.66971   3
  -2 -11   3 58.8312 7.72935   1
   1  11  -3 301.051 19.2388   2
  -1 -11   3 287.831 20.8663   1
   0  11  -3 47.3166 3.81590   2
   0 -11   3 54.1573 5.44006   1
  -1  11  -3 335.309 21.7760   2
   1 -11   3 337.360 22.6962   1
  -2  11  -3 142.713 9.43390   2
   2 -11   3 133.179 10.2070   1
  -3  11  -3 42.5445 3.54641   2
   3 -11   3 38.9121 4.36747   1
  -4  11  -3 92.9977 6.37552   2
   4 -11   3 79.6239 6.94120   1
  -5  11  -3 8.87947 1.84689   2
   5 -11   3 9.73650 2.74627   1
  -6  11  -3 19.0599 2.80121   2
   6 -11   3 19.9044 3.50296   1
  -7  11  -3 3.49348 2.08274   2
   7 -11   3 3.91954 2.88811   1
  -8  11  -3 6.82970 2.66169   2
   8 -11   3 4.74124 2.87459   1
   6  10  -3 -0.1295 1.95621   3
   5  10  -3 222.483 14.9283   3
   4  10  -3 169.842 11.3323   3
  -4 -10   3 147.035 18.9000   1
   3  10  -3 89.7058 6.59255   3
  -3 -10   3 110.597 11.9492   1
   2  10  -3 273.190 17.4921   2
   2  10  -3 271.050 17.4990   3
  -2 -10   3 257.680 19.5376   1
   1  10  -3 291.898 18.6227   2
   1  10  -3 295.038 18.5748   3
  -1 -10   3 269.171 19.8494   1
   0  10  -3 167.988 10.9946   2
   0 -10   3 163.207 11.9717   1
  -1  10  -3 60.2644 4.37916   2
   1 -10   3 58.5505 5.21884   1
  -2  10  -3 265.155 16.9575   2
   2 -10   3 253.503 17.5191   1
  -3  10  -3 1.56462 1.15099   2
   3 -10   3 0.49635 1.67420   1
  -4  10  -3 21.8545 2.53575   2
   4 -10   3 25.1447 3.26768   1
  -5  10  -3 166.788 10.9951   2
   5 -10   3 154.850 11.5011   1
  -6  10  -3 9.35737 2.02592   2
   6 -10   3 9.23782 2.54690   1
  -7  10  -3 164.548 11.2506   2
   7 -10   3 153.120 11.6116   1
  -8  10  -3 75.5245 6.12697   2
   8 -10   3 63.4434 6.47194   1
  -9  10  -3 25.7626 3.89643   2
   9 -10   3 19.4669 3.69975   1
   7   9  -3 111.711 8.25268   3
   6   9  -3 14.2359 2.30269   3
   5   9  -3 18.8673 2.51789   3
  -4  -9   3 7.65280 7.47946   1
   3   9  -3 105.816 7.37302   2
  -3  -9   3 125.522 11.6320   1
   2   9  -3 97.0330 6.76362   2
  -2  -9   3 109.795 8.86921   1
   1   9  -3 11.1182 1.47086   2
   1   9  -3 9.20162 1.30894   3
  -1  -9   3 13.2968 2.67790   1
   0   9  -3 85.4783 5.46307   3
   0   9  -3 75.0862 5.57628   2
   0  -9   3 82.7393 6.41247   1
  -1   9  -3 383.672 24.5038   2
   1  -9   3 379.544 25.0474   1
  -2   9  -3 100.840 6.96049   2
   2  -9   3 103.253 7.49711   1
  -3   9  -3 18.5916 2.11305   2
   3  -9   3 24.4660 2.89690   1
  -4   9  -3 482.583 30.6301   2
   4  -9   3 469.253 31.0416   1
  -5   9  -3 0.95919 1.30082   2
   5  -9   3 -0.5989 1.68198   1
  -6   9  -3 0.52855 1.52669   2
   6  -9   3 2.77514 2.11964   1
  -7   9  -3 114.450 8.21319   2
   7  -9   3 107.870 8.58594   1
  -8   9  -3 170.495 12.2166   2
   8  -9   3 178.015 12.6154   1
  -9   9  -3 17.5639 3.21691   2
   9  -9   3 13.6629 3.10250   1
   8   8  -3 148.513 10.5744   3
   7   8  -3 254.635 16.9599   3
   6   8  -3 111.031 7.89965   3
  -5  -8   3 0.05669 6.59312   1
  -4  -8   3 0.51673 5.81219   1
  -4  -8   3 2.15851 1.11507   3
   3   8  -3 291.058 18.5140   2
  -3  -8   3 270.962 18.5595   3
  -3  -8   3 317.982 21.7140   1
   2   8  -3 250.380 15.5934   2
  -2  -8   3 247.544 15.6273   3
  -2  -8   3 215.288 16.9130   1
   1   8  -3 94.8814 6.36859   3
   1   8  -3 97.0240 6.42133   2
  -1  -8   3 93.6934 7.30605   1
   0   8  -3 308.566 20.0575   2
   0   8  -3 318.568 19.9704   3
   0  -8   3 309.090 20.6236   1
  -1   8  -3 853.151 53.6058   3
  -1   8  -3 851.024 53.7580   2
   1  -8   3 833.302 54.1415   1
  -2   8  -3 8.84822 1.16945   2
   2  -8   3 4.28646 1.52223   1
  -3   8  -3 250.954 16.2413   2
   3  -8   3 248.861 16.6000   1
  -4   8  -3 11.7602 1.69354   2
   4  -8   3 10.5989 1.92045   1
  -5   8  -3 3.11778 1.36376   2
   5  -8   3 3.20404 1.66984   1
  -6   8  -3 103.367 7.24855   2
   6  -8   3 96.5245 7.57455   1
  -7   8  -3 17.4960 2.50069   2
   7  -8   3 10.5075 2.52259   1
  -8   8  -3 241.889 15.9311   2
   8  -8   3 225.233 16.0895   1
  -9   8  -3 29.6962 4.00711   2
   9  -8   3 21.2029 3.45521   1
 -10   8  -3 10.1789 3.22088   2
  10  -8   3 8.34265 2.76032   1
   8   7  -3 127.500 9.20971   3
   7   7  -3 40.6722 3.73964   3
  -6  -7   3 239.093 20.3794   1
  -5  -7   3 325.195 20.2226   3
  -5  -7   3 269.519 24.5231   1
  -4  -7   3 118.713 12.8657   1
  -4  -7   3 110.976 7.62802   3
   3   7  -3 114.329 7.43939   2
  -3  -7   3 107.231 7.51465   3
  -3  -7   3 122.001 10.3412   1
   2   7  -3 419.491 25.9643   2
  -2  -7   3 398.861 26.0034   3
  -2  -7   3 399.234 27.0562   1
   1   7  -3 89.0847 6.15844   2
  -1  -7   3 99.6663 6.98157   1
   0   7  -3 2.55053 0.60140   3
   0   7  -3 2.51198 0.70509   2
   0  -7   3 3.26555 1.24211   1
  -1   7  -3 545.501 35.2923   2
  -1   7  -3 563.171 35.1735   3
   1  -7   3 554.233 35.6419   1
  -2   7  -3 1.20639 0.74138   2
   2  -7   3 1.35399 1.10584   1
  -3   7  -3 27.8179 2.32527   2
   3  -7   3 26.9340 2.74210   1
  -4   7  -3 371.750 23.7755   2
   4  -7   3 365.980 24.0363   1
  -5   7  -3 62.1517 4.70146   2
   5  -7   3 61.8697 4.99263   1
  -6   7  -3 250.878 16.7755   2
   6  -7   3 257.262 17.0843   1
  -7   7  -3 60.6533 4.90664   2
   7  -7   3 58.5355 5.17133   1
  -8   7  -3 15.5964 2.61033   2
   8  -7   3 11.7282 2.67850   1
  -9   7  -3 387.269 24.5392   2
   9  -7   3 350.698 24.4765   1
 -10   7  -3 39.9638 5.11295   2
  10  -7   3 36.2556 4.38212   1
   9   6  -3 29.8339 3.49644   3
   8   6  -3 424.975 27.6917   3
   7   6  -3 28.7030 2.99401   3
  -6  -6   3 56.0087 8.44258   1
  -5  -6   3 19.5420 2.04903   3
  -5  -6   3 12.2235 5.89356   1
   4   6  -3 42.7641 3.02758   2
  -4  -6   3 34.7072 6.93276   1
  -4  -6   3 38.8544 3.12530   3
   3   6  -3 134.511 8.73456   2
  -3  -6   3 128.424 8.81248   3
  -3  -6   3 148.368 11.3806   1
   2   6  -3 54.5159 3.73620   2
  -2  -6   3 55.7283 3.80953   3
  -2  -6   3 51.3439 4.82900   1
   1   6  -3 373.582 24.4563   2
  -1  -6   3 396.731 25.0637   1
   0   6  -3 606.969 38.4778   2
   0   6  -3 601.292 38.4257   3
   0  -6   3 609.799 38.8337   1
  -1   6  -3 2.57127 0.67016   2
  -1   6  -3 2.16285 0.50573   3
   1  -6   3 2.91969 1.03624   1
  -2   6  -3 47.4537 3.31860   2
   2  -6   3 45.1809 3.61899   1
  -3   6  -3 847.190 52.8428   2
   3  -6   3 814.971 53.0325   1
  -4   6  -3 44.7962 3.44994   2
   4  -6   3 46.2523 3.72082   1
  -5   6  -3 4.02437 1.26167   2
   5  -6   3 3.70268 1.43498   1
  -6   6  -3 485.884 31.0610   2
   6  -6   3 476.522 31.2524   1
  -7   6  -3 38.8976 3.78524   2
   7  -6   3 41.8306 4.02233   1
  -8   6  -3 2.08701 1.87079   2
   8  -6   3 3.31862 1.93735   1
  -9   6  -3 129.287 9.78439   2
   9  -6   3 132.638 9.67316   1
 -10   6  -3 1.25758 2.88713   2
  10  -6   3 0.70972 2.20138   1
   9   5  -3 161.989 11.3138   3
   8   5  -3 145.083 10.0360   3
   7   5  -3 180.154 12.0595   3
  -7  -5   3 179.560 14.3889   1
  -6  -5   3 68.8131 7.96564   1
  -6  -5   3 60.7969 4.57237   3
  -5  -5   3 11.9251 1.60606   3
  -5  -5   3 12.8292 5.12349   1
   4   5  -3 312.428 18.7496   2
  -4  -5   3 282.561 18.8291   3
  -4  -5   3 262.177 21.9474   1
   3   5  -3 248.204 16.3095   2
  -3  -5   3 288.393 18.7138   1
  -3  -5   3 247.789 16.4174   3
   2   5  -3 136.869 8.84914   2
  -2  -5   3 142.418 9.92046   1
  -2  -5   3 134.167 8.92790   3
   1   5  -3 178.444 11.6430   2
  -1  -5   3 186.002 12.1752   1
   0   5  -3 4506.65 283.066   2
   0   5  -3 4319.08 283.033   3
   0  -5   3 4618.09 283.372   1
  -1   5  -3 24.2837 1.74845   3
  -1   5  -3 24.3194 1.85731   2
   1  -5   3 25.9644 2.19292   1
  -2   5  -3 436.466 28.4646   2
   2  -5   3 457.681 28.6745   1
  -3   5  -3 108.151 7.15048   2
   3  -5   3 106.549 7.29860   1
  -4   5  -3 58.2620 4.28949   2
   4  -5   3 62.0567 4.52484   1
  -5   5  -3 91.2590 6.21948   2
   5  -5   3 86.0622 6.37091   1
  -6   5  -3 86.1528 6.54355   2
   6  -5   3 98.6520 6.80527   1
  -7   5  -3 399.507 25.6357   2
   7  -5   3 385.866 25.6681   1
  -8   5  -3 43.9052 4.29174   2
   8  -5   3 47.3152 4.30221   1
  -9   5  -3 0.77780 2.24259   2
   9  -5   3 -1.6167 1.91396   1
 -10   5  -3 44.9928 5.30656   2
   9   4  -3 41.9784 4.03613   3
   8   4  -3 82.3105 6.24057   3
  -8  -4   3 90.9277 8.23659   1
   7   4  -3 279.945 18.0662   3
  -7  -4   3 269.938 19.7401   1
  -6  -4   3 776.290 51.0373   1
  -6  -4   3 758.152 48.8177   3
  -5  -4   3 84.5042 5.71353   3
  -5  -4   3 72.4381 8.63928   1
   4   4  -3 27.0264 2.17631   2
  -4  -4   3 27.9572 2.22916   3
  -4  -4   3 30.2562 5.37531   1
   3   4  -3 426.313 28.2117   2
  -3  -4   3 505.159 31.0653   1
  -3  -4   3 432.146 28.3140   3
   2   4  -3 31.9300 2.20318   2
  -2  -4   3 31.0576 2.29302   3
  -2  -4   3 34.0845 3.57483   1
   1   4  -3 106.475 6.73231   2
   1   4  -3 98.5689 6.75120   3
  -1  -4   3 110.295 7.24351   1
   0   4  -3 10.2867 0.75142   2
   0   4  -3 6.38096 0.70052   3
   0  -4   3 3.17316 0.87418   1
  -1   4  -3 28.7464 2.02119   2
  -1   4  -3 27.7268 1.99323   3
   1  -4   3 28.3058 2.23189   1
  -2   4  -3 16.4845 1.38158   2
   2  -4   3 16.1438 1.58432   1
  -3   4  -3 381.754 23.8944   3
  -3   4  -3 368.450 24.1163   2
   3  -4   3 380.134 24.2270   1
  -4   4  -3 85.6939 5.85121   2
  -4   4  -3 83.3679 5.52763   3
   4  -4   3 87.9252 5.98856   1
  -5   4  -3 285.457 18.3815   3
  -5   4  -3 290.101 18.7217   2
   5  -4   3 289.394 18.8175   1
  -6   4  -3 46.0587 3.93710   2
  -6   4  -3 47.0820 3.33628   3
   6  -4   3 50.1569 3.99432   1
  -7   4  -3 39.3951 3.71757   2
   7  -4   3 38.7176 3.70379   1
  -8   4  -3 71.5082 5.62292   2
   8  -4   3 63.0777 5.33270   1
  -9   4  -3 97.1062 7.74769   2
   9  -4   3 93.0660 7.22782   1
 -10   4  -3 11.4581 3.65570   2
  10   3  -3 43.2497 4.27890   3
   9   3  -3 541.944 35.0492   3
   8   3  -3 18.8041 2.46545   3
  -8  -3   3 24.0369 4.31668   1
   7   3  -3 1.18325 1.17151   3
  -7  -3   3 0.93097 3.02860   1
  -6  -3   3 70.2797 7.26671   1
   5   3  -3 26.8525 2.88237   2
  -5  -3   3 15.8537 3.77625   1
  -5  -3   3 19.7420 1.90652   3
   4   3  -3 92.2001 6.35032   2
  -4  -3   3 100.785 6.31858   3
  -4  -3   3 70.6719 8.95079   1
   3   3  -3 36.9943 2.57319   2
  -3  -3   3 37.6284 2.69726   3
  -3  -3   3 37.2755 5.19860   1
   2   3  -3 298.409 19.8905   2
  -2  -3   3 338.657 21.1303   1
   1   3  -3 822.135 54.2119   3
   1   3  -3 873.102 54.1726   2
  -1  -3   3 875.161 54.6049   1
   0   3  -3 48.6076 3.13082   3
   0   3  -3 47.3471 3.10222   2
   0  -3   3 44.2770 3.35822   1
  -1   3  -3 75.3457 5.08318   2
  -1   3  -3 80.1445 5.37177   3
   1  -3   3 79.1976 5.21748   1
  -2   3  -3 679.523 43.6995   2
  -2   3  -3 682.888 43.6027   3
   2  -3   3 703.875 43.7773   1
  -3   3  -3 83.7131 5.92274   2
  -3   3  -3 91.0859 5.74000   3
   3  -3   3 90.0878 5.99395   1
  -4   3  -3 22.3605 1.97690   2
  -4   3  -3 21.4793 1.63722   3
   4  -3   3 23.3889 2.11881   1
  -5   3  -3 1220.13 81.3265   3
  -5   3  -3 1314.27 81.6637   2
   5  -3   3 1323.31 81.6782   1
  -6   3  -3 35.6388 2.75449   3
  -6   3  -3 38.0505 3.33676   2
   6  -3   3 37.3758 3.28183   1
  -7   3  -3 75.0544 5.24121   3
  -7   3  -3 77.7191 5.90916   2
   7  -3   3 76.3191 5.75656   1
  -8   3  -3 99.4977 7.51365   2
   8  -3   3 92.5313 6.99445   1
  -9   3  -3 4.74743 2.82582   2
 -10   3  -3 0.55012 3.50094   2
  10  -3   3 1.66995 1.75723   4
  10   2  -3 209.376 14.2900   3
   9   2  -3 29.5280 3.16412   3
  -9  -2   3 33.3217 5.05509   1
   8   2  -3 297.369 19.6699   3
  -8  -2   3 306.328 21.1944   1
   7   2  -3 98.0231 6.98020   3
  -7  -2   3 108.504 8.70089   1
   6   2  -3 139.694 8.87326   3
  -6  -2   3 118.178 10.3290   1
   5   2  -3 329.148 21.5096   2
  -5  -2   3 311.686 22.2737   1
   4   2  -3 62.3311 4.85950   2
  -4  -2   3 55.9332 3.96684   3
  -4  -2   3 54.5209 5.92005   1
   3   2  -3 721.817 45.9168   2
   2   2  -3 74.7169 4.92628   3
   2   2  -3 76.5285 4.82335   2
  -2  -2   3 70.5446 6.51877   1
   1   2  -3 9500.28 579.580   2
   1   2  -3 8729.51 579.927   3
  -1  -2   3 9241.02 578.825   1
   0   2  -3 4.21995 0.59233   3
   0   2  -3 3.57209 0.43814   2
   0  -2   3 7.62424 0.91097   1
  -1   2  -3 581.980 35.0345   2
  -1   2  -3 461.138 35.4743   3
   1  -2   3 601.407 35.1065   1
  -2   2  -3 249.362 16.3028   2
  -2   2  -3 261.380 16.2230   3
   2  -2   3 252.854 16.3074   1
  -3   2  -3 141.766 9.07955   3
  -3   2  -3 139.120 9.26200   2
   3  -2   3 142.277 9.23514   1
  -4   2  -3 134.746 9.12699   3
  -4   2  -3 141.544 9.39553   2
   4  -2   3 149.055 9.37524   1
  -5   2  -3 254.563 16.8287   3
  -5   2  -3 263.265 17.1906   2
   5  -2   3 270.209 17.0831   1
  -6   2  -3 486.485 31.0481   3
  -6   2  -3 472.101 31.4694   2
   6  -2   3 499.519 31.3165   1
  -7   2  -3 98.5069 7.18943   2
  -7   2  -3 93.7612 6.42802   3
   7  -2   3 91.7825 6.74709   1
  -8   2  -3 8.16809 1.49862   3
  -8   2  -3 7.70420 2.66015   2
   8  -2   3 7.86798 1.92956   1
   9  -2   3 59.0899 4.59634   4
  10   1  -3 12.9930 2.49520   3
   9   1  -3 59.4194 4.92020   3
  -9  -1   3 68.9146 6.74227   1
   8   1  -3 225.395 15.0088   3
  -8  -1   3 230.534 16.3724   1
   7   1  -3 868.687 54.7630   3
  -7  -1   3 847.947 56.0574   1
   6   1  -3 20.6071 1.94163   3
   6   1  -3 19.2401 3.20529   2
  -6  -1   3 15.8718 3.24592   1
   5   1  -3 3.95934 1.68604   2
   5   1  -3 4.20451 0.88778   3
  -5  -1   3 3.18893 1.92355   1
   4   1  -3 247.709 16.2914   2
   4   1  -3 253.864 16.0260   3
  -4  -1   3 244.601 17.4161   1
   3   1  -3 231.608 14.4340   3
   3   1  -3 220.270 14.5392   2
  -3  -1   3 221.358 15.9328   1
   2   1  -3 225.129 13.3981   3
  -2  -1   3 178.555 14.7370   1
   1   1  -3 12.1784 0.90668   3
  -1  -1   3 4.40911 1.52036   1
   0   1  -3 29.2499 2.27571   3
   0   1  -3 32.7820 2.11304   2
   0  -1   3 32.2290 2.09341   4
   0  -1   3 31.1652 2.29163   1
  -1   1  -3 176.214 11.4844   2
   1  -1   3 182.682 11.4656   1
   1  -1   3 178.408 11.4008   4
  -2   1  -3 3.45381 0.64216   2
  -2   1  -3 2.35550 0.45010   3
   2  -1   3 2.46402 0.49696   1
  -3   1  -3 29.4307 2.28104   3
  -3   1  -3 30.1737 2.53320   2
   3  -1   3 37.2507 2.40899   1
  -4   1  -3 295.971 18.7611   2
  -4   1  -3 284.220 18.4796   3
   4  -1   3 287.249 18.5847   1
  -5   1  -3 80.1555 5.70870   2
  -5   1  -3 74.6554 5.17703   3
  -6   1  -3 120.030 7.90503   3
  -6   1  -3 116.135 8.46574   2
  -7   1  -3 30.8444 2.67553   3
  -7   1  -3 31.2532 3.70945   2
   7  -1   3 29.3329 2.83077   1
   7  -1   3 28.6683 2.63517   4
  -8   1  -3 214.016 14.2792   3
   8  -1   3 220.592 14.2041   4
  -9   1  -3 6.57621 1.65250   3
   9  -1   3 0.69428 3.46423   2
   9  -1   3 3.05725 1.58860   4
  10   0  -3 225.654 14.9723   3
 -10   0   3 214.924 16.1442   1
   9   0  -3 1.15353 1.64095   3
  -9   0   3 0.34027 2.76684   1
   8   0  -3 21.1125 2.42648   3
  -8   0   3 27.9224 4.35910   1
   7   0  -3 117.409 7.95691   3
  -7   0   3 116.823 9.16572   1
   6   0  -3 150.085 9.45630   3
  -6   0   3 127.911 9.93659   2
  -6   0   3 146.592 10.7122   1
   5   0  -3 11.0952 1.33630   3
  -5   0   3 13.4040 2.44838   1
  -5   0   3 11.9857 1.73178   2
   4   0  -3 202.882 12.5286   3
  -4   0   3 190.076 12.5801   2
  -4   0   3 186.056 13.5006   1
   3   0  -3 37.4981 2.68066   3
  -3   0   3 43.0106 2.69092   2
  -3   0   3 31.9307 3.53217   1
   2   0  -3 104.109 6.45738   3
  -2   0   3 99.7490 6.35871   2
  -2   0   3 89.1328 7.28471   1
   1   0  -3 218.107 13.2328   3
  -1   0   3 169.034 14.0530   1
  -1   0   3 218.654 13.1524   2
   0   0  -3 4.63618 1.31732   3
   0   0   3 8.43412 1.18049   2
   0   0   3 5.41690 1.01484   1
  -1   0  -3 108.870 7.41842   3
  -1   0  -3 113.003 7.50053   2
   1   0   3 112.054 7.33552   4
   1   0   3 121.410 7.31712   1
  -2   0  -3 0.47950 0.62270   2
  -2   0  -3 0.90148 0.40215   3
   2   0   3 1.76312 0.35348   1
   2   0   3 1.92426 0.41650   4
  -3   0  -3 52.3760 4.01907   2
  -3   0  -3 57.7308 3.77057   3
  -3   0  -3 55.3724 3.74834   1
   3   0   3 54.3952 3.68378   4
  -4   0  -3 1598.85 100.879   3
  -4   0  -3 1568.34 101.200   2
  -4   0  -3 1588.95 100.935   1
   4   0   3 1616.37 100.779   4
  -5   0  -3 505.262 32.5104   1
  -5   0  -3 506.292 32.8974   2
  -5   0  -3 492.663 32.3847   3
   5   0   3 528.028 32.3200   4
  -6   0  -3 487.719 30.8235   3
  -6   0  -3 473.051 30.9347   1
   6   0   3 483.603 30.6930   4
  -7   0  -3 51.9443 3.83718   3
  -7   0  -3 46.8644 3.92497   1
   7   0   3 43.1432 4.97572   2
   7   0   3 50.9044 3.69145   4
  -8   0  -3 86.9844 6.36813   3
   8   0   3 94.1218 8.43996   2
   8   0   3 89.4906 6.25673   4
  -9   0  -3 26.0771 3.00146   3
   9   0   3 30.7257 5.67440   2
 -10   0  -3 3.49085 1.92459   3
 -10   1   3 2.75760 2.94329   1
   9  -1  -3 576.149 36.0134   3
  -9   1   3 538.214 37.0774   1
   8  -1  -3 124.420 8.64858   3
  -8   1   3 130.043 10.0364   1
   7  -1  -3 328.376 20.7851   3
  -7   1   3 302.704 21.3303   2
  -7   1   3 332.967 21.9962   1
   6  -1  -3 225.932 14.2855   3
  -6   1   3 212.238 15.3581   1
  -6   1   3 219.666 14.5688   2
   5  -1  -3 6.23960 0.90278   3
  -5   1   3 7.72072 2.00118   1
  -5   1   3 6.28795 1.12664   2
   4  -1  -3 455.501 28.2772   3
  -4   1   3 443.818 28.2874   2
  -4   1   3 429.607 29.0948   1
   3  -1  -3 61.6550 3.95870   3
  -3   1   3 60.7959 4.71939   1
  -3   1   3 56.4470 3.90653   2
   2  -1  -3 6754.23 420.159   3
  -2   1   3 6292.24 418.967   1
  -2   1   3 6843.59 419.953   2
   1  -1  -3 4.56072 0.89177   3
  -1   1   3 4.80536 0.98208   1
  -1   1   3 4.19295 0.54366   2
   0  -1  -3 179.833 12.1142   3
   0   1   3 193.600 12.1541   2
   0   1   3 181.358 11.9113   1
  -1  -1  -3 132.231 8.96473   3
   1   1   3 153.860 9.81579   2
  -2  -1  -3 215.397 13.6945   3
  -2  -1  -3 216.823 13.5924   1
   2   1   3 208.574 13.6545   4
   2   1   3 211.819 14.1863   2
  -3  -1  -3 84.6507 5.57762   1
  -3  -1  -3 85.3230 5.62404   3
   3   1   3 85.7631 6.26378   2
   3   1   3 83.0112 5.55433   4
  -4  -1  -3 355.503 22.8299   1
  -4  -1  -3 356.270 22.8154   3
   4   1   3 344.785 23.3513   2
   4   1   3 366.743 22.7213   4
  -5  -1  -3 197.861 13.2213   3
  -5  -1  -3 200.363 13.2930   1
   5   1   3 209.921 13.1364   4
   5   1   3 208.662 14.1883   2
  -6  -1  -3 2.73261 1.09004   3
  -6  -1  -3 1.88797 1.00364   1
   6   1   3 1.71822 0.96479   4
   6   1   3 4.56021 2.48942   2
  -7  -1  -3 62.1153 4.78019   3
   7   1   3 66.7703 6.92210   2
   7   1   3 66.0930 4.65570   4
  -8  -1  -3 27.3964 2.85577   3
   8   1   3 29.0265 5.83625   2
  -9  -1  -3 521.690 33.6921   3
 -10  -1  -3 15.9843 2.55977   3
 -10   2   3 3.26959 3.14750   1
  -9   2   3 1.69751 2.47122   1
   8  -2  -3 880.149 55.7815   3
  -8   2   3 869.788 56.8944   1
  -7   2   3 2.18808 2.13923   1
   6  -2  -3 116.633 7.81037   3
  -6   2   3 115.956 8.04331   2
  -6   2   3 122.136 8.91070   1
   5  -2  -3 0.61019 0.62322   3
  -5   2   3 2.07330 0.77693   2
  -5   2   3 -0.3810 1.25035   1
   4  -2  -3 178.493 11.7294   3
  -4   2   3 179.446 11.7580   2
  -4   2   3 192.302 12.5634   1
   3  -2  -3 70.8536 4.74477   3
  -3   2   3 72.8199 5.37223   1
  -3   2   3 71.3204 4.72426   2
   2  -2  -3 263.682 17.1740   3
  -2   2   3 269.921 17.0765   2
  -2   2   3 270.299 17.5133   1
   1  -2  -3 61.1231 5.13661   3
  -1   2   3 62.4079 4.27781   1
  -1   2   3 60.2465 4.07264   2
   0  -2  -3 411.756 24.6660   1
   0  -2  -3 380.286 24.7139   3
   0   2   3 368.176 24.8308   2
  -1  -2  -3 168.811 10.1894   3
   1   2   3 140.116 10.6958   2
  -2  -2  -3 247.759 15.7132   3
   2   2   3 239.191 16.8622   2
  -3  -2  -3 135.019 8.31563   3
  -3  -2  -3 120.375 8.24740   1
   3   2   3 128.871 9.63064   2
   3   2   3 124.327 8.29589   4
  -4  -2  -3 448.327 27.8293   3
  -4  -2  -3 416.088 27.7983   1
   4   2   3 442.186 29.0853   2
   4   2   3 437.995 27.7621   4
  -5  -2  -3 71.3254 4.98086   3
  -5  -2  -3 67.6120 4.96545   1
   5   2   3 72.6683 7.04299   2
   5   2   3 74.6402 4.92460   4
  -6  -2  -3 109.294 7.37476   3
   6   2   3 105.635 7.23633   4
   6   2   3 102.634 9.59549   2
  -7  -2  -3 192.674 12.7021   3
   7   2   3 182.335 15.2118   2
   7   2   3 191.183 12.5787   4
  -8  -2  -3 10.6685 1.91631   3
   8   2   3 19.7809 6.48750   2
  -9  -2  -3 421.095 27.4126   3
 -10  -2  -3 4.33088 2.12861   3
 -10   3   3 23.2073 4.15403   1
  -9   3   3 95.0683 8.23507   1
  -8   3   3 226.825 16.1074   1
   7  -3  -3 310.295 19.9328   3
  -7   3   3 333.342 21.0947   1
  -7   3   3 289.149 20.2021   2
   6  -3  -3 67.0118 4.60274   3
  -6   3   3 72.2424 5.83635   1
  -6   3   3 62.9676 4.79053   2
   5  -3  -3 102.297 6.91182   3
  -5   3   3 112.502 7.86892   1
  -5   3   3 102.590 6.98695   2
   4  -3  -3 83.0361 5.44169   3
  -4   3   3 80.0090 5.46968   2
  -4   3   3 81.3866 6.11597   1
   3  -3  -3 105.339 6.64769   3
  -3   3   3 99.3365 7.09800   1
  -3   3   3 96.1813 6.57274   2
   2  -3  -3 37.2021 3.09643   3
  -2   3   3 30.4911 2.54961   1
  -2   3   3 30.0057 2.22451   2
   1  -3  -3 189.086 12.9308   3
  -1   3   3 207.216 12.8019   2
   0  -3  -3 109.891 7.20851   3
   0  -3  -3 114.940 7.21900   1
   0   3   3 104.969 7.38211   2
  -1  -3  -3 65.3669 4.39456   3
  -1  -3  -3 69.0482 4.38217   1
   1   3   3 58.0561 4.82801   2
  -2  -3  -3 414.292 25.9854   1
  -2  -3  -3 408.326 25.6296   3
   2   3   3 375.992 26.3470   2
  -3  -3  -3 1450.80 90.3178   3
  -3  -3  -3 1416.10 90.4716   1
   3   3   3 1406.09 91.6519   2
  -4  -3  -3 681.241 46.7905   1
  -4  -3  -3 767.097 46.8072   3
   4   3   3 772.351 48.7007   2
  -5  -3  -3 702.025 45.0604   3
   5   3   3 713.569 47.2694   2
  -6  -3  -3 12.4214 1.88021   3
   6   3   3 9.73243 5.21558   2
  -7  -3  -3 78.0329 5.86494   3
   7   3   3 94.9058 10.4123   2
  -8  -3  -3 48.9575 4.25398   3
   8   3   3 59.9806 8.87247   2
  -9  -3  -3 9.01072 2.04941   3
 -10  -3  -3 46.9142 4.50757   3
  10  -4  -3 410.436 27.7716   1
  -9   4   3 59.5273 6.04781   1
  -8   4   3 279.414 18.5460   1
  -8   4   3 254.265 17.7696   2
  -7   4   3 60.3604 5.41866   1
  -7   4   3 50.5907 4.32542   2
   6  -4  -3 3.52425 0.97994   3
  -6   4   3 4.69816 1.17678   2
  -6   4   3 3.65810 1.96320   1
   5  -4  -3 275.938 18.0156   3
  -5   4   3 297.623 18.8967   1
  -5   4   3 271.381 18.0949   2
   4  -4  -3 144.543 9.53118   3
  -4   4   3 142.370 9.49520   2
  -4   4   3 148.691 10.1457   1
   3  -4  -3 4896.12 301.376   3
  -3   4   3 4733.11 300.883   2
  -3   4   3 4657.10 301.271   1
   2  -4  -3 199.869 12.1205   1
   2  -4  -3 148.503 11.9019   3
  -2   4   3 195.360 11.7483   2
   1  -4  -3 14.7349 1.37122   3
   1  -4  -3 16.2431 1.63963   1
  -1   4   3 15.2392 1.43939   2
   0  -4  -3 7.72992 1.08731   1
   0  -4  -3 7.75578 0.90491   3
   0   4   3 7.68003 1.19393   2
  -1  -4  -3 178.554 11.4160   3
  -1  -4  -3 188.588 11.5148   1
   1   4   3 158.045 11.6859   2
  -2  -4  -3 3.95019 0.75924   3
  -2  -4  -3 3.24605 1.23430   1
   2   4   3 5.41721 1.61648   2
  -3  -4  -3 31.2810 2.56166   3
  -3  -4  -3 42.0728 3.79547   1
   3   4   3 25.0225 3.54185   2
  -4  -4  -3 141.378 9.13662   3
  -4  -4  -3 131.409 9.31853   1
   4   4   3 141.393 10.5030   2
  -5  -4  -3 31.3523 2.69549   3
   5   4   3 23.0266 4.06964   2
  -6  -4  -3 37.7897 3.13464   3
   6   4   3 28.0089 4.99534   2
  -7  -4  -3 8.00249 1.79970   3
   7   4   3 11.4767 4.20946   2
  -8  -4  -3 134.012 9.44934   3
  -9  -4  -3 2.29919 1.85058   3
  10  -5  -3 38.8758 5.32204   1
   9  -5  -3 504.341 33.6082   1
  -8   5   3 32.3361 3.49317   2
  -7   5   3 84.1125 6.20828   2
  -6   5   3 1.40900 1.14004   2
  -6   5   3 5.10023 2.06346   1
   5  -5  -3 128.568 8.97377   3
  -5   5   3 139.196 8.97820   2
   4  -5  -3 119.002 9.24000   1
   4  -5  -3 148.935 9.20394   3
  -4   5   3 126.581 8.64654   2
   3  -5  -3 727.721 45.6007   1
  -3   5   3 692.640 45.0860   2
   2  -5  -3 55.9191 4.14427   1
   2  -5  -3 52.6793 3.65341   3
  -2   5   3 48.8805 3.66102   2
   1  -5  -3 193.444 12.8157   3
   1  -5  -3 205.515 13.1370   1
  -1   5   3 200.132 12.9735   2
   0  -5  -3 296.571 19.5536   3
   0  -5  -3 309.002 19.7762   1
   0   5   3 313.506 19.8358   2
  -1  -5  -3 564.493 36.2044   1
  -1  -5  -3 578.550 36.0283   3
   1   5   3 552.430 36.3517   2
  -2  -5  -3 54.0763 3.54958   3
  -2  -5  -3 40.5955 3.99977   1
   2   5   3 50.0661 4.17441   2
  -3  -5  -3 591.316 36.9533   3
  -3  -5  -3 615.661 37.9387   1
   3   5   3 528.276 37.4486   2
  -4  -5  -3 35.4510 2.86566   3
   4   5   3 32.0699 3.85794   2
  -5  -5  -3 170.914 11.0998   3
   5   5   3 157.014 12.0001   2
  -6  -5  -3 37.7981 3.32086   3
   6   5   3 34.3052 4.99020   2
  -7  -5  -3 99.9402 7.25782   3
   7   5   3 101.559 8.85460   2
  -8  -5  -3 324.364 21.3836   3
  -9  -5  -3 3.14031 1.91882   3
  10  -6  -3 121.259 9.99986   1
   9  -6  -3 265.404 18.7073   1
   8  -6  -3 162.474 12.2263   1
  -8   6   3 166.264 11.5384   2
   7  -6  -3 64.6839 6.55073   1
  -7   6   3 76.5616 5.57958   2
   6  -6  -3 4.08217 2.32811   1
  -6   6   3 5.51803 1.47624   2
   5  -6  -3 117.920 8.27932   1
  -5   6   3 99.1243 7.28285   2
   4  -6  -3 213.135 14.5269   1
  -4   6   3 210.145 13.8203   2
   3  -6  -3 46.7307 3.89894   1
   3  -6  -3 44.3477 3.06318   3
  -3   6   3 38.3880 3.16998   2
   2  -6  -3 394.680 24.9023   1
   2  -6  -3 372.348 24.3050   3
  -2   6   3 380.098 24.4965   2
   1  -6  -3 365.911 23.2760   3
   1  -6  -3 369.069 23.6965   1
  -1   6   3 359.288 23.4781   2
   0  -6  -3 451.909 29.0050   1
   0  -6  -3 440.713 28.6784   3
   0   6   3 458.018 28.9903   2
  -1  -6  -3 150.986 9.71267   3
  -1  -6  -3 148.442 10.1193   1
   1   6   3 143.105 10.0596   2
  -2  -6  -3 1300.84 81.9951   3
   2   6   3 1283.81 82.4467   2
  -3  -6  -3 186.287 12.0119   3
   3   6   3 177.203 12.5565   2
  -4  -6  -3 226.388 14.5756   3
   4   6   3 214.475 15.3235   2
  -5  -6  -3 1.76130 1.23916   3
   5   6   3 -1.0436 2.10261   2
  -6  -6  -3 39.6842 3.47730   3
   6   6   3 35.0123 4.80056   2
  -7  -6  -3 65.5952 5.26333   3
   7   6   3 68.4678 6.85612   2
  -8  -6  -3 77.1627 6.10867   3
  10  -7  -3 48.6220 5.81026   1
   9  -7  -3 116.771 10.0771   1
  -9   7   3 128.663 9.50027   2
   8  -7  -3 16.4528 3.52038   1
  -8   7   3 17.5988 2.88933   2
   7  -7  -3 3.50926 2.59094   1
  -7   7   3 6.99915 1.93415   2
   6  -7  -3 117.686 9.46795   1
  -6   7   3 124.416 8.52739   2
   5  -7  -3 136.164 10.1685   1
  -5   7   3 135.344 9.22578   2
   4  -7  -3 902.810 57.8271   1
  -4   7   3 892.626 57.1510   2
   3  -7  -3 338.126 21.9481   1
  -3   7   3 323.297 21.3085   2
   2  -7  -3 82.0036 5.54294   3
   2  -7  -3 87.6857 6.42643   1
  -2   7   3 82.7287 5.82114   2
   1  -7  -3 84.3872 5.73392   3
   1  -7  -3 85.1027 6.41507   1
  -1   7   3 87.7819 6.04102   2
   0  -7  -3 155.354 10.4988   1
   0  -7  -3 145.373 9.90598   3
   0   7   3 156.509 10.2920   2
  -1  -7  -3 21.8413 2.09792   3
  -1  -7  -3 26.5246 3.10574   1
   1   7   3 25.2626 2.71220   2
  -2  -7  -3 5.77732 2.17151   1
  -2  -7  -3 7.28462 1.19421   3
   2   7   3 6.33106 1.77232   2
  -3  -7  -3 136.385 8.97727   3
   3   7   3 127.332 9.49047   2
  -4  -7  -3 58.5731 4.38213   3
   4   7   3 54.8019 5.25831   2
  -5  -7  -3 49.0873 3.92413   3
   5   7   3 44.4785 4.87393   2
  -6  -7  -3 0.98662 1.50218   3
   6   7   3 0.90579 2.60072   2
  -7  -7  -3 0.44420 1.63325   3
  -8  -7  -3 18.8566 2.85483   3
  10  -8  -3 158.426 12.5305   1
   9  -8  -3 54.2229 6.47016   1
  -9   8   3 72.9775 6.48903   2
   8  -8  -3 6.72011 3.14994   1
  -8   8   3 10.8813 2.65030   2
   7  -8  -3 9.67723 3.15163   1
  -7   8   3 14.4060 2.41916   2
   6  -8  -3 74.5236 6.75575   1
  -6   8   3 71.8522 5.58287   2
   5  -8  -3 195.932 13.9774   1
  -5   8   3 195.102 13.0536   2
   4  -8  -3 509.644 32.6737   1
  -4   8   3 484.141 31.8683   2
   3  -8  -3 11.7494 2.50924   1
  -3   8   3 11.4826 1.63193   2
   2  -8  -3 63.4030 5.41432   1
  -2   8   3 64.0050 4.75593   2
   1  -8  -3 160.058 10.3237   3
   1  -8  -3 150.139 11.1194   1
  -1   8   3 162.677 10.7017   2
   0  -8  -3 618.823 39.9932   1
   0  -8  -3 604.138 39.2232   3
   0   8   3 625.783 39.5637   2
  -1  -8  -3 23.4583 3.55413   1
  -1  -8  -3 26.3640 2.34284   3
   1   8   3 30.2185 3.05360   2
  -2  -8  -3 331.654 22.1465   3
   2   8   3 356.997 22.6337   2
  -3  -8  -3 40.7204 3.42763   3
   3   8   3 42.1686 4.16823   2
  -4  -8  -3 66.3944 5.17299   3
   4   8   3 75.6519 5.94014   2
  -5  -8  -3 10.9948 1.95075   3
   5   8   3 14.1516 3.04480   2
  -6  -8  -3 262.476 17.5695   3
   6   8   3 266.065 18.2824   2
  -7  -8  -3 138.963 9.86074   3
   9  -9  -3 29.4254 5.14168   1
  -9   9   3 36.0001 5.02177   2
   8  -9  -3 7.42407 3.36256   1
  -8   9   3 7.29575 2.54857   2
   7  -9  -3 6.42480 3.12327   1
  -7   9   3 1.87017 1.95710   2
   6  -9  -3 95.3138 8.25348   1
  -6   9   3 90.9896 6.91005   2
   5  -9  -3 420.778 28.4497   1
  -5   9   3 425.266 27.4872   2
   4  -9  -3 7.41390 2.66125   1
  -4   9   3 7.18711 1.56944   2
   3  -9  -3 251.199 17.0838   1
  -3   9   3 242.531 16.2158   2
   2  -9  -3 227.533 15.5693   1
  -2   9   3 218.647 14.7490   2
   1  -9  -3 433.808 29.4842   1
  -1   9   3 455.409 28.8592   2
   0  -9  -3 76.4590 6.72162   1
   0  -9  -3 73.4642 5.34389   3
   0   9   3 84.1866 5.99406   2
  -1  -9  -3 437.041 29.5229   3
  -1  -9  -3 446.708 30.9075   1
   1   9   3 499.053 29.9624   2
  -2  -9  -3 63.5485 4.99831   3
   2   9   3 76.9999 5.74753   2
  -3  -9  -3 44.1368 3.77330   3
   3   9   3 47.4131 4.61493   2
  -4  -9  -3 6.88831 1.73657   3
   4   9   3 6.37716 2.53540   2
  -5  -9  -3 9.32358 1.97946   3
   5   9   3 13.2708 2.99781   2
  -6  -9  -3 8.88708 2.12923   3
  -7  -9  -3 100.002 7.54686   3
   9 -10  -3 51.2328 6.95414   1
  -9  10   3 64.0203 6.26381   2
   8 -10  -3 1.05267 3.52064   1
  -8  10   3 3.10641 2.58218   2
   7 -10  -3 65.0213 7.05232   1
  -7  10   3 60.0083 5.39224   2
   6 -10  -3 57.2666 6.36123   1
  -6  10   3 54.7833 4.78343   2
   5 -10  -3 123.374 10.2075   1
  -5  10   3 126.514 8.88813   2
   4 -10  -3 291.562 20.1693   1
  -4  10   3 287.329 19.0489   2
   3 -10  -3 47.6363 5.52203   1
  -3  10   3 50.9437 4.20378   2
   2 -10  -3 226.706 16.1821   1
  -2  10   3 223.520 15.0540   2
   1 -10  -3 3.14064 2.97941   1
  -1  10   3 3.09836 1.60240   2
   0 -10  -3 7.32472 3.39857   1
   0  10   3 1.74373 1.74567   2
  -1 -10  -3 214.416 14.4474   3
   1  10   3 226.487 14.9273   2
  -2 -10  -3 149.570 10.3917   3
   2  10   3 160.713 10.9145   2
  -3 -10  -3 80.3088 6.15614   3
   3  10   3 87.7804 6.85281   2
  -4 -10  -3 55.8061 4.85049   3
   4  10   3 65.8397 5.75600   2
  -5 -10  -3 4.58972 1.87604   3
   5  10   3 4.57700 2.71919   2
  -6 -10  -3 51.8727 4.79919   3
   8 -11  -3 4.38512 3.89112   1
  -8  11   3 1.79042 2.68908   2
   7 -11  -3 14.5934 4.39184   1
  -7  11   3 20.3882 3.17384   2
   6 -11  -3 475.233 32.6114   1
  -6  11   3 481.467 31.2957   2
   5 -11  -3 367.800 25.8746   1
  -5  11   3 377.763 24.5744   2
   4 -11  -3 0.85368 3.04232   1
  -4  11   3 0.26730 1.57320   2
   3 -11  -3 8.36010 3.55538   1
  -3  11   3 6.63566 1.91845   2
   2 -11  -3 10.1124 3.63892   1
  -2  11   3 14.2510 2.27414   2
   1 -11  -3 202.150 15.5904   1
  -1  11   3 206.010 13.9488   2
   0  11   3 101.773 7.66156   2
   1  11   3 94.4938 7.40887   2
  -2 -11  -3 28.5784 3.12360   3
   2  11   3 35.7057 3.96787   2
  -3 -11  -3 7.74979 1.95339   3
   3  11   3 10.3948 2.64354   2
  -4 -11  -3 1.07005 1.76731   3
   4  11   3 3.53318 2.51705   2
  -5 -11  -3 339.409 22.5233   3
   7 -12  -3 54.7415 7.69154   1
  -7  12   3 69.1165 6.02873   2
   6 -12  -3 137.712 11.8983   1
  -6  12   3 136.292 10.0381   2
   5 -12  -3 1.60244 3.71641   1
  -5  12   3 3.08320 2.08966   2
   4 -12  -3 205.146 15.6929   1
  -4  12   3 196.686 13.7440   2
   3 -12  -3 52.5331 6.73845   1
  -3  12   3 40.3148 4.15475   2
   2 -12  -3 208.608 16.8020   1
  -2  12   3 220.728 14.7968   2
   1 -12  -3 100.231 10.4159   1
  -1  12   3 107.353 8.01164   2
   0  12   3 154.449 11.0109   2
   1  12   3 18.4364 3.08754   2
   2  12   3 3.36736 2.46164   2
   3  12   3 0.04912 2.51856   2
  -4 -12  -3 1.17471 1.98588   3
   4  12   3 1.92861 2.77181   2
   6 -13  -3 0.18102 4.36236   1
  -6  13   3 7.05133 2.53150   2
   5 -13  -3 149.547 13.7313   1
  -5  13   3 168.707 11.6903   2
   4 -13  -3 29.3275 6.13200   1
  -4  13   3 26.1728 3.82218   2
   3 -13  -3 156.177 14.1784   1
  -3  13   3 165.347 11.6520   2
   2 -13  -3 34.8419 7.06555   1
  -2  13   3 44.1911 4.46054   2
  -1  13   3 14.2624 2.80340   2
   0  13   3 383.112 25.5168   2
   1  13   3 196.771 13.8526   2
   2  13   3 36.6875 4.62790   2
   3  13   3 19.9136 3.66121   2
   5 -14  -3 6.70593 5.10938   1
  -5  14   3 1.68822 2.49084   2
   4 -14  -3 2.49993 5.20862   1
  -4  14   3 1.86973 2.35659   2
   3 -14  -3 24.3013 6.76948   1
  -3  14   3 27.4857 3.77642   2
  -2  14   3 54.7855 5.34389   2
  -1  14   3 104.200 8.25973   2
   1  14   3 60.2127 5.82318   2
   0 -15   4 27.8586 6.97975   1
  -1  15  -4 18.0770 2.77199   2
   1 -15   4 24.9046 5.94360   1
  -2  15  -4 52.1894 4.76224   2
   2 -15   4 62.5954 7.69978   1
  -3  15  -4 17.7103 2.64580   2
   3 -15   4 15.2243 4.67590   1
  -1 -14   4 36.8403 7.93162   1
   0  14  -4 47.4158 4.27112   2
   0 -14   4 54.1904 7.95967   1
  -1  14  -4 0.49165 1.63910   2
   1 -14   4 2.82398 3.84093   1
  -2  14  -4 207.521 13.6626   2
   2 -14   4 192.365 15.3831   1
  -3  14  -4 19.9616 2.96593   2
   3 -14   4 20.8803 4.47839   1
  -4  14  -4 429.192 27.5196   2
   4 -14   4 410.693 28.7354   1
  -5  14  -4 2.77003 1.95312   2
   5 -14   4 3.90942 3.09770   1
  -2 -13   4 130.406 13.9529   1
  -1 -13   4 28.8990 6.21935   1
   0  13  -4 127.731 8.66396   2
   0 -13   4 115.313 10.7526   1
  -1  13  -4 148.204 10.2106   2
   1 -13   4 150.692 11.9797   1
  -2  13  -4 1.98670 1.61141   2
   2 -13   4 0.74731 2.65556   1
  -3  13  -4 271.855 16.8083   2
   3 -13   4 228.245 17.6302   1
  -4  13  -4 20.4752 2.71573   2
   4 -13   4 12.1105 3.26770   1
  -5  13  -4 95.2942 7.18136   2
   5 -13   4 94.7037 8.28280   1
  -6  13  -4 0.15308 1.90649   2
   6 -13   4 0.75744 2.78000   1
  -7  13  -4 71.3167 5.91715   2
   7 -13   4 64.0842 6.76210   1
   5  12  -4 7.49974 2.32141   3
   4  12  -4 20.6370 2.97440   3
  -3 -12   4 8.14272 8.44847   1
  -2 -12   4 17.6273 5.93601   1
   1  12  -4 30.5414 2.94700   2
  -1 -12   4 35.6607 5.85225   1
   0  12  -4 84.0062 6.00992   2
   0 -12   4 82.0850 7.74124   1
  -1  12  -4 -0.7225 1.27013   2
   1 -12   4 1.73908 2.58377   1
  -2  12  -4 37.4286 3.37816   2
   2 -12   4 37.5696 4.60921   1
  -3  12  -4 2.38015 1.41163   2
   3 -12   4 3.05049 2.25544   1
  -4  12  -4 81.4879 6.07575   2
   4 -12   4 81.0328 6.97688   1
  -5  12  -4 470.666 29.2772   2
   5 -12   4 425.999 29.8571   1
  -6  12  -4 8.44060 2.13284   2
   6 -12   4 3.68377 2.74432   1
  -7  12  -4 55.9924 5.04534   2
   7 -12   4 47.5586 5.75798   1
  -8  12  -4 2.22206 2.49242   2
   8 -12   4 1.19989 3.01380   1
   6  11  -4 29.4997 3.72309   3
   5  11  -4 6.69645 2.24931   3
   4  11  -4 528.532 33.4834   3
  -4 -11   4 477.956 42.1061   1
   3  11  -4 134.467 9.19667   3
  -3 -11   4 126.533 13.8038   1
  -2 -11   4 20.4393 5.03848   1
   1  11  -4 31.6550 2.83933   2
  -1 -11   4 37.0033 4.91644   1
   0  11  -4 44.5943 3.54850   2
   0 -11   4 43.2620 4.95058   1
  -1  11  -4 399.057 24.9752   2
   1 -11   4 371.504 25.8134   1
  -2  11  -4 22.1764 2.33238   2
   2 -11   4 22.4492 3.30946   1
  -3  11  -4 692.198 43.0538   2
   3 -11   4 650.741 43.6301   1
  -4  11  -4 30.5890 2.98846   2
   4 -11   4 30.0226 3.84090   1
  -5  11  -4 119.273 8.29237   2
   5 -11   4 113.197 8.93859   1
  -6  11  -4 68.1287 5.34628   2
   6 -11   4 62.6494 6.13787   1
  -7  11  -4 74.3637 5.91780   2
   7 -11   4 66.3694 6.55753   1
  -8  11  -4 50.8337 5.04150   2
   8 -11   4 48.2529 5.56454   1
   6  10  -4 25.5646 3.36125   3
   5  10  -4 145.368 10.1735   3
   4  10  -4 19.9200 2.61524   3
  -4 -10   4 31.2326 11.9979   1
   3  10  -4 301.073 19.4604   3
  -3 -10   4 290.876 22.8901   1
   2  10  -4 57.4808 4.36851   3
   2  10  -4 58.4450 4.25779   2
  -2 -10   4 58.2288 6.56591   1
   1  10  -4 229.586 14.5457   3
   1  10  -4 226.083 14.5712   2
  -1 -10   4 208.815 15.8087   1
   0  10  -4 249.900 16.3713   2
   0 -10   4 255.800 17.3446   1
  -1  10  -4 37.4882 3.02722   2
   1 -10   4 34.7112 3.84483   1
  -2  10  -4 308.904 19.5092   2
   2 -10   4 291.842 20.0304   1
  -3  10  -4 60.8757 4.43558   2
   3 -10   4 55.4474 4.97113   1
  -4  10  -4 495.582 30.6495   2
   4 -10   4 453.744 31.0590   1
  -5  10  -4 5.33211 1.64133   2
   5 -10   4 6.12274 2.26512   1
  -6  10  -4 128.561 9.05869   2
   6 -10   4 127.486 9.60430   1
  -7  10  -4 141.468 9.70243   2
   7 -10   4 126.325 10.0533   1
  -8  10  -4 43.7211 4.46284   2
   8 -10   4 40.6487 4.91565   1
  -9  10  -4 50.8606 5.18719   2
   9 -10   4 45.4876 5.34534   1
   7   9  -4 347.936 22.9818   3
   6   9  -4 20.6142 2.90242   3
   5   9  -4 74.5700 5.56522   3
  -5  -9   4 45.6036 12.3000   1
   4   9  -4 22.0160 2.51751   3
  -4  -9   4 28.3065 9.46081   1
   3   9  -4 48.0581 3.80452   3
  -3  -9   4 48.7415 7.49047   1
   2   9  -4 34.1139 2.77926   3
   2   9  -4 31.7786 2.66168   2
  -2  -9   4 36.3421 4.92303   1
   1   9  -4 150.198 9.88546   2
   1   9  -4 152.895 9.88941   3
  -1  -9   4 147.381 11.0177   1
   0   9  -4 22.0742 1.93336   2
   0   9  -4 18.9035 1.77426   3
   0  -9   4 18.6576 2.95571   1
  -1   9  -4 59.8447 4.24078   2
   1  -9   4 55.9187 4.83919   1
  -2   9  -4 92.8029 6.31358   2
   2  -9   4 90.4122 6.85305   1
  -3   9  -4 259.574 16.7247   2
   3  -9   4 253.398 17.1464   1
  -4   9  -4 165.019 10.9058   2
   4  -9   4 160.194 11.3241   1
  -5   9  -4 47.2242 3.83262   2
   5  -9   4 42.3726 4.30016   1
  -6   9  -4 270.047 17.2978   2
   6  -9   4 249.540 17.6008   1
  -7   9  -4 2.71389 1.96225   2
   7  -9   4 1.53692 2.21162   1
  -8   9  -4 45.0693 4.48277   2
   8  -9   4 41.1759 4.87908   1
  -9   9  -4 68.2820 6.23567   2
   9  -9   4 65.3192 6.30224   1
   8   8  -4 6.33279 2.19067   3
   7   8  -4 20.6815 2.95122   3
   6   8  -4 35.8125 3.51919   3
  -6  -8   4 34.0563 9.68440   1
   5   8  -4 531.463 31.6182   3
  -5  -8   4 385.976 36.8954   1
   4   8  -4 106.567 7.54257   3
  -4  -8   4 136.827 14.2616   1
   3   8  -4 13.3061 1.77276   3
  -3  -8   4 18.4641 4.64421   1
   2   8  -4 42.8943 3.00364   2
   2   8  -4 37.5684 3.05185   3
  -2  -8   4 39.8182 4.83903   1
   1   8  -4 233.953 14.6699   3
   1   8  -4 228.881 14.6608   2
  -1  -8   4 214.689 15.5010   1
   0   8  -4 775.259 47.5265   3
   0   8  -4 758.511 47.5973   2
   0  -8   4 707.963 48.1084   1
  -1   8  -4 0.63916 0.81050   2
  -1   8  -4 -0.0445 0.62348   3
   1  -8   4 0.85353 1.25203   1
  -2   8  -4 718.841 45.3933   2
   2  -8   4 706.314 45.7461   1
  -3   8  -4 580.451 36.6086   2
   3  -8   4 564.497 36.9364   1
  -4   8  -4 213.932 14.1321   2
   4  -8   4 216.292 14.4716   1
  -5   8  -4 233.388 15.3164   2
   5  -8   4 229.808 15.5925   1
  -6   8  -4 34.7565 3.33673   2
   6  -8   4 31.2864 3.62384   1
  -7   8  -4 76.6149 6.16614   2
   7  -8   4 80.8396 6.45469   1
  -8   8  -4 21.5574 3.19042   2
   8  -8   4 17.5270 3.05570   1
  -9   8  -4 96.1843 7.47620   2
   9  -8   4 85.3591 7.35659   1
 -10   8  -4 257.746 16.3830   2
  10  -8   4 209.243 15.9209   1
   8   7  -4 47.2806 4.42647   3
   7   7  -4 25.2625 3.01155   3
   6   7  -4 187.174 12.5678   3
  -6  -7   4 188.947 17.8333   1
   5   7  -4 197.901 12.3626   3
  -5  -7   4 137.335 17.0508   1
   4   7  -4 446.388 29.4934   3
  -4  -7   4 498.579 34.9171   1
   3   7  -4 296.641 18.7864   2
   3   7  -4 287.975 18.8966   3
  -3  -7   4 295.631 21.2911   1
   2   7  -4 447.593 28.0136   2
   2   7  -4 436.059 28.0780   3
  -2  -7   4 433.396 29.1143   1
   1   7  -4 404.540 25.8318   3
   1   7  -4 407.791 25.8166   2
  -1  -7   4 401.651 26.5428   1
   0   7  -4 176.543 11.3935   2
   0   7  -4 179.091 11.3448   3
   0  -7   4 170.383 11.8480   1
  -1   7  -4 233.599 14.8182   2
  -1   7  -4 228.507 14.7166   3
   1  -7   4 226.793 15.1691   1
  -2   7  -4 24.5645 2.03915   2
   2  -7   4 22.5367 2.40914   1
  -3   7  -4 381.288 24.9448   2
   3  -7   4 396.979 25.2450   1
  -4   7  -4 1.18959 1.01599   2
   4  -7   4 1.10869 1.31922   1
  -5   7  -4 131.429 8.79264   2
   5  -7   4 124.556 9.00025   1
  -6   7  -4 503.551 32.1896   2
   6  -7   4 492.672 32.3670   1
  -7   7  -4 77.8116 5.98712   2
   7  -7   4 75.2882 6.08723   1
  -8   7  -4 118.362 8.70379   2
   8  -7   4 114.366 8.72778   1
  -9   7  -4 188.365 13.3302   2
   9  -7   4 190.093 13.3449   1
 -10   7  -4 90.5265 7.43038   2
  10  -7   4 81.1526 7.03344   1
   9   6  -4 151.420 10.6473   3
   8   6  -4 180.501 12.3392   3
   7   6  -4 63.2582 4.85394   3
  -7  -6   4 49.7921 8.46036   1
   6   6  -4 384.256 24.4559   3
  -6  -6   4 361.994 28.4726   1
   5   6  -4 47.5320 3.62184   3
  -5  -6   4 34.0822 8.13873   1
   4   6  -4 16.1862 1.82490   3
  -4  -6   4 20.1015 6.78744   1
   3   6  -4 8.21435 1.05143   2
   3   6  -4 7.85656 1.25823   3
  -3  -6   4 12.3044 3.48961   1
   2   6  -4 54.1591 3.77008   3
   2   6  -4 53.5934 3.67967   2
  -2  -6   4 57.0320 4.97176   1
   1   6  -4 107.392 7.19074   3
   1   6  -4 111.005 7.16298   2
  -1  -6   4 112.282 7.86557   1
   0   6  -4 77.6772 5.28120   2
   0   6  -4 80.0782 5.27695   3
   0  -6   4 83.2605 5.79517   1
  -1   6  -4 177.170 11.7636   3
  -1   6  -4 186.996 11.8401   2
   1  -6   4 186.463 12.1384   1
  -2   6  -4 552.579 35.0791   2
   2  -6   4 548.757 35.3000   1
  -3   6  -4 64.5055 4.57363   2
   3  -6   4 66.0687 4.85463   1
  -4   6  -4 154.662 10.4576   2
   4  -6   4 161.389 10.6894   1
  -5   6  -4 588.716 37.3774   2
   5  -6   4 577.296 37.5252   1
  -6   6  -4 71.8349 5.30573   2
   6  -6   4 66.7669 5.43491   1
  -7   6  -4 101.262 7.25061   2
   7  -6   4 95.2465 7.31044   1
  -8   6  -4 260.442 17.5006   2
   8  -6   4 259.282 17.5324   1
  -9   6  -4 -0.3234 2.27673   2
   9  -6   4 2.42727 2.14877   1
 -10   6  -4 17.7726 3.40664   2
   9   5  -4 37.1164 3.78406   3
   8   5  -4 2.58587 1.63469   3
  -8  -5   4 4.96235 4.17479   1
   7   5  -4 127.313 8.56656   3
  -7  -5   4 111.915 11.1152   1
   6   5  -4 257.659 16.7528   3
  -6  -5   4 253.368 20.2539   1
   5   5  -4 213.006 13.0198   3
  -5  -5   4 147.506 16.7593   1
   4   5  -4 25.4463 2.19108   3
  -4  -5   4 17.8221 5.66479   1
   3   5  -4 3.45461 0.82138   3
   3   5  -4 5.29888 0.77117   2
  -3  -5   4 2.95061 2.50711   1
   2   5  -4 522.085 33.8536   3
   2   5  -4 522.374 33.7511   2
  -2  -5   4 558.336 34.8074   1
   1   5  -4 444.416 28.9934   3
   1   5  -4 450.288 28.9460   2
  -1  -5   4 476.806 29.5356   1
   0   5  -4 45.9312 3.10228   3
   0   5  -4 44.2122 3.08135   2
   0  -5   4 46.0188 3.50141   1
  -1   5  -4 334.699 21.4438   3
  -1   5  -4 334.769 21.4419   2
   1  -5   4 339.234 21.6802   1
  -2   5  -4 3926.39 253.006   2
   2  -5   4 4080.82 253.198   1
  -3   5  -4 230.598 15.0368   2
   3  -5   4 234.622 15.1879   1
  -4   5  -4 591.514 37.5510   3
  -4   5  -4 595.954 37.8835   2
   4  -5   4 591.599 37.9774   1
  -5   5  -4 2.82329 1.23308   2
   5  -5   4 -0.1020 1.09085   1
  -6   5  -4 130.008 9.16116   2
   6  -5   4 134.993 9.26730   1
  -7   5  -4 51.2414 4.23430   2
   7  -5   4 43.4457 4.19220   1
  -8   5  -4 232.921 16.1799   2
   8  -5   4 243.186 16.1153   1
  -9   5  -4 424.898 28.4934   2
   9  -5   4 435.086 28.2554   1
 -10   5  -4 13.4971 3.53489   2
   9   4  -4 91.3882 6.83213   3
   8   4  -4 34.8263 3.36003   3
  -8  -4   4 35.7391 6.22437   1
   7   4  -4 86.3158 6.20896   3
  -7  -4   4 86.4503 8.89427   1
   6   4  -4 551.258 34.8427   3
  -6  -4   4 532.239 37.3343   1
   5   4  -4 712.836 43.6577   3
  -5  -4   4 636.899 46.7117   1
   4   4  -4 575.911 35.0144   3
   4   4  -4 553.745 34.8361   2
  -4  -4   4 488.906 37.9748   1
   3   4  -4 584.571 37.8644   3
   3   4  -4 602.626 37.7322   2
  -3  -4   4 601.052 39.9085   1
   2   4  -4 329.958 21.1900   3
   2   4  -4 321.177 21.0644   2
  -2  -4   4 351.597 22.1541   1
   1   4  -4 335.173 21.1375   3
   1   4  -4 321.274 21.0498   2
  -1  -4   4 340.330 21.6146   1
   0   4  -4 12.3984 1.02338   2
   0   4  -4 12.8759 1.09060   3
   0  -4   4 12.3344 1.46243   1
  -1   4  -4 12.1158 1.35663   3
  -1   4  -4 12.8851 1.11870   2
   1  -4   4 14.0555 1.44309   1
  -2   4  -4 254.226 16.2780   3
  -2   4  -4 250.187 16.2756   2
   2  -4   4 256.829 16.4131   1
  -3   4  -4 2.26310 0.45240   3
  -3   4  -4 2.22695 0.74567   2
   3  -4   4 1.55246 0.82066   1
  -4   4  -4 96.1578 6.08766   3
  -4   4  -4 91.6959 6.38553   2
   4  -4   4 91.1168 6.44814   1
  -5   4  -4 576.907 36.8980   3
  -5   4  -4 574.911 37.2244   2
   5  -4   4 591.831 37.2845   1
  -6   4  -4 70.5680 4.75003   3
  -6   4  -4 64.9941 5.27460   2
   6  -4   4 72.4980 5.30629   1
  -7   4  -4 211.949 14.4993   2
   7  -4   4 215.899 14.3643   1
  -8   4  -4 85.9470 7.00395   2
   8  -4   4 91.7354 6.74305   1
  -9   4  -4 10.7145 2.93915   2
 -10   4  -4 36.0997 5.03058   2
  10  -4   4 27.3984 3.40535   4
  10   3  -4 252.744 17.0282   3
   9   3  -4 72.8660 5.71739   3
  -9  -3   4 72.6281 8.04444   1
   8   3  -4 136.192 9.60674   3
  -8  -3   4 149.728 11.8487   1
   7   3  -4 451.815 28.8567   3
  -7  -3   4 441.081 30.8560   1
   6   3  -4 72.1271 5.16779   3
  -6  -3   4 73.8146 7.65546   1
   5   3  -4 6.58224 1.08883   3
  -5  -3   4 5.78551 3.30368   1
   4   3  -4 29.6529 2.17011   2
   4   3  -4 31.5805 2.31901   3
  -4  -3   4 16.5128 4.88858   1
   3   3  -4 20.9293 1.76056   3
   3   3  -4 22.5930 1.54388   2
  -3  -3   4 23.6507 4.68120   1
   2   3  -4 108.558 7.24306   3
   2   3  -4 111.505 7.09612   2
  -2  -3   4 116.867 8.33222   1
   1   3  -4 98.2313 6.31334   3
   1   3  -4 93.6208 6.19974   2
  -1  -3   4 98.6825 6.17899   4
  -1  -3   4 97.5061 6.76155   1
   0   3  -4 95.5845 6.07700   3
   0   3  -4 91.0131 5.99009   2
   0  -3   4 92.4454 6.29734   1
  -1   3  -4 165.148 11.0779   3
  -1   3  -4 162.882 10.5290   2
   1  -3   4 164.156 10.6736   1
  -2   3  -4 190.871 12.6340   3
  -2   3  -4 190.417 12.6787   2
   2  -3   4 209.850 12.7657   1
  -3   3  -4 246.324 15.0072   3
  -3   3  -4 223.676 15.1559   2
   3  -3   4 232.858 15.1728   1
  -4   3  -4 923.865 59.0889   3
  -4   3  -4 937.907 59.3307   2
   4  -3   4 937.105 59.3100   1
  -5   3  -4 67.9459 4.81436   2
  -5   3  -4 61.1924 4.36395   3
   5  -3   4 66.6942 4.73270   1
  -6   3  -4 126.579 8.66940   3
  -6   3  -4 136.677 9.21750   2
   6  -3   4 134.959 9.05154   1
  -7   3  -4 543.674 35.1866   2
  -7   3  -4 532.382 34.6029   3
   7  -3   4 550.806 34.9400   1
  -8   3  -4 105.637 8.51696   2
   8  -3   4 117.093 8.13652   1
  -9   3  -4 4.92630 2.81596   2
   9  -3   4 2.81247 1.72764   4
  10  -3   4 8.46957 2.10090   4
  10   2  -4 252.266 16.9743   3
   9   2  -4 7.10821 1.92423   3
  -9  -2   4 15.5844 4.12593   1
   8   2  -4 178.707 12.4682   3
  -8  -2   4 203.813 14.5389   1
   7   2  -4 113.794 7.79111   3
  -7  -2   4 111.721 9.80973   1
   6   2  -4 330.784 20.7577   3
  -6  -2   4 304.710 22.4008   1
   5   2  -4 124.796 8.07733   2
   5   2  -4 103.861 7.21843   3
  -5  -2   4 95.9398 9.06040   1
   4   2  -4 449.214 25.0136   2
   4   2  -4 362.447 24.7181   3
  -4  -2   4 334.086 26.7492   1
   3   2  -4 680.215 40.8463   3
  -3  -2   4 585.718 42.9332   1
   2   2  -4 73.2817 4.84873   3
  -2  -2   4 73.3819 6.33372   1
   1   2  -4 73.9809 4.81483   2
   1   2  -4 75.9904 4.95881   3
  -1  -2   4 77.3627 5.56782   1
   0   2  -4 195.582 12.4697   2
   0   2  -4 201.893 12.6049   3
   0  -2   4 189.925 12.4374   4
   0  -2   4 196.056 12.7106   1
  -1   2  -4 6311.85 400.617   2
   1  -2   4 6366.27 401.605   1
  -2   2  -4 69.9402 4.73786   3
  -2   2  -4 70.7299 4.80115   2
   2  -2   4 73.2553 4.77114   1
  -3   2  -4 971.886 64.1301   2
  -3   2  -4 1036.15 63.9918   3
   3  -2   4 1021.89 64.0719   1
  -4   2  -4 73.2987 5.31136   2
  -4   2  -4 74.0993 4.99599   3
   4  -2   4 76.7716 5.15984   1
  -5   2  -4 233.518 15.0997   2
  -5   2  -4 222.364 14.7229   3
   5  -2   4 231.333 14.9104   1
  -6   2  -4 100.134 7.30096   2
  -6   2  -4 98.8123 6.70462   3
   6  -2   4 100.672 6.94716   1
  -7   2  -4 567.010 36.9922   3
  -7   2  -4 597.211 37.6697   2
   7  -2   4 576.655 37.2026   1
  -8   2  -4 354.025 24.9459   2
  -8   2  -4 386.697 24.1775   3
   8  -2   4 375.399 24.0913   4
   9  -2   4 20.3615 2.40543   4
  10  -2   4 8.64255 4.02783   2
  10   1  -4 87.7944 6.89925   3
 -10  -1   4 96.3732 9.07160   1
   9   1  -4 27.1939 3.09297   3
  -9  -1   4 34.3989 5.39008   1
   8   1  -4 2.68248 1.36972   3
  -8  -1   4 0.04796 2.93305   1
   7   1  -4 453.223 28.7080   3
  -7  -1   4 436.095 30.2636   1
   6   1  -4 312.166 19.5621   3
  -6  -1   4 287.071 21.0237   1
   5   1  -4 1141.59 71.7030   3
   5   1  -4 1163.91 72.0023   2
  -5  -1   4 1078.38 73.1675   1
   4   1  -4 355.298 22.0506   3
   4   1  -4 327.078 22.1477   2
  -4  -1   4 354.604 23.6159   1
   3   1  -4 15.1422 1.31756   3
  -3  -1   4 13.9762 3.17669   1
   2   1  -4 108.475 7.00517   3
  -2  -1   4 104.963 8.78461   1
   1   1  -4 13.6091 1.18216   3
  -1  -1   4 14.5897 2.17623   1
   0   1  -4 7.28891 1.22057   3
   0   1  -4 12.4389 0.93714   2
   0  -1   4 9.25537 1.13099   1
   0  -1   4 8.51592 0.90100   4
  -1   1  -4 451.385 31.0143   3
  -1   1  -4 495.097 30.7385   2
   1  -1   4 486.864 30.6297   4
   1  -1   4 496.108 30.7048   1
  -2   1  -4 6.06497 0.92933   2
  -2   1  -4 7.02129 0.79196   3
   2  -1   4 6.11161 0.75095   1
   2  -1   4 5.47315 0.64773   4
  -3   1  -4 6.16660 0.87809   3
  -3   1  -4 6.59554 1.11474   2
   3  -1   4 7.21190 0.90055   1
  -4   1  -4 129.919 8.53470   2
  -4   1  -4 119.490 8.16483   3
   4  -1   4 126.899 8.23442   1
  -5   1  -4 -0.9115 1.15518   2
  -5   1  -4 0.89273 0.70459   3
   5  -1   4 4.98791 1.04347   1
  -6   1  -4 341.135 23.0575   2
  -6   1  -4 351.998 22.5029   3
   6  -1   4 362.784 22.6101   1
   6  -1   4 340.509 22.4011   4
  -7   1  -4 17.9537 3.02427   2
  -7   1  -4 14.1404 1.96409   3
   7  -1   4 11.2410 1.70110   4
   7  -1   4 24.4942 2.35538   1
  -8   1  -4 10.7393 1.77403   3
   8  -1   4 12.7939 3.06396   2
   8  -1   4 8.31762 1.69402   4
  -9   1  -4 3.33831 1.60574   3
   9  -1   4 10.6737 3.59297   2
   9  -1   4 5.04577 1.69375   4
  10   0  -4 3.44892 1.98010   3
 -10   0   4 5.53468 3.86571   1
   9   0  -4 137.369 9.47553   3
  -9   0   4 134.283 10.9647   1
   8   0  -4 347.769 22.2586   3
  -8   0   4 334.645 23.7422   1
   7   0  -4 59.1804 4.41180   3
  -7   0   4 58.9116 6.16262   1
   6   0  -4 35.4139 2.86192   3
  -6   0   4 39.7123 4.67720   1
  -6   0   4 35.4114 3.64181   2
   5   0  -4 4.04315 0.87224   3
  -5   0   4 2.93184 1.16299   2
  -5   0   4 1.52050 1.96749   1
   4   0  -4 444.507 27.4209   3
  -4   0   4 406.330 28.4799   1
  -4   0   4 432.769 27.4113   2
   3   0  -4 45.6057 2.99150   3
  -3   0   4 38.6188 4.14241   1
  -3   0   4 41.9810 2.86812   2
   2   0  -4 395.335 24.0189   3
  -2   0   4 351.905 25.0328   1
  -2   0   4 376.397 23.8831   2
   1   0  -4 82.5960 5.58588   3
  -1   0   4 86.9999 5.51039   2
  -1   0   4 79.8951 6.76170   1
   0   0  -4 6.45102 1.51137   3
   0   0   4 5.17845 1.31794   2
   0   0   4 4.63498 1.10011   1
  -1   0  -4 578.224 36.2439   3
   1   0   4 601.394 36.0500   1
   1   0   4 537.449 36.0138   4
   1   0   4 553.216 36.2050   2
  -2   0  -4 143.833 9.22827   3
  -2   0  -4 131.904 9.40094   2
   2   0   4 140.497 9.14809   4
   2   0   4 148.937 9.09470   1
  -3   0  -4 353.358 22.4083   2
  -3   0  -4 337.958 22.1146   3
   3   0   4 351.463 22.0319   1
   3   0   4 342.452 22.0397   4
  -4   0  -4 56.3371 4.13435   3
  -4   0  -4 62.1025 4.65117   2
   4   0   4 57.9632 4.06031   4
   4   0   4 63.4019 4.12720   1
  -5   0  -4 331.687 21.5615   3
   5   0   4 324.324 21.4470   4
   5   0   4 349.605 21.5742   1
  -6   0  -4 682.317 45.4788   3
   6   0   4 747.027 45.3855   4
   6   0   4 753.193 45.5283   1
   6   0   4 665.317 46.0649   2
  -7   0  -4 510.194 32.9089   3
   7   0   4 533.160 32.8172   4
   7   0   4 491.781 33.8640   2
  -8   0  -4 22.8465 2.59259   3
   8   0   4 25.0791 4.41149   2
   8   0   4 22.8610 2.48985   4
  -9   0  -4 7.28049 1.94888   3
   9   0   4 8.85587 4.52943   2
 -10   0  -4 6.54783 2.02746   3
 -10   1   4 10.9801 4.00054   1
   9  -1  -4 73.0202 5.53870   3
  -9   1   4 72.1309 7.19108   1
   8  -1  -4 0.34686 1.27172   3
  -8   1   4 2.29813 2.71960   1
   7  -1  -4 571.254 36.5183   3
  -7   1   4 570.447 37.8583   1
  -6   1   4 49.7113 5.28222   1
   5  -1  -4 1024.95 63.4481   3
  -5   1   4 973.732 63.4817   2
  -5   1   4 1001.27 64.5634   1
   4  -1  -4 130.222 8.14555   3
  -4   1   4 117.304 9.07573   1
  -4   1   4 122.264 8.09388   2
   3  -1  -4 52.2365 3.37523   3
  -3   1   4 47.6598 3.25799   2
  -3   1   4 44.6212 4.21469   1
   2  -1  -4 27.7939 2.01520   3
  -2   1   4 22.8088 2.65896   1
  -2   1   4 27.5615 1.86024   2
   1  -1  -4 61.5234 4.78196   3
  -1   1   4 63.4126 4.89639   1
  -1   1   4 70.7364 4.42521   2
   0  -1  -4 6460.67 461.282   3
   0   1   4 7769.92 461.403   1
   0   1   4 7659.42 461.284   2
  -1  -1  -4 230.604 14.5790   3
   1   1   4 218.529 15.1146   2
  -2  -1  -4 755.771 48.0626   3
   2   1   4 762.164 48.0421   4
   2   1   4 753.997 48.5545   2
  -3  -1  -4 34.9209 2.69324   3
   3   1   4 38.8826 2.50543   1
   3   1   4 36.0049 2.65566   4
   3   1   4 32.5163 3.42887   2
  -4  -1  -4 603.941 38.2932   3
  -4  -1  -4 602.833 38.1946   1
   4   1   4 605.824 38.1988   4
   4   1   4 589.169 38.9381   2
  -5  -1  -4 4.06404 0.96564   3
  -5  -1  -4 6.17561 0.96212   1
   5   1   4 6.14169 2.35611   2
   5   1   4 4.53888 1.05106   4
  -6  -1  -4 612.291 38.0463   3
   6   1   4 556.749 38.9915   2
   6   1   4 605.716 37.9052   4
  -7  -1  -4 153.270 10.4882   3
   7   1   4 157.077 12.3277   2
   7   1   4 159.924 10.4031   4
  -8  -1  -4 35.9706 3.35551   3
   8   1   4 32.8710 3.29816   4
   8   1   4 36.3769 6.06505   2
  -9  -1  -4 14.0292 2.30473   3
   9   1   4 26.0774 6.37426   2
 -10  -1  -4 7.91250 2.13128   3
 -10   2   4 4.35767 3.43009   1
  -9   2   4 29.4333 4.75003   1
   8  -2  -4 159.484 10.8495   3
  -8   2   4 167.384 12.3438   1
   6  -2  -4 1547.18 99.3720   3
  -6   2   4 1543.99 99.5190   2
  -6   2   4 1619.30 100.586   1
   5  -2  -4 36.1018 2.71343   3
  -5   2   4 34.2886 3.77147   1
  -5   2   4 36.7427 2.74855   2
   4  -2  -4 21.5912 1.80518   3
  -4   2   4 21.3554 2.67553   1
  -4   2   4 23.1566 1.75979   2
   3  -2  -4 8.04015 1.07782   3
  -3   2   4 7.69911 1.67708   1
  -3   2   4 10.7516 0.95215   2
   2  -2  -4 187.492 12.4002   3
  -2   2   4 187.821 12.7232   1
  -2   2   4 193.506 12.1814   2
   1  -2  -4 51.6203 3.96960   3
  -1   2   4 41.2424 3.18608   1
  -1   2   4 38.8347 2.92091   2
   0  -2  -4 251.677 15.4308   3
   0   2   4 211.051 15.3389   2
   0   2   4 244.317 15.1500   1
  -1  -2  -4 11.5056 1.18978   3
   1   2   4 11.7836 2.17621   2
  -2  -2  -4 94.0767 6.51574   3
   2   2   4 114.754 8.07300   2
  -3  -2  -4 2.55409 0.71871   3
   3   2   4 2.38431 2.13304   2
  -4  -2  -4 54.2501 3.67180   1
  -4  -2  -4 52.2429 3.82891   3
   4   2   4 51.5582 3.83987   4
   4   2   4 55.1831 5.56186   2
  -5  -2  -4 424.153 27.3955   3
   5   2   4 424.386 28.7853   2
   5   2   4 430.887 27.3260   4
  -6  -2  -4 198.042 13.0771   3
   6   2   4 197.203 15.0377   2
   6   2   4 197.621 12.9788   4
  -7  -2  -4 2.15902 1.30032   3
   7   2   4 5.74940 1.68754   4
   7   2   4 4.78845 4.17165   2
  -8  -2  -4 11.7103 2.08580   3
   8   2   4 21.9100 6.06340   2
  -9  -2  -4 30.0671 3.36776   3
 -10  -2  -4 7.61889 2.24408   3
 -10   3   4 74.8968 7.55694   1
  -9   3   4 97.7155 8.64139   1
  -8   3   4 50.1430 5.69081   1
   7  -3  -4 150.385 10.0182   3
  -7   3   4 163.547 11.4733   1
  -7   3   4 144.414 10.2827   2
   6  -3  -4 99.0470 6.64292   3
  -6   3   4 97.4924 6.76350   2
  -6   3   4 98.7674 7.89730   1
   5  -3  -4 531.666 33.1900   3
  -5   3   4 494.355 33.1929   2
  -5   3   4 538.543 34.1502   1
   4  -3  -4 89.9148 5.93149   3
  -4   3   4 87.0151 5.88546   2
  -4   3   4 86.0715 6.68737   1
   3  -3  -4 40.2722 3.14243   3
  -3   3   4 40.0594 2.92564   2
  -3   3   4 46.9637 3.71463   1
   2  -3  -4 299.616 17.7469   3
  -2   3   4 259.834 17.6673   1
  -2   3   4 255.066 17.2516   2
   1  -3  -4 29.0137 2.84824   3
  -1   3   4 33.0126 2.52288   1
  -1   3   4 31.7275 2.40898   2
   0  -3  -4 476.267 28.7219   1
   0  -3  -4 466.104 28.8030   3
   0   3   4 405.031 28.8972   2
  -1  -3  -4 8.86418 1.05722   3
  -1  -3  -4 8.13596 0.90245   1
   1   3   4 7.72816 1.60521   2
   2   3   4 2.48824 1.95384   2
  -3  -3  -4 32.4124 2.52962   3
   3   3   4 32.6054 4.63903   2
  -4  -3  -4 209.960 13.7768   3
   4   3   4 214.178 15.9192   2
  -5  -3  -4 1214.55 74.2445   3
   5   3   4 1105.52 76.0799   2
  -6  -3  -4 461.005 30.4113   3
   6   3   4 496.744 33.0079   2
  -7  -3  -4 21.6214 2.54208   3
   7   3   4 23.5960 6.12205   2
  -8  -3  -4 -0.9227 1.50920   3
   8   3   4 7.31241 6.25212   2
  -9  -3  -4 9.12214 2.17056   3
  -9   4   4 19.6058 3.87161   1
  -8   4   4 468.226 31.4770   1
  -7   4   4 26.4830 3.98537   1
  -7   4   4 19.8409 2.51737   2
   6  -4  -4 909.704 56.6061   3
  -6   4   4 856.118 56.6941   2
  -6   4   4 906.284 57.6319   1
   5  -4  -4 -0.0508 0.93883   3
  -5   4   4 1.47779 1.56637   1
  -5   4   4 1.12425 0.84475   2
   4  -4  -4 35.4840 3.00398   3
  -4   4   4 37.2287 2.81446   2
  -4   4   4 38.6068 3.61711   1
   3  -4  -4 18.4498 2.64947   3
  -3   4   4 18.8658 1.70168   2
  -3   4   4 23.1985 2.44142   1
  -2   4   4 121.245 8.03902   2
  -2   4   4 122.725 8.32975   1
   1  -4  -4 6042.76 374.267   1
   1  -4  -4 5743.03 374.152   3
  -1   4   4 5972.82 374.118   2
   0  -4  -4 235.937 14.6366   1
   0  -4  -4 221.383 14.5651   3
   0   4   4 218.499 14.8105   2
  -1  -4  -4 153.800 9.83714   3
  -1  -4  -4 161.207 9.84846   1
   1   4   4 129.057 10.2235   2
  -2  -4  -4 1.79986 0.75735   3
  -2  -4  -4 4.31259 1.06361   1
   2   4   4 -0.6169 1.42042   2
  -3  -4  -4 727.665 44.4552   1
  -3  -4  -4 667.718 44.3236   3
   3   4   4 691.894 45.2130   2
  -4  -4  -4 13.9431 1.71148   3
   4   4   4 21.6824 3.61386   2
  -5  -4  -4 276.501 17.9611   3
   5   4   4 274.014 19.5612   2
  -6  -4  -4 114.057 7.90821   3
   6   4   4 112.677 10.2035   2
  -7  -4  -4 35.0332 3.36205   3
   7   4   4 40.4822 6.09131   2
  -8  -4  -4 34.3330 3.55104   3
   8   4   4 44.5380 7.01301   2
  -9  -4  -4 1.49509 2.00612   3
  10  -5  -4 96.6816 8.78031   1
  -8   5   4 39.3690 4.72357   1
  -8   5   4 28.7946 3.51476   2
  -7   5   4 1020.59 66.1580   2
  -7   5   4 1054.82 67.1308   1
  -6   5   4 50.4389 4.02717   2
  -6   5   4 55.4199 5.17383   1
   5  -5  -4 2.92398 1.34789   3
  -5   5   4 2.49562 1.73156   1
  -5   5   4 1.80749 0.96939   2
   4  -5  -4 8.37825 1.71360   3
  -4   5   4 7.29503 1.14236   2
  -4   5   4 9.56307 1.88770   1
   3  -5  -4 49.7358 4.59997   1
  -3   5   4 58.4739 3.95187   2
   2  -5  -4 51.5383 3.97966   3
   2  -5  -4 55.9043 4.41452   1
  -2   5   4 56.0273 3.91034   2
   1  -5  -4 363.075 23.3045   1
   1  -5  -4 343.591 23.0399   3
  -1   5   4 373.660 23.2000   2
   0  -5  -4 51.6186 3.70800   3
   0  -5  -4 58.9323 3.99508   1
   0   5   4 46.7618 3.99652   2
  -1  -5  -4 140.803 9.03950   1
  -1  -5  -4 132.654 8.84901   3
   1   5   4 127.170 9.29690   2
  -2  -5  -4 174.334 11.0715   3
   2   5   4 159.396 11.6674   2
  -3  -5  -4 402.933 25.8477   3
   3   5   4 401.240 26.5228   2
  -4  -5  -4 212.337 14.0598   3
   4   5   4 217.374 15.0036   2
  -5  -5  -4 513.939 33.1824   3
   5   5   4 519.060 34.2228   2
  -6  -5  -4 49.0988 4.02475   3
   6   5   4 43.4065 5.76309   2
  -7  -5  -4 44.2252 3.96217   3
   7   5   4 47.0740 6.12849   2
  -8  -5  -4 10.5359 2.22110   3
  -9  -5  -4 79.2895 6.36131   3
  10  -6  -4 20.2426 4.10380   1
   9  -6  -4 2.03378 3.19041   1
   8  -6  -4 113.864 9.61107   1
  -8   6   4 120.885 8.70140   2
   7  -6  -4 210.584 16.2953   1
  -7   6   4 247.686 15.5152   2
   6  -6  -4 246.697 17.3558   1
  -6   6   4 249.575 16.3774   2
   5  -6  -4 41.7003 4.44327   1
  -5   6   4 34.4362 3.05474   2
   4  -6  -4 25.0043 3.31909   1
  -4   6   4 26.3253 2.32072   2
   3  -6  -4 80.3722 6.07100   1
   3  -6  -4 67.3279 5.24828   3
  -3   6   4 80.8022 5.31388   2
   2  -6  -4 420.048 27.1244   3
   2  -6  -4 426.648 27.6569   1
  -2   6   4 426.077 27.2461   2
   1  -6  -4 332.730 21.0761   1
   1  -6  -4 321.255 20.6164   3
  -1   6   4 310.209 20.8220   2
   0  -6  -4 130.191 8.94303   3
   0  -6  -4 139.689 9.33078   1
   0   6   4 139.303 9.33628   2
  -1  -6  -4 108.563 7.37806   1
  -1  -6  -4 104.006 6.94987   3
   1   6   4 94.6585 7.33868   2
  -2  -6  -4 167.060 12.2469   1
  -2  -6  -4 194.029 11.8529   3
   2   6   4 175.085 12.3994   2
  -3  -6  -4 61.2402 4.36892   3
   3   6   4 54.5208 5.14912   2
  -4  -6  -4 945.630 59.5397   3
   4   6   4 921.142 60.2217   2
  -5  -6  -4 302.168 19.0054   3
   5   6   4 272.051 19.7265   2
  -6  -6  -4 3.97244 1.49736   3
   6   6   4 4.54324 3.00402   2
  -7  -6  -4 1.11927 1.63631   3
   7   6   4 3.84011 3.41118   2
  -8  -6  -4 0.42689 1.81226   3
  10  -7  -4 33.5754 5.34205   1
   9  -7  -4 293.375 20.8616   1
   8  -7  -4 22.7101 4.21339   1
  -8   7   4 33.7159 3.88949   2
   7  -7  -4 341.308 24.5473   1
  -7   7   4 371.360 23.5273   2
   6  -7  -4 7.97160 2.78090   1
  -6   7   4 1.06661 1.48242   2
   5  -7  -4 2.73886 2.28574   1
  -5   7   4 2.41281 1.29692   2
   4  -7  -4 35.5119 4.03274   1
  -4   7   4 32.4332 2.96080   2
   3  -7  -4 90.8333 6.73538   1
  -3   7   4 78.5579 5.87691   2
   2  -7  -4 1483.98 93.8134   3
   2  -7  -4 1516.96 94.5532   1
  -2   7   4 1443.98 94.0421   2
   1  -7  -4 261.201 17.2140   3
   1  -7  -4 279.718 17.8916   1
  -1   7   4 262.870 17.5080   2
   0  -7  -4 55.0531 4.65193   1
   0  -7  -4 52.3835 3.94615   3
   0   7   4 58.9176 4.45509   2
  -1  -7  -4 28.5749 2.49217   3
  -1  -7  -4 31.0707 3.46367   1
   1   7   4 29.7364 3.22093   2
  -2  -7  -4 240.161 16.3642   3
   2   7   4 266.747 16.9017   2
  -3  -7  -4 3.16400 1.16748   3
   3   7   4 1.39578 1.99148   2
  -4  -7  -4 16.6614 2.21828   3
   4   7   4 15.4441 3.01278   2
  -5  -7  -4 51.5925 4.17300   3
   5   7   4 46.2493 5.16626   2
  -6  -7  -4 45.0052 3.89831   3
   6   7   4 43.6286 5.14897   2
  -7  -7  -4 102.324 7.54321   3
  -8  -7  -4 4.61564 1.99254   3
  10  -8  -4 5.66741 3.45844   1
   9  -8  -4 134.776 11.1372   1
   8  -8  -4 329.556 25.1749   1
  -8   8   4 402.605 24.5434   2
   7  -8  -4 96.4601 8.63543   1
  -7   8   4 104.044 7.62523   2
   6  -8  -4 0.63122 2.65336   1
  -6   8   4 2.97964 1.59909   2
   5  -8  -4 1.06897 2.43932   1
  -5   8   4 1.15996 1.37241   2
   4  -8  -4 1.00047 2.20775   1
  -4   8   4 -0.2715 1.17023   2
   3  -8  -4 274.685 18.4798   1
  -3   8   4 264.798 17.6359   2
   2  -8  -4 424.848 28.1408   1
  -2   8   4 426.961 27.5585   2
   1  -8  -4 4.90172 2.16394   1
   1  -8  -4 3.73616 0.99815   3
  -1   8   4 2.97570 1.43788   2
   0  -8  -4 123.008 8.46197   3
   0  -8  -4 130.334 9.46574   1
   0   8   4 129.414 8.95817   2
  -1  -8  -4 169.417 11.6193   3
  -1  -8  -4 171.638 12.6430   1
   1   8   4 190.620 12.2405   2
  -2  -8  -4 366.950 23.9288   3
   2   8   4 374.577 24.4919   2
  -3  -8  -4 19.9069 2.31286   3
   3   8   4 17.0913 2.86289   2
  -4  -8  -4 410.382 26.3506   3
   4   8   4 400.664 27.0041   2
  -5  -8  -4 24.7236 2.72512   3
   5   8   4 22.5460 3.67292   2
  -6  -8  -4 6.59892 1.96414   3
   6   8   4 4.49906 3.08320   2
  -7  -8  -4 -0.3515 1.73895   3
   9  -9  -4 88.6657 8.93335   1
  -9   9   4 106.395 8.65090   2
   8  -9  -4 266.581 20.4634   1
  -8   9   4 302.475 19.5705   2
   7  -9  -4 62.3011 6.70531   1
  -7   9   4 58.8339 5.35344   2
   6  -9  -4 4.91807 3.10620   1
  -6   9   4 5.02580 1.85796   2
   5  -9  -4 5.64173 2.82977   1
  -5   9   4 2.27355 1.61038   2
   4  -9  -4 96.5745 8.26468   1
  -4   9   4 96.9805 7.02128   2
   3  -9  -4 254.664 17.5552   1
  -3   9   4 247.101 16.5602   2
   2  -9  -4 44.3878 5.11812   1
  -2   9   4 46.5437 3.95661   2
   1  -9  -4 209.197 15.7590   1
  -1   9   4 235.440 15.0550   2
   0  -9  -4 175.100 13.4120   1
   0  -9  -4 183.990 12.2235   3
   0   9   4 198.591 12.8285   2
  -1  -9  -4 258.166 17.4706   3
   1   9   4 283.349 18.1087   2
  -2  -9  -4 104.466 7.55042   3
   2   9   4 114.560 8.28491   2
  -3  -9  -4 547.550 35.4838   3
   3   9   4 555.503 36.0792   2
  -4  -9  -4 158.616 10.9488   3
   4   9   4 162.519 11.7014   2
  -5  -9  -4 14.4177 2.37955   3
   5   9   4 18.7362 3.47757   2
  -6  -9  -4 1.65167 1.87036   3
   6   9   4 -3.9408 2.67171   2
  -7  -9  -4 6.34085 2.20134   3
   9 -10  -4 19.0008 4.73453   1
  -9  10   4 21.9202 4.32985   2
   8 -10  -4 48.7989 6.94130   1
  -8  10   4 63.7669 5.84556   2
   7 -10  -4 20.8177 4.58143   1
  -7  10   4 20.0151 3.06638   2
   6 -10  -4 3.49066 3.47051   1
  -6  10   4 5.43369 2.02475   2
   5 -10  -4 52.3073 6.19013   1
  -5  10   4 55.1129 4.75187   2
   4 -10  -4 98.1618 8.49438   1
  -4  10   4 92.5629 7.02715   2
   3 -10  -4 341.690 24.0608   1
  -3  10   4 354.893 22.9262   2
   2 -10  -4 277.605 19.8866   1
  -2  10   4 286.127 18.7966   2
   1 -10  -4 2.09345 3.36397   1
  -1  10   4 0.54129 1.67602   2
   0  10   4 164.833 11.6013   2
  -1 -10  -4 36.0910 3.23864   3
   1  10   4 35.7337 3.85815   2
  -2 -10  -4 7.07782 1.70136   3
   2  10   4 8.18217 2.43598   2
  -3 -10  -4 93.3458 7.01280   3
   3  10   4 103.933 7.95813   2
  -4 -10  -4 61.8907 5.21250   3
   4  10   4 68.1269 6.09368   2
  -5 -10  -4 25.7037 3.15465   3
   5  10   4 24.8766 4.00141   2
  -6 -10  -4 94.1648 7.31488   3
   8 -11  -4 65.5666 8.26972   1
  -8  11   4 84.9360 7.07958   2
   7 -11  -4 2.94269 3.92097   1
  -7  11   4 0.12780 2.34242   2
   6 -11  -4 0.83385 3.51366   1
  -6  11   4 4.57130 2.21626   2
   5 -11  -4 10.5556 4.00916   1
  -5  11   4 23.2890 3.12356   2
   4 -11  -4 586.865 39.8118   1
  -4  11   4 597.043 38.3832   2
   3 -11  -4 379.212 26.2116   1
  -3  11   4 373.633 24.6897   2
   2 -11  -4 6.73100 3.93908   1
  -2  11   4 1.59651 1.91473   2
   1 -11  -4 53.2963 7.46491   1
  -1  11   4 54.5287 4.87351   2
   0  11   4 76.0796 6.35878   2
   1  11   4 262.964 17.9537   2
  -2 -11  -4 2.12002 1.61780   3
   2  11   4 2.10506 2.19005   2
  -3 -11  -4 272.892 18.3266   3
   3  11   4 279.246 18.8958   2
  -4 -11  -4 32.9430 3.65432   3
   4  11   4 35.3416 4.60919   2
  -5 -11  -4 2.42425 2.05934   3
   7 -12  -4 -1.6862 3.94727   1
  -7  12   4 9.94146 3.01106   2
   6 -12  -4 12.6669 4.79771   1
  -6  12   4 17.5352 3.07918   2
   5 -12  -4 106.075 10.4854   1
  -5  12   4 123.021 8.84197   2
   4 -12  -4 54.8571 7.56565   1
  -4  12   4 56.0510 5.05783   2
   3 -12  -4 18.4684 5.01455   1
  -3  12   4 17.9464 2.84460   2
   2 -12  -4 209.981 16.9514   1
  -2  12   4 216.836 14.8020   2
  -1  12   4 92.2496 7.37289   2
   0  12   4 188.106 13.2912   2
   1  12   4 84.6674 7.17555   2
   2  12   4 284.219 19.4625   2
   3  12   4 17.2789 3.44846   2
  -4 -12  -4 80.9567 6.42921   3
   4  12   4 73.9891 6.99955   2
   6 -13  -4 36.4920 6.56249   1
  -6  13   4 38.6840 4.56685   2
   5 -13  -4 19.0148 5.79918   1
  -5  13   4 27.3596 3.93302   2
   4 -13  -4 16.9022 5.74505   1
  -4  13   4 23.0754 3.38864   2
   3 -13  -4 99.2941 11.1950   1
  -3  13   4 109.854 8.33308   2
  -2  13   4 0.52371 2.31269   2
  -1  13   4 157.361 11.5780   2
   0  13   4 6.56404 2.65458   2
   1  13   4 12.9271 3.10892   2
   2  13   4 253.261 17.7537   2
   3  13   4 147.486 11.3595   2
   4 -14  -4 184.973 17.7903   1
  -4  14   4 239.982 15.6573   2
  -3  14   4 3.89731 2.50371   2
  -2  14   4 10.8428 2.97215   2
  -1  14   4 2.03633 2.45515   2
   0  14   4 143.721 11.0291   2
   1  14   4 81.4468 7.26754   2
   1 -15   5 43.3551 6.96286   1
  -2  15  -5 0.59223 1.86758   2
   2 -15   5 -0.0202 3.59485   1
  -3  15  -5 20.4374 2.86205   2
   3 -15   5 11.4067 4.13773   1
  -2 -14   5 9.69342 7.63469   1
  -1 -14   5 208.047 17.5040   1
   0 -14   5 148.256 13.0023   1
  -1  14  -5 10.3875 2.03741   2
   1 -14   5 8.30569 4.23729   1
  -2  14  -5 59.2764 4.86935   2
   2 -14   5 57.1126 6.85703   1
  -3  14  -5 3.42249 1.97181   2
   3 -14   5 7.89019 3.30442   1
  -4  14  -5 42.1582 4.06677   2
   4 -14   5 43.2670 5.54271   1
  -5  14  -5 6.86175 2.12499   2
   5 -14   5 4.36713 3.09350   1
  -3 -13   5 5.95633 8.60049   1
  -2 -13   5 4.57402 6.04096   1
  -1 -13   5 21.4630 5.36608   1
   0  13  -5 96.1527 6.68531   2
   0 -13   5 82.1893 8.67782   1
  -1  13  -5 3.30138 1.66074   2
   1 -13   5 0.50687 2.87311   1
  -2  13  -5 60.8240 4.87199   2
   2 -13   5 64.8907 6.38229   1
  -3  13  -5 28.0491 3.13057   2
   3 -13   5 29.3558 4.31474   1
  -4  13  -5 42.1843 3.83009   2
   4 -13   5 38.0561 4.91480   1
  -5  13  -5 96.5986 7.11034   2
   5 -13   5 89.4651 8.03092   1
  -6  13  -5 9.01330 2.26566   2
   6 -13   5 7.88062 3.03771   1
  -7  13  -5 73.9807 6.08349   2
   7 -13   5 68.5797 7.04992   1
   5  12  -5 22.5237 3.30566   3
   4  12  -5 423.884 27.6563   3
  -3 -12   5 20.5716 7.93632   1
  -2 -12   5 96.7775 10.2648   1
  -1 -12   5 3.29978 3.26618   1
   0  12  -5 25.3191 2.71204   2
   0 -12   5 32.7793 4.67443   1
  -1  12  -5 6.47712 1.53525   2
   1 -12   5 6.70663 2.87212   1
  -2  12  -5 152.338 10.0347   2
   2 -12   5 140.444 10.9772   1
  -3  12  -5 22.4068 2.62860   2
   3 -12   5 22.0184 3.59664   1
  -4  12  -5 39.9923 3.58333   2
   4 -12   5 36.1172 4.43368   1
  -5  12  -5 9.48779 2.08382   2
   5 -12   5 6.50587 2.74686   1
  -6  12  -5 20.6810 2.99473   2
   6 -12   5 21.8261 3.63823   1
  -7  12  -5 504.659 32.0906   2
   7 -12   5 474.557 32.6404   1
   8 -12   5 2.80714 2.94686   1
   6  11  -5 91.3254 7.21146   3
   5  11  -5 58.0334 5.07851   3
   4  11  -5 8.11775 2.19844   3
  -4 -11   5 15.3629 9.79294   1
   3  11  -5 9.09887 1.96543   3
  -3 -11   5 12.1418 5.78693   1
  -2 -11   5 481.983 33.2569   1
   1  11  -5 129.191 8.42193   2
  -1 -11   5 113.462 10.0113   1
   0  11  -5 12.2227 1.78078   2
   0 -11   5 7.80022 2.77156   1
  -1  11  -5 183.581 11.9202   2
   1 -11   5 173.963 12.8213   1
  -2  11  -5 6.41458 1.44738   2
   2 -11   5 9.51399 2.35510   1
  -3  11  -5 168.490 10.9029   2
   3 -11   5 153.436 11.4669   1
  -4  11  -5 2.25693 1.44737   2
   4 -11   5 1.23203 1.96151   1
  -5  11  -5 604.675 37.8457   2
   5 -11   5 568.238 38.3470   1
  -6  11  -5 0.93461 1.76095   2
   6 -11   5 1.11967 2.32885   1
  -7  11  -5 133.452 9.81901   2
   7 -11   5 138.369 10.5019   1
  -8  11  -5 9.06837 2.68888   2
   8 -11   5 9.67664 3.20853   1
   6  10  -5 70.7866 5.81745   3
   5  10  -5 26.5027 3.18992   3
  -5 -10   5 32.5159 13.9700   1
   4  10  -5 24.7547 2.83870   3
  -4 -10   5 28.1978 9.43450   1
   3  10  -5 19.8386 2.51054   3
  -3 -10   5 26.3729 5.92424   1
   2  10  -5 35.0020 3.33549   3
  -2 -10   5 62.9205 6.10536   1
   1  10  -5 207.594 14.4181   3
   1  10  -5 236.845 14.4259   2
  -1 -10   5 220.136 15.7068   1
   0  10  -5 2.17090 1.08116   2
   0 -10   5 -1.3132 1.79712   1
  -1  10  -5 216.153 14.0489   2
   1 -10   5 213.210 14.8224   1
  -2  10  -5 114.654 7.59635   2
   2 -10   5 106.145 8.17962   1
  -3  10  -5 5.72644 1.44704   2
   3 -10   5 3.49167 1.88865   1
  -4  10  -5 137.439 9.35842   2
   4 -10   5 136.275 9.82665   1
  -5  10  -5 51.8095 4.34739   2
   5 -10   5 52.4413 4.91840   1
  -6  10  -5 255.128 16.8979   2
   6 -10   5 250.163 17.3413   1
  -7  10  -5 23.8607 3.39537   2
   7 -10   5 24.2979 4.03156   1
  -8  10  -5 136.149 9.75865   2
   8 -10   5 125.620 10.0518   1
  -9  10  -5 109.652 8.73056   2
   9 -10   5 107.882 8.89548   1
   7   9  -5 1.96837 1.97886   3
   6   9  -5 1.66180 1.78629   3
   5   9  -5 565.691 34.9996   3
  -5  -9   5 471.586 42.3471   1
   4   9  -5 0.40441 1.31584   3
  -4  -9   5 7.97728 6.72521   1
   3   9  -5 0.69886 1.18732   3
  -3  -9   5 0.36431 3.85413   1
   2   9  -5 6.26306 1.11480   2
   2   9  -5 8.60745 1.37315   3
  -2  -9   5 8.95504 3.12561   1
   1   9  -5 23.8563 2.00113   2
   1   9  -5 20.6236 2.03693   3
  -1  -9   5 25.1093 3.43153   1
   0   9  -5 4.44910 1.01601   2
   0   9  -5 3.70694 0.87987   3
   0  -9   5 7.44373 1.93343   1
  -1   9  -5 290.296 18.6688   2
   1  -9   5 288.248 19.2542   1
  -2   9  -5 1.12273 0.93065   2
   2  -9   5 1.36648 1.46125   1
  -3   9  -5 128.448 8.40704   2
   3  -9   5 118.994 8.79940   1
  -4   9  -5 60.3895 4.61006   2
   4  -9   5 62.2246 5.10143   1
  -5   9  -5 72.9350 5.47973   2
   5  -9   5 73.1291 5.87819   1
  -6   9  -5 630.723 39.6228   2
   6  -9   5 598.188 39.9327   1
  -7   9  -5 52.3873 4.71923   2
   7  -9   5 53.7553 5.08827   1
  -8   9  -5 31.5190 3.97997   2
   8  -9   5 39.3383 4.50255   1
  -9   9  -5 5.90890 2.61796   2
   9  -9   5 4.17884 2.66515   1
   8   8  -5 4.24364 2.13184   3
   7   8  -5 54.2991 4.66893   3
   6   8  -5 20.4764 2.67724   3
  -6  -8   5 14.7285 9.25331   1
   5   8  -5 -0.8131 1.33769   3
  -5  -8   5 -4.5226 8.17267   1
   4   8  -5 4.51608 1.38599   3
  -4  -8   5 5.22396 5.59294   1
   3   8  -5 612.876 38.8414   3
  -3  -8   5 600.528 41.0447   1
   2   8  -5 153.719 10.0357   3
   2   8  -5 151.359 9.90916   2
  -2  -8   5 151.304 11.4438   1
   1   8  -5 42.6759 3.00920   3
   1   8  -5 37.1278 2.90822   2
  -1  -8   5 39.0256 4.05207   1
   0   8  -5 402.901 25.5642   3
   0   8  -5 401.469 25.6012   2
   0  -8   5 395.922 26.2228   1
  -1   8  -5 103.158 6.81926   2
  -1   8  -5 101.330 6.74012   3
   1  -8   5 100.803 7.40716   1
  -2   8  -5 195.794 12.5095   2
   2  -8   5 186.475 12.8933   1
  -3   8  -5 11.1769 1.67766   2
   3  -8   5 14.3111 2.22929   1
  -4   8  -5 573.123 36.3516   2
   4  -8   5 561.171 36.6393   1
  -5   8  -5 242.349 15.6326   2
   5  -8   5 229.912 15.8854   1
  -6   8  -5 399.269 25.6853   2
   6  -8   5 388.570 25.9133   1
  -7   8  -5 93.8740 7.19855   2
   7  -8   5 100.533 7.61939   1
  -8   8  -5 227.784 15.8181   2
   8  -8   5 234.445 16.0149   1
  -9   8  -5 71.9538 6.55251   2
   9  -8   5 78.1378 6.66967   1
   8   7  -5 48.0707 4.41263   3
   7   7  -5 89.1673 6.53342   3
  -7  -7   5 79.5814 10.9654   1
   6   7  -5 2.93396 1.53456   3
  -6  -7   5 4.36638 6.41524   1
   5   7  -5 32.3375 2.99420   3
  -5  -7   5 30.4941 9.05527   1
   4   7  -5 83.8024 5.93448   3
  -4  -7   5 85.4338 10.5188   1
   3   7  -5 552.186 36.0485   3
  -3  -7   5 584.260 38.2048   1
   2   7  -5 449.706 28.2423   2
   2   7  -5 444.093 28.3443   3
  -2  -7   5 434.797 29.4476   1
   1   7  -5 15.2133 1.38322   2
   1   7  -5 15.1010 1.51601   3
  -1  -7   5 13.6235 2.38389   1
   0   7  -5 572.359 37.8786   2
   0   7  -5 612.169 37.8960   3
   0  -7   5 604.397 38.4479   1
  -1   7  -5 163.318 10.4084   2
  -1   7  -5 158.180 10.3779   3
   1  -7   5 157.414 10.8003   1
  -2   7  -5 54.1434 3.94532   2
   2  -7   5 58.0473 4.37399   1
  -3   7  -5 62.7896 4.47886   2
   3  -7   5 62.6580 4.83205   1
  -4   7  -5 59.0137 4.37798   2
   4  -7   5 59.4625 4.70995   1
  -5   7  -5 399.328 25.7344   2
   5  -7   5 396.073 25.9388   1
  -6   7  -5 20.9075 2.63385   2
   6  -7   5 21.2038 2.90042   1
  -7   7  -5 253.864 17.3503   2
   7  -7   5 265.339 17.5152   1
  -8   7  -5 454.455 29.6771   2
   8  -7   5 450.977 29.7101   1
  -9   7  -5 139.391 10.3852   2
   9  -7   5 138.440 10.1897   1
 -10   7  -5 28.6812 4.24367   2
   9   6  -5 121.424 8.93705   3
   8   6  -5 -0.3362 1.64490   3
   7   6  -5 21.4486 2.65672   3
  -7  -6   5 29.7977 6.70310   1
   6   6  -5 498.147 31.3085   3
  -6  -6   5 456.901 35.7709   1
   5   6  -5 53.2645 4.09523   3
  -5  -6   5 56.3035 9.90478   1
   4   6  -5 66.4102 4.78624   3
  -4  -6   5 71.5544 9.60027   1
   3   6  -5 6.98837 1.05442   3
   3   6  -5 5.05664 0.73931   2
  -3  -6   5 3.19024 2.69304   1
   2   6  -5 0.23336 0.65495   3
   2   6  -5 1.10443 0.51547   2
  -2  -6   5 0.77117 1.61680   1
   1   6  -5 84.6955 5.52894   2
   1   6  -5 83.9634 5.61983   3
  -1  -6   5 83.5420 6.31008   1
   0   6  -5 208.924 13.0456   3
   0   6  -5 195.163 13.0018   2
   0  -6   5 203.827 13.5340   1
  -1   6  -5 30.0144 2.30164   2
  -1   6  -5 30.6503 2.38597   3
   1  -6   5 31.6503 2.76046   1
  -2   6  -5 298.455 19.5134   2
   2  -6   5 310.392 19.7995   1
  -3   6  -5 61.5672 4.37043   2
   3  -6   5 61.4958 4.59792   1
  -4   6  -5 177.494 11.9510   2
   4  -6   5 184.635 12.1213   1
  -5   6  -5 281.535 18.6061   2
   5  -6   5 287.729 18.7333   1
  -6   6  -5 153.297 10.3640   2
   6  -6   5 148.009 10.4012   1
  -7   6  -5 304.974 20.1522   2
   7  -6   5 303.668 20.1829   1
  -8   6  -5 62.9944 5.45037   2
   8  -6   5 63.2867 5.37408   1
  -9   6  -5 78.9559 6.42491   2
   9  -6   5 69.3997 6.08245   1
 -10   6  -5 79.5945 7.38906   2
   9   5  -5 3.40353 2.00780   3
   8   5  -5 8.97883 1.89784   3
  -8  -5   5 8.09787 4.77768   1
   7   5  -5 4.80523 1.52292   3
  -7  -5   5 4.03482 4.51032   1
   6   5  -5 2.17452 1.24272   3
  -6  -5   5 5.51179 5.13201   1
   5   5  -5 5.55663 1.26127   3
  -5  -5   5 2.29273 5.61723   1
   4   5  -5 674.905 43.2068   3
  -4  -5   5 684.191 47.0499   1
   3   5  -5 161.517 10.2084   2
   3   5  -5 157.242 10.4121   3
  -3  -5   5 158.814 12.2565   1
   2   5  -5 67.1943 4.46787   2
   2   5  -5 68.3025 4.65028   3
  -2  -5   5 73.1258 5.90789   1
   1   5  -5 185.071 11.9402   3
   1   5  -5 180.844 11.8382   2
  -1  -5   5 191.520 12.5615   1
   0   5  -5 327.538 20.7208   3
   0   5  -5 324.990 20.6681   2
   0  -5   5 320.250 21.0888   1
  -1   5  -5 77.9202 5.31832   2
  -1   5  -5 84.0319 5.50000   3
   1  -5   5 79.7712 5.62815   1
  -2   5  -5 2.80404 0.72598   2
  -2   5  -5 4.52492 1.31931   3
   2  -5   5 2.83524 1.00418   1
  -3   5  -5 344.859 21.1807   3
  -3   5  -5 325.441 21.3860   2
   3  -5   5 326.512 21.5108   1
  -4   5  -5 1307.88 80.4733   3
  -4   5  -5 1250.93 80.7488   2
   4  -5   5 1255.49 80.8441   1
  -5   5  -5 406.039 26.2988   2
   5  -5   5 407.990 26.3417   1
  -6   5  -5 357.401 23.2629   2
   6  -5   5 354.939 23.2478   1
  -7   5  -5 97.9204 7.24862   2
   7  -5   5 96.8018 7.15033   1
  -8   5  -5 44.7166 4.43736   2
   8  -5   5 39.6699 4.03055   1
  -9   5  -5 59.1313 5.58564   2
 -10   5  -5 118.999 10.0223   2
  10  -5   5 134.950 9.02844   4
   9   4  -5 0.03562 1.76572   3
  -9  -4   5 -1.3959 4.47060   1
   8   4  -5 46.5924 4.00798   3
  -8  -4   5 44.5948 7.10013   1
   7   4  -5 38.6151 3.39078   3
  -7  -4   5 40.8325 6.53145   1
   6   4  -5 111.948 7.70947   3
  -6  -4   5 113.540 10.8464   1
   5   4  -5 65.0627 4.59718   3
  -5  -4   5 54.5096 8.48835   1
   4   4  -5 1751.00 113.169   3
  -4  -4   5 1836.34 116.975   1
   3   4  -5 588.124 37.1598   2
   3   4  -5 587.817 37.3651   3
  -3  -4   5 584.594 39.2450   1
   2   4  -5 35.3514 2.51322   3
   2   4  -5 33.8457 2.28991   2
  -2  -4   5 34.3723 3.63267   1
   1   4  -5 835.858 54.4625   2
   1   4  -5 842.534 54.5694   3
  -1  -4   5 909.911 54.4245   4
  -1  -4   5 853.975 55.0515   1
   0   4  -5 51.9900 3.58886   3
   0   4  -5 51.3095 3.47647   2
   0  -4   5 54.3584 3.93987   1
  -1   4  -5 127.047 8.46159   3
  -1   4  -5 124.111 8.10033   2
   1  -4   5 123.951 8.32172   1
  -2   4  -5 8.55518 1.05418   2
  -2   4  -5 9.28829 1.39594   3
   2  -4   5 7.23406 1.25885   1
  -3   4  -5 71.0488 4.62538   3
  -3   4  -5 67.3112 4.83603   2
   3  -4   5 70.5231 4.92218   1
  -4   4  -5 1291.88 80.7572   3
  -4   4  -5 1277.09 81.0151   2
   4  -4   5 1258.38 81.0083   1
  -5   4  -5 24.1621 1.83265   3
  -5   4  -5 21.0701 2.41295   2
   5  -4   5 20.7047 2.32938   1
  -6   4  -5 260.804 17.1155   2
  -6   4  -5 254.207 16.6434   3
   6  -4   5 262.224 17.0431   1
  -7   4  -5 554.976 35.6480   2
   7  -4   5 543.615 35.4186   1
  -8   4  -5 148.873 10.8734   2
   8  -4   5 153.962 10.5859   1
  -9   4  -5 40.6791 4.85141   2
 -10   4  -5 64.7859 6.86576   2
  10  -4   5 75.8118 5.60404   4
  10   3  -5 227.679 15.4895   3
   9   3  -5 5.01299 1.79476   3
  -9  -3   5 -1.6309 3.95925   1
   8   3  -5 117.225 8.28560   3
  -8  -3   5 118.844 10.8279   1
   7   3  -5 241.302 15.6203   3
  -7  -3   5 230.222 17.7058   1
   6   3  -5 293.156 18.8496   3
  -6  -3   5 284.195 21.3833   1
   5   3  -5 279.692 17.4920   3
  -5  -3   5 247.677 20.0524   1
   4   3  -5 5.89196 0.97606   3
  -4  -3   5 6.95310 3.94803   1
   3   3  -5 13.1872 1.33890   3
  -3  -3   5 16.7877 3.74798   1
   2   3  -5 299.899 19.3796   3
  -2  -3   5 307.981 20.4260   1
   1   3  -5 1.72634 0.33707   2
   1   3  -5 4.90581 0.73071   3
  -1  -3   5 0.95830 0.99919   1
   0   3  -5 4.26818 0.58171   2
   0   3  -5 4.68777 0.74054   3
   0  -3   5 4.43947 0.49757   4
   0  -3   5 4.25671 0.93539   1
  -1   3  -5 739.880 47.6709   2
  -1   3  -5 783.643 48.3039   3
   1  -3   5 736.832 47.8092   1
  -2   3  -5 8.15385 1.13439   3
  -2   3  -5 6.08112 0.96285   2
   2  -3   5 7.85387 1.08330   1
  -3   3  -5 265.161 16.4762   2
  -3   3  -5 241.340 16.2794   3
   3  -3   5 258.954 16.4366   1
  -4   3  -5 23.1214 1.74702   3
  -4   3  -5 18.5711 2.06571   2
   4  -3   5 21.0910 1.97679   1
  -5   3  -5 265.340 16.8775   3
  -5   3  -5 268.840 17.2461   2
   5  -3   5 254.094 17.0556   1
  -6   3  -5 498.514 33.0286   2
  -6   3  -5 514.226 32.6178   3
   6  -3   5 518.786 32.8397   1
  -7   3  -5 162.907 10.7094   3
  -7   3  -5 166.771 11.4280   2
   7  -3   5 158.842 11.0229   1
  -8   3  -5 138.303 10.2840   2
   8  -3   5 140.255 9.43593   4
  -9   3  -5 121.318 9.47367   2
   9  -3   5 117.917 8.30088   4
  10  -3   5 132.173 11.2107   2
  10  -3   5 155.878 10.0840   4
  10   2  -5 11.0480 2.42725   3
 -10  -2   5 11.3723 4.85572   1
   9   2  -5 0.70391 1.63507   3
  -9  -2   5 -0.7248 3.48082   1
   8   2  -5 82.4550 6.07849   3
  -8  -2   5 79.0800 8.33358   1
   7   2  -5 1.33509 1.26173   3
  -7  -2   5 2.20967 3.26734   1
   6   2  -5 7.80784 1.36335   3
  -6  -2   5 12.3772 3.82552   1
   5   2  -5 236.343 15.1431   3
  -5  -2   5 226.039 17.2042   1
   4   2  -5 89.7382 5.91945   3
  -4  -2   5 78.2749 8.47170   1
   3   2  -5 53.8889 3.80834   3
  -3  -2   5 65.9447 6.97009   1
   2   2  -5 38.5342 2.67665   3
  -2  -2   5 34.2980 4.10366   1
   1   2  -5 73.1033 4.72761   2
   1   2  -5 74.7834 4.89392   3
  -1  -2   5 70.5878 5.41468   1
   0   2  -5 362.876 23.4131   3
   0   2  -5 364.950 23.2048   2
   0  -2   5 371.009 23.1718   4
   0  -2   5 361.222 23.4809   1
  -1   2  -5 112.582 7.30452   2
  -1   2  -5 108.871 8.07861   3
   1  -2   5 115.669 7.38820   1
   1  -2   5 109.264 7.20658   4
  -2   2  -5 146.250 10.3725   2
  -2   2  -5 166.015 10.4191   3
   2  -2   5 166.187 10.3487   1
  -3   2  -5 4020.22 263.769   3
  -3   2  -5 4300.83 263.959   2
   3  -2   5 4203.65 263.831   1
  -4   2  -5 506.288 33.4317   3
  -4   2  -5 523.837 33.7146   2
   4  -2   5 545.632 33.5121   1
  -5   2  -5 955.024 60.4527   2
  -5   2  -5 925.490 60.0955   3
   5  -2   5 960.622 60.2029   1
  -6   2  -5 5.04827 1.80911   2
  -6   2  -5 5.35906 1.07820   3
   6  -2   5 5.89658 1.26855   1
  -7   2  -5 168.111 11.8125   2
  -7   2  -5 167.086 11.0463   3
   7  -2   5 173.047 11.2046   1
   7  -2   5 155.588 10.9560   4
  -8   2  -5 10.2953 2.98189   2
   8  -2   5 6.26645 1.56671   4
   9  -2   5 367.277 21.6644   4
   9  -2   5 291.681 22.5242   2
  10  -2   5 152.173 13.1618   2
  10  -2   5 187.347 11.7946   4
  10   1  -5 9.14006 2.27115   3
 -10  -1   5 9.58260 4.08136   1
   9   1  -5 14.4429 2.31214   3
  -9  -1   5 18.1740 4.46474   1
   8   1  -5 78.8471 6.05394   3
  -8  -1   5 93.6290 8.53208   1
   7   1  -5 33.4223 2.98971   3
  -7  -1   5 35.7782 5.23171   1
   6   1  -5 10.8292 1.64560   3
  -6  -1   5 13.2211 3.55725   1
   5   1  -5 1859.07 118.147   3
  -5  -1   5 1873.36 119.806   1
   4   1  -5 217.125 13.9066   3
  -4  -1   5 210.887 15.5434   1
   3   1  -5 449.711 27.7829   3
  -3  -1   5 411.919 29.7214   1
   2   1  -5 648.420 41.4676   3
  -2  -1   5 659.545 43.2513   1
   1   1  -5 10.3316 1.07885   3
  -1  -1   5 10.0306 1.31538   2
  -1  -1   5 9.38907 1.83061   1
   0   1  -5 5.90682 1.37725   3
   0   1  -5 7.91360 0.91483   2
   0  -1   5 7.50538 1.21295   1
  -1   1  -5 99.0171 6.46607   2
   1  -1   5 98.5516 6.41221   1
   1  -1   5 94.4436 6.31283   4
  -2   1  -5 14.0476 1.33196   3
  -2   1  -5 13.3819 1.45000   2
   2  -1   5 13.3026 1.15672   1
   2  -1   5 11.8714 1.11408   4
  -3   1  -5 453.804 29.2644   3
  -3   1  -5 462.362 29.4719   2
   3  -1   5 451.315 29.1760   4
   3  -1   5 468.856 29.2094   1
  -4   1  -5 1.02414 0.68762   3
  -4   1  -5 -0.3658 0.98400   2
   4  -1   5 1.36363 0.66428   4
   4  -1   5 1.13346 0.67120   1
  -5   1  -5 60.8346 4.90730   2
  -5   1  -5 61.5474 4.35466   3
   5  -1   5 62.6621 4.38226   1
   5  -1   5 60.6132 4.26894   4
  -6   1  -5 504.314 32.8667   3
  -6   1  -5 507.937 33.4405   2
   6  -1   5 532.828 32.9039   1
   6  -1   5 508.067 32.7698   4
  -7   1  -5 57.1800 4.24387   3
   7  -1   5 53.7389 4.13853   4
  -8   1  -5 90.9424 6.50289   3
   8  -1   5 75.8696 7.51377   2
   8  -1   5 98.3861 6.44027   4
  -9   1  -5 0.70719 1.57294   3
   9  -1   5 0.93035 1.58600   4
   9  -1   5 -0.4175 3.53925   2
  10  -1   5 29.6312 5.63095   2
  10   0  -5 12.4549 2.42068   3
 -10   0   5 12.7495 4.43926   1
   9   0  -5 203.832 14.2077   3
  -9   0   5 229.124 16.4127   1
   8   0  -5 31.9690 3.12430   3
  -8   0   5 40.7664 5.40786   1
   7   0  -5 316.469 20.5695   3
  -7   0   5 318.051 22.2851   1
   6   0  -5 466.515 28.8741   3
  -6   0   5 426.353 30.2748   1
   5   0  -5 122.966 7.73991   3
  -5   0   5 121.233 9.27521   1
  -5   0   5 105.583 7.80325   2
   4   0  -5 142.037 9.16730   3
  -4   0   5 138.596 10.5939   1
  -4   0   5 138.606 9.09163   2
   3   0  -5 128.566 8.06497   3
  -3   0   5 120.484 9.30057   1
  -3   0   5 119.673 7.88237   2
   2   0  -5 224.192 13.7826   3
  -2   0   5 195.928 14.9041   1
   1   0  -5 54.6757 3.99526   3
  -1   0   5 55.6293 3.89950   2
  -1   0   5 64.4870 5.51317   1
   0   0  -5 639.427 40.0041   3
   0   0   5 616.921 39.9861   1
   0   0   5 611.530 39.8359   2
  -1   0  -5 4.62652 1.08393   3
   1   0   5 2.76668 0.59459   1
   1   0   5 2.84542 0.96236   2
   1   0   5 3.42712 0.70495   4
  -2   0  -5 499.153 31.8168   3
   2   0   5 524.432 31.6407   1
   2   0   5 502.123 31.6955   4
   2   0   5 465.484 31.9376   2
  -3   0  -5 228.252 14.8781   3
   3   0   5 237.024 14.7182   1
   3   0   5 225.062 14.7891   4
  -4   0  -5 191.587 12.4515   3
   4   0   5 196.291 12.3252   1
   4   0   5 184.936 12.3509   4
  -5   0  -5 239.644 15.0836   3
   5   0   5 219.248 15.5894   2
   5   0   5 232.935 14.9620   1
   5   0   5 232.098 14.9657   4
  -6   0  -5 225.702 14.4036   3
   6   0   5 224.638 14.2989   4
   6   0   5 204.967 15.0890   2
  -7   0  -5 212.418 13.6842   3
   7   0   5 185.944 14.5718   2
   7   0   5 215.353 13.5782   4
  -8   0  -5 342.135 21.9904   3
   8   0   5 348.196 21.8649   4
   8   0   5 311.964 23.2917   2
  -9   0  -5 432.748 27.5847   3
   9   0   5 408.090 29.5095   2
 -10   0  -5 2.69443 1.94413   3
 -10   1   5 19.4819 4.97608   1
   9  -1  -5 248.021 16.8446   3
  -9   1   5 266.990 18.8062   1
   8  -1  -5 2.76887 1.44138   3
  -8   1   5 3.36750 3.04040   1
   7  -1  -5 6.62607 1.38468   3
  -7   1   5 8.98467 3.01731   1
  -6   1   5 6.98562 2.86840   1
   5  -1  -5 205.842 13.1191   3
  -5   1   5 201.005 13.1077   2
  -5   1   5 196.890 14.3447   1
   4  -1  -5 5.54296 0.85260   3
  -4   1   5 5.31884 0.81946   2
  -4   1   5 4.36066 1.87115   1
   3  -1  -5 512.363 31.5526   3
  -3   1   5 491.488 31.3991   2
  -3   1   5 477.312 32.4119   1
   2  -1  -5 1.08555 0.67563   3
  -2   1   5 1.74056 0.43040   2
  -2   1   5 1.43252 1.22583   1
   1  -1  -5 216.814 13.0147   3
  -1   1   5 184.564 12.4265   2
  -1   1   5 181.229 12.8346   1
   0   1   5 167.327 10.7917   2
   0   1   5 150.790 10.4802   1
  -1  -1  -5 22.0074 2.03916   3
   1   1   5 22.3352 2.76335   2
  -2  -1  -5 6867.80 422.536   3
   2   1   5 6593.88 422.454   4
   2   1   5 6598.25 423.016   2
  -3  -1  -5 495.074 31.1193   3
   3   1   5 500.804 31.0695   4
   3   1   5 462.765 31.6480   2
  -4  -1  -5 771.113 47.6669   3
   4   1   5 760.900 47.4461   1
   4   1   5 749.554 47.5662   4
   4   1   5 705.487 48.2708   2
  -5  -1  -5 6.13929 1.16339   3
   5   1   5 4.87307 2.41157   2
   5   1   5 7.84631 1.25705   4
  -6  -1  -5 329.847 21.2470   3
   6   1   5 307.435 22.3325   2
   6   1   5 339.979 21.1592   4
  -7  -1  -5 19.9625 2.34877   3
   7   1   5 18.2970 4.46516   2
   7   1   5 18.7878 2.21697   4
  -8  -1  -5 443.443 28.6707   3
   8   1   5 414.122 30.5798   2
   8   1   5 459.764 28.6021   4
  -9  -1  -5 102.012 7.36782   3
   9   1   5 92.9906 10.4077   2
 -10  -1  -5 86.2886 6.72425   3
 -10   2   5 8.90539 3.93007   1
  -9   2   5 51.3685 6.25893   1
   8  -2  -5 32.7793 3.11322   3
  -8   2   5 39.8751 5.26977   1
   7  -2  -5 20.5619 2.17410   3
  -7   2   5 21.7290 3.85900   1
   6  -2  -5 1441.51 90.5542   3
  -6   2   5 1476.84 91.9028   1
  -6   2   5 1371.83 90.6312   2
   5  -2  -5 10.8145 1.37665   3
  -5   2   5 11.0307 1.30048   2
  -5   2   5 9.38127 2.24929   1
   4  -2  -5 911.125 55.1389   3
  -4   2   5 869.946 55.0410   2
  -4   2   5 816.247 55.9710   1
   3  -2  -5 82.7403 5.43786   3
  -3   2   5 67.7099 6.03414   1
  -3   2   5 81.6274 5.23051   2
   2  -2  -5 8.47384 1.38735   3
  -2   2   5 8.46544 1.62431   1
  -2   2   5 9.08128 0.95940   2
   1  -2  -5 3.49207 1.45118   3
  -1   2   5 5.20771 1.11072   1
  -1   2   5 4.59224 0.87994   2
   0  -2  -5 14.7176 1.94000   3
   0   2   5 11.8292 1.76397   2
   0   2   5 14.4157 1.34079   1
  -1  -2  -5 18.1480 1.72820   3
   1   2   5 17.6703 2.78930   2
  -2  -2  -5 2.42796 0.73189   3
   2   2   5 2.99294 2.08110   2
  -3  -2  -5 7.60257 1.19788   3
   3   2   5 7.26777 2.46786   2
  -4  -2  -5 1.39912 0.80727   3
   4   2   5 -2.1907 2.27337   2
   4   2   5 -0.3997 1.09635   4
  -5  -2  -5 121.901 8.06055   3
   5   2   5 119.017 9.75754   2
   5   2   5 113.314 8.03267   4
  -6  -2  -5 9.05427 1.51360   3
   6   2   5 9.25178 1.73579   4
   6   2   5 9.59636 3.89622   2
  -7  -2  -5 165.864 10.8349   3
   7   2   5 141.803 12.9463   2
   7   2   5 159.944 10.8250   4
  -8  -2  -5 116.575 8.38975   3
   8   2   5 125.192 11.8239   2
  -9  -2  -5 1.47413 1.80879   3
   9   2   5 7.77171 5.99370   2
 -10  -2  -5 12.5976 2.52757   3
 -10   3   5 166.777 13.5328   1
  -9   3   5 13.7612 3.81649   1
  -8   3   5 157.972 12.3920   1
   7  -3  -5 29.4796 2.62776   3
  -7   3   5 29.3178 4.27762   1
   6  -3  -5 156.729 9.83699   3
  -6   3   5 138.498 9.83931   2
  -6   3   5 148.434 11.1539   1
   5  -3  -5 168.951 10.7635   3
  -5   3   5 163.368 11.7351   1
  -5   3   5 157.121 10.6714   2
   4  -3  -5 13.8672 1.70491   3
  -4   3   5 18.4631 2.72582   1
  -4   3   5 14.9982 1.49207   2
   3  -3  -5 405.016 27.1408   3
  -3   3   5 437.825 26.8982   2
  -3   3   5 419.523 27.5922   1
   2  -3  -5 119.653 7.23590   3
  -2   3   5 100.511 6.73467   2
  -2   3   5 88.2982 7.13069   1
  -1   3   5 205.874 13.5794   1
  -1   3   5 208.169 13.4941   2
   0  -3  -5 64.2255 4.64746   3
   0  -3  -5 65.4803 4.44547   1
   0   3   5 58.1985 4.69217   2
  -1  -3  -5 2.59720 0.79791   3
   1   3   5 0.65242 1.32696   2
  -2  -3  -5 554.714 36.0469   3
   2   3   5 579.166 36.9579   2
  -3  -3  -5 1.84713 0.83869   3
   3   3   5 -0.5416 2.71065   2
  -4  -3  -5 15.5168 1.75533   3
   4   3   5 14.1712 3.87588   2
  -5  -3  -5 40.8790 3.30199   3
   5   3   5 40.3857 6.10877   2
  -6  -3  -5 115.381 8.08955   3
   6   3   5 122.378 10.9293   2
  -7  -3  -5 516.376 33.6016   3
   7   3   5 529.461 36.2139   2
  -8  -3  -5 414.231 28.1206   3
   8   3   5 478.281 31.6322   2
  -9  -3  -5 1.00569 1.83569   3
 -10   4   5 269.802 19.7832   1
  -9   4   5 13.9149 3.85031   1
  -8   4   5 2.64783 2.72906   1
  -7   4   5 50.0277 4.32937   2
  -7   4   5 62.0599 5.86449   1
   6  -4  -5 198.722 12.7305   3
  -6   4   5 190.418 13.8262   1
  -6   4   5 188.164 12.7335   2
   5  -4  -5 22.1479 2.26870   3
  -5   4   5 23.0519 3.21861   1
  -5   4   5 19.3810 2.00335   2
   4  -4  -5 743.341 47.8324   3
  -4   4   5 725.790 48.3262   1
  -4   4   5 770.674 47.5715   2
   3  -4  -5 10.4762 1.72715   3
  -3   4   5 8.66944 1.20018   2
  -3   4   5 7.94043 1.67901   1
   2  -4  -5 17.8962 3.00651   3
  -2   4   5 34.0718 2.45641   2
  -2   4   5 32.7860 2.85017   1
   1  -4  -5 176.799 12.1893   1
   1  -4  -5 185.066 12.2831   3
  -1   4   5 187.328 12.0763   2
   0  -4  -5 56.6463 4.02412   3
   0  -4  -5 58.1790 3.98084   1
   0   4   5 46.9504 4.17649   2
  -1  -4  -5 3064.64 192.376   3
   1   4   5 3016.85 192.769   2
  -2  -4  -5 266.292 17.2060   3
   2   4   5 264.953 17.8494   2
  -3  -4  -5 363.586 23.8318   3
   3   4   5 380.763 24.8669   2
  -4  -4  -5 35.4648 3.00353   3
   4   4   5 39.4363 5.38181   2
  -5  -4  -5 388.883 25.8572   3
   5   4   5 422.320 27.6701   2
  -6  -4  -5 27.9910 2.90785   3
   6   4   5 38.8979 5.62492   2
  -7  -4  -5 348.379 23.5635   3
   7   4   5 387.625 25.9187   2
  -8  -4  -5 28.6505 3.33618   3
   8   4   5 41.9530 7.39815   2
  -9  -4  -5 104.577 7.91531   3
  10  -5  -5 7.27721 3.51315   1
  -9   5   5 35.6321 5.37397   1
  -8   5   5 107.208 9.17510   1
  -7   5   5 289.687 19.5084   2
  -7   5   5 305.600 20.6020   1
  -6   5   5 79.8254 5.94273   2
  -6   5   5 87.3426 7.21253   1
   5  -5  -5 683.216 44.6664   3
  -5   5   5 710.609 45.3104   1
  -5   5   5 691.549 44.3408   2
   4  -5  -5 3.42883 1.48347   3
  -4   5   5 3.58375 1.58357   1
  -4   5   5 4.32572 1.02059   2
   3  -5  -5 2.38388 1.80084   3
  -3   5   5 10.4767 1.77336   1
  -3   5   5 5.84095 1.03551   2
   2  -5  -5 0.67738 1.33358   3
   2  -5  -5 3.85849 1.57041   1
  -2   5   5 0.19897 0.77942   2
   1  -5  -5 26.7441 2.40827   3
   1  -5  -5 26.2758 2.69416   1
  -1   5   5 26.8270 2.49296   2
   0  -5  -5 48.5496 3.55887   1
   0  -5  -5 41.8714 3.30293   3
   0   5   5 40.7791 3.59077   2
  -1  -5  -5 23.7627 2.28944   1
  -1  -5  -5 23.3998 2.08408   3
   1   5   5 21.6936 2.73991   2
  -2  -5  -5 2.68139 0.93950   3
   2   5   5 0.54777 1.64712   2
  -3  -5  -5 64.4789 4.61857   3
   3   5   5 61.0895 5.61600   2
  -4  -5  -5 15.6966 1.94252   3
   4   5   5 17.1613 3.09813   2
  -5  -5  -5 167.517 11.7307   3
   5   5   5 192.706 13.2290   2
  -6  -5  -5 118.269 8.40577   3
   6   5   5 123.710 10.1642   2
  -7  -5  -5 313.525 22.2303   3
   7   5   5 394.865 24.2971   2
  -8  -5  -5 0.58292 1.81746   3
   8   5   5 -1.1327 4.09172   2
  -9  -5  -5 11.3303 2.50220   3
  10  -6  -5 0.42762 3.10043   1
   9  -6  -5 40.0687 5.71753   1
   8  -6  -5 21.8358 4.10749   1
  -8   6   5 32.8732 3.86520   2
  -7   6   5 65.8639 5.37901   2
  -6   6   5 91.1662 6.64594   2
   5  -6  -5 2.15311 2.29666   1
  -5   6   5 1.36065 1.21003   2
   4  -6  -5 333.465 24.1364   3
   4  -6  -5 358.121 24.7305   1
  -4   6   5 412.527 23.9113   2
   3  -6  -5 178.407 13.3217   3
   3  -6  -5 204.162 13.9655   1
  -3   6   5 217.273 13.2038   2
   2  -6  -5 24.4595 2.31171   3
   2  -6  -5 17.2846 2.86508   1
  -2   6   5 23.0936 2.24451   2
   1  -6  -5 45.3038 4.04416   1
   1  -6  -5 47.6203 3.48187   3
  -1   6   5 42.9897 3.69241   2
   0  -6  -5 151.889 9.80621   1
   0  -6  -5 135.784 9.33621   3
   0   6   5 134.969 9.74256   2
  -1  -6  -5 378.654 23.6430   1
  -1  -6  -5 363.088 23.3004   3
   1   6   5 340.750 23.7327   2
  -2  -6  -5 26.4275 2.37614   3
   2   6   5 22.3663 3.21869   2
  -3  -6  -5 45.1106 3.73093   3
   3   6   5 56.2155 4.99586   2
  -4  -6  -5 1.62460 1.15666   3
   4   6   5 2.31306 2.31375   2
  -5  -6  -5 122.376 8.58981   3
   5   6   5 126.166 9.80139   2
  -6  -6  -5 385.154 25.6480   3
   6   6   5 405.880 26.7004   2
  -7  -6  -5 349.777 24.2484   3
   7   6   5 405.095 25.6699   2
  -8  -6  -5 5.34142 2.13982   3
  10  -7  -5 6.18807 3.49569   1
   9  -7  -5 14.8025 4.06230   1
   8  -7  -5 129.467 11.3282   1
  -8   7   5 154.486 10.5527   2
   7  -7  -5 122.770 10.2591   1
  -7   7   5 127.926 9.10053   2
   6  -7  -5 18.3965 3.63852   1
  -6   7   5 22.8759 2.73031   2
   5  -7  -5 535.464 35.9640   1
  -5   7   5 546.096 34.8616   2
   4  -7  -5 12.7435 3.01194   1
  -4   7   5 19.7629 2.18869   2
   3  -7  -5 1.23862 1.80002   1
   3  -7  -5 1.30198 1.07823   3
  -3   7   5 0.91918 1.15291   2
   2  -7  -5 33.0382 2.69459   3
   2  -7  -5 28.9007 3.65974   1
  -2   7   5 32.3685 2.98185   2
   1  -7  -5 52.5507 3.88246   3
   1  -7  -5 56.6640 4.80541   1
  -1   7   5 47.0181 4.20604   2
   0  -7  -5 1384.98 83.6747   1
   0  -7  -5 1267.79 83.0385   3
   0   7   5 1274.93 83.4381   2
  -1  -7  -5 391.229 25.3324   1
  -1  -7  -5 390.790 24.7032   3
   1   7   5 365.459 25.1235   2
  -2  -7  -5 88.3204 6.08676   3
   2   7   5 81.5961 6.77218   2
  -3  -7  -5 1.86134 1.17171   3
   3   7   5 1.46432 2.14371   2
  -4  -7  -5 238.766 15.8791   3
   4   7   5 242.707 16.6731   2
  -5  -7  -5 31.0286 3.18590   3
   5   7   5 36.0089 4.47599   2
  -6  -7  -5 61.1606 5.15218   3
   6   7   5 75.7673 6.92048   2
  -7  -7  -5 3.18369 1.85020   3
   7   7   5 1.55444 3.49178   2
  -8  -7  -5 51.2158 4.75048   3
   9  -8  -5 63.3917 7.18659   1
   8  -8  -5 31.8140 5.24135   1
  -8   8   5 32.1277 4.34597   2
   7  -8  -5 150.665 12.8005   1
  -7   8   5 177.648 11.7692   2
   6  -8  -5 397.317 27.7929   1
  -6   8   5 415.165 26.6314   2
   5  -8  -5 66.9916 6.75490   1
  -5   8   5 73.4411 5.51320   2
   4  -8  -5 18.6707 3.39723   1
  -4   8   5 17.2685 2.38936   2
   3  -8  -5 3.98240 2.50144   1
  -3   8   5 0.44342 1.30222   2
   2  -8  -5 129.211 9.37982   1
  -2   8   5 117.018 8.56433   2
   1  -8  -5 430.433 28.7288   1
   1  -8  -5 422.514 27.7960   3
  -1   8   5 449.378 28.2662   2
   0  -8  -5 188.170 12.6514   3
   0  -8  -5 199.317 13.7145   1
   0   8   5 191.119 13.1613   2
  -1  -8  -5 30.0992 2.82166   3
   1   8   5 35.6260 3.81445   2
  -2  -8  -5 94.7705 6.56862   3
   2   8   5 89.0011 7.19041   2
  -3  -8  -5 86.2162 5.98917   3
   3   8   5 74.1538 6.64800   2
  -4  -8  -5 230.094 15.3074   3
   4   8   5 228.816 16.0101   2
  -5  -8  -5 79.6448 6.22576   3
   5   8   5 86.7767 7.42179   2
  -6  -8  -5 364.839 24.3486   3
   6   8   5 379.665 25.3386   2
  -7  -8  -5 1.74982 1.88607   3
   9  -9  -5 134.439 11.5129   1
   8  -9  -5 56.9734 7.26988   1
  -8   9   5 73.4202 6.35365   2
   7  -9  -5 66.6766 7.38531   1
  -7   9   5 71.5739 6.01617   2
   6  -9  -5 69.4246 7.19026   1
  -6   9   5 68.4215 5.69741   2
   5  -9  -5 94.5553 8.68342   1
  -5   9   5 98.9207 7.27180   2
   4  -9  -5 54.7770 6.03183   1
  -4   9   5 53.3608 4.51410   2
   3  -9  -5 45.7977 5.48589   1
  -3   9   5 47.7772 4.17844   2
   2  -9  -5 16.9457 3.68963   1
  -2   9   5 16.3019 2.54487   2
   1  -9  -5 19.1458 3.73116   1
  -1   9   5 28.9435 3.25876   2
   0  -9  -5 167.030 11.1416   3
   0   9   5 167.107 11.7090   2
  -1  -9  -5 103.356 7.45326   3
   1   9   5 114.927 8.20771   2
  -2  -9  -5 203.651 13.7780   3
   2   9   5 213.042 14.5266   2
  -3  -9  -5 40.9395 3.56753   3
   3   9   5 31.4748 4.46321   2
  -4  -9  -5 82.2418 6.14264   3
   4   9   5 78.4912 7.06927   2
  -5  -9  -5 339.852 22.6646   3
   5   9   5 350.167 23.4576   2
  -6  -9  -5 97.6766 7.31431   3
   6   9   5 89.0358 8.08791   2
   8 -10  -5 61.9687 7.69548   1
  -8  10   5 61.2486 6.10463   2
   7 -10  -5 25.0162 4.98447   1
  -7  10   5 29.9934 4.02485   2
   6 -10  -5 183.945 14.9781   1
  -6  10   5 202.894 13.6435   2
   5 -10  -5 19.6715 4.34474   1
  -5  10   5 20.5167 3.10102   2
   4 -10  -5 2.01769 3.13625   1
  -4  10   5 3.23164 1.64583   2
   3 -10  -5 10.9796 3.84736   1
  -3  10   5 12.1023 2.25262   2
   2 -10  -5 44.1912 6.13302   1
  -2  10   5 45.8198 4.26524   2
   1 -10  -5 299.556 23.0303   1
  -1  10   5 354.800 22.0530   2
   0  10   5 182.495 12.8765   2
  -1 -10  -5 4.92762 1.59370   3
   1  10   5 6.48226 2.30390   2
  -2 -10  -5 29.5065 3.22528   3
   2  10   5 37.8777 4.17221   2
  -3 -10  -5 136.836 9.52246   3
   3  10   5 133.645 10.2739   2
  -4 -10  -5 39.8856 3.83280   3
   4  10   5 37.0978 5.02151   2
  -5 -10  -5 2.98861 2.04394   3
   5  10   5 -0.5408 2.90413   2
  -6 -10  -5 19.9809 3.01566   3
   8 -11  -5 129.450 12.0524   1
  -8  11   5 141.742 10.6992   2
   7 -11  -5 183.025 14.9952   1
  -7  11   5 187.935 13.3857   2
   6 -11  -5 91.3178 9.52811   1
  -6  11   5 103.324 7.95131   2
   5 -11  -5 34.6255 6.38209   1
  -5  11   5 55.4155 4.79558   2
   4 -11  -5 6.85846 4.11790   1
  -4  11   5 9.16057 2.25449   2
   3 -11  -5 149.626 12.5183   1
  -3  11   5 147.531 10.6278   2
   2 -11  -5 406.505 30.1573   1
  -2  11   5 457.777 28.7102   2
  -1  11   5 213.975 14.8182   2
   0  11   5 20.6812 3.31862   2
   1  11   5 32.6310 4.21978   2
  -2 -11  -5 64.7218 5.42075   3
   2  11   5 73.3283 6.30540   2
  -3 -11  -5 227.829 15.4372   3
   3  11   5 229.883 16.1668   2
  -4 -11  -5 15.8093 2.72261   3
   4  11   5 18.0541 3.58677   2
  -5 -11  -5 294.309 19.9714   3
   5  11   5 300.097 20.7628   2
   7 -12  -5 104.165 10.7317   1
  -7  12   5 116.851 9.05078   2
   6 -12  -5 -2.4432 4.36269   1
  -6  12   5 4.32699 2.66612   2
   5 -12  -5 -0.8070 4.27032   1
  -5  12   5 3.21756 2.41371   2
   4 -12  -5 64.8392 8.39677   1
  -4  12   5 68.8790 5.94209   2
   3 -12  -5 53.9392 7.63530   1
  -3  12   5 45.7910 4.71852   2
  -2  12   5 11.1540 2.72014   2
  -1  12   5 114.217 8.82838   2
   0  12   5 71.5197 6.50193   2
   1  12   5 154.665 11.6061   2
   2  12   5 60.9002 6.22407   2
   3  12   5 20.9842 3.85301   2
  -4 -12  -5 216.948 14.7558   3
   4  12   5 207.225 15.3467   2
   6 -13  -5 -1.0035 4.49457   1
  -6  13   5 3.56548 2.88205   2
   5 -13  -5 14.0368 5.76750   1
  -5  13   5 11.2744 3.05977   2
   4 -13  -5 4.37479 5.79490   1
  -4  13   5 6.73347 2.70229   2
  -3  13   5 9.30606 2.83381   2
  -2  13   5 19.5258 3.36824   2
  -1  13   5 50.2068 5.31987   2
   0  13   5 4.51658 2.64605   2
   1  13   5 85.5945 7.64469   2
   2  13   5 41.9558 5.34367   2
  -4  14   5 87.7445 7.66650   2
  -3  14   5 298.963 20.6331   2
  -2  14   5 176.592 12.9197   2
  -1  14   5 20.9192 3.76304   2
   0  14   5 9.80888 3.20924   2
   1 -15   6 100.743 10.0989   1
  -2  15  -6 -0.5711 1.82156   2
   2 -15   6 4.86195 3.60441   1
  -3  15  -6 54.6147 4.83281   2
  -2 -14   6 9.74085 6.91812   1
  -1 -14   6 15.4028 5.61521   1
   0 -14   6 6.55871 4.44351   1
  -1  14  -6 133.049 8.82691   2
   1 -14   6 108.018 10.5639   1
  -2  14  -6 207.382 13.2874   2
   2 -14   6 176.926 14.5879   1
  -3  14  -6 2.02372 1.82037   2
   3 -14   6 3.27520 3.28709   1
  -4  14  -6 74.5373 5.76156   2
   4 -14   6 64.3645 6.99443   1
  -5  14  -6 4.44657 2.14329   2
   5 -14   6 6.61483 3.25478   1
  -3 -13   6 10.4343 8.22323   1
  -2 -13   6 216.114 18.5058   1
  -1 -13   6 31.3941 5.83555   1
   0 -13   6 165.723 13.0727   1
  -1  13  -6 11.1938 1.94244   2
   1 -13   6 11.6981 3.47273   1
  -2  13  -6 11.7511 1.98651   2
   2 -13   6 9.14614 3.22901   1
  -3  13  -6 2.51849 1.66945   2
   3 -13   6 7.75439 2.82408   1
  -4  13  -6 0.47838 1.65269   2
   4 -13   6 0.82264 2.46052   1
  -5  13  -6 4.86187 2.01079   2
   5 -13   6 3.21587 2.67419   1
  -6  13  -6 35.1150 3.78372   2
   6 -13   6 27.1895 4.53506   1
   5  12  -6 17.9866 2.87292   3
  -4 -12   6 19.7937 10.6784   1
  -3 -12   6 49.2589 9.15975   1
  -2 -12   6 231.166 18.0426   1
  -1 -12   6 101.425 9.08463   1
   0  12  -6 121.726 8.06238   2
   0 -12   6 106.183 9.41965   1
  -1  12  -6 41.4141 3.46833   2
   1 -12   6 38.8960 4.70802   1
  -2  12  -6 39.4494 3.40976   2
   2 -12   6 33.8120 4.45770   1
  -3  12  -6 24.0838 2.67138   2
   3 -12   6 20.4808 3.49362   1
  -4  12  -6 125.351 8.25247   2
   4 -12   6 105.310 8.77261   1
  -5  12  -6 1.27285 1.67523   2
   5 -12   6 0.13945 2.30210   1
  -6  12  -6 11.9333 2.49206   2
   6 -12   6 15.0705 3.41075   1
  -7  12  -6 36.3192 3.96686   2
   7 -12   6 28.9058 4.60226   1
   5  11  -6 4.48193 2.17049   3
  -5 -11   6 18.9884 15.8592   1
   4  11  -6 61.1950 5.07201   3
  -4 -11   6 54.0645 11.3822   1
   3  11  -6 27.0469 3.00438   3
  -3 -11   6 31.1673 6.77151   1
  -2 -11   6 30.3112 5.19644   1
  -1 -11   6 45.6349 5.31266   1
   0  11  -6 274.611 17.2528   2
   0 -11   6 251.738 18.3447   1
  -1  11  -6 143.430 9.25334   2
   1 -11   6 127.090 10.1734   1
  -2  11  -6 10.0531 1.68293   2
   2 -11   6 10.8570 2.48095   1
  -3  11  -6 364.275 22.7885   2
   3 -11   6 335.149 23.3576   1
  -4  11  -6 9.18593 1.79939   2
   4 -11   6 8.16802 2.33556   1
  -5  11  -6 3.25633 1.68657   2
   5 -11   6 3.19063 2.31728   1
  -6  11  -6 1.46853 1.82495   2
   6 -11   6 2.27230 2.35538   1
  -7  11  -6 331.656 21.2927   2
   7 -11   6 305.441 21.7029   1
  -8  11  -6 5.60165 2.51682   2
   8 -11   6 1.82983 2.70102   1
   6  10  -6 -2.6835 1.77453   3
   5  10  -6 66.8868 5.43575   3
  -5 -10   6 83.6442 17.2218   1
   4  10  -6 128.954 9.02608   3
  -4 -10   6 133.436 14.8525   1
   3  10  -6 249.414 16.1589   3
  -3 -10   6 234.498 19.0864   1
   2  10  -6 38.2875 3.18371   3
  -2 -10   6 33.4211 5.29671   1
   1  10  -6 91.4523 6.41447   3
   1  10  -6 96.8986 6.36297   2
  -1 -10   6 85.4827 7.71353   1
   0  10  -6 57.5477 4.14076   2
   0 -10   6 54.9229 5.25100   1
  -1  10  -6 22.1173 2.15969   2
   1 -10   6 20.5583 3.15578   1
  -2  10  -6 17.2006 2.03641   2
   2 -10   6 19.9136 2.87431   1
  -3  10  -6 45.9175 3.64505   2
   3 -10   6 44.1477 4.21720   1
  -4  10  -6 1.75696 1.37148   2
   4 -10   6 4.49369 1.97007   1
  -5  10  -6 8.18989 1.80381   2
   5 -10   6 7.71228 2.23936   1
  -6  10  -6 44.3687 4.00360   2
   6 -10   6 39.8046 4.53194   1
  -7  10  -6 39.1482 3.96635   2
   7 -10   6 38.8964 4.75766   1
  -8  10  -6 17.7269 3.06294   2
   8 -10   6 14.2047 3.31752   1
  -9  10  -6 25.9787 3.93312   2
   9 -10   6 29.7387 4.56124   1
   7   9  -6 105.026 7.82856   3
   6   9  -6 62.0226 5.16099   3
  -6  -9   6 47.1049 14.9962   1
   5   9  -6 41.6281 3.85078   3
  -5  -9   6 55.4790 13.3372   1
   4   9  -6 52.4696 4.24444   3
  -4  -9   6 54.8862 9.29260   1
   3   9  -6 583.703 36.7740   3
  -3  -9   6 558.362 39.1383   1
   2   9  -6 101.942 6.92327   3
  -2  -9   6 97.8881 8.65272   1
   1   9  -6 69.5895 4.75369   2
   1   9  -6 68.8761 4.83054   3
  -1  -9   6 65.1786 6.03002   1
   0   9  -6 94.3369 6.19187   3
   0   9  -6 90.9235 6.17099   2
   0  -9   6 86.3337 7.05265   1
  -1   9  -6 32.2805 2.68580   2
   1  -9   6 35.1046 3.50708   1
  -2   9  -6 16.3013 1.81692   2
   2  -9   6 15.4740 2.40793   1
  -3   9  -6 282.942 18.1770   2
   3  -9   6 275.537 18.5821   1
  -4   9  -6 5.61468 1.42441   2
   4  -9   6 4.33645 1.80795   1
  -5   9  -6 108.224 7.43746   2
   5  -9   6 99.1013 7.77496   1
  -6   9  -6 51.7127 4.54234   2
   6  -9   6 56.7563 5.08046   1
  -7   9  -6 4.79496 2.00446   2
   7  -9   6 2.31121 2.29132   1
  -8   9  -6 600.633 39.1690   2
   8  -9   6 603.002 39.3957   1
  -9   9  -6 30.6449 4.09115   2
   9  -9   6 24.9828 4.21828   1
   8   8  -6 10.3651 2.41212   3
   7   8  -6 -0.0676 1.86430   3
  -7  -8   6 1.57638 8.22054   1
   6   8  -6 3.36111 1.70389   3
  -6  -8   6 -3.3397 8.97194   1
   5   8  -6 14.7483 2.10058   3
  -5  -8   6 15.4096 10.0601   1
   4   8  -6 70.3180 5.21931   3
  -4  -8   6 73.8735 9.61538   1
   3   8  -6 48.2147 3.81416   3
  -3  -8   6 52.0651 6.56623   1
   2   8  -6 78.9629 5.49231   3
  -2  -8   6 77.6813 7.02416   1
   1   8  -6 602.734 37.8767   3
   1   8  -6 595.825 37.7877   2
  -1  -8   6 581.652 38.7133   1
   0   8  -6 158.640 10.1652   3
   0   8  -6 155.219 10.1372   2
   0  -8   6 150.285 10.8580   1
  -1   8  -6 63.7802 4.47340   3
  -1   8  -6 63.1123 4.39836   2
   1  -8   6 61.1992 5.02890   1
  -2   8  -6 603.202 38.6646   2
   2  -8   6 609.530 39.0604   1
  -3   8  -6 127.133 8.44067   2
   3  -8   6 122.829 8.80616   1
  -4   8  -6 2.44647 1.19736   2
   4  -8   6 3.52607 1.54065   1
  -5   8  -6 10.7513 1.83801   2
   5  -8   6 11.3080 2.21723   1
  -6   8  -6 221.508 15.0061   2
   6  -8   6 227.664 15.2932   1
  -7   8  -6 24.8426 3.14414   2
   7  -8   6 24.5058 3.36713   1
  -8   8  -6 145.131 10.6589   2
   8  -8   6 149.731 10.7500   1
  -9   8  -6 0.29575 2.53114   2
   9  -8   6 -0.2141 2.23752   1
   8   7  -6 53.0144 4.63535   3
   7   7  -6 1.31201 1.65203   3
  -7  -7   6 -3.0585 6.07991   1
   6   7  -6 2.82902 1.51868   3
  -6  -7   6 7.23551 7.49931   1
   5   7  -6 161.391 11.1278   3
  -5  -7   6 202.597 19.3906   1
   4   7  -6 127.533 8.83367   3
  -4  -7   6 148.021 13.2444   1
   3   7  -6 142.188 9.53780   3
  -3  -7   6 145.500 11.7004   1
   2   7  -6 27.7242 1.99431   2
   2   7  -6 24.1574 2.19022   3
  -2  -7   6 26.0412 3.77451   1
   1   7  -6 1138.36 74.7305   2
   1   7  -6 1208.16 74.8445   3
  -1  -7   6 1196.81 75.6045   1
   0   7  -6 77.1668 5.20531   3
   0   7  -6 74.5343 5.14177   2
   0  -7   6 79.4290 5.89322   1
  -1   7  -6 90.8501 6.23535   2
  -1   7  -6 95.0733 6.36326   3
   1  -7   6 95.0733 6.76256   1
  -2   7  -6 202.638 14.3108   3
  -2   7  -6 222.337 14.0075   2
   2  -7   6 220.681 14.3514   1
  -3   7  -6 3.18354 0.99087   2
   3  -7   6 3.07842 1.35560   1
  -4   7  -6 3.15211 1.21606   2
   4  -7   6 4.70887 1.46195   1
  -5   7  -6 0.70438 1.23520   2
   5  -7   6 0.24983 1.43934   1
  -6   7  -6 172.195 11.6220   2
   6  -7   6 168.084 11.7143   1
  -7   7  -6 134.744 9.71332   2
   7  -7   6 136.867 9.71404   1
  -8   7  -6 32.5923 3.83259   2
   8  -7   6 31.8820 3.87269   1
  -9   7  -6 148.371 11.0350   2
   9  -7   6 146.924 10.7723   1
 -10   7  -6 348.489 23.6828   2
   8   6  -6 159.845 10.9064   3
  -8  -6   6 148.918 14.7765   1
   7   6  -6 205.176 13.5286   3
  -7  -6   6 187.502 17.5405   1
   6   6  -6 31.0120 3.00317   3
  -6  -6   6 36.4171 8.53042   1
   5   6  -6 9.13570 1.55372   3
  -5  -6   6 17.6068 7.67473   1
   4   6  -6 577.083 36.8323   3
  -4  -6   6 574.379 40.1325   1
   3   6  -6 23.9434 2.20175   3
  -3  -6   6 29.7428 4.65872   1
   2   6  -6 0.59298 0.73376   3
   2   6  -6 1.00133 0.50173   2
  -2  -6   6 0.08409 1.58198   1
   1   6  -6 74.6291 5.16081   2
   1   6  -6 83.4178 5.31680   3
  -1  -6   6 80.5093 5.06274   4
  -1  -6   6 73.6042 5.98815   1
   0   6  -6 14.1265 1.29240   2
   0   6  -6 13.2791 1.38144   3
   0  -6   6 12.9851 2.00655   1
  -1   6  -6 3.80113 1.03703   3
  -1   6  -6 3.54420 0.74230   2
   1  -6   6 5.37473 1.25473   1
  -2   6  -6 215.589 17.1918   3
  -2   6  -6 281.692 16.8714   2
   2  -6   6 281.447 17.1510   1
  -3   6  -6 0.52211 0.82313   2
  -3   6  -6 2.12762 0.59394   3
   3  -6   6 1.26183 1.12106   1
  -4   6  -6 219.426 14.3875   2
   4  -6   6 219.323 14.5304   1
  -5   6  -6 50.3643 4.05346   2
   5  -6   6 53.7661 4.23871   1
  -6   6  -6 11.8330 1.98202   2
   6  -6   6 11.9712 2.09261   1
  -7   6  -6 254.363 17.2536   2
   7  -6   6 261.019 17.2527   1
  -8   6  -6 106.618 8.09589   2
   8  -6   6 105.216 7.93903   1
  -9   6  -6 32.0460 4.33704   2
 -10   6  -6 15.2128 3.53094   2
  10  -6   6 12.0173 2.45194   4
   9   5  -6 17.3747 2.61631   3
   8   5  -6 10.6306 2.01178   3
  -8  -5   6 10.0941 5.23899   1
   7   5  -6 2.36572 1.47075   3
  -7  -5   6 1.39323 4.73077   1
   6   5  -6 3.70570 1.34118   3
  -6  -5   6 7.01365 5.40000   1
   5   5  -6 66.8410 4.85342   3
  -5  -5   6 64.9919 10.8564   1
   4   5  -6 24.0064 2.26370   3
  -4  -5   6 32.0416 6.17334   1
   3   5  -6 59.7387 4.24712   3
  -3  -5   6 64.3641 6.34227   1
   2   5  -6 735.205 47.2488   2
   2   5  -6 749.429 47.4380   3
  -2  -5   6 757.266 48.4130   1
   1   5  -6 2.45108 0.70637   3
   1   5  -6 2.50167 0.51474   2
  -1  -5   6 1.47928 1.16098   1
  -1  -5   6 2.33044 0.42415   4
   0   5  -6 224.735 14.3782   2
   0   5  -6 219.334 14.4759   3
   0  -5   6 230.651 14.8757   1
  -1   5  -6 440.743 28.8840   2
  -1   5  -6 464.149 29.2156   3
   1  -5   6 458.033 29.2030   1
  -2   5  -6 87.3441 5.87602   2
   2  -5   6 87.2417 6.10369   1
  -3   5  -6 17.0732 1.75405   2
  -3   5  -6 18.8601 1.53495   3
   3  -5   6 15.9899 1.95148   1
  -4   5  -6 124.060 8.54384   2
  -4   5  -6 133.107 8.26866   3
   4  -5   6 122.287 8.62863   1
  -5   5  -6 74.9509 5.50982   2
   5  -5   6 75.1072 5.49802   1
  -6   5  -6 209.946 13.9599   2
   6  -5   6 205.895 13.8753   1
  -7   5  -6 172.845 11.7316   2
   7  -5   6 164.477 11.5108   1
  -8   5  -6 81.4781 6.43364   2
   8  -5   6 73.7947 6.01038   1
  -9   5  -6 100.100 8.13071   2
 -10   5  -6 0.27124 2.94398   2
  10  -5   6 -1.0347 1.88037   4
   9   4  -6 110.681 7.85271   3
  -9  -4   6 93.5287 10.6176   1
   8   4  -6 9.67750 1.95660   3
  -8  -4   6 13.8399 5.01065   1
   7   4  -6 50.6972 4.09892   3
  -7  -4   6 45.5605 7.29941   1
   6   4  -6 217.072 14.3465   3
  -6  -4   6 219.288 17.5850   1
   5   4  -6 39.5279 3.17731   3
  -5  -4   6 39.0418 7.32761   1
   4   4  -6 110.908 7.49700   3
  -4  -4   6 112.957 11.1209   1
   3   4  -6 5.54937 0.96480   3
  -3  -4   6 8.20346 2.83235   1
   2   4  -6 2864.29 177.854   2
   2   4  -6 2758.99 177.984   3
  -2  -4   6 2820.93 178.973   1
   1   4  -6 236.687 14.9594   2
   1   4  -6 238.516 15.1163   3
  -1  -4   6 233.646 14.9475   4
  -1  -4   6 229.039 15.6342   1
   0   4  -6 99.9123 6.39566   2
   0   4  -6 96.3077 6.55195   3
   0  -4   6 100.142 6.86232   1
   0  -4   6 96.7431 6.32328   4
  -1   4  -6 608.638 38.3162   3
  -1   4  -6 580.110 37.7560   2
   1  -4   6 597.181 37.9905   1
  -2   4  -6 -1.4854 1.14710   3
  -2   4  -6 0.79765 0.63406   2
   2  -4   6 0.50103 0.79652   1
  -3   4  -6 2.00619 0.83369   2
  -3   4  -6 3.14150 0.66995   3
   3  -4   6 2.36222 0.94241   1
  -4   4  -6 159.484 10.4453   2
  -4   4  -6 155.913 10.1595   3
   4  -4   6 154.936 10.3920   1
  -5   4  -6 158.448 11.1185   2
  -5   4  -6 173.029 10.7702   3
   5  -4   6 162.261 11.0156   1
  -6   4  -6 205.529 13.2660   3
  -6   4  -6 198.648 13.7721   2
   6  -4   6 207.343 13.5734   1
  -7   4  -6 15.2353 2.56417   2
   7  -4   6 13.7299 2.29145   1
  -8   4  -6 133.861 10.0025   2
  -9   4  -6 676.358 45.2507   2
   9  -4   6 708.891 44.4143   4
 -10   4  -6 76.6514 7.51614   2
  10  -4   6 77.9751 6.05966   4
  10   3  -6 32.8719 3.73883   3
   9   3  -6 41.8403 4.01739   3
  -9  -3   6 42.9756 7.27192   1
   8   3  -6 409.409 25.5122   3
  -8  -3   6 360.371 27.8064   1
   7   3  -6 6.66593 1.54351   3
  -7  -3   6 13.8474 4.30390   1
   6   3  -6 27.3196 2.59236   3
  -6  -3   6 29.3643 5.48184   1
   5   3  -6 310.663 19.9331   3
  -5  -3   6 303.324 23.0072   1
   4   3  -6 156.335 10.3742   3
  -4  -3   6 164.403 14.2659   1
   3   3  -6 151.120 10.0584   3
  -3  -3   6 162.686 12.2993   1
   2   3  -6 49.4598 3.37433   3
  -2  -3   6 43.1528 4.47026   1
   1   3  -6 20.3447 1.44235   2
   1   3  -6 19.2113 1.66346   3
  -1  -3   6 18.7477 2.33627   1
   0   3  -6 31.6646 2.20145   2
   0   3  -6 32.2016 2.50084   3
   0  -3   6 29.3788 2.14953   4
   0  -3   6 30.7995 2.64231   1
  -1   3  -6 131.483 8.61197   3
  -1   3  -6 122.521 7.94839   2
   1  -3   6 116.630 7.84609   4
   1  -3   6 121.481 8.13788   1
  -2   3  -6 52.6164 3.78880   2
  -2   3  -6 56.3912 4.22604   3
   2  -3   6 53.9230 3.84392   1
  -3   3  -6 516.078 32.5626   2
  -3   3  -6 501.991 32.4464   3
   3  -3   6 510.035 32.5028   1
  -4   3  -6 2.89959 0.73669   3
  -4   3  -6 -0.3527 0.96107   2
   4  -3   6 1.70954 0.82938   1
  -5   3  -6 36.1512 3.61146   2
  -5   3  -6 41.1631 3.02902   3
   5  -3   6 41.8138 3.21345   1
  -6   3  -6 55.4327 4.06301   3
  -6   3  -6 55.8782 4.76966   2
   6  -3   6 59.0270 4.34365   1
  -7   3  -6 239.673 15.8620   3
  -7   3  -6 251.489 16.5529   2
   7  -3   6 244.623 15.8451   4
   7  -3   6 240.692 16.0477   1
  -8   3  -6 83.2363 7.13154   2
   8  -3   6 86.5030 6.12331   4
  -9   3  -6 117.718 9.93059   2
   9  -3   6 127.827 8.66709   4
  10  -3   6 47.5154 4.12157   4
  10  -3   6 36.1299 5.32489   2
  10   2  -6 4.00301 2.09354   3
 -10  -2   6 2.56822 4.56295   1
   9   2  -6 7.29420 1.94364   3
  -9  -2   6 2.81929 4.26910   1
   8   2  -6 28.2063 3.02383   3
  -8  -2   6 32.8243 5.66318   1
   7   2  -6 124.519 8.71716   3
  -7  -2   6 134.831 11.3064   1
   6   2  -6 5.04055 1.25716   3
  -6  -2   6 1.93086 3.27915   1
   5   2  -6 117.065 7.86554   3
  -5  -2   6 116.453 10.2906   1
   4   2  -6 38.5870 2.88128   3
  -4  -2   6 33.4963 5.86855   1
   3   2  -6 126.755 8.28540   3
  -3  -2   6 123.269 10.6901   1
   2   2  -6 10.8537 1.18379   3
  -2  -2   6 15.3270 2.71475   1
   1   2  -6 117.401 7.97520   3
   1   2  -6 128.319 7.84076   2
  -1  -2   6 114.166 8.54359   1
   0   2  -6 130.616 8.03322   2
   0   2  -6 113.558 8.33483   3
   0  -2   6 122.460 8.34849   1
   0  -2   6 124.444 7.98867   4
  -1   2  -6 36.3240 3.63393   3
  -1   2  -6 42.7506 3.01733   2
   1  -2   6 42.6360 3.10526   1
   1  -2   6 43.6350 2.87155   4
  -2   2  -6 7.86436 1.10614   2
  -2   2  -6 10.5563 1.50422   3
   2  -2   6 5.86662 0.80869   4
   2  -2   6 8.19420 1.05966   1
  -3   2  -6 616.922 39.5361   2
  -3   2  -6 643.050 39.4199   3
   3  -2   6 583.538 39.2813   4
   3  -2   6 632.318 39.3850   1
  -4   2  -6 10.6314 1.29552   3
  -4   2  -6 11.1753 1.69751   2
   4  -2   6 10.8712 1.33045   1
   4  -2   6 9.27117 1.14113   4
  -5   2  -6 970.457 66.6881   2
  -5   2  -6 1065.54 66.3073   3
   5  -2   6 1080.16 66.2487   4
   5  -2   6 1057.52 66.3265   1
  -6   2  -6 222.988 14.7908   3
  -6   2  -6 236.168 15.4484   2
   6  -2   6 228.186 14.8495   1
   6  -2   6 223.941 14.7426   4
  -7   2  -6 269.079 17.1774   3
  -7   2  -6 274.541 17.9820   2
   7  -2   6 248.018 17.0509   4
  -8   2  -6 33.0422 3.09427   3
   8  -2   6 31.2410 3.02022   4
   9  -2   6 18.2053 2.31874   4
   9  -2   6 8.68111 3.53729   2
  10  -2   6 1.73160 3.88283   2
  10  -2   6 4.14139 2.03850   4
  10   1  -6 269.520 17.8151   3
 -10  -1   6 258.685 20.1671   1
   9   1  -6 18.2711 2.64161   3
  -9  -1   6 13.6466 4.49885   1
   8   1  -6 179.006 12.1534   3
  -8  -1   6 184.353 14.5494   1
   7   1  -6 131.587 9.03931   3
  -7  -1   6 133.966 11.2249   1
   6   1  -6 7.66828 1.38782   3
  -6  -1   6 8.82431 3.41083   1
   5   1  -6 45.3483 3.44427   3
  -5  -1   6 48.3992 5.43947   1
   4   1  -6 2.60254 0.79082   3
  -4  -1   6 0.76023 2.25719   1
   3   1  -6 4809.98 309.570   3
  -3  -1   6 4995.40 311.852   1
   2   1  -6 73.3460 5.00692   3
  -2  -1   6 74.9887 6.70319   1
   1   1  -6 1.55561 0.74867   3
  -1  -1   6 1.85500 1.03278   2
  -1  -1   6 10.9276 2.00153   1
   0   1  -6 709.215 46.5469   3
   0  -1   6 737.699 45.9462   2
   0  -1   6 719.270 46.1695   1
  -1   1  -6 25.9881 2.11252   2
  -1   1  -6 14.3597 2.75442   3
   1  -1   6 27.0968 2.04679   1
   1  -1   6 26.7521 1.92458   4
  -2   1  -6 10.2824 1.38812   3
  -2   1  -6 7.53393 1.15579   2
   2  -1   6 7.42051 0.95720   1
   2  -1   6 8.92235 0.99883   4
  -3   1  -6 459.465 31.0425   3
  -3   1  -6 522.049 31.2997   2
   3  -1   6 477.895 30.9401   1
   3  -1   6 491.757 30.9482   4
  -4   1  -6 49.1218 3.65015   3
  -4   1  -6 54.8611 4.15508   2
   4  -1   6 45.5902 3.54093   4
   4  -1   6 53.3294 3.55162   1
  -5   1  -6 29.4418 3.32984   2
  -5   1  -6 32.5382 2.66486   3
   5  -1   6 34.4204 2.58380   1
   5  -1   6 32.5932 2.60737   4
  -6   1  -6 4.90239 2.11436   2
  -6   1  -6 5.46919 1.23678   3
   6  -1   6 4.79596 1.21934   4
  -7   1  -6 98.2278 6.73778   3
   7  -1   6 95.7448 6.59738   4
   7  -1   6 88.3252 7.63564   2
  -8   1  -6 876.110 54.7146   3
   8  -1   6 833.926 55.7249   2
   8  -1   6 855.130 54.5949   4
  -9   1  -6 83.8547 6.18186   3
   9  -1   6 72.0260 7.94323   2
   9  -1   6 81.1882 6.09044   4
  10  -1   6 19.0616 5.20525   2
  10   0  -6 1.12774 1.96855   3
 -10   0   6 0.71239 4.26276   1
   9   0  -6 608.850 39.1716   3
  -9   0   6 606.445 41.3109   1
   8   0  -6 4.59509 1.54065   3
  -8   0   6 0.98538 3.28031   1
   7   0  -6 86.1886 6.21844   3
  -7   0   6 92.2557 8.44431   1
   6   0  -6 186.209 12.2499   3
  -6   0   6 185.480 14.0634   1
   5   0  -6 241.046 16.0233   3
  -5   0   6 259.472 17.6807   1
   4   0  -6 63.6925 4.33112   3
  -4   0   6 60.4971 4.17912   2
  -4   0   6 64.5365 5.90418   1
   3   0  -6 221.579 13.2795   3
  -3   0   6 194.114 13.0155   2
  -3   0   6 197.805 14.5723   1
   2   0  -6 130.639 8.46366   3
  -2   0   6 127.243 9.89723   1
  -2   0   6 125.903 8.19919   2
   1   0  -6 83.9496 6.03330   3
  -1   0   6 86.8760 5.91114   2
  -1   0   6 90.6742 7.19509   1
   0   0  -6 11.5320 1.79515   3
   0   0   6 13.3708 2.01563   1
   0   0   6 15.2050 2.02346   2
  -1   0  -6 120.092 9.84736   3
   1   0   6 150.927 9.65532   2
   1   0   6 150.766 9.38748   1
  -2   0  -6 747.010 45.5742   3
   2   0   6 715.088 45.3329   4
   2   0   6 652.378 45.6188   2
   2   0   6 737.787 45.2800   1
  -3   0  -6 54.8423 3.96237   3
   3   0   6 52.4152 4.42745   2
   3   0   6 58.1300 3.71519   1
   3   0   6 53.8331 3.86377   4
  -4   0  -6 19.2692 1.94612   3
   4   0   6 19.2023 2.76319   2
   4   0   6 19.5522 1.86576   4
   4   0   6 22.0831 1.67064   1
  -5   0  -6 1.74075 0.92794   3
   5   0   6 3.05006 1.00150   4
   5   0   6 4.44938 1.98814   2
  -6   0  -6 105.735 7.06898   3
   6   0   6 100.516 8.08227   2
   6   0   6 98.4326 6.95862   4
  -7   0  -6 79.6545 5.75020   3
   7   0   6 81.7131 7.34710   2
   7   0   6 74.8995 5.64292   4
  -8   0  -6 208.951 13.9273   3
   8   0   6 202.384 15.5412   2
   8   0   6 212.731 13.8925   4
  -9   0  -6 44.1175 4.18658   3
   9   0   6 49.9719 4.37341   4
   9   0   6 50.8408 7.31276   2
  10   0   6 50.8067 7.85890   2
 -10   1   6 49.9670 7.45298   1
   9  -1  -6 96.7201 7.06433   3
  -9   1   6 93.8664 8.99878   1
   8  -1  -6 319.182 20.8102   3
  -8   1   6 318.815 22.7370   1
   7  -1  -6 98.4988 6.76130   3
  -7   1   6 92.2090 8.52055   1
   6  -1  -6 19.1396 1.99303   3
  -6   1   6 18.6424 3.71970   1
   5  -1  -6 14.6823 1.62233   3
  -5   1   6 14.9665 1.59649   2
  -5   1   6 14.6359 2.99449   1
   4  -1  -6 6.50848 1.10292   3
  -4   1   6 6.30910 2.32619   1
  -4   1   6 10.4134 0.99092   2
   3  -1  -6 0.18660 0.69281   3
  -3   1   6 1.48718 0.43367   2
  -3   1   6 2.15337 1.53715   1
   2  -1  -6 2.34647 0.91673   3
  -2   1   6 3.17578 0.59078   2
  -2   1   6 1.44863 1.41653   1
   1  -1  -6 12.1727 1.79712   3
  -1   1   6 9.07566 1.31358   2
  -1   1   6 12.6869 1.96658   1
   0  -1  -6 1.24782 1.66887   3
   0   1   6 3.21062 1.64383   2
   0   1   6 4.58091 1.24640   1
  -1  -1  -6 58.3926 4.65509   3
   1   1   6 59.1040 4.98442   2
   1   1   6 61.3294 4.24634   1
  -2  -1  -6 1077.17 65.9192   3
   2   1   6 991.778 66.3763   2
  -3  -1  -6 49.7914 3.55336   3
   3   1   6 42.7430 4.42476   2
   3   1   6 48.8560 3.56833   4
  -4  -1  -6 1330.25 83.9695   3
   4   1   6 1346.29 83.9050   4
   4   1   6 1290.78 84.6621   2
  -5  -1  -6 179.556 11.8159   3
   5   1   6 179.289 11.7296   4
   5   1   6 175.246 12.9190   2
  -6  -1  -6 216.406 14.3452   3
   6   1   6 219.190 14.2889   4
   6   1   6 218.549 15.7619   2
  -7  -1  -6 7.38058 1.64199   3
   7   1   6 8.90037 3.82604   2
   7   1   6 7.69859 1.76451   4
  -8  -1  -6 35.3635 3.35547   3
   8   1   6 36.0170 3.63997   4
   8   1   6 35.8355 6.08815   2
  -9  -1  -6 7.99262 2.11624   3
   9   1   6 14.4806 5.30314   2
 -10  -1  -6 243.707 16.4929   3
 -10   2   6 22.6830 5.16562   1
  -9   2   6 287.692 20.9014   1
   8  -2  -6 19.4837 2.40118   3
  -8   2   6 22.3708 4.04285   1
   7  -2  -6 1.30987 1.16010   3
  -7   2   6 1.82252 2.68209   1
   6  -2  -6 97.1559 6.48323   3
  -6   2   6 86.6197 8.00331   1
   5  -2  -6 45.9548 3.36146   3
  -5   2   6 39.4759 4.62145   1
  -5   2   6 44.5953 3.24240   2
   4  -2  -6 3739.30 225.342   3
  -4   2   6 3469.67 225.166   2
  -4   2   6 3476.75 226.265   1
   3  -2  -6 10.3298 1.54321   3
  -3   2   6 12.2840 1.18977   2
  -3   2   6 10.5430 2.14308   1
   2  -2  -6 73.5437 5.63872   3
  -2   2   6 78.2569 5.12701   2
  -2   2   6 73.2247 5.79331   1
   1  -2  -6 305.687 17.3111   3
  -1   2   6 245.747 16.9381   2
  -1   2   6 239.643 17.1677   1
   0  -2  -6 34.1494 3.42643   3
   0   2   6 36.0348 3.11164   2
   0   2   6 32.9526 2.69259   1
  -1  -2  -6 7.07704 1.35522   3
   1   2   6 1.70737 1.92128   2
  -2  -2  -6 177.763 11.2904   3
   2   2   6 158.223 12.2164   2
  -3  -2  -6 110.037 7.43628   3
   3   2   6 110.458 8.67266   2
  -4  -2  -6 23.0260 2.20769   3
   4   2   6 24.1746 3.73764   2
  -5  -2  -6 5.92782 1.30077   3
   5   2   6 5.43379 3.08324   2
  -6  -2  -6 4.39585 1.33449   3
   6   2   6 1.60549 1.59846   4
   6   2   6 -1.2757 3.25378   2
  -7  -2  -6 297.492 19.0744   3
   7   2   6 274.549 21.0397   2
  -8  -2  -6 7.62343 1.83318   3
   8   2   6 10.5470 5.19707   2
  -9  -2  -6 58.5427 5.06347   3
   9   2   6 60.7651 9.04828   2
 -10   3   6 464.957 32.3133   1
  -9   3   6 108.979 9.92889   1
  -8   3   6 44.7352 5.88051   1
   7  -3  -6 103.602 7.16928   3
  -7   3   6 103.372 8.91879   1
   6  -3  -6 176.579 11.1411   3
  -6   3   6 161.078 12.3812   1
  -6   3   6 161.962 11.0823   2
   5  -3  -6 13.6128 1.81145   3
  -5   3   6 12.9941 2.72863   1
  -5   3   6 13.0882 1.57214   2
   4  -3  -6 190.725 12.0336   3
  -4   3   6 182.073 11.7834   2
  -4   3   6 165.695 12.7809   1
   3  -3  -6 96.3802 6.95609   3
  -3   3   6 93.5980 7.33199   1
  -3   3   6 98.6010 6.46353   2
   2  -3  -6 363.959 21.4207   3
  -2   3   6 314.267 21.0510   2
  -2   3   6 308.193 21.5665   1
   1  -3  -6 250.606 19.6259   3
  -1   3   6 310.818 19.1621   2
  -1   3   6 315.761 19.2900   1
   0  -3  -6 823.617 52.7829   3
   0   3   6 796.804 52.6568   2
   0   3   6 848.716 52.3845   1
  -1  -3  -6 568.260 36.4985   3
   1   3   6 570.410 36.8816   2
  -2  -3  -6 323.237 20.7379   3
   2   3   6 317.081 21.5813   2
  -3  -3  -6 4.83645 1.11738   3
   3   3   6 1.90986 2.83411   2
  -4  -3  -6 87.3598 6.07675   3
   4   3   6 82.7152 8.02876   2
  -5  -3  -6 22.5532 2.45153   3
   5   3   6 27.1608 4.86296   2
  -6  -3  -6 7.57663 1.57721   3
   6   3   6 13.7027 4.51113   2
  -7  -3  -6 223.694 14.9985   3
   7   3   6 226.240 17.6018   2
  -8  -3  -6 44.1692 4.16613   3
   8   3   6 54.3761 7.88740   2
  -9  -3  -6 35.1119 3.84904   3
   9   3   6 34.6592 7.20742   2
 -10   4   6 207.030 16.1264   1
  -9   4   6 165.045 13.3729   1
  -8   4   6 61.5340 6.60532   1
  -7   4   6 0.89332 2.38367   1
   6  -4  -6 41.0452 3.38521   3
  -6   4   6 31.5528 4.37436   1
  -6   4   6 35.5798 3.06115   2
   5  -4  -6 239.751 14.9014   3
  -5   4   6 227.281 14.6563   2
  -5   4   6 198.723 15.6587   1
   4  -4  -6 16.3750 2.40123   3
  -4   4   6 17.1190 1.73283   2
  -4   4   6 12.7752 2.51590   1
   3  -4  -6 51.7852 4.11364   3
  -3   4   6 50.7376 3.63366   2
  -3   4   6 46.8069 4.37506   1
   2  -4  -6 335.730 20.8655   3
  -2   4   6 308.802 20.2019   2
  -2   4   6 298.554 20.5633   1
   1  -4  -6 101.028 7.92772   3
  -1   4   6 115.121 7.55821   2
   0  -4  -6 15.4974 1.90101   1
   0  -4  -6 20.1334 2.17376   3
   0   4   6 12.9499 2.06312   2
  -1  -4  -6 699.752 43.6163   3
   1   4   6 664.049 43.9263   2
  -2  -4  -6 29.7194 2.58190   3
   2   4   6 31.0277 3.55399   2
  -3  -4  -6 825.276 56.9100   3
   3   4   6 983.463 58.1148   2
  -4  -4  -6 257.602 17.4013   3
   4   4   6 284.946 18.9662   2
  -5  -4  -6 130.377 9.10894   3
   5   4   6 141.845 10.8715   2
  -6  -4  -6 21.2480 2.55411   3
   6   4   6 23.4922 4.55265   2
  -7  -4  -6 100.784 7.54826   3
   7   4   6 115.882 9.94501   2
  -8  -4  -6 36.1796 3.75605   3
   8   4   6 49.7069 7.23711   2
  -9  -4  -6 224.830 15.3665   3
  -9   5   6 5.96735 3.48873   1
  -8   5   6 5.20353 2.86586   1
  -7   5   6 13.9770 3.50014   1
  -7   5   6 20.3560 2.81060   2
  -6   5   6 68.4482 5.17849   2
  -6   5   6 69.8060 6.50993   1
   5  -5  -6 1008.66 62.9660   3
  -5   5   6 985.317 62.4585   2
  -5   5   6 946.916 63.3741   1
   4  -5  -6 110.524 7.17695   3
  -4   5   6 91.8955 7.66545   1
  -4   5   6 97.0360 6.85099   2
   3  -5  -6 177.590 11.0483   3
  -3   5   6 152.980 10.4305   2
  -3   5   6 145.398 10.9659   1
   2  -5  -6 18.4294 2.81807   3
   2  -5  -6 25.0550 3.12791   1
  -2   5   6 31.1612 2.46293   2
   1  -5  -6 50.9258 4.27819   1
   1  -5  -6 56.0688 4.22179   3
  -1   5   6 43.6302 3.91645   2
   0  -5  -6 2.54749 1.31305   1
   0  -5  -6 4.05251 1.18240   3
   0   5   6 3.13199 1.37942   2
  -1  -5  -6 27.5640 2.50173   1
  -1  -5  -6 24.2278 2.35424   3
   1   5   6 22.4834 2.89217   2
  -2  -5  -6 171.104 11.2559   3
   2   5   6 165.541 11.8038   2
  -3  -5  -6 1.57402 1.10043   3
   3   5   6 3.97899 2.34675   2
  -4  -5  -6 49.1257 4.01408   3
   4   5   6 55.6729 5.37975   2
  -5  -5  -6 15.3422 2.12141   3
   5   5   6 19.8337 3.99986   2
  -6  -5  -6 26.8996 3.03626   3
   6   5   6 38.6600 5.37118   2
  -7  -5  -6 13.9886 2.36752   3
   7   5   6 19.4665 5.04454   2
  -8  -5  -6 103.683 8.25697   3
   8   5   6 142.857 11.1867   2
  10  -6  -6 90.3234 8.95181   1
   9  -6  -6 32.7650 5.51848   1
  -7   6   6 84.5159 6.48170   2
  -7   6   6 81.4312 7.63397   1
  -6   6   6 90.5280 8.45626   1
  -6   6   6 114.238 7.54695   2
  -5   6   6 322.149 21.0370   2
   4  -6  -6 42.6380 4.17958   3
   4  -6  -6 35.7935 4.46498   1
  -4   6   6 38.7899 3.22170   2
   3  -6  -6 113.883 8.51661   1
   3  -6  -6 95.0608 7.96630   3
  -3   6   6 121.911 7.69237   2
   2  -6  -6 298.375 19.9924   3
   2  -6  -6 300.014 20.3722   1
  -2   6   6 310.998 19.8569   2
   1  -6  -6 552.411 35.3775   3
   1  -6  -6 557.485 35.7246   1
  -1   6   6 539.885 35.4661   2
   0  -6  -6 41.1294 3.56435   3
   0  -6  -6 50.6274 4.14874   1
   0   6   6 44.2313 3.92964   2
  -1  -6  -6 175.921 11.1155   3
   1   6   6 153.558 11.5232   2
  -2  -6  -6 5.53671 1.34048   3
   2   6   6 4.94648 2.06039   2
  -3  -6  -6 92.5017 6.81197   3
   3   6   6 104.961 7.83954   2
  -4  -6  -6 -0.1302 1.16863   3
   4   6   6 -1.7868 2.21805   2
  -5  -6  -6 86.3176 6.56533   3
   5   6   6 96.7336 7.81551   2
  -6  -6  -6 114.592 8.71849   3
   6   6   6 144.567 10.4918   2
  -7  -6  -6 24.8161 3.12623   3
   7   6   6 28.6159 4.91779   2
  -8  -6  -6 61.8514 5.63672   3
   8   6   6 79.4739 8.23880   2
  10  -7  -6 24.1523 4.93954   1
   9  -7  -6 12.6836 4.04579   1
   8  -7  -6 15.7074 4.09703   1
   7  -7  -6 98.3567 9.45405   1
  -7   7   6 115.766 8.20976   2
   6  -7  -6 164.616 13.7199   1
  -6   7   6 193.964 12.4880   2
   5  -7  -6 4.29601 2.69688   1
  -5   7   6 0.44827 1.40669   2
   4  -7  -6 146.731 11.1765   1
  -4   7   6 145.572 9.94430   2
   3  -7  -6 413.067 28.6916   1
   3  -7  -6 422.273 27.9818   3
  -3   7   6 458.044 27.9958   2
   2  -7  -6 267.744 19.4450   1
   2  -7  -6 285.609 18.7207   3
  -2   7   6 304.126 18.9397   2
   1  -7  -6 10.4542 1.65317   3
   1  -7  -6 11.8722 2.55957   1
  -1   7   6 12.1416 2.06804   2
   0  -7  -6 523.809 33.8073   1
   0  -7  -6 518.308 33.2498   3
   0   7   6 510.678 33.6767   2
  -1  -7  -6 10.3386 1.56846   3
   1   7   6 6.01648 2.05445   2
  -2  -7  -6 376.263 23.8396   3
   2   7   6 356.231 24.3546   2
  -3  -7  -6 223.620 15.1281   3
   3   7   6 234.968 15.8769   2
  -4  -7  -6 18.3602 2.43878   3
   4   7   6 19.2992 3.38430   2
  -5  -7  -6 3.28716 1.58665   3
   5   7   6 1.54463 3.06982   2
  -6  -7  -6 120.728 9.18163   3
   6   7   6 149.492 10.8970   2
  -7  -7  -6 66.5714 5.78520   3
   7   7   6 91.0327 8.06632   2
   9  -8  -6 5.81893 3.75103   1
   8  -8  -6 9.59708 3.91561   1
  -8   8   6 17.7056 3.40404   2
   7  -8  -6 81.5944 8.38634   1
  -7   8   6 95.0092 7.19907   2
   6  -8  -6 239.170 19.1002   1
  -6   8   6 290.897 18.0508   2
   5  -8  -6 157.084 12.4026   1
  -5   8   6 164.643 11.1702   2
   4  -8  -6 236.947 17.7031   1
  -4   8   6 260.228 16.6423   2
   3  -8  -6 59.3046 6.24659   1
  -3   8   6 64.4601 5.04057   2
   2  -8  -6 4.02440 1.34073   3
   2  -8  -6 4.25561 2.60156   1
  -2   8   6 4.92108 1.72535   2
   1  -8  -6 5.62298 2.59899   1
   1  -8  -6 3.71561 1.31462   3
  -1   8   6 8.07646 1.88372   2
   0  -8  -6 68.1381 5.11327   3
   0   8   6 70.8356 5.73074   2
  -1  -8  -6 206.661 13.3876   3
   1   8   6 193.603 13.9516   2
  -2  -8  -6 25.5840 2.75883   3
   2   8   6 24.9287 3.53182   2
  -3  -8  -6 50.0422 4.31181   3
   3   8   6 58.7389 5.37743   2
  -4  -8  -6 14.6290 2.16187   3
   4   8   6 10.4881 3.04595   2
  -5  -8  -6 13.0311 2.29924   3
   5   8   6 13.7532 3.61326   2
  -6  -8  -6 44.0121 4.34587   3
   6   8   6 60.3466 6.30599   2
  -7  -8  -6 100.271 7.85186   3
   7   8   6 108.093 9.46307   2
   9  -9  -6 14.8404 4.51408   1
   8  -9  -6 18.9043 4.58284   1
  -8   9   6 26.7537 4.09014   2
   7  -9  -6 370.674 27.9306   1
  -7   9   6 432.853 26.8961   2
   6  -9  -6 300.054 22.3734   1
  -6   9   6 329.267 21.1208   2
   5  -9  -6 19.9891 4.16585   1
  -5   9   6 23.6993 3.08216   2
   4  -9  -6 3.91267 3.22697   1
  -4   9   6 6.46138 1.92769   2
   3  -9  -6 66.0472 7.44026   1
  -3   9   6 83.8391 6.12211   2
   2  -9  -6 161.339 12.9348   1
  -2   9   6 176.880 11.8975   2
   1  -9  -6 3.77798 3.15383   1
  -1   9   6 7.42010 2.22088   2
   0  -9  -6 72.0078 5.35079   3
   0   9   6 71.6416 5.93049   2
  -1  -9  -6 10.0083 1.90112   3
   1   9   6 10.5498 2.72625   2
  -2  -9  -6 95.1041 6.87978   3
   2   9   6 93.5994 7.63852   2
  -3  -9  -6 20.3742 2.76175   3
   3   9   6 15.3431 3.26145   2
  -4  -9  -6 215.452 14.6396   3
   4   9   6 216.454 15.3608   2
  -5  -9  -6 25.2370 3.27991   3
   5   9   6 21.9178 3.76385   2
  -6  -9  -6 0.94845 1.97230   3
   6   9   6 0.48813 3.01474   2
   8 -10  -6 80.2626 9.38350   1
  -8  10   6 109.620 8.56854   2
   7 -10  -6 79.8490 8.91173   1
  -7  10   6 93.5409 7.47450   2
   6 -10  -6 0.87637 3.38968   1
  -6  10   6 3.50246 2.20890   2
   5 -10  -6 131.044 11.3252   1
  -5  10   6 135.154 9.73159   2
   4 -10  -6 148.500 12.7013   1
  -4  10   6 167.170 11.2977   2
   3 -10  -6 125.570 11.2837   1
  -3  10   6 141.974 9.85321   2
   2 -10  -6 16.9325 4.63661   1
  -2  10   6 18.3222 2.77167   2
  -1  10   6 271.684 18.4622   2
   0  10   6 2.13115 2.12558   2
  -1 -10  -6 50.8706 4.18987   3
   1  10   6 46.8893 5.08004   2
  -2 -10  -6 55.3774 4.53850   3
   2  10   6 45.7680 5.31358   2
  -3 -10  -6 2.56676 1.86526   3
   3  10   6 -0.1615 2.57842   2
  -4 -10  -6 6.48670 2.19652   3
   4  10   6 5.13112 3.04431   2
  -5 -10  -6 91.0702 7.23984   3
   5  10   6 96.1329 8.47512   2
   8 -11  -6 28.8553 6.10428   1
  -8  11   6 36.7525 5.06529   2
   7 -11  -6 5.40553 4.44256   1
  -7  11   6 12.3770 3.28877   2
   6 -11  -6 102.642 10.3058   1
  -6  11   6 112.510 8.52684   2
   5 -11  -6 97.8563 10.6124   1
  -5  11   6 135.843 9.24358   2
   4 -11  -6 70.6746 8.52816   1
  -4  11   6 86.5086 6.69569   2
   3 -11  -6 13.6717 4.84595   1
  -3  11   6 19.6038 3.00200   2
  -2  11   6 6.67635 2.39138   2
  -1  11   6 241.747 16.7287   2
   0  11   6 250.049 17.3559   2
   1  11   6 27.9690 4.16855   2
  -2 -11  -6 56.6210 4.75870   3
   2  11   6 45.5613 5.39816   2
  -3 -11  -6 -0.6102 1.98796   3
   3  11   6 2.59773 2.91723   2
  -4 -11  -6 42.0929 4.21588   3
   4  11   6 31.4497 5.06747   2
   7 -12  -6 145.954 13.5322   1
  -7  12   6 164.824 11.9893   2
   6 -12  -6 -6.0510 4.07636   1
  -6  12   6 0.27559 2.54148   2
   5 -12  -6 2.17650 4.64273   1
  -5  12   6 4.27585 2.65444   2
   4 -12  -6 4.71268 4.63759   1
  -4  12   6 2.05470 2.32898   2
   3 -12  -6 54.2794 8.81930   1
  -3  12   6 70.5786 6.04908   2
  -2  12   6 84.4223 7.22811   2
  -1  12   6 19.0829 3.32350   2
   0  12   6 10.6307 3.21476   2
   1  12   6 34.5763 4.73598   2
   2  12   6 0.28340 2.68589   2
   3  12   6 147.235 11.3855   2
   5 -13  -6 -0.3496 4.96498   1
  -5  13   6 10.5087 3.19201   2
   4 -13  -6 14.8997 6.43599   1
  -4  13   6 16.4915 3.32953   2
  -3  13   6 17.3444 3.54561   2
  -2  13   6 26.4553 4.03420   2
  -1  13   6 3.43139 2.80739   2
   0  13   6 0.09524 2.77762   2
   1  13   6 36.7580 5.15761   2
   2  13   6 5.99265 3.32434   2
  -2  14   6 290.421 20.1950   2
  -2 -14   7 6.34384 5.58818   1
  -1 -14   7 20.2118 5.62157   1
   0 -14   7 10.2551 4.31712   1
   1 -14   7 32.5195 5.40687   1
  -2  14  -7 1.45193 1.76617   2
   2 -14   7 -2.4307 2.83374   1
  -3  14  -7 33.6962 3.49665   2
   3 -14   7 30.5193 4.95533   1
  -4  14  -7 318.966 19.6358   2
   4 -14   7 265.255 20.3989   1
  -5  14  -7 3.77255 2.09192   2
   5 -14   7 1.98483 2.87137   1
  -3 -13   7 6.24035 6.81550   1
  -2 -13   7 56.3161 9.12969   1
  -1 -13   7 43.3019 6.66511   1
   0 -13   7 228.873 16.9854   1
  -1  13  -7 53.4183 4.25824   2
   1 -13   7 43.9307 5.66465   1
  -2  13  -7 462.089 28.2169   2
   2 -13   7 401.724 29.1970   1
  -3  13  -7 7.61513 1.98538   2
   3 -13   7 9.06268 3.05827   1
  -4  13  -7 36.2084 3.57434   2
   4 -13   7 29.8119 4.32688   1
  -5  13  -7 2.65485 1.94293   2
   5 -13   7 1.87890 2.50336   1
  -6  13  -7 61.8744 5.33914   2
   6 -13   7 60.8342 6.19950   1
  -4 -12   7 172.026 19.2021   1
  -3 -12   7 6.32851 5.88273   1
  -2 -12   7 94.7432 9.63548   1
  -1 -12   7 77.3006 7.83718   1
   0 -12   7 52.8001 5.77680   1
  -1  12  -7 288.211 17.4843   2
   1 -12   7 237.920 18.4086   1
  -2  12  -7 92.5222 6.42866   2
   2 -12   7 83.2546 7.37103   1
  -3  12  -7 158.268 10.3889   2
   3 -12   7 143.670 11.0999   1
  -4  12  -7 7.15695 1.89502   2
   4 -12   7 3.95027 2.36405   1
  -5  12  -7 99.7217 7.29396   2
   5 -12   7 94.6052 7.95492   1
  -6  12  -7 98.9611 7.24992   2
   6 -12   7 88.4509 7.86587   1
  -7  12  -7 10.7685 2.51736   2
   7 -12   7 8.06867 3.12070   1
   5  11  -7 4.70632 2.17335   3
  -5 -11   7 6.87935 12.3422   1
   4  11  -7 -1.5993 1.68016   3
  -4 -11   7 1.02696 6.70621   1
   3  11  -7 2.91582 1.66978   3
  -3 -11   7 0.02870 4.44119   1
  -2 -11   7 43.4148 6.21922   1
  -1 -11   7 2.49086 2.57881   1
   0  11  -7 76.5415 5.36438   2
   0 -11   7 71.8550 6.66632   1
  -1  11  -7 70.2838 4.95030   2
   1 -11   7 61.8190 5.86071   1
  -2  11  -7 140.358 9.00114   2
   2 -11   7 120.269 9.73269   1
  -3  11  -7 389.963 23.8930   2
   3 -11   7 343.801 24.4057   1
  -4  11  -7 8.05373 1.78562   2
   4 -11   7 8.66740 2.34031   1
  -5  11  -7 259.696 16.5100   2
   5 -11   7 233.282 16.9372   1
  -6  11  -7 1.98635 1.89548   2
   6 -11   7 1.90063 2.49247   1
  -7  11  -7 82.2213 6.48437   2
   7 -11   7 77.3857 6.99426   1
  -8  11  -7 10.3077 2.71974   2
   8 -11   7 4.89084 2.78037   1
   6  10  -7 471.583 29.5491   3
  -6 -10   7 362.079 40.7685   1
   5  10  -7 128.779 9.07134   3
  -5 -10   7 113.537 18.2111   1
   4  10  -7 26.5045 3.01481   3
  -4 -10   7 35.8280 8.05070   1
   3  10  -7 62.9872 4.85677   3
  -3 -10   7 62.8013 8.16789   1
   2  10  -7 122.073 8.15646   3
  -2 -10   7 110.791 9.91039   1
   1  10  -7 340.562 21.1073   3
  -1 -10   7 306.223 22.2330   1
   0  10  -7 66.5049 4.71606   2
   0 -10   7 65.9481 5.87064   1
  -1  10  -7 447.723 28.6321   2
   1 -10   7 444.671 29.4303   1
  -2  10  -7 148.136 9.40033   2
   2 -10   7 128.530 9.96733   1
  -3  10  -7 104.685 7.22568   2
   3 -10   7 102.345 7.78968   1
  -4  10  -7 49.5494 4.08004   2
   4 -10   7 51.9017 4.69754   1
  -5  10  -7 52.2488 4.21050   2
   5 -10   7 45.1586 4.68881   1
  -6  10  -7 62.3115 5.25708   2
   6 -10   7 64.7793 5.81335   1
  -7  10  -7 2.54218 2.06633   2
   7 -10   7 1.63551 2.38333   1
  -8  10  -7 3.22004 2.44125   2
   8 -10   7 1.66491 2.51864   1
   7   9  -7 209.157 14.3192   3
   6   9  -7 12.1738 2.35197   3
  -6  -9   7 20.6341 14.1140   1
   5   9  -7 306.299 20.0767   3
  -5  -9   7 301.780 27.1370   1
   4   9  -7 37.5077 3.40116   3
  -4  -9   7 42.4951 7.71890   1
   3   9  -7 231.101 15.1786   3
  -3  -9   7 229.475 17.6164   1
   2   9  -7 184.044 11.8089   3
  -2  -9   7 167.355 13.2633   1
   1   9  -7 139.995 9.19787   2
   1   9  -7 143.627 9.31933   3
  -1  -9   7 133.596 10.3263   1
   0   9  -7 72.0007 5.11020   3
   0   9  -7 73.9564 5.05663   2
   0  -9   7 73.0859 6.04597   1
  -1   9  -7 66.3152 4.71666   2
   1  -9   7 67.9991 5.60364   1
  -2   9  -7 266.977 17.0792   2
   2  -9   7 258.461 17.6261   1
  -3   9  -7 14.4237 1.94401   2
   3  -9   7 15.7284 2.51510   1
  -4   9  -7 115.553 7.77764   2
   4  -9   7 106.920 8.15413   1
  -5   9  -7 429.965 27.3914   2
   5  -9   7 414.258 27.6699   1
  -6   9  -7 28.2528 3.17028   2
   6  -9   7 28.2504 3.58543   1
  -7   9  -7 45.7208 4.31654   2
   7  -9   7 44.4577 4.65733   1
  -8   9  -7 138.416 10.1832   2
   8  -9   7 136.904 10.3930   1
  -9   9  -7 18.1722 3.43984   2
   9  -9   7 21.5170 3.61861   1
   7   8  -7 203.762 13.8802   3
  -7  -8   7 205.108 21.3176   1
   6   8  -7 4.30690 1.78639   3
  -6  -8   7 16.0313 11.3632   1
   5   8  -7 48.4784 4.07342   3
  -5  -8   7 52.6902 11.0182   1
   4   8  -7 4.47448 1.37947   3
  -4  -8   7 3.28196 4.71634   1
   3   8  -7 35.6593 3.04388   3
  -3  -8   7 36.3982 5.61789   1
   2   8  -7 34.4622 2.90861   3
  -2  -8   7 37.8331 4.38534   1
   1   8  -7 127.741 8.46574   2
   1   8  -7 127.081 8.59335   3
  -1  -8   7 136.592 9.62607   1
   0   8  -7 101.262 6.88177   3
   0   8  -7 102.350 6.80686   2
   0  -8   7 103.832 7.70992   1
  -1   8  -7 348.427 23.0547   2
  -1   8  -7 365.723 23.2495   3
   1  -8   7 366.934 23.6797   1
  -2   8  -7 136.381 9.51638   2
   2  -8   7 153.271 10.0439   1
  -3   8  -7 72.6611 5.15009   2
   3  -8   7 71.4770 5.51738   1
  -4   8  -7 738.446 47.5561   2
   4  -8   7 750.771 47.8855   1
  -5   8  -7 2.85444 1.48058   2
   5  -8   7 2.73050 1.66181   1
  -6   8  -7 108.344 7.81796   2
   6  -8   7 107.744 8.05633   1
  -7   8  -7 37.6546 3.86747   2
   7  -8   7 34.8695 4.08793   1
  -8   8  -7 38.1138 4.17238   2
   8  -8   7 32.2899 4.29678   1
  -9   8  -7 2.69322 2.67826   2
   9  -8   7 3.82889 2.63349   1
   8   7  -7 119.695 8.43855   3
  -8  -7   7 96.3321 13.2009   1
   7   7  -7 487.090 30.8214   3
  -7  -7   7 444.934 35.5830   1
   6   7  -7 136.833 9.41268   3
  -6  -7   7 126.073 17.0575   1
   5   7  -7 36.0160 3.27099   3
  -5  -7   7 47.5885 9.54998   1
   4   7  -7 7.51522 1.44261   3
  -4  -7   7 9.21007 5.07158   1
   3   7  -7 273.475 17.7266   3
  -3  -7   7 272.805 19.6270   1
   2   7  -7 305.465 19.6409   3
  -2  -7   7 303.212 20.8169   1
   1   7  -7 128.634 8.20513   2
   1   7  -7 125.621 8.34390   3
  -1  -7   7 120.556 9.19903   1
   0   7  -7 374.170 22.7392   2
   0   7  -7 367.393 22.8356   3
   0  -7   7 319.775 23.3321   1
  -1   7  -7 1229.44 77.0876   3
  -1   7  -7 1201.02 76.8518   2
   1  -7   7 1207.47 77.3241   1
  -2   7  -7 40.1556 2.73934   2
  -2   7  -7 33.5296 3.20720   3
   2  -7   7 26.1150 3.03295   1
  -3   7  -7 304.335 19.6109   2
   3  -7   7 301.760 19.8834   1
  -4   7  -7 2.62122 1.18961   2
   4  -7   7 0.22699 1.29646   1
  -5   7  -7 34.8000 3.08735   2
   5  -7   7 31.3937 3.29652   1
  -6   7  -7 23.5501 2.87361   2
   6  -7   7 25.8127 3.14046   1
  -7   7  -7 69.9373 5.35513   2
   7  -7   7 56.8655 5.29111   1
  -8   7  -7 163.113 11.6751   2
   8  -7   7 160.871 11.5044   1
  -9   7  -7 1.04008 2.53020   2
   8   6  -7 129.711 9.27522   3
  -8  -6   7 133.908 14.1501   1
   7   6  -7 144.981 9.95583   3
  -7  -6   7 138.559 14.4368   1
   6   6  -7 309.997 20.4433   3
  -6  -6   7 322.899 26.6211   1
   5   6  -7 101.626 7.23146   3
  -5  -6   7 118.944 13.2238   1
   4   6  -7 286.190 18.5524   3
  -4  -6   7 284.742 21.7186   1
   3   6  -7 98.1012 6.62119   3
  -3  -6   7 93.2794 8.47878   1
   2   6  -7 232.172 15.0789   3
   2   6  -7 239.889 14.8641   2
  -2  -6   7 219.818 16.2169   1
   1   6  -7 4.63544 0.91028   3
   1   6  -7 4.29341 0.71766   2
  -1  -6   7 6.49306 0.65369   4
  -1  -6   7 4.52786 1.72328   1
   0   6  -7 6.65924 1.07117   3
   0   6  -7 7.26057 0.96848   2
   0  -6   7 6.27081 1.57663   1
  -1   6  -7 672.401 43.1633   2
  -1   6  -7 685.991 43.5078   3
   1  -6   7 679.669 43.5667   1
  -2   6  -7 -0.4812 1.39598   3
  -2   6  -7 3.09973 0.86393   2
   2  -6   7 1.88901 1.16926   1
  -3   6  -7 69.1672 4.86140   2
  -3   6  -7 67.6365 4.72370   3
   3  -6   7 68.5205 5.13670   1
  -4   6  -7 752.221 48.4091   2
   4  -6   7 764.847 48.5363   1
  -5   6  -7 54.1543 4.37349   2
   5  -6   7 55.9448 4.42476   1
  -6   6  -7 78.1105 6.01438   2
   6  -6   7 79.4981 6.02394   1
  -7   6  -7 77.8583 6.22416   2
   7  -6   7 79.7671 6.14454   1
  -8   6  -7 10.2065 2.56373   2
   8  -6   7 10.0117 2.31676   1
  -9   6  -7 188.397 13.5439   2
 -10   6  -7 44.4111 5.27869   2
  10  -6   7 35.2081 3.92272   4
   9   5  -7 28.7124 3.31854   3
  -9  -5   7 24.4354 6.89108   1
   8   5  -7 460.457 28.4388   3
  -8  -5   7 392.966 31.2569   1
   7   5  -7 6.39646 1.65652   3
  -7  -5   7 5.95749 5.23782   1
   6   5  -7 63.6175 4.87696   3
  -6  -5   7 72.4662 10.2724   1
   5   5  -7 16.3580 2.01821   3
  -5  -5   7 20.7966 7.51090   1
   4   5  -7 3.16202 1.07621   3
  -4  -5   7 0.97155 4.01547   1
   3   5  -7 7.72152 1.14197   3
  -3  -5   7 3.37285 2.67725   1
   2   5  -7 423.671 26.0450   2
   2   5  -7 401.018 26.2623   3
  -2  -5   7 403.684 27.2407   1
   1   5  -7 165.862 10.2888   2
   1   5  -7 155.344 10.4559   3
  -1  -5   7 153.348 11.1044   1
  -1  -5   7 162.235 10.2512   4
   0   5  -7 235.947 14.9846   2
   0   5  -7 234.341 15.1756   3
   0  -5   7 234.866 15.5368   1
   0  -5   7 230.131 14.8949   4
  -1   5  -7 36.3455 3.22040   3
  -1   5  -7 31.1317 2.45174   2
   1  -5   7 34.7017 2.98469   1
  -2   5  -7 88.2185 6.03968   2
   2  -5   7 90.9368 6.30344   1
  -3   5  -7 1352.06 85.7739   3
  -3   5  -7 1311.73 85.7859   2
   3  -5   7 1395.06 85.9479   1
  -4   5  -7 7.82600 1.09964   3
  -4   5  -7 6.83891 1.38243   2
   4  -5   7 8.68452 1.46831   1
  -5   5  -7 115.623 7.97342   2
   5  -5   7 112.617 7.91241   1
  -6   5  -7 146.164 10.3133   2
   6  -5   7 151.333 10.1927   1
  -7   5  -7 4.74497 2.24643   2
   7  -5   7 5.85416 1.75211   1
  -8   5  -7 42.8203 4.51345   2
  -9   5  -7 25.9202 3.91004   2
   9  -5   7 19.3722 2.59144   4
 -10   5  -7 15.7578 3.70736   2
  10  -5   7 11.3435 2.45798   4
   9   4  -7 152.936 10.4294   3
  -9  -4   7 134.013 13.5352   1
   8   4  -7 301.087 19.5945   3
  -8  -4   7 287.086 22.5456   1
   7   4  -7 228.359 15.1079   3
  -7  -4   7 225.876 18.1133   1
   6   4  -7 55.3485 4.34851   3
  -6  -4   7 66.2972 8.70845   1
   5   4  -7 44.3161 3.52089   3
  -5  -4   7 49.0533 8.37270   1
   4   4  -7 359.372 23.3513   3
  -4  -4   7 371.380 26.4875   1
   3   4  -7 318.020 20.1581   3
  -3  -4   7 304.402 22.0821   1
   2   4  -7 18.8474 1.72189   3
  -2  -4   7 16.5649 2.85440   1
   1   4  -7 276.080 18.0084   3
   1   4  -7 279.666 17.8114   2
  -1  -4   7 284.588 18.6229   1
   0   4  -7 3818.41 239.846   2
   0   4  -7 3842.24 240.087   3
   0  -4   7 3738.45 239.775   4
   0  -4   7 3784.81 240.287   1
  -1   4  -7 50.5048 3.51847   2
  -1   4  -7 54.3430 4.56373   3
   1  -4   7 50.9160 3.91104   1
   1  -4   7 49.9538 3.41527   4
  -2   4  -7 553.302 40.4344   3
  -2   4  -7 656.362 39.8425   2
   2  -4   7 656.102 39.9680   1
  -3   4  -7 69.2921 5.27929   2
  -3   4  -7 81.3975 5.30010   3
   3  -4   7 76.4078 5.35827   1
  -4   4  -7 124.613 8.50464   2
  -4   4  -7 125.456 8.25797   3
   4  -4   7 125.827 8.44859   1
  -5   4  -7 4.82950 0.98415   3
  -5   4  -7 6.96356 1.61973   2
   5  -4   7 4.76916 1.27380   1
  -6   4  -7 327.457 21.6313   2
  -6   4  -7 329.979 21.1429   3
   6  -4   7 328.375 21.3727   1
  -7   4  -7 93.8693 7.60205   2
   7  -4   7 103.273 7.24483   1
   7  -4   7 104.094 7.02531   4
  -8   4  -7 9.59232 2.81507   2
   8  -4   7 11.4573 1.90192   4
  -9   4  -7 17.6524 3.54821   2
   9  -4   7 9.98011 2.19770   4
  10  -4   7 34.1560 3.70435   4
   9   3  -7 53.4489 4.69952   3
  -9  -3   7 51.9991 8.24576   1
   8   3  -7 227.022 15.2085   3
  -8  -3   7 228.950 18.0708   1
   7   3  -7 108.181 7.68061   3
  -7  -3   7 112.452 10.7548   1
   6   3  -7 413.115 27.7622   3
  -6  -3   7 466.431 30.7661   1
   5   3  -7 234.676 15.8577   3
  -5  -3   7 272.206 19.7557   1
   4   3  -7 11.0433 1.46004   3
  -4  -3   7 8.83700 4.07459   1
   3   3  -7 305.678 19.4272   3
  -3  -3   7 294.528 21.4147   1
   2   3  -7 54.9316 3.87158   3
  -2  -3   7 53.2400 5.09513   1
   1   3  -7 7.56300 0.85107   2
   1   3  -7 5.71283 0.98117   3
  -1  -3   7 5.55196 1.57282   1
   0   3  -7 192.690 12.6729   3
   0   3  -7 184.812 12.3153   2
   0  -3   7 191.512 12.7664   1
   0  -3   7 198.736 12.3050   4
  -1   3  -7 0.53717 0.60611   2
  -1   3  -7 1.37012 1.22732   3
   1  -3   7 2.20209 0.55205   4
   1  -3   7 1.45070 0.84872   1
  -2   3  -7 8.14334 1.79444   3
  -2   3  -7 7.29261 1.02716   2
   2  -3   7 6.92309 1.08511   1
   2  -3   7 6.73975 0.82007   4
  -3   3  -7 838.681 52.7261   3
  -3   3  -7 838.113 52.7664   2
   3  -3   7 789.058 52.5122   4
   3  -3   7 847.819 52.6881   1
  -4   3  -7 10.5021 1.30354   3
  -4   3  -7 10.7483 1.60803   2
   4  -3   7 9.39665 1.43004   1
   4  -3   7 9.65841 1.21158   4
  -5   3  -7 319.284 19.9608   3
  -5   3  -7 305.800 20.3452   2
   5  -3   7 301.941 19.8958   4
   5  -3   7 310.438 20.0136   1
  -6   3  -7 2.40302 1.05773   3
  -6   3  -7 1.40447 1.85796   2
   6  -3   7 1.46429 1.10712   4
   6  -3   7 2.32157 1.14415   1
  -7   3  -7 12.9384 2.68725   2
  -7   3  -7 12.1919 1.69909   3
   7  -3   7 9.52192 1.58825   4
  -8   3  -7 110.125 8.66321   2
   8  -3   7 107.611 7.58567   4
   9  -3   7 71.0920 5.51729   4
  10  -3   7 -0.9711 1.82319   4
  10  -3   7 2.96970 3.30097   2
  10   2  -7 19.2118 2.89359   3
 -10  -2   7 15.1629 5.46183   1
   9   2  -7 641.141 40.0462   3
  -9  -2   7 588.383 42.3592   1
   8   2  -7 3.41791 1.65304   3
  -8  -2   7 -2.9133 3.58403   1
   7   2  -7 113.312 8.19016   3
  -7  -2   7 134.934 11.2269   1
   6   2  -7 3.56155 1.24849   3
  -6  -2   7 8.89539 3.88049   1
   5   2  -7 338.326 22.0150   3
  -5  -2   7 347.108 24.4456   1
   4   2  -7 37.9499 2.93017   3
  -4  -2   7 38.4968 6.17026   1
   3   2  -7 692.665 43.9159   3
  -3  -2   7 686.075 46.0084   1
   2   2  -7 108.605 7.04766   3
  -2  -2   7 97.8640 8.33883   1
   1   2  -7 95.5048 6.50699   3
  -1  -2   7 98.9389 7.17553   1
  -1  -2   7 94.0682 6.34957   2
   0   2  -7 104.787 6.73334   2
   0   2  -7 96.8392 7.18710   3
   0  -2   7 100.562 7.08972   1
   0  -2   7 101.234 6.67839   4
  -1   2  -7 17.1452 2.53817   3
  -1   2  -7 21.8939 1.86215   2
   1  -2   7 21.5121 2.00287   1
   1  -2   7 22.2004 1.69043   4
  -2   2  -7 1522.44 97.6977   3
  -2   2  -7 1545.46 97.3294   2
   2  -2   7 1534.87 97.1305   4
   2  -2   7 1538.01 97.2589   1
  -3   2  -7 208.266 12.5775   3
  -3   2  -7 179.489 12.6132   2
   3  -2   7 179.211 12.3196   4
   3  -2   7 197.477 12.4237   1
  -4   2  -7 476.366 29.1721   2
  -4   2  -7 447.187 28.8655   3
   4  -2   7 434.120 28.8042   1
  -5   2  -7 442.962 28.4668   2
  -5   2  -7 430.503 27.9965   3
   5  -2   7 435.451 27.9544   1
   5  -2   7 439.836 27.9237   4
  -6   2  -7 129.961 9.20621   3
  -6   2  -7 144.527 9.97469   2
   6  -2   7 142.367 9.15459   4
  -7   2  -7 136.452 10.1407   2
  -7   2  -7 139.629 9.19654   3
   7  -2   7 129.529 9.11792   4
  -8   2  -7 32.3362 3.11622   3
   8  -2   7 25.2750 3.94283   2
   8  -2   7 30.2423 3.04150   4
   9  -2   7 22.5901 4.52946   2
   9  -2   7 26.0667 2.96872   4
  10  -2   7 21.2073 4.89005   2
  10  -2   7 23.9275 3.00138   4
  10   1  -7 140.576 9.94597   3
 -10  -1   7 130.772 12.7035   1
   9   1  -7 80.5654 6.11155   3
  -9  -1   7 70.5606 8.49012   1
   8   1  -7 313.820 20.5278   3
  -8  -1   7 311.719 22.8600   1
   7   1  -7 10.1501 1.72566   3
  -7  -1   7 6.79352 4.13570   1
   6   1  -7 335.297 21.6890   3
  -6  -1   7 334.995 23.5915   1
   5   1  -7 150.205 10.1267   3
  -5  -1   7 159.450 12.1603   1
   4   1  -7 197.117 12.9103   3
  -4  -1   7 201.418 15.0430   1
   3   1  -7 87.8130 5.84634   3
  -3  -1   7 78.2140 8.09552   1
   2   1  -7 130.119 8.63757   3
  -2  -1   7 130.469 10.2007   1
   1   1  -7 7988.80 508.223   3
  -1  -1   7 7939.96 508.902   1
  -1  -1   7 8196.93 508.313   2
   0   1  -7 306.624 20.6202   3
   0  -1   7 324.728 20.2459   2
   0  -1   7 306.587 20.4729   1
   1  -1   7 533.764 33.9674   4
   1  -1   7 533.943 34.1230   1
  -2   1  -7 204.615 13.3816   3
  -2   1  -7 192.404 13.1689   2
   2  -1   7 199.367 12.9059   4
   2  -1   7 203.696 12.9398   1
  -3   1  -7 308.079 19.2356   2
  -3   1  -7 294.316 19.0502   3
   3  -1   7 289.452 18.8129   1
   3  -1   7 287.471 18.8326   4
  -4   1  -7 13.2206 1.57903   3
  -4   1  -7 12.0750 1.94097   2
   4  -1   7 13.1474 1.35712   1
   4  -1   7 14.4364 1.51879   4
  -5   1  -7 405.218 26.3388   3
  -5   1  -7 417.183 26.8793   2
   5  -1   7 408.263 26.2217   4
   5  -1   7 410.132 26.1747   1
  -6   1  -7 115.934 7.87983   3
   6  -1   7 113.308 8.62375   2
   6  -1   7 114.572 7.74891   4
  -7   1  -7 11.6945 1.78532   3
   7  -1   7 9.57899 1.71262   4
   7  -1   7 7.11014 2.88035   2
  -8   1  -7 22.9221 2.76411   3
   8  -1   7 23.3638 4.08095   2
   8  -1   7 22.4806 2.58063   4
  -9   1  -7 27.5361 3.27243   3
   9  -1   7 26.5314 3.25770   4
   9  -1   7 25.8833 5.01494   2
  10  -1   7 619.717 42.1079   2
  10   0  -7 7.32485 2.25791   3
 -10   0   7 4.87856 4.21634   1
   9   0  -7 216.992 13.8384   3
  -9   0   7 179.151 15.8866   1
   8   0  -7 29.5955 3.15782   3
  -8   0   7 36.1056 5.67054   1
   7   0  -7 798.564 50.9946   3
  -7   0   7 798.164 52.9158   1
   6   0  -7 12.9367 1.85142   3
  -6   0   7 17.1426 4.02162   1
   5   0  -7 4.47451 1.09517   3
  -5   0   7 10.4787 3.06238   1
   4   0  -7 419.725 26.9987   3
  -4   0   7 423.605 28.4397   1
   3   0  -7 207.140 13.2068   3
  -3   0   7 216.837 14.7498   1
  -3   0   7 193.048 12.8858   2
   2   0  -7 19.4826 1.97512   3
  -2   0   7 18.8377 1.53743   2
  -2   0   7 20.8002 3.54006   1
   1   0  -7 8.66248 1.61153   3
  -1   0   7 10.1482 2.50662   1
  -1   0   7 8.61556 1.42559   2
   0   0  -7 3.91309 1.48201   3
   0   0   7 2.45772 1.40917   1
   0   0   7 2.37141 1.44235   2
  -1   0  -7 220.088 17.9241   3
   1   0   7 276.914 17.5282   2
   1   0   7 287.461 17.2987   1
  -2   0  -7 73.1391 5.01809   3
   2   0   7 61.8732 4.52730   4
   2   0   7 63.2411 4.38334   1
   2   0   7 64.1744 5.05551   2
  -3   0  -7 186.843 12.6028   3
   3   0   7 183.164 12.4607   4
   3   0   7 205.941 12.3240   1
   3   0   7 184.519 12.9882   2
  -4   0  -7 517.096 34.2514   3
   4   0   7 548.400 34.0000   1
   4   0   7 535.002 34.8102   2
   4   0   7 540.045 34.1621   4
  -5   0  -7 117.531 8.57046   3
   5   0   7 133.079 8.48553   4
   5   0   7 135.819 9.46042   2
  -6   0  -7 1.00868 1.21045   3
   6   0   7 6.28633 2.79536   2
   6   0   7 2.78334 1.24492   4
  -7   0  -7 11.6923 1.83052   3
   7   0   7 5.18082 3.33780   2
   7   0   7 9.84245 1.88089   4
  -8   0  -7 40.0010 3.68542   3
   8   0   7 41.5887 3.90594   4
   8   0   7 37.3817 5.68313   2
  -9   0  -7 1.54431 1.85036   3
   9   0   7 4.63589 2.23953   4
   9   0   7 4.75692 4.58576   2
  10   0   7 162.166 14.2054   2
 -10   1   7 365.461 26.3042   1
   9  -1  -7 2.15428 1.77160   3
  -9   1   7 0.58153 3.75705   1
   8  -1  -7 157.842 10.4902   3
  -8   1   7 145.290 12.5545   1
   7  -1  -7 14.9303 2.11552   3
  -7   1   7 15.3863 4.03864   1
   6  -1  -7 475.694 31.1645   3
  -6   1   7 501.299 32.8717   1
  -5   1   7 7.69456 2.65242   1
   4  -1  -7 298.445 18.4804   3
  -4   1   7 301.348 19.7647   1
  -4   1   7 265.375 18.2039   2
   3  -1  -7 91.2154 6.00161   3
  -3   1   7 83.8145 6.91924   1
  -3   1   7 83.2881 5.64391   2
   2  -1  -7 34.1434 2.92238   3
  -2   1   7 30.9233 3.51614   1
  -2   1   7 32.6560 2.45354   2
   1  -1  -7 665.942 41.8304   3
  -1   1   7 686.643 42.2107   1
  -1   1   7 605.726 41.5503   2
   0  -1  -7 56.2299 5.03077   3
   0   1   7 66.3567 5.04030   2
   0   1   7 63.3238 4.92172   1
  -1  -1  -7 237.661 17.2719   3
   1   1   7 260.344 17.3579   2
   1   1   7 270.523 16.8322   1
  -2  -1  -7 2.24818 1.06175   3
   2   1   7 3.06249 1.85845   2
  -3  -1  -7 174.487 11.3520   3
   3   1   7 162.702 12.1306   2
   3   1   7 173.634 11.3024   4
  -4  -1  -7 750.924 47.4364   3
   4   1   7 736.134 48.2733   2
   4   1   7 741.498 47.3524   4
  -5  -1  -7 282.521 18.5472   3
   5   1   7 286.003 18.5155   4
   5   1   7 287.559 19.7391   2
  -6  -1  -7 195.428 12.9816   3
   6   1   7 195.116 12.9209   4
   6   1   7 192.116 14.5478   2
  -7  -1  -7 41.1940 3.53204   3
   7   1   7 34.7980 5.57098   2
   7   1   7 36.8166 3.60590   4
  -8  -1  -7 28.4843 3.13372   3
   8   1   7 27.8562 3.25201   4
   8   1   7 29.7375 5.83225   2
  -9  -1  -7 5.07919 2.07457   3
   9   1   7 13.5029 5.27527   2
 -10   2   7 9.26830 4.59180   1
  -9   2   7 290.277 21.3543   1
   8  -2  -7 4.43642 1.60600   3
  -8   2   7 2.18148 3.26320   1
   7  -2  -7 628.342 39.4608   3
  -7   2   7 598.191 41.0738   1
   6  -2  -7 10.8384 1.71360   3
  -6   2   7 14.6558 3.25773   1
   5  -2  -7 132.678 8.30724   3
  -5   2   7 111.739 8.06685   2
  -5   2   7 128.504 9.76656   1
   4  -2  -7 10.4288 1.63423   3
  -4   2   7 12.1623 2.57392   1
  -4   2   7 8.83787 1.21942   2
   3  -2  -7 181.889 11.6104   3
  -3   2   7 168.130 11.1842   2
  -3   2   7 168.493 12.1401   1
   2  -2  -7 4451.51 281.129   3
  -2   2   7 4399.78 280.655   2
  -2   2   7 4467.58 281.270   1
   1  -2  -7 203.842 12.4812   3
  -1   2   7 184.326 12.5099   1
  -1   2   7 169.632 12.2147   2
   0  -2  -7 122.830 10.4256   3
   0   2   7 143.320 9.69662   1
   0   2   7 162.212 9.98201   2
  -1  -2  -7 297.099 19.3239   3
   1   2   7 285.151 19.5560   2
  -2  -2  -7 315.772 20.5698   3
   2   2   7 315.640 21.3954   2
  -3  -2  -7 33.0485 2.81100   3
   3   2   7 29.3582 4.32412   2
  -4  -2  -7 428.196 27.3098   3
   4   2   7 416.837 28.4162   2
  -5  -2  -7 86.1920 6.05512   3
   5   2   7 78.2535 7.71961   2
  -6  -2  -7 13.0684 2.03146   3
   6   2   7 15.7110 4.24552   2
  -7  -2  -7 2.66413 1.48096   3
   7   2   7 2.86563 4.23050   2
  -8  -2  -7 3.73368 1.80718   3
   8   2   7 3.43590 4.73549   2
  -9  -2  -7 360.285 24.1978   3
   9   2   7 384.325 27.1797   2
 -10   3   7 41.3995 6.86322   1
  -9   3   7 20.0680 4.72767   1
  -8   3   7 595.533 39.9648   1
   7  -3  -7 39.6925 3.39357   3
  -7   3   7 35.0079 5.00630   1
   6  -3  -7 7.87049 1.53893   3
  -6   3   7 3.73126 2.62923   1
   5  -3  -7 152.860 9.47357   3
  -5   3   7 131.717 9.12841   2
  -5   3   7 125.928 10.4757   1
   4  -3  -7 149.898 9.97613   3
  -4   3   7 147.480 9.57721   2
  -4   3   7 134.139 10.5869   1
   3  -3  -7 28.6834 3.20051   3
  -3   3   7 29.5866 2.36658   2
  -3   3   7 30.4616 3.40518   1
   2  -3  -7 112.176 6.72832   3
  -2   3   7 85.9933 6.25180   2
  -2   3   7 78.8138 6.76352   1
   1  -3  -7 1.99451 1.90306   3
  -1   3   7 3.01212 1.11259   1
  -1   3   7 3.78627 1.18018   2
   0  -3  -7 449.504 31.3178   3
   0   3   7 478.751 30.7009   1
   0   3   7 506.623 31.0329   2
  -1  -3  -7 116.657 8.31605   3
   1   3   7 119.589 8.68783   2
  -2  -3  -7 688.677 42.9874   3
   2   3   7 650.428 43.5625   2
  -3  -3  -7 279.764 18.3231   3
   3   3   7 282.434 19.5769   2
  -4  -3  -7 470.523 29.9829   3
   4   3   7 456.859 31.3593   2
  -5  -3  -7 5.15325 1.44315   3
   5   3   7 2.30268 3.31952   2
  -6  -3  -7 1.33642 1.37421   3
   6   3   7 1.40587 3.53552   2
  -7  -3  -7 37.2591 3.57256   3
   7   3   7 39.9466 6.26934   2
  -8  -3  -7 37.0089 3.89891   3
   8   3   7 46.8356 7.09923   2
  -9  -3  -7 241.066 16.4789   3
   9   3   7 247.619 19.2148   2
 -10   4   7 3.96666 3.88418   1
  -9   4   7 105.517 9.94334   1
  -8   4   7 101.145 9.21918   1
  -7   4   7 342.653 23.9189   1
   6  -4  -7 1.93844 1.48826   3
  -6   4   7 -0.3572 2.34499   1
  -6   4   7 1.19055 1.16746   2
   5  -4  -7 105.792 7.37185   3
  -5   4   7 80.7856 7.89916   1
  -5   4   7 109.835 7.00876   2
   4  -4  -7 114.633 8.28533   3
  -4   4   7 101.851 8.39802   1
  -4   4   7 113.052 7.49304   2
   3  -4  -7 331.736 19.9964   3
  -3   4   7 308.981 19.7327   2
  -3   4   7 271.410 20.3510   1
   2  -4  -7 629.054 36.2397   3
  -2   4   7 555.401 35.7463   2
  -2   4   7 495.794 36.0246   1
   1  -4  -7 128.900 10.7341   3
  -1   4   7 160.589 10.3481   2
  -1   4   7 160.320 10.3442   1
   0  -4  -7 55.8583 4.46765   3
   0  -4  -7 49.1463 4.00526   1
   0   4   7 44.9632 4.09021   2
  -1  -4  -7 101.558 7.05466   3
   1   4   7 93.8087 7.25151   2
  -2  -4  -7 76.6589 5.58058   3
   2   4   7 75.6204 6.30036   2
  -3  -4  -7 890.007 58.6665   3
   3   4   7 955.685 59.5274   2
  -4  -4  -7 332.459 22.4267   3
   4   4   7 366.187 23.6619   2
  -5  -4  -7 123.995 8.50583   3
   5   4   7 114.929 9.72399   2
  -6  -4  -7 64.4612 5.00055   3
   6   4   7 58.0794 6.64078   2
  -7  -4  -7 11.5486 2.16127   3
   7   4   7 13.2289 4.17282   2
  -8  -4  -7 16.4401 2.51917   3
   8   4   7 12.9580 4.96132   2
  -9  -4  -7 4.65600 2.25358   3
   9   4   7 3.94859 4.91077   2
 -10   5   7 270.517 20.3178   1
  -9   5   7 1.14259 3.31667   1
  -8   5   7 333.321 23.5647   1
  -7   5   7 18.8551 3.86651   1
  -6   5   7 17.7301 3.62905   1
  -6   5   7 23.4705 2.68431   2
   5  -5  -7 0.16013 1.60488   3
  -5   5   7 -0.4685 2.02192   1
  -5   5   7 1.16380 1.19764   2
   4  -5  -7 181.018 10.7175   3
  -4   5   7 158.811 10.4073   2
  -4   5   7 122.775 11.0964   1
   3  -5  -7 2233.34 129.469   3
  -3   5   7 1873.58 129.674   1
  -3   5   7 2005.63 129.146   2
   2  -5  -7 195.787 15.9950   3
  -2   5   7 272.910 15.7045   2
   1  -5  -7 1.87315 1.62987   1
   1  -5  -7 1.73286 1.55663   3
  -1   5   7 -0.0702 1.15242   2
   0  -5  -7 35.0861 3.41432   1
   0  -5  -7 39.7153 3.46285   3
   0   5   7 29.0957 3.30901   2
  -1  -5  -7 106.929 7.34069   3
   1   5   7 99.6898 7.58222   2
  -2  -5  -7 67.1004 5.44423   3
   2   5   7 88.0925 6.31674   2
  -3  -5  -7 131.654 9.49285   3
   3   5   7 153.863 10.5650   2
  -4  -5  -7 30.4789 3.05416   3
   4   5   7 36.9894 4.48520   2
  -5  -5  -7 26.5643 2.94671   3
   5   5   7 38.3597 5.00492   2
  -6  -5  -7 40.2804 3.89226   3
   6   5   7 50.9425 5.89815   2
  -7  -5  -7 0.02631 1.72335   3
   7   5   7 2.55944 3.83930   2
  -8  -5  -7 133.360 10.3114   3
   8   5   7 174.469 12.5049   2
  10  -6  -7 74.1366 8.16560   1
  -8   6   7 84.9138 8.23873   1
  -7   6   7 31.6259 3.61598   2
  -7   6   7 24.1734 4.20732   1
  -6   6   7 69.4977 7.06893   1
  -6   6   7 84.0837 6.09519   2
  -5   6   7 23.7655 2.61664   2
  -5   6   7 18.6485 3.27075   1
   4  -6  -7 490.914 27.6538   3
  -4   6   7 361.981 27.1348   2
   3  -6  -7 346.217 27.0628   3
   3  -6  -7 422.847 27.6726   1
  -3   6   7 471.398 26.9000   2
   2  -6  -7 18.6016 3.01543   1
   2  -6  -7 18.0594 2.86838   3
  -2   6   7 20.1213 2.38191   2
   1  -6  -7 199.086 14.2404   1
   1  -6  -7 213.182 14.0107   3
  -1   6   7 207.037 13.9885   2
   0  -6  -7 87.2962 6.34683   3
   0  -6  -7 93.3878 6.78919   1
   0   6   7 77.8472 6.52888   2
  -1  -6  -7 477.909 29.7972   3
   1   6   7 440.982 30.1348   2
  -2  -6  -7 89.5630 6.45090   3
   2   6   7 88.0904 7.10581   2
  -3  -6  -7 543.738 36.9041   3
   3   6   7 612.088 37.6504   2
  -4  -6  -7 4.46482 1.58644   3
   4   6   7 5.74635 2.75911   2
  -5  -6  -7 5.09489 1.68214   3
   5   6   7 12.3088 3.40689   2
  -6  -6  -7 1.23352 1.64571   3
   6   6   7 0.96183 3.58016   2
  -7  -6  -7 174.584 13.1571   3
   7   6   7 228.243 15.1563   2
  -8  -6  -7 164.238 12.8706   3
   8   6   7 241.956 15.5454   2
   9  -7  -7 176.593 14.1597   1
   8  -7  -7 140.123 11.6767   1
   7  -7  -7 -2.2573 2.80342   1
  -7   7   7 3.79380 2.21510   2
   6  -7  -7 4.13083 3.09207   1
  -6   7   7 2.29054 1.92750   2
   5  -7  -7 152.637 12.2168   1
  -5   7   7 159.206 10.8080   2
   4  -7  -7 119.254 10.2459   1
  -4   7   7 140.786 9.25701   2
   3  -7  -7 132.336 10.9027   1
   3  -7  -7 140.700 10.2571   3
  -3   7   7 159.764 10.0999   2
   2  -7  -7 275.241 18.6096   3
   2  -7  -7 260.812 19.2211   1
  -2   7   7 305.969 18.7322   2
   1  -7  -7 223.974 15.6693   1
   1  -7  -7 228.278 15.0377   3
  -1   7   7 222.347 15.2404   2
   0  -7  -7 163.460 10.7766   3
   0   7   7 149.407 11.0872   2
  -1  -7  -7 69.6457 5.23334   3
   1   7   7 63.3501 5.60931   2
  -2  -7  -7 1012.36 64.3957   3
   2   7   7 1003.36 64.8774   2
  -3  -7  -7 106.442 7.98343   3
   3   7   7 124.101 8.98475   2
  -4  -7  -7 17.4039 2.49666   3
   4   7   7 18.4482 3.31305   2
  -5  -7  -7 25.8803 3.10674   3
   5   7   7 26.7582 4.59637   2
  -6  -7  -7 4.14931 2.03504   3
   6   7   7 2.22866 3.70455   2
  -7  -7  -7 12.8349 2.48079   3
   7   7   7 13.6989 4.68946   2
   9  -8  -7 98.1785 9.53367   1
   8  -8  -7 10.0974 3.96855   1
   7  -8  -7 0.55333 3.10420   1
  -7   8   7 4.27466 2.46925   2
   6  -8  -7 8.55891 3.59291   1
  -6   8   7 16.3352 2.70672   2
   5  -8  -7 103.785 9.32789   1
  -5   8   7 110.615 7.94248   2
   4  -8  -7 506.443 35.6402   1
  -4   8   7 557.728 34.6554   2
   3  -8  -7 198.060 14.8665   1
  -3   8   7 208.136 13.8587   2
   2  -8  -7 78.2969 5.92272   3
   2  -8  -7 71.5700 7.03908   1
  -2   8   7 83.0853 6.25570   2
   1  -8  -7 6.33388 2.83212   1
   1  -8  -7 7.63581 1.68567   3
  -1   8   7 6.65053 2.02317   2
   0  -8  -7 21.8269 2.73440   3
   0   8   7 19.4396 3.08577   2
  -1  -8  -7 61.8880 4.88794   3
   1   8   7 57.0481 5.53892   2
  -2  -8  -7 13.6586 2.15252   3
   2   8   7 14.5523 2.93654   2
  -3  -8  -7 94.0515 7.04678   3
   3   8   7 94.7713 7.84036   2
  -4  -8  -7 16.4368 2.60299   3
   4   8   7 14.6783 3.43578   2
  -5  -8  -7 32.5484 3.73601   3
   5   8   7 38.5343 5.25101   2
  -6  -8  -7 -0.5796 1.93401   3
   6   8   7 -1.9143 3.31570   2
   7   8   7 17.5784 4.83128   2
   8  -9  -7 5.75396 3.98241   1
   7  -9  -7 47.2187 6.58283   1
  -7   9   7 55.5152 5.45611   2
   6  -9  -7 -1.5066 3.10926   1
  -6   9   7 2.86551 2.29213   2
   5  -9  -7 542.774 38.3516   1
  -5   9   7 595.644 37.1817   2
   4  -9  -7 321.620 24.1553   1
  -4   9   7 368.648 23.0591   2
   3  -9  -7 13.4008 3.89571   1
  -3   9   7 16.0802 2.58162   2
   2  -9  -7 79.4875 8.31029   1
  -2   9   7 99.0911 7.21469   2
   1  -9  -7 86.5037 6.42736   3
  -1   9   7 88.0542 6.99249   2
   0  -9  -7 458.515 29.1838   3
   0   9   7 438.692 29.6510   2
  -1  -9  -7 2.27705 1.68488   3
   1   9   7 0.04780 2.26212   2
  -2  -9  -7 492.069 31.1532   3
   2   9   7 461.908 31.6599   2
  -3  -9  -7 15.1212 2.38090   3
   3   9   7 13.1823 3.29272   2
  -4  -9  -7 5.58018 2.11700   3
   4   9   7 4.47722 2.89015   2
  -5  -9  -7 1.13956 2.00004   3
   5   9   7 -4.1114 2.62813   2
  -6  -9  -7 236.512 16.6427   3
   6   9   7 253.283 17.5767   2
   8 -10  -7 17.2655 4.75900   1
  -8  10   7 12.6235 3.82237   2
   7 -10  -7 18.2280 4.90308   1
  -7  10   7 21.2850 3.80320   2
   6 -10  -7 159.353 13.4537   1
  -6  10   7 165.279 11.8993   2
   5 -10  -7 94.0721 9.46962   1
  -5  10   7 104.410 7.83321   2
   4 -10  -7 94.6503 9.57062   1
  -4  10   7 110.322 8.00984   2
   3 -10  -7 102.212 10.0384   1
  -3  10   7 116.711 8.52968   2
   2 -10  -7 93.2039 9.72022   1
  -2  10   7 110.694 8.10084   2
  -1  10   7 81.1720 6.93435   2
   0  10   7 29.3779 3.87719   2
  -1 -10  -7 455.719 28.0866   3
   1  10   7 398.781 28.5444   2
  -2 -10  -7 8.46617 2.15643   3
   2  10   7 5.29530 2.97136   2
  -3 -10  -7 16.2073 2.62101   3
   3  10   7 13.7187 3.58931   2
  -4 -10  -7 36.4378 4.07215   3
   4  10   7 34.5740 5.31719   2
  -5 -10  -7 13.0711 2.74692   3
   5  10   7 13.0694 3.91178   2
   7 -11  -7 25.3325 5.60207   1
  -7  11   7 16.8024 3.89625   2
   6 -11  -7 6.86676 4.54751   1
  -6  11   7 10.4948 3.07701   2
   5 -11  -7 38.3930 6.79042   1
  -5  11   7 48.6926 4.86579   2
   4 -11  -7 75.4899 8.86119   1
  -4  11   7 79.1418 6.65619   2
   3 -11  -7 31.7214 6.47296   1
  -3  11   7 52.4253 4.88987   2
  -2  11   7 34.0795 4.25993   2
  -1  11   7 -2.6769 2.26755   2
   0  11   7 6.00331 2.76853   2
   1  11   7 201.674 14.4643   2
  -2 -11  -7 163.688 11.3610   3
   2  11   7 153.635 12.0465   2
  -3 -11  -7 3.18264 2.27214   3
   3  11   7 1.80013 2.91337   2
  -4 -11  -7 72.7703 6.39539   3
   4  11   7 76.5364 7.39340   2
   6 -12  -7 365.919 28.3396   1
  -6  12   7 424.109 26.9361   2
   5 -12  -7 243.374 20.1322   1
  -5  12   7 281.690 18.5401   2
   4 -12  -7 24.3546 6.22537   1
  -4  12   7 26.8473 3.95093   2
  -3  12   7 23.3795 3.74840   2
  -2  12   7 14.0038 3.28382   2
  -1  12   7 187.508 13.6083   2
   0  12   7 54.2335 5.81963   2
   1  12   7 152.374 11.7073   2
   2  12   7 24.7380 4.32473   2
   3  12   7 0.89912 3.07835   2
   5 -13  -7 15.3463 6.27317   1
  -5  13   7 29.3509 4.33230   2
  -4  13   7 35.6945 4.88748   2
  -3  13   7 33.2918 4.69142   2
  -2  13   7 59.2893 6.17590   2
  -1  13   7 22.2224 3.87121   2
   0  13   7 126.264 10.1507   2
   1  13   7 -0.7465 2.98011   2
  -1 -14   8 31.3564 6.14579   1
   0 -14   8 -0.3541 3.51283   1
   1 -14   8 32.7612 5.36160   1
   2 -14   8 28.9243 4.76919   1
  -3  14  -8 20.0256 2.93810   2
   3 -14   8 17.7332 3.90100   1
  -4  14  -8 9.17379 2.25331   2
   4 -14   8 6.86054 3.12448   1
  -3 -13   8 275.584 22.7534   1
  -2 -13   8 112.902 11.5536   1
  -1 -13   8 27.2587 5.45167   1
   0 -13   8 87.8274 8.31867   1
   1 -13   8 29.4067 4.64383   1
  -2  13  -8 124.512 8.03280   2
   2 -13   8 95.1033 8.96463   1
  -3  13  -8 85.0993 6.26026   2
   3 -13   8 78.1928 7.25034   1
  -4  13  -8 540.153 32.3595   2
   4 -13   8 452.391 32.9351   1
  -5  13  -8 4.61632 2.07785   2
   5 -13   8 4.88705 2.70631   1
  -6  13  -8 128.045 8.88565   2
   6 -13   8 109.269 9.45507   1
  -4 -12   8 53.5526 11.0714   1
  -3 -12   8 43.7376 7.65667   1
  -2 -12   8 189.049 15.4475   1
  -1 -12   8 8.56682 3.52410   1
   0 -12   8 145.889 11.3581   1
  -1  12  -8 49.7064 3.97734   2
   1 -12   8 46.0122 5.20553   1
  -2  12  -8 5.79628 1.62817   2
   2 -12   8 7.55714 2.64614   1
  -3  12  -8 199.033 12.8038   2
   3 -12   8 178.112 13.5249   1
  -4  12  -8 14.3217 2.25568   2
   4 -12   8 13.9949 2.93008   1
  -5  12  -8 69.5082 5.46245   2
   5 -12   8 62.8254 6.07856   1
  -6  12  -8 1.36559 2.04893   2
   6 -12   8 0.86470 2.52522   1
  -7  12  -8 131.588 9.56670   2
   7 -12   8 128.226 10.1852   1
   5  11  -8 18.1102 2.86185   3
  -5 -11   8 19.4284 11.4829   1
   4  11  -8 15.8437 2.46166   3
  -4 -11   8 9.53853 7.18452   1
   3  11  -8 5.37698 1.80979   3
  -3 -11   8 3.03605 4.50228   1
  -2 -11   8 9.79676 4.04510   1
  -1 -11   8 12.8114 3.38630   1
   0 -11   8 81.9600 7.07723   1
  -1  11  -8 0.98088 1.19378   2
   1 -11   8 -0.7754 1.96671   1
  -2  11  -8 100.291 6.87210   2
   2 -11   8 93.2156 7.73884   1
  -3  11  -8 44.9246 3.77850   2
   3 -11   8 44.3221 4.52811   1
  -4  11  -8 10.8931 1.97610   2
   4 -11   8 6.79133 2.32557   1
  -5  11  -8 552.708 34.8120   2
   5 -11   8 522.501 35.2802   1
  -6  11  -8 4.94925 2.02266   2
   6 -11   8 6.83071 2.67324   1
  -7  11  -8 40.8268 4.27139   2
   7 -11   8 42.4701 4.98295   1
  -8  11  -8 10.5147 2.85434   2
   8 -11   8 17.9544 3.57815   1
   6  10  -8 22.3271 3.37793   3
  -6 -10   8 37.7726 16.2446   1
   5  10  -8 9.65028 2.24485   3
  -5 -10   8 4.23854 8.87671   1
   4  10  -8 678.218 42.0724   3
  -4 -10   8 610.659 45.7205   1
   3  10  -8 154.371 10.3785   3
  -3 -10   8 144.861 12.9829   1
   2  10  -8 69.9347 5.05423   3
  -2 -10   8 59.9046 6.79328   1
  -1 -10   8 155.144 11.7691   1
   0  10  -8 142.309 9.20426   2
   0 -10   8 131.167 10.3143   1
  -1  10  -8 166.207 10.8158   2
   1 -10   8 158.753 11.6772   1
  -2  10  -8 121.416 8.19968   2
   2 -10   8 118.581 8.91160   1
  -3  10  -8 715.896 45.0600   2
   3 -10   8 692.683 45.5622   1
  -4  10  -8 135.206 9.20401   2
   4 -10   8 130.351 9.66080   1
  -5  10  -8 192.588 12.7941   2
   5 -10   8 184.963 13.2232   1
  -6  10  -8 51.4672 4.55487   2
   6 -10   8 51.1083 5.12942   1
  -7  10  -8 307.113 20.1253   2
   7 -10   8 292.399 20.3507   1
  -8  10  -8 49.8203 5.03018   2
   8 -10   8 49.5933 5.34268   1
   7   9  -8 2.51357 2.08595   3
  -7  -9   8 -2.3226 9.86060   1
  -6  -9   8 27.6209 14.0235   1
   5   9  -8 93.0170 6.87585   3
  -5  -9   8 95.2630 13.8439   1
   4   9  -8 49.6062 3.94926   3
  -4  -9   8 31.2066 7.32065   1
   3   9  -8 384.186 24.3881   3
  -3  -9   8 363.291 26.5467   1
   2   9  -8 4.25121 1.38207   3
  -2  -9   8 8.48243 2.95268   1
   1   9  -8 307.688 19.7944   3
  -1  -9   8 301.920 20.9173   1
   0   9  -8 77.8008 5.32395   2
   0   9  -8 78.1977 5.47730   3
   0  -9   8 74.1770 6.42264   1
  -1   9  -8 3.90795 1.08223   2
   1  -9   8 2.61142 1.70202   1
  -2   9  -8 48.2759 3.79839   2
   2  -9   8 52.2924 4.56953   1
  -3   9  -8 38.0239 3.19784   2
   3  -9   8 37.9335 3.78323   1
  -4   9  -8 238.006 15.3057   2
   4  -9   8 224.709 15.6285   1
  -5   9  -8 4.21886 1.65264   2
   5  -9   8 2.68679 1.89229   1
  -6   9  -8 282.289 19.0714   2
   6  -9   8 292.515 19.3678   1
  -7   9  -8 327.528 21.4300   2
   7  -9   8 315.836 21.5549   1
  -8   9  -8 125.443 9.21326   2
   8  -9   8 116.506 9.24662   1
  -9   9  -8 -0.2643 2.54093   2
   7   8  -8 301.624 20.5395   3
  -7  -8   8 345.601 28.8402   1
   6   8  -8 11.4091 2.11436   3
  -6  -8   8 20.0297 11.6614   1
   5   8  -8 33.4651 3.20527   3
  -5  -8   8 33.2152 8.86067   1
   4   8  -8 2.81890 1.36617   3
  -4  -8   8 -0.9845 4.76492   1
   3   8  -8 7.45849 1.47163   3
  -3  -8   8 5.77325 3.32737   1
   2   8  -8 3.22094 1.19153   3
  -2  -8   8 4.23725 2.69932   1
   1   8  -8 57.9928 4.22781   3
  -1  -8   8 56.9613 5.41391   1
   0   8  -8 9.32380 1.30268   2
   0   8  -8 8.71375 1.35487   3
   0  -8   8 12.8873 2.30523   1
  -1   8  -8 292.534 18.6291   3
  -1   8  -8 282.968 18.2549   2
   1  -8   8 273.716 18.8655   1
  -2   8  -8 109.587 7.40898   2
   2  -8   8 109.303 7.92699   1
  -3   8  -8 19.4155 2.16512   2
   3  -8   8 19.4217 2.67243   1
  -4   8  -8 191.315 12.8473   2
   4  -8   8 195.031 13.1659   1
  -5   8  -8 43.6975 3.76562   2
   5  -8   8 45.6768 4.19139   1
  -6   8  -8 365.693 22.6947   2
   6  -8   8 325.328 22.7261   1
  -7   8  -8 6.84700 2.14229   2
   7  -8   8 6.68053 2.33255   1
  -8   8  -8 135.839 9.88256   2
   8  -8   8 129.046 9.74663   1
  -9   8  -8 38.4713 4.72875   2
   8   7  -8 4.68776 2.09861   3
  -8  -7   8 5.39258 7.09988   1
   7   7  -8 24.6256 3.13070   3
  -7  -7   8 34.3676 9.50629   1
   6   7  -8 35.1962 3.42646   3
  -6  -7   8 48.4990 11.3606   1
   5   7  -8 873.920 56.6845   3
  -5  -7   8 914.305 61.3448   1
   4   7  -8 85.5995 6.04725   3
  -4  -7   8 81.0214 9.54206   1
   3   7  -8 182.189 11.8142   3
  -3  -7   8 170.746 13.6508   1
   2   7  -8 103.169 7.20032   3
  -2  -7   8 112.902 8.75908   1
   1   7  -8 397.496 26.4571   3
   1   7  -8 430.704 26.3047   2
  -1  -7   8 407.189 27.2957   1
   0   7  -8 324.376 21.1005   3
   0   7  -8 327.857 20.9274   2
   0  -7   8 323.751 20.7946   4
   0  -7   8 332.498 21.7113   1
  -1   7  -8 79.5849 5.89704   3
  -1   7  -8 80.3843 5.43301   2
   1  -7   8 77.8968 6.10432   1
  -2   7  -8 740.456 48.2987   2
  -2   7  -8 812.857 48.7966   3
   2  -7   8 727.850 48.6442   1
  -3   7  -8 614.467 38.9679   2
   3  -7   8 604.708 39.2424   1
  -4   7  -8 203.800 13.3371   2
   4  -7   8 198.305 13.5275   1
  -5   7  -8 276.337 18.2236   2
   5  -7   8 278.150 18.3599   1
  -6   7  -8 163.356 11.1446   2
   6  -7   8 159.329 11.1888   1
  -7   7  -8 28.7785 3.43383   2
   7  -7   8 25.7603 3.45629   1
  -8   7  -8 63.3575 5.77253   2
   8  -7   8 58.5649 5.43970   1
  -9   7  -8 80.5296 6.60210   2
   9  -7   8 63.0521 5.45272   4
   8   6  -8 8.13729 2.08517   3
  -8  -6   8 6.05439 6.94622   1
   7   6  -8 23.1345 2.85838   3
  -7  -6   8 30.5456 7.89851   1
   6   6  -8 154.850 10.7151   3
  -6  -6   8 175.262 17.8230   1
   5   6  -8 335.833 22.3661   3
  -5  -6   8 371.688 27.1717   1
   4   6  -8 410.557 26.7845   3
  -4  -6   8 426.937 29.8040   1
   3   6  -8 11.8886 1.69314   3
  -3  -6   8 10.8890 3.54453   1
   2   6  -8 420.890 26.7521   3
  -2  -6   8 412.096 27.7869   1
   1   6  -8 73.5702 5.20233   3
   1   6  -8 75.5470 4.98361   2
  -1  -6   8 76.5180 4.92457   4
  -1  -6   8 70.8383 6.03222   1
   0   6  -8 34.0128 2.50524   2
   0   6  -8 35.2587 2.81062   3
   0  -6   8 34.8819 3.39941   1
   0  -6   8 30.4467 2.32003   4
  -1   6  -8 9.34802 1.81668   3
  -1   6  -8 8.84319 1.22236   2
   1  -6   8 4.72862 1.50092   1
  -2   6  -8 69.8549 4.89283   2
  -2   6  -8 60.6234 5.35133   3
   2  -6   8 77.6319 5.31530   1
  -3   6  -8 465.157 29.5988   2
  -3   6  -8 471.358 29.6798   3
   3  -6   8 448.048 29.7617   1
  -4   6  -8 24.0298 2.33067   2
   4  -6   8 17.0930 2.36451   1
  -5   6  -8 220.093 14.6953   2
   5  -6   8 221.821 14.6985   1
  -6   6  -8 797.378 50.5471   2
   6  -6   8 778.550 50.4798   1
  -7   6  -8 108.358 8.02674   2
   7  -6   8 105.405 7.78635   1
  -8   6  -8 9.93022 2.82408   2
  -9   6  -8 179.415 12.6589   2
   9  -6   8 166.367 11.6742   4
   9   5  -8 60.4902 5.10596   3
  -9  -5   8 50.6419 8.86688   1
   8   5  -8 195.317 13.1251   3
  -8  -5   8 182.300 16.8885   1
   7   5  -8 30.1150 3.15440   3
  -7  -5   8 39.1643 7.78094   1
   6   5  -8 298.686 20.5762   3
  -6  -5   8 377.163 26.4445   1
   5   5  -8 2.97341 1.21883   3
  -5  -5   8 2.65815 5.38110   1
   4   5  -8 44.9118 3.56150   3
  -4  -5   8 53.2743 7.22635   1
   3   5  -8 14.8398 1.75043   3
  -3  -5   8 17.3758 3.73633   1
   2   5  -8 47.3549 3.52227   3
  -2  -5   8 48.1980 4.83564   1
   1   5  -8 27.9426 1.94647   2
   1   5  -8 23.7471 2.17094   3
  -1  -5   8 22.3543 3.08672   1
   0   5  -8 1026.97 64.3569   2
   0   5  -8 1011.49 64.6326   3
   0  -5   8 1015.46 64.9358   1
   0  -5   8 1007.99 64.2719   4
  -1   5  -8 134.537 8.73567   2
  -1   5  -8 134.672 9.51188   3
   1  -5   8 130.556 8.58435   4
   1  -5   8 132.887 9.14510   1
  -2   5  -8 13.3975 2.49962   3
  -2   5  -8 20.1968 1.95532   2
   2  -5   8 27.1228 2.34304   1
  -3   5  -8 43.0988 3.43995   2
  -3   5  -8 45.5873 3.56818   3
   3  -5   8 46.8880 3.62152   1
  -4   5  -8 125.209 8.35698   3
  -4   5  -8 122.104 8.62029   2
   4  -5   8 131.861 8.68344   1
  -5   5  -8 888.436 56.3148   2
   5  -5   8 874.569 56.2517   1
  -6   5  -8 67.9594 5.33364   2
   6  -5   8 62.5712 4.96218   1
  -7   5  -8 388.411 24.0857   2
   7  -5   8 363.137 23.6679   1
   7  -5   8 339.285 23.3737   4
  -8   5  -8 88.8248 7.16735   2
   8  -5   8 82.7322 6.20560   4
  -9   5  -8 78.5084 6.95693   2
   9  -5   8 72.6372 5.76736   4
 -10   5  -8 3.00398 3.22247   2
  10  -5   8 4.38574 2.08342   4
   9   4  -8 67.4874 5.55717   3
  -9  -4   8 67.1452 9.65645   1
   8   4  -8 3.82373 1.77057   3
  -8  -4   8 3.46575 4.98957   1
   7   4  -8 62.5343 5.01334   3
  -7  -4   8 72.0414 8.97544   1
   6   4  -8 519.699 35.2824   3
  -6  -4   8 613.006 39.4432   1
   5   4  -8 106.221 7.26973   3
  -5  -4   8 99.2879 11.2137   1
   4   4  -8 113.599 7.74861   3
  -4  -4   8 116.489 10.8691   1
   3   4  -8 3.86686 0.99352   3
  -3  -4   8 6.68570 2.97804   1
   2   4  -8 461.732 28.9857   3
  -2  -4   8 440.613 30.0058   1
   1   4  -8 488.088 30.1631   2
   1   4  -8 458.150 30.3897   3
  -1  -4   8 477.459 31.0773   1
   0   4  -8 30.0804 2.84800   3
   0   4  -8 33.6754 2.40135   2
   0  -4   8 31.6069 2.36840   4
   0  -4   8 32.4644 3.06637   1
  -1   4  -8 376.448 23.8939   2
  -1   4  -8 383.653 24.5539   3
   1  -4   8 369.373 23.7784   4
   1  -4   8 366.755 24.1963   1
  -2   4  -8 3003.78 187.440   2
   2  -4   8 3012.76 187.570   1
   2  -4   8 2873.71 187.260   4
  -3   4  -8 521.723 33.6611   2
  -3   4  -8 548.566 33.8101   3
   3  -4   8 519.118 33.6735   1
   3  -4   8 515.741 33.4552   4
  -4   4  -8 624.741 41.0342   2
  -4   4  -8 649.250 40.8357   3
   4  -4   8 634.756 40.7511   4
   4  -4   8 652.625 40.9436   1
  -5   4  -8 27.8878 2.46602   3
  -5   4  -8 29.5644 2.99639   2
   5  -4   8 30.1924 2.54148   4
   5  -4   8 27.8899 2.60669   1
  -6   4  -8 114.371 7.66208   3
  -6   4  -8 117.910 8.26740   2
   6  -4   8 114.024 7.67740   4
   6  -4   8 108.598 7.82399   1
  -7   4  -8 4.15332 2.23641   2
   7  -4   8 2.77002 1.34102   4
  -8   4  -8 277.844 18.4319   2
   8  -4   8 259.590 17.5301   4
  -9   4  -8 256.257 17.8067   2
   9  -4   8 247.742 16.6365   4
  10  -4   8 70.6439 5.38520   4
  10  -4   8 55.0235 6.70212   2
   9   3  -8 18.5597 2.93286   3
  -9  -3   8 17.3551 6.03192   1
   8   3  -8 7.23048 1.91112   3
  -8  -3   8 3.39634 4.58296   1
   7   3  -8 91.6951 6.80832   3
  -7  -3   8 106.140 10.6711   1
   6   3  -8 796.691 53.2784   3
  -6  -3   8 895.368 56.3888   1
   5   3  -8 300.922 20.0998   3
  -5  -3   8 334.407 23.7453   1
   4   3  -8 137.381 9.16419   3
  -4  -3   8 137.355 12.4742   1
   3   3  -8 397.914 25.5195   3
  -3  -3   8 397.454 27.4838   1
   2   3  -8 57.2640 4.07059   3
  -2  -3   8 55.6358 5.38931   1
   1   3  -8 64.4381 4.17146   2
   1   3  -8 58.8933 4.43409   3
  -1  -3   8 57.2042 5.01413   1
   0   3  -8 105.662 7.50011   3
   0   3  -8 106.518 6.99361   2
   0  -3   8 105.234 7.47971   1
   0  -3   8 105.227 6.95032   4
  -1   3  -8 107.242 7.20826   2
  -1   3  -8 107.655 7.69690   3
   1  -3   8 108.549 7.08070   4
   1  -3   8 109.209 7.47473   1
  -2   3  -8 152.761 9.89541   2
  -2   3  -8 133.964 10.6875   3
   2  -3   8 147.729 9.68432   4
   2  -3   8 156.544 9.94791   1
  -3   3  -8 7.81330 1.42253   3
  -3   3  -8 4.20068 1.14376   2
   3  -3   8 5.13000 0.93294   4
   3  -3   8 4.40824 1.03164   1
  -4   3  -8 72.9970 5.71523   2
  -4   3  -8 82.6384 5.48743   3
   4  -3   8 80.4088 5.48194   1
   4  -3   8 76.1424 5.34415   4
  -5   3  -8 1139.72 72.1823   2
   5  -3   8 1121.56 71.7717   1
  -6   3  -8 10.3721 2.33495   2
  -6   3  -8 9.55497 1.45349   3
   6  -3   8 7.27366 1.48562   4
  -7   3  -8 81.5773 5.84383   3
  -7   3  -8 86.6144 6.84987   2
   7  -3   8 77.4138 5.78534   4
  -8   3  -8 49.9039 5.59541   2
   8  -3   8 56.5011 4.37623   4
   9  -3   8 4.54845 3.39574   2
   9  -3   8 7.41241 1.98129   4
  10  -3   8 57.6515 4.73758   4
  10  -3   8 42.4757 6.27808   2
  10   2  -8 106.988 7.90606   3
 -10  -2   8 97.6213 10.7481   1
   9   2  -8 68.6505 5.64118   3
  -9  -2   8 68.8199 9.02148   1
   8   2  -8 91.3903 6.97839   3
  -8  -2   8 104.833 10.0882   1
   7   2  -8 586.084 38.3295   3
  -7  -2   8 612.565 40.7553   1
   6   2  -8 41.9027 3.56547   3
  -6  -2   8 50.5424 6.64013   1
   5   2  -8 222.186 15.0635   3
  -5  -2   8 253.054 18.0184   1
   4   2  -8 9.17393 1.43944   3
  -4  -2   8 10.4282 3.84028   1
   3   2  -8 320.498 20.6215   3
  -3  -2   8 318.749 22.6865   1
   2   2  -8 16.8138 1.76346   3
  -2  -2   8 19.9385 3.20035   1
   1   2  -8 1045.00 65.3937   3
  -1  -2   8 1004.23 65.9422   1
  -1  -2   8 1030.45 65.2210   2
   0   2  -8 79.2976 5.35625   2
   0   2  -8 67.6421 5.91669   3
   0  -2   8 83.7358 5.93306   1
  -1   2  -8 18.0847 1.80834   2
  -1   2  -8 21.8386 2.48135   3
   1  -2   8 18.8550 1.98089   1
   1  -2   8 17.5916 1.65485   4
  -2   2  -8 30.3838 3.32188   3
  -2   2  -8 29.9785 2.56184   2
   2  -2   8 29.8967 2.42553   1
   2  -2   8 26.6412 2.23236   4
  -3   2  -8 75.3820 5.03403   3
  -3   2  -8 64.6418 5.01157   2
   3  -2   8 67.3103 4.67954   1
   3  -2   8 63.6426 4.59099   4
  -4   2  -8 1073.70 63.1951   2
  -4   2  -8 950.517 62.8708   3
   4  -2   8 950.443 62.7573   1
  -5   2  -8 85.0585 6.43474   2
  -5   2  -8 83.2370 5.82614   3
   5  -2   8 83.0331 5.69372   1
   5  -2   8 80.5505 5.70617   4
  -6   2  -8 474.067 29.9336   3
  -6   2  -8 485.263 30.5692   2
   6  -2   8 439.916 29.7882   4
  -7   2  -8 246.056 15.7686   3
   7  -2   8 231.963 15.6687   4
  -8   2  -8 396.048 25.3006   3
   8  -2   8 361.067 26.2684   2
   8  -2   8 404.390 25.2482   4
   9  -2   8 5.13174 2.05116   4
   9  -2   8 0.63114 3.34692   2
  10  -2   8 18.3796 4.92377   2
  10  -2   8 28.8403 3.34654   4
  10   1  -8 149.827 10.5120   3
 -10  -1   8 139.078 13.3872   1
   9   1  -8 26.7424 3.38440   3
  -9  -1   8 35.1096 6.43629   1
   8   1  -8 90.6994 6.96252   3
  -8  -1   8 109.744 10.0513   1
   7   1  -8 193.452 13.4501   3
  -7  -1   8 223.228 16.1256   1
   6   1  -8 161.127 11.0183   3
  -6  -1   8 175.292 13.2060   1
   5   1  -8 22.2437 2.29237   3
  -5  -1   8 34.0030 5.28670   1
   4   1  -8 213.148 14.3078   3
  -4  -1   8 233.501 16.4963   1
   3   1  -8 234.902 15.2214   3
  -3  -1   8 230.540 17.1817   1
   2   1  -8 398.804 25.2008   3
  -2  -1   8 379.754 26.5468   1
   1   1  -8 0.65090 1.11927   3
  -1  -1   8 1.69616 1.66470   1
  -1  -1   8 6.96570 1.53737   2
   0   1  -8 135.815 9.75157   3
   0  -1   8 145.254 9.84757   1
   0  -1   8 142.152 9.56322   2
  -1   1  -8 4342.53 304.693   3
   1  -1   8 4969.56 304.304   2
   1  -1   8 5114.35 304.380   1
  -2   1  -8 521.456 34.4151   3
   2  -1   8 536.324 33.7354   1
   2  -1   8 525.645 33.6762   4
   2  -1   8 528.587 33.9410   2
  -3   1  -8 641.483 39.1122   3
   3  -1   8 565.174 38.7356   4
   3  -1   8 620.448 38.7343   1
  -4   1  -8 26.1604 2.45806   3
   4  -1   8 28.8036 2.17529   1
   4  -1   8 26.9815 2.37091   4
  -5   1  -8 130.012 8.88631   3
   5  -1   8 131.374 9.54103   2
   5  -1   8 133.752 8.76809   4
  -6   1  -8 2.42303 1.31228   3
   6  -1   8 2.04238 1.25569   4
   6  -1   8 2.73884 2.42867   2
  -7   1  -8 566.280 38.6096   3
   7  -1   8 616.080 39.7180   2
   7  -1   8 631.911 38.5860   4
  -8   1  -8 182.875 12.4183   3
   8  -1   8 176.714 13.8735   2
   8  -1   8 187.586 12.3550   4
   9  -1   8 99.7286 7.01558   4
   9  -1   8 76.2870 8.83762   2
  10  -1   8 29.1129 6.32428   2
  10   0  -8 21.3634 3.27192   3
 -10   0   8 16.6026 5.50146   1
   9   0  -8 9.48574 2.23636   3
  -9   0   8 10.0909 4.53802   1
   8   0  -8 5.76643 1.79267   3
  -8   0   8 7.84888 4.26731   1
   7   0  -8 710.924 46.0166   3
  -7   0   8 729.825 47.9766   1
   6   0  -8 61.0612 4.70116   3
  -6   0   8 71.6116 7.10925   1
   5   0  -8 321.272 21.6536   3
  -5   0   8 359.196 23.3581   1
   4   0  -8 150.246 9.89734   3
  -4   0   8 145.552 11.4388   1
   3   0  -8 29.5348 2.62259   3
  -3   0   8 29.5976 4.26886   1
   2   0  -8 59.2520 4.36880   3
  -2   0   8 53.2963 3.89630   2
  -2   0   8 63.4709 5.60573   1
   1   0  -8 271.368 18.8205   3
  -1   0   8 258.003 19.4046   1
  -1   0   8 312.235 18.5148   2
   0   0  -8 71.4985 5.45144   3
   0   0   8 74.5784 5.88353   1
   0   0   8 73.5999 5.65727   2
  -1   0  -8 88.1793 8.73053   3
   1   0   8 123.906 8.00352   1
   1   0   8 120.185 8.29104   2
  -2   0  -8 11.9525 2.06936   3
   2   0   8 14.0880 2.15801   2
   2   0   8 11.2298 1.45942   1
  -3   0  -8 11.4160 1.88231   3
   3   0   8 14.7603 1.38727   1
   3   0   8 13.0450 2.37820   2
   3   0   8 15.1060 1.70066   4
  -4   0  -8 356.604 22.0204   3
   4   0   8 361.564 21.8627   4
   4   0   8 291.898 22.4746   2
  -5   0  -8 79.9808 5.61495   3
   5   0   8 77.1733 5.52638   4
   5   0   8 70.6875 6.68786   2
  -6   0  -8 152.652 10.2906   3
   6   0   8 152.856 10.2296   4
   6   0   8 148.995 11.4785   2
  -7   0  -8 37.6930 3.39896   3
   7   0   8 35.5990 3.47213   4
   7   0   8 38.7453 5.67382   2
  -8   0  -8 9.22968 2.01116   3
   8   0   8 8.42141 4.40510   2
   8   0   8 4.39408 2.20107   4
  -9   0  -8 22.1933 3.25173   3
   9   0   8 27.5248 5.86667   2
   9   0   8 33.0316 3.66857   4
 -10   1   8 40.4694 6.80844   1
   9  -1  -8 58.5497 4.93007   3
  -9   1   8 57.8682 7.64544   1
   8  -1  -8 240.133 15.8417   3
  -8   1   8 235.499 17.9969   1
   7  -1  -8 18.8328 2.41280   3
  -7   1   8 23.7512 4.74961   1
   6  -1  -8 211.263 14.4416   3
  -6   1   8 237.842 16.4237   1
   4  -1  -8 700.304 43.8127   3
  -4   1   8 635.067 43.4591   2
  -4   1   8 735.543 45.0929   1
   3  -1  -8 41.1964 3.44891   3
  -3   1   8 39.8798 2.93238   2
  -3   1   8 48.0418 4.53373   1
   2  -1  -8 750.258 48.2448   3
  -2   1   8 693.477 47.8107   2
  -2   1   8 822.505 48.8485   1
   1  -1  -8 6.12036 1.37280   3
  -1   1   8 5.66919 1.30212   2
  -1   1   8 6.37832 1.92645   1
   0  -1  -8 114.131 8.06915   3
   0   1   8 112.786 7.99853   1
   0   1   8 108.258 7.90155   2
  -1  -1  -8 417.565 29.8282   3
   1   1   8 477.874 29.6399   2
   1   1   8 456.065 29.0475   1
  -2  -1  -8 6.37928 1.66635   3
   2   1   8 5.04814 2.14269   2
  -3  -1  -8 285.146 18.4597   3
   3   1   8 276.074 19.1716   2
  -4  -1  -8 2.17726 1.21906   3
   4   1   8 0.87298 2.54579   2
   4   1   8 1.79647 1.37504   4
  -5  -1  -8 255.922 17.1058   3
   5   1   8 276.039 18.5151   2
   5   1   8 256.374 17.0457   4
  -6  -1  -8 395.014 26.3943   3
   6   1   8 413.693 27.9750   2
   6   1   8 418.310 26.3984   4
  -7  -1  -8 711.739 46.6660   3
   7   1   8 716.608 48.3210   2
   7   1   8 754.941 46.6815   4
  -8  -1  -8 16.1448 2.50070   3
   8   1   8 20.8387 2.99123   4
   8   1   8 24.5458 5.47213   2
  -9  -1  -8 13.5394 2.56297   3
   9   1   8 12.5825 5.39218   2
 -10   2   8 59.4966 7.92445   1
  -9   2   8 33.1783 5.81501   1
   8  -2  -8 7.37228 1.83536   3
  -8   2   8 7.80383 3.99328   1
   7  -2  -8 200.084 13.8116   3
  -7   2   8 223.608 15.8037   1
   6  -2  -8 2.98578 1.31294   3
  -6   2   8 -0.7499 2.54922   1
   5  -2  -8 703.906 45.3915   3
  -5   2   8 715.931 46.6142   1
   4  -2  -8 35.8591 3.21002   3
  -4   2   8 37.3715 2.76210   2
  -4   2   8 34.6251 4.26284   1
   3  -2  -8 268.741 17.6013   3
  -3   2   8 272.456 18.1468   1
  -3   2   8 257.069 17.0835   2
   2  -2  -8 127.514 8.63170   3
  -2   2   8 110.401 8.15225   2
  -2   2   8 131.599 8.97568   1
   1  -2  -8 116.394 7.92386   3
  -1   2   8 115.745 8.12011   1
  -1   2   8 107.142 7.77680   2
   0  -2  -8 2538.84 187.317   3
   0   2   8 3039.87 186.644   1
   0   2   8 3243.14 186.794   2
  -1  -2  -8 450.712 28.0524   3
   1   2   8 398.484 27.6751   2
  -2  -2  -8 450.456 28.4468   3
   2   2   8 418.364 28.9119   2
  -3  -2  -8 113.175 7.79826   3
   3   2   8 104.964 8.79916   2
  -4  -2  -8 219.623 14.7514   3
   4   2   8 228.001 16.0201   2
  -5  -2  -8 32.1416 3.14982   3
   5   2   8 37.3653 5.37287   2
  -6  -2  -8 766.469 50.1908   3
   6   2   8 808.318 51.8280   2
  -7  -2  -8 16.8866 2.47824   3
   7   2   8 22.2274 5.28417   2
  -8  -2  -8 83.0345 6.60068   3
   8   2   8 104.223 9.95468   2
  -9  -2  -8 1.13707 2.02832   3
   9   2   8 -0.5376 4.51155   2
 -10   3   8 -0.2036 3.85735   1
  -9   3   8 67.2206 7.91305   1
  -8   3   8 207.571 15.9262   1
   7  -3  -8 16.4233 2.49960   3
  -7   3   8 15.3685 3.74967   1
   6  -3  -8 539.507 34.4748   3
  -6   3   8 526.524 35.7364   1
   5  -3  -8 17.7236 2.38309   3
  -5   3   8 18.8141 2.02043   2
  -5   3   8 15.5457 3.19975   1
   4  -3  -8 12.8095 2.18383   3
  -4   3   8 11.0094 1.49431   2
  -4   3   8 11.7926 2.53654   1
   3  -3  -8 34.6853 3.52681   3
  -3   3   8 33.6191 2.76465   2
  -3   3   8 33.9950 3.86686   1
   2  -3  -8 128.104 8.45350   3
  -2   3   8 118.638 8.34491   2
  -2   3   8 120.157 8.86032   1
   1  -3  -8 226.333 14.2576   3
  -1   3   8 199.788 13.7499   2
  -1   3   8 199.030 13.9156   1
   0  -3  -8 9.22892 2.46554   3
   0   3   8 13.6972 1.64824   1
   0   3   8 10.1971 1.94234   2
  -1  -3  -8 41.3596 4.12928   3
   1   3   8 45.1148 4.21428   2
  -2  -3  -8 137.123 9.31322   3
   2   3   8 125.551 9.73366   2
  -3  -3  -8 127.066 8.62602   3
   3   3   8 114.978 9.63055   2
  -4  -3  -8 171.089 11.3979   3
   4   3   8 160.959 12.8429   2
  -5  -3  -8 182.732 12.3459   3
   5   3   8 182.632 14.0521   2
  -6  -3  -8 320.749 21.1735   3
   6   3   8 325.474 23.0420   2
  -7  -3  -8 2.29015 1.62308   3
   7   3   8 4.24583 4.25248   2
  -8  -3  -8 16.8752 2.63854   3
   8   3   8 19.8298 5.46068   2
  -9  -3  -8 5.69988 2.26987   3
   9   3   8 12.9234 5.20057   2
 -10   4   8 -0.3898 3.88679   1
  -9   4   8 35.7937 6.03953   1
  -8   4   8 4.77864 3.43989   1
  -7   4   8 183.910 14.1287   1
   6  -4  -8 8.18201 2.06533   3
  -6   4   8 4.46079 2.72634   1
   5  -4  -8 755.923 47.9794   3
  -5   4   8 718.121 48.5913   1
  -5   4   8 752.918 47.5190   2
   4  -4  -8 96.9982 6.86360   3
  -4   4   8 79.5702 7.13353   1
  -4   4   8 85.9965 6.12189   2
   3  -4  -8 284.239 16.5851   3
  -3   4   8 222.575 16.8495   1
  -3   4   8 237.956 16.2254   2
   2  -4  -8 6.33049 1.74087   3
  -2   4   8 6.91301 1.43674   2
  -2   4   8 4.69039 1.70093   1
   1  -4  -8 34.7973 4.43754   3
  -1   4   8 49.3236 3.94011   1
  -1   4   8 49.1104 3.87456   2
   0  -4  -8 285.696 19.7222   1
   0  -4  -8 288.985 20.2738   3
   0   4   8 328.815 19.9183   2
  -1  -4  -8 91.8303 7.19019   3
   1   4   8 97.1960 7.24772   2
  -2  -4  -8 6.18524 1.69600   3
   2   4   8 5.09942 2.16425   2
  -3  -4  -8 1.31233 1.38700   3
   3   4   8 4.53337 2.41345   2
  -4  -4  -8 255.662 17.2193   3
   4   4   8 266.711 18.2102   2
  -5  -4  -8 693.292 44.0555   3
   5   4   8 674.456 44.9965   2
  -6  -4  -8 609.028 38.7556   3
   6   4   8 587.706 39.8185   2
  -7  -4  -8 0.74192 1.70180   3
   7   4   8 -0.9142 3.58334   2
  -8  -4  -8 1.18897 2.10365   3
   8   4   8 1.54264 4.23531   2
 -10   5   8 6.96741 4.35855   1
  -9   5   8 1.62454 3.44152   1
  -8   5   8 170.241 13.5419   1
  -7   5   8 4.86206 3.12165   1
  -6   5   8 603.855 37.8279   2
  -6   5   8 564.989 38.8775   1
   5  -5  -8 1.71291 1.51288   3
  -5   5   8 0.24342 1.19837   2
  -5   5   8 0.02406 2.20147   1
   4  -5  -8 62.1604 4.56889   3
  -4   5   8 58.0189 4.43513   2
  -4   5   8 50.9879 5.30676   1
   3  -5  -8 81.1328 5.55968   3
  -3   5   8 68.7547 5.20570   2
  -3   5   8 59.5192 5.83251   1
   2  -5  -8 71.9244 6.41768   3
  -2   5   8 85.8126 5.81118   2
  -2   5   8 71.4226 5.94310   1
   1  -5  -8 1536.04 101.837   3
   1  -5  -8 1569.63 101.652   1
  -1   5   8 1673.74 101.483   2
   0  -5  -8 623.867 39.2984   3
   0  -5  -8 593.614 39.0041   1
   0   5   8 597.411 39.0590   2
  -1  -5  -8 28.6592 3.13460   3
   1   5   8 26.0694 3.33030   2
  -2  -5  -8 16.6939 2.47108   3
   2   5   8 14.3951 2.82717   2
  -3  -5  -8 172.672 12.1963   3
   3   5   8 190.052 12.9307   2
  -4  -5  -8 80.9421 5.99480   3
   4   5   8 75.0276 6.73354   2
  -5  -5  -8 291.793 19.7012   3
   5   5   8 305.307 20.5692   2
  -6  -5  -8 2.41846 1.72579   3
   6   5   8 2.91363 3.18781   2
  -7  -5  -8 54.2682 4.99465   3
   7   5   8 63.2867 6.76118   2
  -8  -5  -8 2.96836 2.14288   3
   8   5   8 6.16827 3.89205   2
  -8   6   8 69.4140 7.40754   1
  -7   6   8 564.627 37.8844   1
  -6   6   8 75.2439 5.68978   2
  -6   6   8 56.7929 6.46206   1
  -5   6   8 0.75472 2.36874   1
  -5   6   8 1.78020 1.48041   2
   4  -6  -8 105.470 7.08202   3
  -4   6   8 96.2154 6.83622   2
  -4   6   8 76.8091 7.49013   1
   3  -6  -8 -1.2812 2.06340   3
   3  -6  -8 2.42320 2.16252   1
  -3   6   8 2.40346 1.52209   2
   2  -6  -8 448.052 31.6063   1
   2  -6  -8 460.164 31.4836   3
  -2   6   8 523.765 31.1135   2
   1  -6  -8 127.749 9.11024   3
   1  -6  -8 114.605 9.13551   1
  -1   6   8 127.119 8.87220   2
   0  -6  -8 67.0881 5.30453   3
   0   6   8 58.3816 5.26006   2
  -1  -6  -8 185.579 13.0156   3
   1   6   8 196.236 13.3073   2
  -2  -6  -8 5.60472 1.81861   3
   2   6   8 3.89172 2.16067   2
  -3  -6  -8 362.459 25.7609   3
   3   6   8 437.243 26.5047   2
  -4  -6  -8 170.324 12.3189   3
   4   6   8 194.977 13.1936   2
  -5  -6  -8 650.917 44.9475   3
   5   6   8 756.889 45.8242   2
  -6  -6  -8 5.19376 2.01441   3
   6   6   8 9.00592 3.70194   2
  -7  -6  -8 13.1467 2.73295   3
   7   6   8 9.69702 4.13733   2
   9  -7  -8 10.0282 4.19255   1
   8  -7  -8 124.865 10.8771   1
   7  -7  -8 55.8352 6.57404   1
   6  -7  -8 279.181 21.7203   1
  -6   7   8 337.963 20.8187   2
   5  -7  -8 25.3818 4.28934   1
  -5   7   8 28.4910 3.23016   2
   4  -7  -8 12.6350 3.39089   1
  -4   7   8 19.2129 2.67330   2
   3  -7  -8 23.4080 3.45923   3
   3  -7  -8 24.8901 4.19910   1
  -3   7   8 29.3547 3.14669   2
   2  -7  -8 32.3670 3.71489   3
   2  -7  -8 32.3087 4.36074   1
  -2   7   8 36.7125 3.61514   2
   1  -7  -8 311.684 22.7822   1
   1  -7  -8 369.074 22.4538   3
  -1   7   8 331.266 22.3518   2
   0  -7  -8 169.962 11.9724   3
   0   7   8 177.028 12.2715   2
  -1  -7  -8 32.1551 3.52165   3
   1   7   8 37.2389 3.96544   2
  -2  -7  -8 21.8096 2.80479   3
   2   7   8 17.3686 3.26682   2
  -3  -7  -8 130.431 9.50461   3
   3   7   8 140.357 10.3754   2
  -4  -7  -8 667.348 45.4447   3
   4   7   8 748.787 46.0508   2
  -5  -7  -8 215.501 16.4763   3
   5   7   8 300.755 17.9572   2
  -6  -7  -8 14.5383 2.72792   3
   6   7   8 15.8424 4.55210   2
  -7  -7  -8 3.36690 2.36086   3
   7   7   8 9.00536 4.66945   2
   9  -8  -8 72.1239 8.05236   1
   8  -8  -8 7.54617 4.11486   1
   7  -8  -8 268.152 21.0016   1
  -7   8   8 310.732 20.0059   2
   6  -8  -8 13.0959 3.81409   1
  -6   8   8 12.7410 2.72869   2
   5  -8  -8 8.66796 3.45919   1
  -5   8   8 7.04864 2.21218   2
   4  -8  -8 31.3563 5.02165   1
  -4   8   8 35.6524 3.71441   2
   3  -8  -8 39.9588 5.36345   1
  -3   8   8 41.9583 4.04336   2
   2  -8  -8 429.867 26.5574   3
   2  -8  -8 358.268 27.3629   1
  -2   8   8 420.402 26.7005   2
   1  -8  -8 224.210 14.9715   3
  -1   8   8 216.080 15.0719   2
   0  -8  -8 3.34678 1.83884   3
   0   8   8 2.47473 2.22514   2
  -1  -8  -8 0.56101 1.69668   3
   1   8   8 -3.0947 2.01944   2
  -2  -8  -8 112.689 7.95646   3
   2   8   8 100.426 8.26702   2
  -3  -8  -8 31.8467 3.61315   3
   3   8   8 29.4475 4.33944   2
  -4  -8  -8 7.18285 2.13640   3
   4   8   8 7.97978 3.34001   2
  -5  -8  -8 15.6712 2.79982   3
   5   8   8 21.9806 4.30617   2
  -6  -8  -8 11.4164 2.76432   3
   6   8   8 15.5055 4.27810   2
   8  -9  -8 209.823 16.3171   1
   7  -9  -8 102.172 10.0348   1
  -7   9   8 118.977 9.12829   2
   6  -9  -8 -0.3446 3.44355   1
  -6   9   8 9.35593 2.63301   2
   5  -9  -8 39.5463 5.90968   1
  -5   9   8 42.7314 4.38457   2
   4  -9  -8 27.9647 4.80505   1
  -4   9   8 25.3321 3.46450   2
   3  -9  -8 423.392 29.9162   1
  -3   9   8 446.548 28.7330   2
   2  -9  -8 122.767 10.6719   1
  -2   9   8 127.105 9.37752   2
   1  -9  -8 84.2472 6.49101   3
  -1   9   8 79.7055 6.77226   2
   0  -9  -8 126.325 8.40796   3
   0   9   8 98.5419 8.62965   2
  -1  -9  -8 50.1636 4.61225   3
   1   9   8 51.3589 5.21542   2
  -2  -9  -8 369.670 24.1290   3
   2   9   8 358.845 24.5953   2
  -3  -9  -8 13.6007 2.51806   3
   3   9   8 12.4906 3.30082   2
  -4  -9  -8 602.817 38.7769   3
   4   9   8 586.110 39.0742   2
  -5  -9  -8 19.6752 3.25340   3
   5   9   8 19.2705 4.12707   2
  -6  -9  -8 7.65339 2.76679   3
   6   9   8 10.0192 4.04630   2
   8 -10  -8 119.181 11.0741   1
   7 -10  -8 46.2658 6.83904   1
  -7  10   8 47.3769 5.66137   2
   6 -10  -8 8.97448 4.42134   1
  -6  10   8 0.03395 2.59169   2
   5 -10  -8 21.4330 5.00639   1
  -5  10   8 17.0294 3.02786   2
   4 -10  -8 55.8258 7.40133   1
  -4  10   8 61.0890 5.50007   2
   3 -10  -8 31.5238 5.78224   1
  -3  10   8 34.3723 4.18243   2
  -2  10   8 215.052 15.0521   2
  -1  10   8 60.8198 5.73204   2
   0  10   8 49.9981 5.19175   2
  -1 -10  -8 40.0279 4.27439   3
   1  10   8 45.6299 5.08211   2
  -2 -10  -8 54.8438 4.98618   3
   2  10   8 54.8252 5.79967   2
  -3 -10  -8 420.650 27.8809   3
   3  10   8 422.964 28.4040   2
  -4 -10  -8 64.2123 5.84746   3
   4  10   8 61.6158 6.78358   2
  -5 -10  -8 69.3154 6.40195   3
   5  10   8 73.0491 7.29590   2
   7 -11  -8 -1.8771 4.12571   1
  -7  11   8 -0.7980 3.13644   2
   6 -11  -8 4.06238 4.63208   1
  -6  11   8 2.50643 3.00381   2
   5 -11  -8 0.82044 4.31588   1
  -5  11   8 2.64521 2.51811   2
   4 -11  -8 18.8725 5.75104   1
  -4  11   8 26.1762 3.76677   2
  -3  11   8 84.0555 7.22323   2
  -2  11   8 113.111 8.88029   2
  -1  11   8 -1.2117 2.54666   2
   0  11   8 19.4326 3.67287   2
   1  11   8 7.60646 3.11982   2
  -2 -11  -8 19.4259 3.22101   3
   2  11   8 18.5754 3.80794   2
  -3 -11  -8 94.9804 7.57799   3
   3  11   8 88.5401 8.20087   2
  -4 -11  -8 13.4546 3.08998   3
   4  11   8 4.21669 3.57293   2
   6 -12  -8 16.4609 5.44482   1
  -6  12   8 11.7243 3.57526   2
   5 -12  -8 37.4134 6.85381   1
  -5  12   8 36.2065 4.78113   2
  -3  12   8 200.957 14.4883   2
  -2  12   8 68.5099 6.62150   2
  -1  12   8 25.2638 4.14525   2
   0  12   8 12.1916 3.54807   2
   1  12   8 112.845 9.40294   2
   2  12   8 8.98566 3.31108   2
  -4  13   8 -1.3159 2.70922   2
  -3  13   8 58.3035 6.15150   2
  -2  13   8 43.4490 5.58671   2
  -1  13   8 17.6539 3.78516   2
   0  13   8 29.9266 4.57294   2
  -1 -14   9 126.663 11.7443   1
   0 -14   9 8.33108 3.98776   1
   1 -14   9 40.2888 5.64747   1
   2 -14   9 62.4340 6.63172   1
  -3  14  -9 74.9944 5.47618   2
   3 -14   9 52.0943 6.32330   1
  -4  14  -9 5.87148 2.10832   2
   4 -14   9 2.64355 2.85155   1
  -3 -13   9 3.38387 5.14002   1
  -2 -13   9 10.9935 4.99662   1
  -1 -13   9 156.889 13.1403   1
   0 -13   9 156.304 12.4127   1
   1 -13   9 13.7721 3.58949   1
  -2  13  -9 142.340 9.48889   2
   2 -13   9 126.218 10.5669   1
  -3  13  -9 12.3539 2.23301   2
   3 -13   9 9.27240 3.13236   1
  -4  13  -9 3.17303 1.89417   2
   4 -13   9 1.96477 2.62107   1
  -5  13  -9 49.4104 4.53434   2
   5 -13   9 45.3592 5.35764   1
  -6  13  -9 362.815 23.1375   2
   6 -13   9 331.972 23.7255   1
  -4 -12   9 90.8687 13.3660   1
  -3 -12   9 7.02441 5.44377   1
  -2 -12   9 21.9008 5.06977   1
  -1 -12   9 20.5873 4.37072   1
   0 -12   9 30.4724 4.55112   1
   1 -12   9 5.60744 2.67005   1
  -2  12  -9 48.7372 3.93841   2
   2 -12   9 41.2307 4.93357   1
  -3  12  -9 8.55586 1.89616   2
   3 -12   9 7.35094 2.66692   1
  -4  12  -9 53.2260 4.52283   2
   4 -12   9 51.2076 5.29075   1
  -5  12  -9 83.5404 6.32807   2
   5 -12   9 77.6673 7.00048   1
  -6  12  -9 2.68984 2.03037   2
   6 -12   9 4.24027 2.68375   1
  -7  12  -9 17.2434 3.05731   2
   7 -12   9 19.9848 3.56838   1
   5  11  -9 14.5349 2.66670   3
  -5 -11   9 3.66511 9.19372   1
   4  11  -9 242.910 15.7840   3
  -4 -11   9 208.123 20.1359   1
   3  11  -9 27.3189 3.09266   3
  -3 -11   9 22.3333 5.70974   1
  -2 -11   9 113.139 10.1715   1
  -1 -11   9 22.0602 3.87920   1
   0 -11   9 26.2885 4.22390   1
  -1  11  -9 42.5976 3.51986   2
   1 -11   9 44.4459 4.79197   1
  -2  11  -9 222.546 14.2986   2
   2 -11   9 208.123 15.1379   1
  -3  11  -9 0.50365 1.44428   2
   3 -11   9 0.96275 2.09094   1
  -4  11  -9 33.2417 3.32377   2
   4 -11   9 34.2451 4.10668   1
  -5  11  -9 38.9116 3.82918   2
   5 -11   9 39.0639 4.48731   1
  -6  11  -9 7.20458 2.12534   2
   6 -11   9 5.34954 2.63852   1
  -7  11  -9 440.586 28.8323   2
   7 -11   9 436.784 29.2512   1
   6  10  -9 27.8689 3.63803   3
  -6 -10   9 28.9492 12.6553   1
   5  10  -9 0.37465 1.93806   3
  -5 -10   9 2.13212 8.11735   1
   4  10  -9 4.63429 1.95791   3
  -4 -10   9 7.11302 5.75674   1
   3  10  -9 6.34848 1.73531   3
  -3 -10   9 10.0538 4.21829   1
   2  10  -9 542.606 34.1078   3
  -2 -10   9 512.276 35.8154   1
  -1 -10   9 93.8111 8.07619   1
   0 -10   9 112.290 8.84135   1
  -1  10  -9 352.732 22.2658   2
   1 -10   9 334.555 23.1145   1
  -2  10  -9 123.300 8.34579   2
   2 -10   9 120.733 9.18028   1
  -3  10  -9 2.53378 1.41964   2
   3 -10   9 3.96546 1.94827   1
  -4  10  -9 64.5320 5.03466   2
   4 -10   9 65.7866 5.59689   1
  -5  10  -9 496.279 31.1697   2
   5 -10   9 465.147 31.4811   1
  -6  10  -9 78.6755 6.07805   2
   6 -10   9 73.9264 6.47744   1
  -7  10  -9 100.720 7.53236   2
   7 -10   9 92.6186 7.90923   1
  -8  10  -9 5.92740 2.41582   2
   8 -10   9 4.95273 2.84970   1
   7   9  -9 57.0137 5.28063   3
  -7  -9   9 80.8180 15.2728   1
   6   9  -9 49.3394 4.49861   3
  -6  -9   9 47.8422 13.5644   1
   5   9  -9 80.4798 6.30912   3
  -5  -9   9 97.8821 13.1143   1
   4   9  -9 58.0371 4.62018   3
  -4  -9   9 49.9784 8.61609   1
   3   9  -9 2.07113 1.42914   3
  -3  -9   9 0.83794 3.36460   1
   2   9  -9 106.952 7.54501   3
  -2  -9   9 111.255 9.32680   1
   1   9  -9 122.944 8.39292   3
  -1  -9   9 122.320 9.61232   1
   0   9  -9 14.2177 2.02006   3
   0   9  -9 12.2241 1.57426   2
   0  -9   9 13.4715 2.65914   1
  -1   9  -9 177.052 11.5058   2
   1  -9   9 171.576 12.2622   1
  -2   9  -9 55.9143 4.24631   2
   2  -9   9 57.2207 5.06417   1
  -3   9  -9 12.4675 1.87690   2
   3  -9   9 10.9529 2.21821   1
  -4   9  -9 33.4483 3.24654   2
   4  -9   9 36.8966 3.79228   1
  -5   9  -9 26.0391 2.84659   2
   5  -9   9 24.4207 3.19792   1
  -6   9  -9 95.4564 7.17662   2
   6  -9   9 97.2015 7.57181   1
  -7   9  -9 29.2835 3.72011   2
   7  -9   9 32.5805 4.28148   1
  -8   9  -9 89.1738 7.30946   2
   8  -9   9 88.1278 7.39180   1
   7   8  -9 -0.9100 1.87847   3
  -7  -8   9 2.16570 10.4166   1
   6   8  -9 5.27277 1.87761   3
  -6  -8   9 4.64225 9.42259   1
   5   8  -9 329.311 21.7839   3
  -5  -8   9 345.114 26.8426   1
   4   8  -9 4.47082 1.53279   3
  -4  -8   9 5.24746 4.60517   1
   3   8  -9 9.40700 1.61574   3
  -3  -8   9 7.54400 3.59475   1
   2   8  -9 66.5935 4.85171   3
  -2  -8   9 62.3644 6.35231   1
   1   8  -9 2.75221 1.21524   3
  -1  -8   9 2.97736 2.16057   1
   0   8  -9 4.73768 1.27652   3
   0   8  -9 2.68839 0.94387   2
   0  -8   9 1.33648 1.74404   1
  -1   8  -9 257.733 16.5428   2
  -1   8  -9 256.500 17.0874   3
   1  -8   9 250.841 17.2259   1
  -2   8  -9 5.38616 1.24851   2
   2  -8   9 6.36066 1.85570   1
  -3   8  -9 167.289 11.3410   2
   3  -8   9 173.947 11.7995   1
  -4   8  -9 85.6382 6.33608   2
   4  -8   9 92.3259 6.76983   1
  -5   8  -9 4.65849 1.66760   2
   5  -8   9 4.09452 1.82719   1
  -6   8  -9 311.649 20.8136   2
   6  -8   9 318.170 20.9851   1
  -7   8  -9 18.9491 2.86374   2
   7  -8   9 18.7998 3.19349   1
  -8   8  -9 50.8105 5.18473   2
  -9   8  -9 18.8903 3.60154   2
   9  -8   9 8.11412 2.22315   4
   8   7  -9 13.0779 2.56610   3
  -8  -7   9 11.8999 7.73586   1
   7   7  -9 7.85584 2.12144   3
  -7  -7   9 11.8386 9.54622   1
   6   7  -9 2.84660 1.70949   3
  -6  -7   9 -3.3240 6.35362   1
   5   7  -9 37.8404 3.47180   3
  -5  -7   9 38.6366 7.98856   1
   4   7  -9 10.2041 1.69922   3
  -4  -7   9 9.75301 4.57616   1
   3   7  -9 624.429 39.2714   3
  -3  -7   9 598.870 41.0475   1
   2   7  -9 19.5565 2.06005   3
  -2  -7   9 16.2790 3.17130   1
   1   7  -9 212.877 13.8261   3
  -1  -7   9 206.303 14.6949   1
   0   7  -9 550.903 36.4774   3
   0   7  -9 597.662 36.2327   2
   0  -7   9 554.513 36.0758   4
   0  -7   9 570.651 37.0091   1
  -1   7  -9 264.315 16.7572   2
  -1   7  -9 270.052 17.4191   3
   1  -7   9 260.568 17.3685   1
   1  -7   9 245.979 16.5744   4
  -2   7  -9 29.9030 2.63039   2
  -2   7  -9 32.3357 3.32429   3
   2  -7   9 31.8969 3.23324   1
  -3   7  -9 32.8583 2.77696   2
   3  -7   9 29.2706 3.09801   1
  -4   7  -9 369.858 23.7222   2
   4  -7   9 361.990 23.8797   1
  -5   7  -9 381.033 24.5057   2
   5  -7   9 371.597 24.5997   1
  -6   7  -9 197.041 13.2665   2
   6  -7   9 192.738 13.2690   1
  -7   7  -9 88.3569 6.93089   2
   7  -7   9 87.0757 6.76713   1
  -8   7  -9 271.238 17.5036   2
   8  -7   9 238.208 16.6365   4
  -9   7  -9 43.6562 5.08774   2
   9  -7   9 33.5883 3.65664   4
   8   6  -9 10.4561 2.28274   3
  -8  -6   9 11.3019 7.54680   1
   7   6  -9 51.2332 4.45920   3
  -7  -6   9 60.3722 10.2043   1
   6   6  -9 80.4895 6.12804   3
  -6  -6   9 99.4754 12.3872   1
   5   6  -9 11.5701 1.87412   3
  -5  -6   9 26.3254 6.71866   1
   4   6  -9 19.4143 2.23900   3
  -4  -6   9 22.3372 5.28885   1
   3   6  -9 657.896 41.9901   3
  -3  -6   9 656.250 43.8664   1
   2   6  -9 219.638 14.4007   3
  -2  -6   9 220.948 15.6502   1
   1   6  -9 5.02469 1.20914   3
   1   6  -9 6.89030 0.92847   2
  -1  -6   9 7.67959 2.23189   1
   0   6  -9 588.763 35.6882   2
   0   6  -9 542.666 35.9762   3
   0  -6   9 537.010 36.3835   1
   0  -6   9 568.402 35.5802   4
  -1   6  -9 64.6543 5.42029   3
  -1   6  -9 69.5828 4.60714   2
   1  -6   9 62.2452 4.39261   4
   1  -6   9 63.7967 5.19154   1
  -2   6  -9 4.71990 1.77795   3
  -2   6  -9 6.44578 1.22695   2
   2  -6   9 9.13097 1.69594   1
   2  -6   9 7.71953 1.01384   4
  -3   6  -9 10.3991 1.82300   3
  -3   6  -9 6.45972 1.38673   2
   3  -6   9 7.98936 1.59975   1
  -4   6  -9 46.4400 3.81703   2
   4  -6   9 46.6212 3.88981   1
  -5   6  -9 67.9714 5.11231   2
   5  -6   9 63.1625 5.04470   1
  -6   6  -9 9.06623 2.08951   2
   6  -6   9 10.4574 1.99709   1
  -7   6  -9 98.4095 7.66003   2
   7  -6   9 104.410 7.09941   4
   7  -6   9 99.5519 7.43025   1
  -8   6  -9 605.885 38.0950   2
   8  -6   9 559.203 37.2985   4
  -9   6  -9 51.7744 5.62689   2
   9  -6   9 47.5896 4.29089   4
  -9  -5   9 77.9399 11.1485   1
   8   5  -9 6.51943 2.04190   3
  -8  -5   9 4.67305 6.48883   1
   7   5  -9 8.94941 1.95560   3
  -7  -5   9 11.0902 6.49636   1
   6   5  -9 329.186 21.9023   3
  -6  -5   9 352.886 26.2695   1
   5   5  -9 56.3073 4.42910   3
  -5  -5   9 66.6694 9.28771   1
   4   5  -9 94.6993 6.57372   3
  -4  -5   9 91.7809 9.67734   1
   3   5  -9 7.23360 1.29409   3
  -3  -5   9 4.50340 3.15079   1
   2   5  -9 9.20204 1.35397   3
  -2  -5   9 10.1742 2.66555   1
   1   5  -9 20.1510 1.65558   2
   1   5  -9 19.4417 2.05917   3
  -1  -5   9 19.0510 2.95881   1
   0   5  -9 137.830 9.06420   2
   0   5  -9 140.522 9.51250   3
   0  -5   9 141.979 9.01743   4
   0  -5   9 133.796 9.73986   1
  -1   5  -9 26.0512 2.11779   2
  -1   5  -9 24.5363 3.01659   3
   1  -5   9 23.4733 2.70372   1
   1  -5   9 23.7494 1.91447   4
  -2   5  -9 635.046 42.8864   3
  -2   5  -9 643.267 42.3913   2
   2  -5   9 682.916 42.2337   4
   2  -5   9 697.158 42.7017   1
  -3   5  -9 55.5094 4.32591   2
  -3   5  -9 62.4662 4.76044   3
   3  -5   9 59.6556 4.11179   4
   3  -5   9 58.4746 4.48506   1
  -4   5  -9 4.06596 1.31124   2
  -4   5  -9 5.04587 1.11744   3
   4  -5   9 3.38792 1.12863   4
   4  -5   9 2.08265 1.16257   1
  -5   5  -9 187.280 12.2198   2
   5  -5   9 178.729 11.8013   4
   5  -5   9 174.832 12.0433   1
  -6   5  -9 74.1026 5.63033   2
   6  -5   9 69.3493 5.03879   4
   6  -5   9 66.4755 5.24074   1
  -7   5  -9 232.716 15.4271   2
   7  -5   9 216.507 14.6835   4
  -8   5  -9 16.9589 3.32835   2
   8  -5   9 17.3078 2.35383   4
  -9   5  -9 219.121 15.1762   2
   9  -5   9 199.350 13.9042   4
   9   4  -9 7.27004 2.24485   3
  -9  -4   9 9.23454 6.09637   1
   8   4  -9 6.12348 1.98306   3
  -8  -4   9 12.2828 5.61843   1
   7   4  -9 17.5985 2.56213   3
  -7  -4   9 28.6018 6.65386   1
   6   4  -9 54.7991 4.47359   3
  -6  -4   9 69.9628 9.10763   1
   5   4  -9 0.86427 1.21515   3
  -5  -4   9 1.47441 4.16014   1
   4   4  -9 459.218 29.6457   3
  -4  -4   9 465.719 32.3607   1
   3   4  -9 31.5488 2.70378   3
  -3  -4   9 31.4863 4.96215   1
   2   4  -9 118.328 7.76138   3
  -2  -4   9 107.289 8.86500   1
   1   4  -9 402.898 26.2735   3
   1   4  -9 425.510 25.9822   2
  -1  -4   9 389.557 26.8378   1
   0   4  -9 498.716 32.7844   3
   0   4  -9 510.304 32.3199   2
   0  -4   9 502.056 32.9096   1
   0  -4   9 516.901 32.2931   4
  -1   4  -9 22.0220 1.96495   2
  -1   4  -9 24.2272 2.73833   3
   1  -4   9 19.6221 1.80950   4
   1  -4   9 21.6294 2.46451   1
  -2   4  -9 2.19477 0.97663   2
  -2   4  -9 0.69400 1.73967   3
   2  -4   9 0.66992 0.76765   4
   2  -4   9 2.13414 1.17906   1
  -3   4  -9 126.823 8.30661   3
  -3   4  -9 113.584 7.92907   2
   3  -4   9 113.277 7.65870   4
   3  -4   9 113.085 7.92006   1
  -4   4  -9 1246.69 81.6836   2
  -4   4  -9 1307.77 81.6051   3
   4  -4   9 1276.03 81.5997   1
   4  -4   9 1307.66 81.4177   4
  -5   4  -9 306.639 20.5237   3
  -5   4  -9 324.238 20.9076   2
   5  -4   9 307.689 20.6343   1
   5  -4   9 337.012 20.5011   4
  -6   4  -9 217.332 14.8575   2
  -7   4  -9 157.369 11.2810   2
   7  -4   9 154.267 10.4261   4
  -8   4  -9 26.5203 3.88703   2
   8  -4   9 22.0198 2.63208   4
   9  -4   9 14.3929 2.47045   4
   9   3  -9 22.8592 3.20271   3
  -9  -3   9 21.6865 6.35413   1
   8   3  -9 16.4775 2.47242   3
  -8  -3   9 11.5470 5.66314   1
   7   3  -9 47.3497 4.17894   3
  -7  -3   9 60.7640 8.42214   1
   6   3  -9 7.00240 1.62063   3
  -6  -3   9 14.2031 5.24285   1
   5   3  -9 0.97012 1.13782   3
  -5  -3   9 2.88355 3.91363   1
   4   3  -9 1501.09 96.4849   3
  -4  -3   9 1546.14 99.3125   1
   3   3  -9 169.994 11.2999   3
  -3  -3   9 173.257 13.3979   1
   2   3  -9 7.13826 1.25001   3
  -2  -3   9 9.01006 2.70636   1
   1   3  -9 895.489 59.4393   3
  -1  -3   9 979.105 59.1771   2
  -1  -3   9 918.911 60.0293   1
   0   3  -9 9.93482 1.96398   3
   0   3  -9 12.5431 1.43022   2
   0  -3   9 12.1588 2.04692   1
  -1   3  -9 24.4662 2.24230   2
  -1   3  -9 29.9780 3.18668   3
   1  -3   9 27.5208 2.16166   4
   1  -3   9 23.1973 2.55307   1
  -2   3  -9 241.442 16.1522   2
   2  -3   9 250.069 15.9485   4
   2  -3   9 252.862 16.2260   1
  -3   3  -9 57.7823 4.36350   3
  -3   3  -9 47.1935 3.97992   2
   3  -3   9 53.4252 3.84169   1
   3  -3   9 48.5331 3.65297   4
  -4   3  -9 53.4780 4.33532   2
  -4   3  -9 58.2439 4.10623   3
   4  -3   9 51.8377 3.91803   1
   4  -3   9 49.0428 3.84730   4
  -5   3  -9 12.8906 1.75094   3
  -5   3  -9 11.3454 2.17044   2
   5  -3   9 13.3278 1.55023   4
   5  -3   9 9.72543 1.63022   1
  -6   3  -9 120.007 8.80015   2
  -6   3  -9 116.795 8.07974   3
   6  -3   9 116.934 8.00263   4
  -7   3  -9 807.394 51.2701   2
  -7   3  -9 776.746 50.5206   3
   7  -3   9 792.506 50.4715   4
   8  -3   9 34.8585 3.36728   4
   9  -3   9 -1.5148 1.81581   4
   9  -3   9 -0.4572 3.22804   2
   9   2  -9 0.07484 1.91524   3
  -9  -2   9 0.54118 4.93503   1
   8   2  -9 39.5469 3.84711   3
  -8  -2   9 39.7372 6.96938   1
   7   2  -9 314.956 21.8982   3
  -7  -2   9 376.602 24.7307   1
   6   2  -9 216.792 15.2507   3
  -6  -2   9 271.155 18.2999   1
   5   2  -9 106.450 7.52282   3
  -5  -2   9 117.219 10.1152   1
   4   2  -9 21.4095 2.19804   3
  -4  -2   9 25.3419 4.78045   1
   3   2  -9 19.9346 2.10381   3
  -3  -2   9 25.5207 4.34187   1
   2   2  -9 213.549 13.8424   3
  -2  -2   9 203.026 15.1754   1
   1   2  -9 2.18807 1.27783   3
  -1  -2   9 0.86734 1.69081   1
  -1  -2   9 2.87155 1.25101   2
   0   2  -9 32.8648 3.29911   3
   0  -2   9 35.1076 3.36320   1
   0  -2   9 30.6234 2.77041   2
  -1   2  -9 1151.01 72.5342   3
  -1   2  -9 1141.69 72.1878   2
   1  -2   9 1126.52 72.3213   1
   1  -2   9 1122.83 72.0057   4
  -2   2  -9 0.43108 1.01792   2
  -2   2  -9 2.00395 2.08756   3
   2  -2   9 -0.1943 0.87000   4
   2  -2   9 1.00834 0.98952   1
  -3   2  -9 43.5534 3.88140   3
  -3   2  -9 42.0808 3.65592   2
   3  -2   9 41.3153 3.21745   4
   3  -2   9 46.1069 3.38316   1
  -4   2  -9 2.52733 1.48329   2
  -4   2  -9 3.42507 1.18245   3
   4  -2   9 1.19973 0.97301   4
   4  -2   9 1.57787 0.91277   1
  -5   2  -9 16.3416 2.53155   2
  -5   2  -9 15.7543 1.99500   3
   5  -2   9 14.5614 1.77379   4
  -6   2  -9 258.530 16.6048   3
   6  -2   9 246.367 16.4688   4
  -7   2  -9 20.4758 2.46303   3
   7  -2   9 20.6175 2.50348   4
   7  -2   9 20.8493 3.80034   2
  -8   2  -9 156.066 10.4191   3
   8  -2   9 146.870 10.3319   4
   8  -2   9 145.544 11.9121   2
   9  -2   9 31.6603 5.56508   2
   9  -2   9 44.6517 4.15259   4
  10   1  -9 5.38839 2.25225   3
 -10  -1   9 -1.9625 4.32503   1
   9   1  -9 41.2956 4.10509   3
  -9  -1   9 39.0632 6.92813   1
   8   1  -9 37.5485 3.82221   3
  -8  -1   9 43.1584 6.98664   1
   7   1  -9 4.80428 1.67124   3
  -7  -1   9 5.92991 4.34526   1
   6   1  -9 4.51530 1.42531   3
  -6  -1   9 5.10502 3.60066   1
   5   1  -9 205.570 14.5238   3
  -5  -1   9 262.265 17.2991   1
   4   1  -9 5.77990 1.24170   3
  -4  -1   9 7.52321 3.00654   1
   3   1  -9 26.3074 2.42410   3
  -3  -1   9 19.3458 3.97063   1
   2   1  -9 0.90102 1.14286   3
  -2  -1   9 1.40531 0.81415   2
  -2  -1   9 5.34398 2.69421   1
   1   1  -9 179.787 12.3106   3
  -1  -1   9 184.862 12.9526   1
  -1  -1   9 175.904 12.0990   2
   0   1  -9 109.713 7.86454   3
   0  -1   9 115.849 7.98668   2
   0  -1   9 110.263 8.17915   1
  -1   1  -9 126.689 9.16218   3
   1  -1   9 118.243 8.67942   2
   1  -1   9 129.734 8.69775   1
  -2   1  -9 35.5097 4.27244   3
   2  -1   9 41.7544 3.67576   2
   2  -1   9 44.2236 3.29523   1
   2  -1   9 41.1033 3.27044   4
  -3   1  -9 1614.86 99.3842   3
   3  -1   9 1573.56 99.3223   2
   3  -1   9 1582.96 98.8691   1
   3  -1   9 1471.77 98.8499   4
  -4   1  -9 255.046 16.4522   3
   4  -1   9 243.298 16.2027   4
   4  -1   9 251.238 16.8785   2
  -5   1  -9 350.933 22.6515   3
   5  -1   9 342.284 22.4714   4
   5  -1   9 353.457 23.2736   2
  -6   1  -9 14.4862 2.19941   3
   6  -1   9 17.4412 3.56145   2
   6  -1   9 15.4933 2.05088   4
  -7   1  -9 20.8707 2.55483   3
   7  -1   9 15.2010 3.92051   2
   7  -1   9 23.8172 2.69826   4
  -8   1  -9 2.65786 1.73256   3
   8  -1   9 -0.0697 3.65167   2
   8  -1   9 2.90191 2.00891   4
   9  -1   9 298.390 21.7307   2
   9  -1   9 294.501 19.6872   4
  10   0  -9 126.461 9.40445   3
 -10   0   9 133.486 12.6433   1
   9   0  -9 2.36526 1.98088   3
  -9   0   9 1.54013 4.19637   1
   8   0  -9 6.82740 1.85817   3
  -8   0   9 3.48078 4.37897   1
   7   0  -9 1.91106 1.46214   3
  -7   0   9 -4.0781 3.49795   1
   6   0  -9 19.1349 2.30803   3
  -6   0   9 22.5148 4.53928   1
   5   0  -9 1205.63 82.1304   3
  -5   0   9 1397.42 83.8289   1
   4   0  -9 49.8771 3.97415   3
  -4   0   9 54.4119 5.75679   1
   3   0  -9 101.825 7.03712   3
  -3   0   9 94.1690 8.19375   1
   2   0  -9 702.998 41.7645   3
  -2   0   9 678.257 42.5601   1
  -2   0   9 578.289 41.2583   2
   1   0  -9 27.8037 3.02087   3
  -1   0   9 24.0233 3.59351   1
  -1   0   9 31.1913 2.74021   2
   0   0  -9 13.1961 2.00436   3
   0   0   9 12.7815 2.26745   2
   0   0   9 13.8737 2.35482   1
  -1   0  -9 357.826 27.1610   3
   1   0   9 433.523 26.8355   2
   1   0   9 425.924 26.6331   1
  -2   0  -9 78.6664 6.59406   3
   2   0   9 81.8482 6.41988   2
   2   0   9 78.9356 5.66164   1
  -3   0  -9 28.3217 3.04900   3
   3   0   9 25.1079 3.42644   2
   3   0   9 21.6712 2.48110   4
  -4   0  -9 2.46973 1.34870   3
   4   0   9 0.56321 2.28108   2
   4   0   9 2.25323 1.31758   4
  -5   0  -9 19.1641 2.48706   3
   5   0   9 19.1212 2.20687   4
   5   0   9 17.9535 3.45755   2
  -6   0  -9 573.677 37.2562   3
   6   0   9 587.145 38.4378   2
   6   0   9 579.301 37.1759   4
  -7   0  -9 4.72785 1.59885   3
   7   0   9 6.17476 1.97872   4
   7   0   9 2.68119 3.77220   2
  -8   0  -9 11.4535 2.29281   3
   8   0   9 7.15289 4.66454   2
   8   0   9 18.0728 2.68157   4
  -9   0  -9 3.24942 2.09183   3
   9   0   9 -0.3404 2.30194   4
   9   0   9 1.45509 4.86864   2
 -10   1   9 46.1245 7.52663   1
   9  -1  -9 50.5895 4.66727   3
  -9   1   9 67.4996 8.00432   1
   8  -1  -9 188.888 13.2396   3
  -8   1   9 213.862 15.6194   1
   7  -1  -9 112.896 8.28342   3
  -7   1   9 131.985 10.7588   1
   6  -1  -9 40.3028 3.52813   3
  -6   1   9 43.8180 5.61781   1
   5  -1  -9 20.0648 2.37481   3
  -5   1   9 28.7209 4.57939   1
   4  -1  -9 38.4904 3.55378   3
  -4   1   9 49.7006 5.11899   1
   3  -1  -9 464.344 30.7320   3
  -3   1   9 438.210 30.2407   2
  -3   1   9 540.564 31.7788   1
   2  -1  -9 522.940 32.8705   3
  -2   1   9 447.116 32.2416   2
  -2   1   9 556.780 33.2372   1
   1  -1  -9 356.369 24.7426   3
  -1   1   9 412.162 24.7731   2
  -1   1   9 377.271 25.1920   1
   0  -1  -9 1220.23 70.8625   3
   0   1   9 1024.04 70.6056   2
   0   1   9 1081.43 70.6978   1
  -1  -1  -9 74.9788 7.67231   3
   1   1   9 96.0127 6.60099   1
   1   1   9 105.004 7.59407   2
  -2  -1  -9 68.2009 5.78408   3
   2   1   9 64.3578 5.87841   2
  -3  -1  -9 69.7430 5.37114   3
   3   1   9 60.7366 6.18323   2
  -4  -1  -9 9.17672 1.86097   3
   4   1   9 11.3158 3.18706   2
  -5  -1  -9 95.4728 6.98459   3
   5   1   9 99.3503 8.66223   2
  -6  -1  -9 92.3731 6.77832   3
   6   1   9 92.5621 8.77584   2
  -7  -1  -9 138.101 9.70894   3
   7   1   9 142.852 12.1124   2
  -8  -1  -9 77.4543 6.13367   3
   8   1   9 79.4685 9.02543   2
  -9  -1  -9 530.320 35.1199   3
   9   1   9 558.860 37.7179   2
 -10   2   9 51.6111 7.86423   1
  -9   2   9 67.5612 8.39009   1
   8  -2  -9 2.88925 1.71678   3
  -8   2   9 -1.1092 3.22722   1
   7  -2  -9 8.52563 1.85466   3
  -7   2   9 4.66443 3.23064   1
   6  -2  -9 15.6346 2.44119   3
  -6   2   9 16.4872 3.86534   1
   5  -2  -9 1.88326 1.47913   3
  -5   2   9 3.00257 2.59429   1
   4  -2  -9 5.66105 1.72353   3
  -4   2   9 3.81376 0.94809   2
  -4   2   9 4.39704 2.37360   1
   3  -2  -9 206.443 14.6595   3
  -3   2   9 208.607 14.0918   2
  -3   2   9 238.497 15.2476   1
   2  -2  -9 20.4133 2.49155   3
  -2   2   9 19.5599 2.21415   2
  -2   2   9 23.9439 3.07704   1
   1  -2  -9 97.0413 6.93592   3
  -1   2   9 101.911 7.28427   1
  -1   2   9 90.7987 6.79268   2
   0  -2  -9 244.783 16.9002   3
   0   2   9 247.032 16.1328   1
   0   2   9 237.128 16.1283   2
  -1  -2  -9 5.47073 2.49536   3
   1   2   9 4.16172 1.75595   2
   1   2   9 3.39248 0.97753   1
  -2  -2  -9 1593.69 98.4177   3
   2   2   9 1484.40 98.5716   2
  -3  -2  -9 596.549 37.9112   3
   3   2   9 572.834 38.6278   2
  -4  -2  -9 244.513 16.2918   3
   4   2   9 243.576 17.4627   2
  -5  -2  -9 4.67350 1.68439   3
   5   2   9 5.18952 3.61406   2
  -6  -2  -9 56.2703 4.81340   3
   6   2   9 66.2509 7.42469   2
  -7  -2  -9 55.1335 4.68341   3
   7   2   9 60.3330 7.61450   2
  -8  -2  -9 347.543 23.7179   3
   8   2   9 386.452 26.3330   2
  -9  -2  -9 16.1561 2.79602   3
   9   2   9 23.2659 5.87939   2
 -10   3   9 1.21269 4.20704   1
  -9   3   9 14.1787 4.88200   1
  -8   3   9 1.52002 3.60593   1
   7  -3  -9 22.3241 3.01471   3
  -7   3   9 16.8376 4.10070   1
   6  -3  -9 806.563 54.3706   3
  -6   3   9 898.574 55.8130   1
   5  -3  -9 5.05956 1.88135   3
  -5   3   9 3.66979 2.42295   1
   4  -3  -9 521.758 32.2793   3
  -4   3   9 448.353 32.5421   1
  -4   3   9 505.608 31.6255   2
   3  -3  -9 77.9351 5.98307   3
  -3   3   9 82.9915 5.69674   2
  -3   3   9 74.8044 6.39147   1
   2  -3  -9 12.1389 1.75710   3
  -2   3   9 10.9119 2.21784   1
  -2   3   9 10.6191 1.69205   2
   1  -3  -9 0.22831 1.47907   3
  -1   3   9 -0.0487 1.26375   2
  -1   3   9 -0.3375 1.31357   1
   0  -3  -9 86.5688 8.80768   3
   0   3   9 142.750 8.39101   2
   0   3   9 109.617 7.85774   1
  -1  -3  -9 203.987 14.6016   3
   1   3   9 208.346 14.0405   2
  -2  -3  -9 14.3538 2.59230   3
   2   3   9 13.9732 2.79833   2
  -3  -3  -9 40.3702 3.90163   3
   3   3   9 37.9666 4.87534   2
  -4  -3  -9 6.56692 1.90566   3
   4   3   9 3.95367 3.07498   2
  -5  -3  -9 199.867 13.7653   3
   5   3   9 210.348 15.4370   2
  -6  -3  -9 30.7744 3.42233   3
   6   3   9 26.2401 5.27230   2
  -7  -3  -9 94.5816 7.30092   3
   7   3   9 108.860 10.0472   2
  -8  -3  -9 104.733 7.95590   3
   8   3   9 101.549 10.2723   2
 -10   4   9 53.4207 7.92666   1
  -9   4   9 115.802 10.7956   1
  -8   4   9 56.8226 7.00393   1
  -7   4   9 5.66354 3.14283   1
   6  -4  -9 127.885 9.30505   3
  -6   4   9 120.153 10.2015   1
   5  -4  -9 32.3558 4.01611   3
  -5   4   9 30.3253 4.57771   1
  -5   4   9 37.6245 3.20164   2
   4  -4  -9 116.757 8.16973   3
  -4   4   9 103.598 8.79048   1
  -4   4   9 115.239 7.84409   2
   3  -4  -9 624.751 39.2282   3
  -3   4   9 618.984 39.8739   1
  -3   4   9 587.511 39.1869   2
   2  -4  -9 299.421 17.9310   3
  -2   4   9 267.095 18.1348   1
  -2   4   9 240.840 17.6562   2
   1  -4  -9 519.237 33.9817   3
  -1   4   9 502.944 33.2019   2
  -1   4   9 521.439 33.3723   1
   0  -4  -9 98.4675 7.62240   3
   0  -4  -9 87.8925 6.75463   1
  -1  -4  -9 19.4808 3.06874   3
   1   4   9 19.1008 2.75795   2
  -2  -4  -9 137.789 9.89275   3
   2   4   9 135.872 9.86909   2
  -3  -4  -9 25.2455 3.19263   3
   3   4   9 25.2547 3.73367   2
  -4  -4  -9 2.09207 1.66548   3
   4   4   9 1.68338 2.50270   2
  -5  -4  -9 82.6978 6.10730   3
   5   4   9 66.7318 7.08083   2
  -6  -4  -9 101.151 7.38597   3
   6   4   9 88.9901 8.72197   2
  -7  -4  -9 160.488 11.3624   3
   7   4   9 161.551 12.9489   2
  -8  -4  -9 472.041 32.6995   3
   8   4   9 543.558 34.2924   2
  -9   5   9 46.8270 6.75295   1
  -8   5   9 32.6796 5.45885   1
  -7   5   9 2.06896 3.13624   1
  -6   5   9 12.7235 3.50457   1
   5  -5  -9 37.9645 3.61332   3
  -5   5   9 33.9510 4.70307   1
  -5   5   9 37.9205 3.43611   2
   4  -5  -9 496.464 30.1995   3
  -4   5   9 452.659 31.0015   1
  -4   5   9 447.159 30.1707   2
   3  -5  -9 24.9882 2.88123   3
  -3   5   9 20.3844 3.19000   1
  -3   5   9 19.1586 2.50820   2
   2  -5  -9 41.4569 4.42485   3
  -2   5   9 39.7959 3.93327   1
  -2   5   9 39.1847 3.61769   2
   1  -5  -9 296.331 20.9141   1
   1  -5  -9 283.354 21.1972   3
  -1   5   9 351.085 20.6850   2
   0  -5  -9 7.48522 2.39658   3
   0   5   9 10.3047 2.33563   2
  -1  -5  -9 819.673 55.2736   3
   1   5   9 895.120 55.2511   2
  -2  -5  -9 485.477 31.3816   3
   2   5   9 472.338 31.3893   2
  -3  -5  -9 32.6107 3.69002   3
   3   5   9 33.5811 4.06295   2
  -4  -5  -9 2.89835 1.91819   3
   4   5   9 3.82719 2.53089   2
  -5  -5  -9 62.8629 5.13929   3
   5   5   9 51.7233 5.90170   2
  -6  -5  -9 85.3212 6.82986   3
   6   5   9 91.3581 7.94128   2
  -7  -5  -9 224.476 16.3458   3
   7   5   9 262.588 17.4303   2
  -8  -5  -9 8.32655 2.73748   3
   8   5   9 11.1371 4.12315   2
  -9   6   9 -1.3157 3.57658   1
  -8   6   9 55.9155 6.84066   1
  -7   6   9 273.351 19.6376   1
  -6   6   9 53.1985 4.69250   2
  -6   6   9 41.3107 5.41463   1
  -5   6   9 549.249 35.0645   2
  -5   6   9 529.551 35.8494   1
   4  -6  -9 11.5921 2.20229   3
  -4   6   9 11.5040 2.19358   2
  -4   6   9 9.41086 2.75495   1
   3  -6  -9 1.70130 2.20447   3
  -3   6   9 3.90668 1.80928   2
   2  -6  -9 4.48616 2.45169   3
   2  -6  -9 5.30764 2.37281   1
  -2   6   9 7.49929 1.90511   2
   1  -6  -9 2.11828 2.11026   3
   1  -6  -9 3.00943 2.16149   1
  -1   6   9 2.29349 1.95435   2
   0  -6  -9 244.801 17.0252   3
   0   6   9 251.178 16.7798   2
  -1  -6  -9 25.9602 3.57388   3
   1   6   9 24.4272 3.68423   2
  -2  -6  -9 33.2680 3.87862   3
   2   6   9 35.9491 4.15130   2
  -3  -6  -9 26.9807 3.43311   3
   3   6   9 27.7610 4.00853   2
  -4  -6  -9 4.94991 2.07911   3
   4   6   9 3.68397 2.58575   2
  -5  -6  -9 129.270 9.93820   3
   5   6   9 145.310 10.5207   2
  -6  -6  -9 82.8499 7.05720   3
   6   6   9 105.238 8.26604   2
  -7  -6  -9 302.903 21.8735   3
   7   6   9 355.831 22.7043   2
   9  -7  -9 19.0066 4.72522   1
   8  -7  -9 86.7091 8.66878   1
   7  -7  -9 81.1731 7.92516   1
   6  -7  -9 19.6046 4.01862   1
  -6   7   9 24.4767 3.66043   2
   5  -7  -9 1.69680 2.93041   1
  -5   7   9 3.56255 1.97310   2
   4  -7  -9 279.339 20.5886   1
  -4   7   9 306.377 19.6769   2
   3  -7  -9 73.9760 6.92186   3
   3  -7  -9 84.9797 7.58900   1
  -3   7   9 88.4606 6.52561   2
   2  -7  -9 55.3313 5.37044   3
   2  -7  -9 51.0080 5.75519   1
  -2   7   9 64.4804 5.15621   2
   1  -7  -9 61.2546 5.58237   3
  -1   7   9 59.6242 5.39861   2
   0  -7  -9 22.0904 3.27920   3
   0   7   9 22.1555 3.17186   2
  -1  -7  -9 209.852 14.6661   3
   1   7   9 215.017 14.7048   2
  -2  -7  -9 42.3035 4.56774   3
   2   7   9 57.1567 5.23573   2
  -3  -7  -9 53.3326 5.18556   3
   3   7   9 66.6512 6.09937   2
  -4  -7  -9 16.9259 2.94330   3
   4   7   9 20.0536 3.61846   2
  -5  -7  -9 27.8339 3.82739   3
   5   7   9 44.0679 5.37213   2
  -6  -7  -9 167.989 12.0814   3
   7   7   9 370.602 25.7444   2
   8  -8  -9 25.8880 5.11451   1
   7  -8  -9 6.24078 3.80246   1
   6  -8  -9 4.04852 3.71545   1
  -6   8   9 6.39093 2.59176   2
   5  -8  -9 240.333 18.7279   1
  -5   8   9 277.266 17.8021   2
   4  -8  -9 18.4974 4.11265   1
  -4   8   9 28.2748 3.50946   2
   3  -8  -9 14.4272 3.80934   1
  -3   8   9 16.2235 2.77661   2
   2  -8  -9 218.196 14.8414   3
   2  -8  -9 185.967 15.4504   1
  -2   8   9 226.520 14.7168   2
   1  -8  -9 33.2331 4.12787   3
  -1   8   9 33.8722 4.01382   2
   0  -8  -9 166.538 11.8238   3
   0   8   9 164.454 11.8941   2
  -1  -8  -9 315.393 21.0526   3
   1   8   9 310.535 21.1582   2
  -2  -8  -9 6.61138 2.39065   3
   2   8   9 4.48164 2.52941   2
  -3  -8  -9 2.38345 2.28766   3
   3   8   9 3.82195 2.89522   2
  -4  -8  -9 42.2325 4.65498   3
   4   8   9 55.5066 5.89059   2
  -5  -8  -9 48.3192 5.11126   3
   5   8   9 62.6434 6.75920   2
  -6  -8  -9 56.7839 5.92208   3
   6   8   9 76.3265 7.48580   2
   8  -9  -9 15.8550 4.58770   1
   7  -9  -9 41.0127 6.32047   1
   6  -9  -9 156.507 13.3414   1
  -6   9   9 173.575 12.2953   2
   5  -9  -9 20.5525 4.65211   1
  -5   9   9 20.9907 3.28545   2
   4  -9  -9 -0.9274 3.23861   1
  -4   9   9 -0.1706 2.12296   2
   3  -9  -9 7.14834 4.08156   1
  -3   9   9 11.9223 2.65667   2
  -2   9   9 96.0468 7.73046   2
   1  -9  -9 345.171 22.4907   3
  -1   9   9 327.195 22.5298   2
   0  -9  -9 30.8204 3.96256   3
   0   9   9 26.5119 4.14102   2
  -1  -9  -9 118.745 9.07085   3
   1   9   9 121.160 9.39291   2
  -2  -9  -9 10.4299 2.72483   3
   2   9   9 7.78652 3.08070   2
  -3  -9  -9 4.71601 2.52029   3
   3   9   9 5.34742 3.12984   2
  -4  -9  -9 80.9808 7.00249   3
   4   9   9 87.5444 7.71827   2
  -5  -9  -9 33.0833 4.47661   3
   5   9   9 32.0180 4.93437   2
   7 -10  -9 11.8185 4.61041   1
  -7  10   9 8.55645 3.70867   2
   6 -10  -9 13.9944 4.79148   1
  -6  10   9 13.1112 3.53761   2
   5 -10  -9 57.8532 7.61509   1
  -5  10   9 67.4082 6.19242   2
   4 -10  -9 5.49722 4.34795   1
  -4  10   9 6.94900 2.68611   2
  -3  10   9 26.9438 3.93211   2
  -2  10   9 3.45400 2.58378   2
  -1  10   9 3.97615 2.77330   2
   0  10   9 72.6319 6.61680   2
  -1 -10  -9 34.9738 4.24217   3
   1  10   9 28.0279 4.13922   2
  -2 -10  -9 94.2755 7.72338   3
   2  10   9 92.9649 8.02498   2
  -3 -10  -9 2.88944 2.56849   3
   3  10   9 7.22247 3.39650   2
  -4 -10  -9 26.6772 4.02994   3
   4  10   9 32.4496 4.80452   2
   6 -11  -9 69.1484 8.81558   1
  -6  11   9 82.4467 7.44919   2
   5 -11  -9 0.87674 4.70262   1
  -5  11   9 3.68074 2.90381   2
  -4  11   9 -0.3211 2.65819   2
  -3  11   9 42.8720 5.04533   2
  -2  11   9 34.9276 4.65201   2
  -1  11   9 27.0842 4.19739   2
   0  11   9 157.149 11.8396   2
   1  11   9 1.77502 2.77437   2
  -2 -11  -9 13.4661 3.10065   3
   2  11   9 14.6499 3.71474   2
  -3 -11  -9 37.9620 4.85066   3
   3  11   9 34.7649 5.36814   2
  -5  12   9 5.70421 3.11267   2
  -4  12   9 1.62535 2.92433   2
  -3  12   9 181.908 13.5391   2
  -2  12   9 331.047 22.6977   2
  -1  12   9 42.7854 5.52094   2
   0  12   9 82.6391 7.68128   2
   1  12   9 0.58925 2.99846   2
   2  12   9 8.05171 3.55049   2
  -3  13   9 9.33969 3.50448   2
  -2  13   9 10.3536 3.69801   2
   0 -14  10 100.448 9.54231   1
   1 -14  10 86.7155 8.30053   1
   2 -14  10 2.43136 3.04018   1
   3 -14  10 59.1924 6.31392   1
  -2 -13  10 3.27094 4.11771   1
  -1 -13  10 31.2308 5.31661   1
   0 -13  10 12.7914 3.94578   1
   1 -13  10 45.7747 5.63682   1
   2 -13  10 200.720 14.7519   1
  -3  13 -10 2.79741 1.89117   2
   3 -13  10 2.67414 2.55707   1
  -4  13 -10 104.574 7.58313   2
   4 -13  10 98.7753 8.51921   1
  -5  13 -10 -0.0973 1.84935   2
   5 -13  10 3.37763 2.69141   1
  -4 -12  10 95.0370 13.1653   1
  -3 -12  10 39.0475 6.96814   1
  -2 -12  10 105.988 10.1184   1
  -1 -12  10 86.4678 8.41443   1
   0 -12  10 205.299 15.0844   1
   1 -12  10 0.03349 2.47611   1
  -2  12 -10 1.72892 1.57333   2
   2 -12  10 3.18357 2.47407   1
  -3  12 -10 -0.5030 1.60009   2
   3 -12  10 -0.5859 2.33952   1
  -4  12 -10 35.0456 3.56040   2
   4 -12  10 32.8744 4.40444   1
  -5  12 -10 0.31591 1.92497   2
   5 -12  10 2.71022 2.50056   1
  -6  12 -10 5.46352 2.14173   2
   6 -12  10 4.52595 2.67400   1
   5  11 -10 0.62334 2.03795   3
  -5 -11  10 -3.0214 7.85191   1
   4  11 -10 23.7346 3.44397   3
  -4 -11  10 28.4749 8.15288   1
   3  11 -10 18.6037 2.93431   3
  -3 -11  10 20.4736 5.45563   1
  -2 -11  10 68.3033 7.33243   1
  -1 -11  10 32.2886 4.96787   1
   0 -11  10 110.381 8.98546   1
   1 -11  10 19.2596 3.37175   1
  -2  11 -10 48.3284 3.90927   2
   2 -11  10 42.3018 4.77702   1
  -3  11 -10 86.9141 6.32645   2
   3 -11  10 85.7163 7.24941   1
  -4  11 -10 243.234 15.4739   2
   4 -11  10 218.441 15.9635   1
  -5  11 -10 11.9008 2.19533   2
   5 -11  10 9.66434 2.71112   1
  -6  11 -10 1.47723 1.97005   2
   6 -11  10 3.08298 2.45780   1
  -7  11 -10 107.072 8.01559   2
   7 -11  10 99.4793 8.36277   1
   6  10 -10 29.0269 3.67172   3
  -6 -10  10 30.9998 11.3872   1
   5  10 -10 0.12906 1.94670   3
  -5 -10  10 -1.4765 7.34761   1
   4  10 -10 13.5619 2.29004   3
  -4 -10  10 7.57995 6.02101   1
   3  10 -10 2.16472 1.69968   3
  -3 -10  10 3.42623 3.84700   1
   2  10 -10 112.595 7.59829   3
  -2 -10  10 94.4061 9.20078   1
  -1 -10  10 26.1578 4.34336   1
   0 -10  10 148.170 11.1236   1
  -1  10 -10 107.378 7.37956   2
   1 -10  10 106.205 8.43451   1
  -2  10 -10 56.9185 4.27467   2
   2 -10  10 49.6950 5.02373   1
  -3  10 -10 446.322 28.7178   2
   3 -10  10 443.323 29.3323   1
  -4  10 -10 9.31343 1.85925   2
   4 -10  10 9.31706 2.42831   1
  -5  10 -10 59.6442 4.80329   2
   5 -10  10 55.8369 5.27219   1
  -6  10 -10 20.9758 2.97848   2
   6 -10  10 16.7777 3.05131   1
  -7  10 -10 136.105 9.68236   2
   7 -10  10 127.145 9.86347   1
  -8  10 -10 34.6691 4.52458   2
   8 -10  10 43.8676 4.85617   1
   6   9 -10 21.8710 3.25701   3
  -6  -9  10 18.0750 10.2499   1
   5   9 -10 88.6289 6.74311   3
  -5  -9  10 97.4532 12.7662   1
   4   9 -10 110.838 7.91062   3
  -4  -9  10 108.761 11.8553   1
   3   9 -10 215.587 13.9299   3
  -3  -9  10 194.707 15.9145   1
   2   9 -10 75.0266 5.44348   3
  -2  -9  10 67.7368 6.98761   1
   1   9 -10 147.912 9.81380   3
  -1  -9  10 137.115 10.9554   1
   0  -9  10 83.6147 6.92202   1
  -1   9 -10 18.5419 2.06437   2
   1  -9  10 14.0235 2.72174   1
  -2   9 -10 33.1821 2.88629   2
   2  -9  10 29.8699 3.68334   1
  -3   9 -10 3.77703 1.39396   2
   3  -9  10 3.39228 1.94176   1
  -4   9 -10 8.12819 1.71859   2
   4  -9  10 8.13668 2.18584   1
  -5   9 -10 -0.4918 1.51248   2
   5  -9  10 2.75061 1.94971   1
  -6   9 -10 3.61300 1.94212   2
   6  -9  10 2.71605 2.15734   1
  -7   9 -10 58.3597 5.35736   2
   7  -9  10 60.7751 5.54421   1
  -8   9 -10 2.53646 2.45833   2
   8  -9  10 2.64500 1.92236   4
   7   8 -10 137.962 10.1429   3
  -7  -8  10 167.349 18.2470   1
   6   8 -10 0.00774 1.78529   3
  -6  -8  10 -1.3242 8.04530   1
   5   8 -10 67.6131 5.37113   3
  -5  -8  10 71.3174 10.6495   1
   4   8 -10 0.95870 1.50900   3
  -4  -8  10 1.63947 4.47878   1
   3   8 -10 205.334 13.2428   3
  -3  -8  10 185.153 15.1965   1
   2   8 -10 3.76753 1.36184   3
  -2  -8  10 4.87254 2.79867   1
   1   8 -10 64.2350 4.84462   3
  -1  -8  10 61.9280 5.96796   1
   0   8 -10 53.4836 4.33978   3
   0   8 -10 54.0935 3.92212   2
   0  -8  10 51.5087 5.00144   1
  -1   8 -10 15.8339 1.85706   2
  -1   8 -10 19.0595 2.84623   3
   1  -8  10 17.7669 2.91016   1
   1  -8  10 13.5245 1.51367   4
  -2   8 -10 92.4298 6.46218   2
   2  -8  10 93.9053 6.23488   4
   2  -8  10 92.5615 7.11869   1
  -3   8 -10 492.406 31.8597   2
   3  -8  10 499.221 32.3124   1
  -4   8 -10 9.33360 1.75385   2
   4  -8  10 6.97348 1.91399   1
  -5   8 -10 33.6435 3.18616   2
   5  -8  10 26.9198 3.41973   1
  -6   8 -10 135.792 9.28425   2
   6  -8  10 123.806 9.30655   1
  -7   8 -10 18.6096 2.84847   2
   7  -8  10 12.4827 2.14094   4
   7  -8  10 14.7977 2.80046   1
  -8   8 -10 306.454 19.8734   2
   8  -8  10 279.166 19.1123   4
   7   7 -10 27.5852 3.44992   3
  -7  -7  10 32.9486 9.11523   1
   6   7 -10 3.07019 1.76544   3
  -6  -7  10 5.73919 6.21965   1
   5   7 -10 4.11840 1.60438   3
  -5  -7  10 9.55898 5.66507   1
   4   7 -10 -0.4417 1.28947   3
  -4  -7  10 1.31782 4.10967   1
   3   7 -10 280.879 18.6508   3
  -3  -7  10 295.557 20.8157   1
   2   7 -10 60.7159 4.68915   3
  -2  -7  10 69.0553 6.40366   1
   1   7 -10 188.648 12.6685   3
  -1  -7  10 192.322 13.5801   1
   0   7 -10 77.3978 5.09252   2
   0   7 -10 68.7620 5.51699   3
   0  -7  10 69.5973 6.03078   1
   0  -7  10 72.6243 4.89327   4
  -1   7 -10 87.7270 6.99531   3
  -1   7 -10 92.2699 6.03273   2
   1  -7  10 82.3852 6.75882   1
   1  -7  10 86.4623 5.81394   4
  -2   7 -10 965.710 65.9363   2
  -2   7 -10 1078.74 66.3178   3
   2  -7  10 1092.63 66.4653   1
   2  -7  10 1019.04 65.7512   4
  -3   7 -10 132.319 9.22042   2
   3  -7  10 137.420 9.00000   4
   3  -7  10 139.477 9.60623   1
  -4   7 -10 99.1582 7.02221   2
   4  -7  10 95.2259 7.20009   1
   4  -7  10 102.298 6.75345   4
  -5   7 -10 4.48659 1.71465   2
   5  -7  10 4.91002 1.72576   1
   5  -7  10 4.04644 1.44687   4
  -6   7 -10 24.1482 3.18445   2
   6  -7  10 25.2340 2.62578   4
   6  -7  10 20.3533 2.93363   1
  -7   7 -10 151.320 10.7099   2
   7  -7  10 147.237 10.1080   4
  -8   7 -10 34.7760 4.21802   2
   8  -7  10 28.5914 3.15401   4
  -9   7 -10 15.7740 3.47819   2
   9  -7  10 8.59213 2.24646   4
   8   6 -10 69.0329 5.82530   3
  -8  -6  10 105.318 12.8469   1
   7   6 -10 8.69906 2.15305   3
  -7  -6  10 13.7977 7.14518   1
   6   6 -10 15.9135 2.50513   3
  -6  -6  10 17.7042 6.94725   1
   5   6 -10 77.7370 5.67730   3
  -5  -6  10 70.6738 9.82204   1
   4   6 -10 277.241 18.4479   3
  -4  -6  10 295.914 21.6125   1
   3   6 -10 20.2593 2.29921   3
  -3  -6  10 18.1048 4.13727   1
   2   6 -10 87.6268 6.03391   3
  -2  -6  10 78.8181 7.38899   1
   1   6 -10 717.721 46.0090   3
  -1  -6  10 720.724 46.7933   1
   0   6 -10 3.86967 0.95846   2
   0   6 -10 3.94221 1.57165   3
   0  -6  10 6.04337 0.95222   4
   0  -6  10 4.16474 1.91362   1
  -1   6 -10 172.985 12.1630   3
  -1   6 -10 175.791 11.4123   2
   1  -6  10 178.206 12.0692   1
   1  -6  10 170.081 11.2463   4
  -2   6 -10 93.3877 6.34966   2
  -2   6 -10 95.4359 6.89893   3
   2  -6  10 90.4400 6.12583   4
   2  -6  10 88.6404 6.75373   1
  -3   6 -10 4.07071 1.97494   3
  -3   6 -10 3.50354 1.23348   2
   3  -6  10 3.28625 1.47798   1
   3  -6  10 6.07769 1.08823   4
  -4   6 -10 46.0200 3.87430   2
   4  -6  10 44.7113 3.96609   1
   4  -6  10 50.9353 3.59388   4
  -5   6 -10 67.9423 5.27647   2
   5  -6  10 61.8920 5.10589   1
   5  -6  10 67.8188 4.79224   4
  -6   6 -10 68.0367 5.72780   2
   6  -6  10 70.4939 5.54732   1
   6  -6  10 76.0886 5.27046   4
  -7   6 -10 2.43155 1.97989   2
   7  -6  10 0.73337 1.46628   4
  -8   6 -10 68.3603 6.01742   2
   8  -6  10 57.0597 4.95074   4
  -9   6 -10 77.0490 6.99231   2
   9  -6  10 69.1928 5.66312   4
   8   5 -10 109.654 8.33731   3
  -8  -5  10 143.239 14.3010   1
   7   5 -10 40.1656 3.90123   3
  -7  -5  10 65.9401 9.61496   1
   6   5 -10 72.6337 5.59175   3
  -6  -5  10 82.2472 10.0405   1
   5   5 -10 8.28377 1.65591   3
  -5  -5  10 5.21839 5.12595   1
   4   5 -10 266.645 17.7831   3
  -4  -5  10 285.038 20.7807   1
   3   5 -10 114.286 7.92092   3
  -3  -5  10 117.836 10.2298   1
   2   5 -10 23.2347 2.45753   3
  -2  -5  10 26.6929 3.89437   1
   1   5 -10 3.79183 1.35018   3
  -1  -5  10 4.57205 2.06017   1
   0   5 -10 13.6666 2.17810   3
   0   5 -10 16.6655 1.65687   2
   0  -5  10 13.8763 1.63063   4
   0  -5  10 17.9322 2.70429   1
  -1   5 -10 20.8824 2.66397   3
  -1   5 -10 19.8250 1.87861   2
   1  -5  10 19.5800 1.75488   4
   1  -5  10 18.3451 2.54703   1
  -2   5 -10 637.116 40.6120   2
  -2   5 -10 618.461 41.0461   3
   2  -5  10 625.132 40.4302   4
   2  -5  10 663.862 40.9420   1
  -3   5 -10 2.24508 1.22733   2
  -3   5 -10 2.68177 1.86665   3
   3  -5  10 -0.1792 1.22383   1
   3  -5  10 2.59315 0.95538   4
  -4   5 -10 198.686 12.5581   3
  -4   5 -10 181.650 12.5872   2
   4  -5  10 178.791 12.4821   1
   4  -5  10 191.739 12.2800   4
  -5   5 -10 56.8248 4.64744   2
   5  -5  10 52.3685 4.38568   1
   5  -5  10 60.3004 4.22650   4
  -6   5 -10 13.5033 2.36324   2
   6  -5  10 13.4204 1.90173   4
  -7   5 -10 260.229 17.2216   2
   7  -5  10 244.233 16.4643   4
  -8   5 -10 57.6629 5.76218   2
   8  -5  10 54.9631 4.62445   4
  -9   5 -10 -2.6468 2.92613   2
   9  -5  10 -0.7103 1.86004   4
   9   4 -10 0.63332 1.93796   3
  -9  -4  10 3.86561 5.99502   1
   8   4 -10 106.763 8.14744   3
  -8  -4  10 129.359 12.6349   1
   7   4 -10 22.9595 2.91253   3
  -7  -4  10 26.7233 6.71825   1
   6   4 -10 100.100 7.35398   3
  -6  -4  10 115.419 10.9151   1
   5   4 -10 1.05235 1.31455   3
  -5  -4  10 3.86178 4.20825   1
   4   4 -10 294.941 20.3578   3
  -4  -4  10 357.831 23.4502   1
   3   4 -10 33.6113 2.97980   3
  -3  -4  10 40.6373 5.49251   1
   2   4 -10 276.931 17.1860   3
  -2  -4  10 240.536 18.3966   1
   1   4 -10 8.49598 1.61432   3
   1   4 -10 9.53404 1.31344   2
  -1  -4  10 6.29497 2.15827   1
   0   4 -10 94.3534 6.27908   2
   0   4 -10 88.3821 6.93151   3
   0  -4  10 92.0363 7.02699   1
   0  -4  10 92.4385 6.25693   4
  -1   4 -10 1194.32 76.1725   2
  -1   4 -10 1148.57 76.5359   3
   1  -4  10 1229.25 76.0527   4
   1  -4  10 1226.85 76.5695   1
  -2   4 -10 251.578 18.0913   3
  -2   4 -10 271.732 17.5132   2
   2  -4  10 277.511 17.7123   1
   2  -4  10 271.746 17.2992   4
  -3   4 -10 102.198 7.68154   3
  -3   4 -10 102.645 7.12648   2
   3  -4  10 102.252 7.13174   1
   3  -4  10 100.371 6.83226   4
  -4   4 -10 24.8430 2.58400   3
  -4   4 -10 20.6660 2.46776   2
   4  -4  10 17.5936 2.12345   4
   4  -4  10 22.3179 2.23106   1
  -5   4 -10 14.1022 2.34906   2
  -5   4 -10 20.6838 2.15732   3
   5  -4  10 17.4713 2.09348   4
   5  -4  10 15.7014 2.06137   1
  -6   4 -10 350.995 24.3458   2
   6  -4  10 384.823 23.8008   4
  -7   4 -10 38.0880 4.30240   2
   7  -4  10 31.9573 3.17094   4
  -8   4 -10 53.2049 5.83350   2
   8  -4  10 53.4783 4.45317   4
   9  -4  10 69.0889 7.78874   2
   9  -4  10 90.0517 6.32290   4
   9   3 -10 105.737 8.09308   3
  -9  -3  10 110.863 11.9423   1
   8   3 -10 4.30192 2.08395   3
  -8  -3  10 2.85773 5.39862   1
   7   3 -10 54.6139 4.69119   3
  -7  -3  10 67.4788 9.15094   1
   6   3 -10 31.4711 3.19260   3
  -6  -3  10 41.6281 6.74909   1
   5   3 -10 173.891 11.8338   3
  -5  -3  10 184.906 14.5632   1
   4   3 -10 24.0631 2.44945   3
  -4  -3  10 25.2697 5.48048   1
   3   3 -10 60.4231 4.56463   3
  -3  -3  10 62.0403 6.89498   1
   2   3 -10 1570.02 98.3812   3
  -2  -3  10 1524.74 99.6619   1
   1   3 -10 0.25127 1.33132   3
  -1  -3  10 0.99644 1.13369   2
  -1  -3  10 0.69307 1.78378   1
   0   3 -10 213.490 15.5693   3
   0   3 -10 242.463 14.8878   2
   0  -3  10 221.052 15.3909   1
  -1   3 -10 402.684 26.1057   3
  -1   3 -10 400.556 25.7839   2
   1  -3  10 389.830 26.0382   1
   1  -3  10 409.332 25.6516   4
  -2   3 -10 14.1113 1.73375   2
  -2   3 -10 6.09618 2.43920   3
   2  -3  10 10.5037 1.36284   4
   2  -3  10 10.5852 1.85062   1
  -3   3 -10 99.1762 7.12497   3
  -3   3 -10 93.3928 6.53678   2
   3  -3  10 76.1997 6.09692   4
   3  -3  10 96.7976 6.38406   1
  -4   3 -10 390.853 25.9440   2
   4  -3  10 407.152 25.5730   4
   4  -3  10 398.080 25.6604   1
  -5   3 -10 64.9842 5.46417   2
  -5   3 -10 68.1618 5.06309   3
  -6   3 -10 5.70964 2.21442   2
  -6   3 -10 7.95809 1.70114   3
   6  -3  10 3.50294 1.37610   4
   7  -3  10 102.529 7.24847   4
   8  -3  10 73.0245 7.35046   2
   8  -3  10 74.3602 5.66976   4
   9  -3  10 515.836 32.9142   4
   9  -3  10 499.152 34.3350   2
   9   2 -10 32.2104 3.83429   3
  -9  -2  10 31.1751 7.19538   1
   8   2 -10 232.382 16.5847   3
  -8  -2  10 287.037 20.1498   1
   7   2 -10 1.63587 1.62063   3
  -7  -2  10 -0.0607 4.07799   1
   6   2 -10 10.9206 1.84834   3
  -6  -2  10 16.9776 4.56948   1
   5   2 -10 367.415 23.5300   3
  -5  -2  10 354.892 25.4090   1
   4   2 -10 291.346 18.8658   3
  -4  -2  10 284.618 21.0393   1
   3   2 -10 16.3966 2.12430   3
  -3  -2  10 22.7747 4.28424   1
   2   2 -10 26.3754 2.69413   3
  -2  -2  10 22.0699 3.88717   1
   1   2 -10 2.38398 1.51059   3
  -1  -2  10 3.40540 2.22108   1
  -1  -2  10 2.06393 1.46108   2
   0   2 -10 141.485 10.4812   3
   0  -2  10 158.858 10.3438   2
   0  -2  10 155.943 10.8068   1
  -1   2 -10 59.4712 4.98562   3
   1  -2  10 59.7398 4.68032   2
   1  -2  10 62.9712 5.00381   1
   2  -2  10 190.048 12.6764   1
   2  -2  10 192.196 12.5032   4
  -3   2 -10 511.699 32.0599   3
  -3   2 -10 510.097 31.5966   2
   3  -2  10 428.128 31.1655   4
   3  -2  10 505.877 31.2988   1
  -4   2 -10 27.6515 3.18824   2
  -4   2 -10 30.3375 3.01728   3
   4  -2  10 25.4661 2.46527   4
  -5   2 -10 9.57327 1.77089   3
   5  -2  10 7.84780 1.49664   4
  -6   2 -10 115.056 7.91344   3
   6  -2  10 103.456 7.65976   4
   6  -2  10 116.668 8.87668   2
  -7   2 -10 68.4154 5.17753   3
   7  -2  10 58.1024 6.34864   2
   7  -2  10 65.2387 5.01254   4
   8  -2  10 1.46951 1.94164   4
   8  -2  10 6.97662 3.66013   2
   9  -2  10 39.7606 4.18509   4
   9  -2  10 36.9269 6.03415   2
   9   1 -10 105.634 8.04734   3
  -9  -1  10 110.029 11.2438   1
   8   1 -10 6.64795 2.02320   3
  -8  -1  10 4.58440 4.58513   1
   7   1 -10 256.903 18.7383   3
  -7  -1  10 350.298 21.8181   1
   6   1 -10 21.5235 2.54873   3
  -6  -1  10 32.5355 5.29254   1
   5   1 -10 374.732 24.1304   3
  -5  -1  10 367.229 25.8144   1
   4   1 -10 33.1970 2.99835   3
  -4  -1  10 32.6512 4.60847   1
   2   1 -10 121.749 8.97905   3
  -2  -1  10 138.789 10.5203   1
   1   1 -10 15.0101 2.49671   3
  -1  -1  10 12.5038 2.90829   1
  -1  -1  10 14.4190 1.96945   2
   0   1 -10 326.827 21.1698   3
   0  -1  10 318.248 21.2138   2
   0  -1  10 321.462 21.6328   1
  -1   1 -10 90.6192 6.85217   3
   1  -1  10 87.2009 6.61931   2
   1  -1  10 85.7710 6.52332   1
  -2   1 -10 8.09295 2.92651   3
   2  -1  10 11.6875 2.29337   2
   2  -1  10 16.0830 2.19331   1
  -3   1 -10 134.576 9.56532   3
   3  -1  10 135.729 9.38143   2
   3  -1  10 121.963 8.74665   4
  -4   1 -10 139.854 9.64804   3
   4  -1  10 134.671 10.0498   2
   4  -1  10 136.240 9.23214   4
  -5   1 -10 462.306 30.1606   3
   5  -1  10 475.148 30.7938   2
   5  -1  10 462.304 29.9319   4
  -6   1 -10 104.757 7.64872   3
   6  -1  10 111.453 8.94038   2
   6  -1  10 104.827 7.44945   4
  -7   1 -10 143.355 10.3334   3
   7  -1  10 157.004 10.2693   4
   7  -1  10 150.078 11.8575   2
  -8   1 -10 29.1591 3.38766   3
   8  -1  10 29.9913 3.63457   4
   8  -1  10 30.6991 5.51104   2
   9  -1  10 4.06748 2.39230   4
   9  -1  10 -1.0944 4.55205   2
  -9   0  10 13.3368 5.11305   1
   8   0 -10 194.605 14.2834   3
  -8   0  10 258.092 17.3576   1
   7   0 -10 2.94124 1.64659   3
  -7   0  10 4.57518 4.11169   1
   6   0 -10 96.7152 7.24920   3
  -6   0  10 116.998 9.72390   1
   5   0 -10 13.4834 1.97771   3
  -5   0  10 16.1589 3.64890   1
   4   0 -10 23.8171 2.64474   3
  -4   0  10 23.7450 3.86479   1
   3   0 -10 1886.20 115.420   3
  -3   0  10 1740.81 116.159   1
   2   0 -10 12.3373 2.20053   3
  -2   0  10 12.0861 2.63581   1
  -2   0  10 11.6002 1.63129   2
   1   0 -10 10.4801 1.81006   3
  -1   0  10 11.4494 2.55168   1
  -1   0  10 11.0022 1.63944   2
   0   0 -10 373.647 23.3724   3
   0   0  10 350.320 23.8650   1
   0   0  10 345.909 23.5300   2
  -1   0 -10 11.3163 2.92324   3
   1   0  10 15.9127 2.65178   1
   1   0  10 16.4599 2.68765   2
  -2   0 -10 98.4493 9.27818   3
   2   0  10 130.110 9.12744   2
   2   0  10 123.305 8.33521   1
  -3   0 -10 684.376 42.5924   3
   3   0  10 624.526 42.6337   2
  -4   0 -10 20.2813 2.88684   3
   4   0  10 18.2808 3.43795   2
   4   0  10 14.6304 2.15365   4
  -5   0 -10 3.73071 1.70112   3
   5   0  10 3.47739 1.65957   4
   5   0  10 1.53580 2.92562   2
  -6   0 -10 34.3420 3.44623   3
   6   0  10 29.5260 3.38269   4
   6   0  10 39.8533 5.78072   2
  -7   0 -10 21.0642 2.93449   3
   7   0  10 16.1114 2.72941   4
   7   0  10 22.1009 5.01388   2
  -8   0 -10 444.654 31.1836   3
   8   0  10 514.483 33.4894   2
   8   0  10 503.422 31.3374   4
  -9   0 -10 3.15616 2.29414   3
   9   0  10 6.61799 4.89757   2
   9  -1 -10 366.899 25.1448   3
  -9   1  10 410.806 27.9079   1
   8  -1 -10 27.6073 3.20725   3
  -8   1  10 22.8962 5.11950   1
   7  -1 -10 45.7840 4.16671   3
  -7   1  10 56.6210 6.77990   1
   6  -1 -10 282.408 19.7789   3
  -6   1  10 333.109 21.6839   1
   5  -1 -10 223.610 16.1234   3
  -5   1  10 277.390 17.9810   1
   4  -1 -10 11.4351 2.08765   3
  -4   1  10 14.4854 3.35155   1
   3  -1 -10 18.7755 2.78740   3
  -3   1  10 22.9223 3.57579   1
  -3   1  10 18.4759 1.96824   2
   2  -1 -10 10.2982 1.98821   3
  -2   1  10 5.67795 1.40127   2
  -2   1  10 7.51428 2.11264   1
   1  -1 -10 323.584 21.1352   3
  -1   1  10 310.151 21.4063   1
  -1   1  10 331.683 20.9704   2
   0  -1 -10 21.0581 2.68881   3
   0   1  10 15.2428 2.45007   1
   0   1  10 17.8581 2.58616   2
  -1  -1 -10 381.201 29.7858   3
   1   1  10 461.207 28.7370   1
   1   1  10 482.667 29.4639   2
  -2  -1 -10 747.601 51.0050   3
   2   1  10 818.747 50.9065   2
  -3  -1 -10 353.017 22.6998   3
   3   1  10 323.446 22.9749   2
  -4  -1 -10 4.80026 1.91439   3
   4   1  10 1.63052 2.96756   2
  -5  -1 -10 35.4144 3.71409   3
   5   1  10 32.1866 5.01967   2
  -6  -1 -10 30.9315 3.34697   3
   6   1  10 31.1134 5.32218   2
  -7  -1 -10 -0.0198 1.70801   3
   7   1  10 1.84459 4.09809   2
  -8  -1 -10 102.259 7.86738   3
   8   1  10 118.585 11.0773   2
  -9  -1 -10 33.6416 4.00356   3
   9   1  10 29.0421 6.59322   2
  -9   2  10 37.9763 6.51886   1
   8  -2 -10 264.265 18.9954   3
  -8   2  10 326.110 21.4538   1
   7  -2 -10 37.8097 3.72798   3
  -7   2  10 38.4491 5.83342   1
   6  -2 -10 128.003 9.24348   3
  -6   2  10 134.276 10.8730   1
   5  -2 -10 49.5674 4.38099   3
  -5   2  10 47.8377 5.80618   1
   4  -2 -10 13.9952 2.58465   3
  -4   2  10 19.5480 3.45157   1
   3  -2 -10 61.2635 5.30138   3
  -3   2  10 64.5920 5.62331   1
  -3   2  10 52.2761 4.27686   2
   2  -2 -10 9.45045 1.71807   3
  -2   2  10 14.7729 2.62745   1
  -2   2  10 10.4015 1.72770   2
   1  -2 -10 5.14041 1.54361   3
  -1   2  10 6.54845 1.94774   1
  -1   2  10 4.96128 1.51673   2
   0  -2 -10 23.3980 3.51886   3
   0   2  10 24.2212 2.84294   2
   0   2  10 29.7206 3.08586   1
  -1  -2 -10 11.2780 3.24364   3
   1   2  10 14.8033 2.49989   2
  -2  -2 -10 524.443 33.3127   3
   2   2  10 478.857 33.1489   2
  -3  -2 -10 197.922 13.4811   3
   3   2  10 182.547 14.0350   2
  -4  -2 -10 482.225 30.7442   3
   4   2  10 454.435 31.6284   2
  -5  -2 -10 229.584 15.7067   3
   5   2  10 236.864 17.1388   2
  -6  -2 -10 65.7861 5.46435   3
   6   2  10 65.9711 7.62642   2
  -7  -2 -10 11.3822 2.35218   3
   7   2  10 17.0010 5.24297   2
  -8  -2 -10 0.72382 2.05199   3
   8   2  10 2.31010 4.58836   2
  -9   3  10 255.032 19.4817   1
  -8   3  10 0.18188 3.45571   1
   7  -3 -10 31.8531 3.74434   3
  -7   3  10 37.8439 5.75415   1
   6  -3 -10 26.4946 3.50693   3
  -6   3  10 27.8382 4.83616   1
   5  -3 -10 75.4166 6.40592   3
  -5   3  10 79.2270 7.25852   1
   4  -3 -10 1527.51 98.1864   3
  -4   3  10 1640.26 98.3988   1
  -4   3  10 1441.36 97.3686   2
   3  -3 -10 151.188 10.2365   3
  -3   3  10 162.133 10.9649   1
  -3   3  10 134.783 10.0136   2
   2  -3 -10 127.999 8.70940   3
  -2   3  10 134.759 9.29133   1
  -2   3  10 115.202 8.70365   2
   1  -3 -10 110.388 8.44028   3
  -1   3  10 123.685 8.43794   2
  -1   3  10 119.680 8.65041   1
   0  -3 -10 -1.4658 2.50100   3
   0   3  10 1.19264 1.28995   1
   0   3  10 1.26703 1.51091   2
  -1  -3 -10 61.7883 6.80600   3
   1   3  10 83.1613 5.86917   2
  -2  -3 -10 241.730 16.2876   3
   2   3  10 222.062 15.8452   2
  -3  -3 -10 6.51803 2.32878   3
   3   3  10 3.33181 2.46822   2
  -4  -3 -10 9.33274 2.33846   3
   4   3  10 4.80386 3.03195   2
  -5  -3 -10 24.8130 3.44981   3
   5   3  10 21.9621 4.55833   2
  -6  -3 -10 1.42778 1.88348   3
   6   3  10 1.61933 3.77990   2
  -7  -3 -10 180.084 12.9776   3
   7   3  10 204.572 15.2322   2
  -8  -3 -10 6.02942 2.42106   3
   8   3  10 3.32702 4.45815   2
  -9   4  10 90.3735 9.38359   1
  -8   4  10 36.7264 6.01238   1
  -7   4  10 280.628 20.1429   1
   6  -4 -10 122.070 9.33649   3
  -6   4  10 120.078 10.1230   1
   5  -4 -10 155.870 11.5189   3
  -5   4  10 163.230 12.0601   1
   4  -4 -10 106.038 7.86173   3
  -4   4  10 114.093 8.69319   1
  -4   4  10 107.274 7.71917   2
   3  -4 -10 0.20984 1.22846   3
  -3   4  10 0.51190 1.30102   2
  -3   4  10 0.51605 1.86031   1
   2  -4 -10 206.894 12.6033   3
  -2   4  10 179.677 12.7942   1
  -2   4  10 164.845 12.4096   2
   1  -4 -10 67.0267 5.66269   3
  -1   4  10 63.2379 4.93941   2
  -1   4  10 58.2677 5.00139   1
   0   4  10 472.095 30.7729   2
  -1  -4 -10 437.906 30.9577   3
   1   4  10 486.811 30.3119   2
  -2  -4 -10 615.778 39.6425   3
   2   4  10 594.812 39.2370   2
  -3  -4 -10 3.75280 2.25823   3
   3   4  10 0.52134 2.18402   2
  -4  -4 -10 1.71720 2.06153   3
   4   4  10 -0.1192 2.41535   2
  -5  -4 -10 16.3710 2.72910   3
   5   4  10 14.7323 3.60591   2
  -6  -4 -10 32.8479 3.97869   3
   6   4  10 36.3688 5.37008   2
  -7  -4 -10 73.0134 6.17346   3
   7   4  10 70.9130 7.64677   2
  -8  -4 -10 9.59453 2.82683   3
   8   4  10 6.64232 4.14635   2
  -9   5  10 132.706 11.7211   1
  -8   5  10 8.17658 4.03620   1
  -7   5  10 5.62083 3.46008   1
  -6   5  10 65.0049 6.68527   1
   5  -5 -10 13.7799 2.23729   3
  -5   5  10 12.0620 2.28449   2
  -5   5  10 9.27220 3.06682   1
   4  -5 -10 40.2642 3.76044   3
  -4   5  10 40.1398 3.89730   2
  -4   5  10 54.1514 5.14871   1
   3  -5 -10 64.6770 4.80154   3
  -3   5  10 49.0949 4.66466   2
  -3   5  10 56.3237 5.43014   1
   2  -5 -10 108.348 7.34461   3
  -2   5  10 81.1640 6.81993   2
  -2   5  10 87.7874 7.03738   1
   1  -5 -10 5.45520 3.05657   3
   1  -5 -10 7.52500 2.41911   1
  -1   5  10 16.2678 2.42895   2
   0  -5 -10 -0.2284 2.43150   3
   0   5  10 0.47298 2.09022   2
  -1  -5 -10 709.654 49.3873   3
   1   5  10 802.371 48.9413   2
  -2  -5 -10 37.4555 4.47628   3
   2   5  10 34.4637 4.04597   2
  -3  -5 -10 193.396 13.6089   3
   3   5  10 191.571 13.5383   2
  -4  -5 -10 238.075 15.5781   3
   4   5  10 209.201 15.5478   2
  -5  -5 -10 15.3473 2.87738   3
   5   5  10 13.4441 3.04920   2
  -6  -5 -10 10.1216 2.57122   3
   6   5  10 9.09558 3.21741   2
  -7  -5 -10 2.06486 2.41483   3
   7   5  10 1.81256 3.24334   2
  -9   6  10 1.67549 3.74563   1
  -8   6  10 0.01581 3.50187   1
  -7   6  10 17.1840 4.12073   1
  -6   6  10 91.7885 8.46295   1
  -5   6  10 455.318 28.8097   1
  -5   6  10 399.377 27.8750   2
   4  -6 -10 125.704 8.18570   3
  -4   6  10 109.969 9.08189   1
  -4   6  10 100.092 8.24238   2
   3  -6 -10 128.916 9.26886   3
  -3   6  10 120.254 9.03205   2
   2  -6 -10 61.1036 6.24806   3
   2  -6 -10 61.1766 6.06140   1
  -2   6  10 76.5444 5.62454   2
   1  -6 -10 7.22850 3.15341   3
  -1   6  10 14.2140 2.61608   2
   0  -6 -10 20.9890 3.64465   3
   0   6  10 19.8342 2.91604   2
  -1  -6 -10 7.32696 2.72680   3
   1   6  10 7.51147 2.68550   2
  -2  -6 -10 46.5291 5.04402   3
   2   6  10 46.2256 4.68897   2
  -3  -6 -10 3.61521 2.35625   3
   3   6  10 -1.2663 2.28769   2
  -4  -6 -10 12.8773 2.80229   3
   4   6  10 12.2137 2.95398   2
  -5  -6 -10 4.32532 2.46865   3
   5   6  10 1.60929 2.79231   2
  -6  -6 -10 50.9714 5.12306   3
   6   6  10 48.5695 5.63912   2
  -7  -6 -10 10.4689 3.03799   3
   7   6  10 9.15550 3.63229   2
   9  -7 -10 12.7770 4.37605   1
   8  -7 -10 102.526 9.56149   1
   6  -7 -10 232.949 17.1665   1
   5  -7 -10 54.0761 6.02223   1
  -5   7  10 49.2325 4.82922   2
   4  -7 -10 8.81806 3.37347   1
  -4   7  10 6.81455 2.38085   2
   3  -7 -10 116.536 8.90660   3
   3  -7 -10 99.8526 8.96901   1
  -3   7  10 105.244 8.13123   2
   2  -7 -10 91.8287 8.12063   1
   2  -7 -10 82.8976 7.90389   3
  -2   7  10 107.044 7.41679   2
   1  -7 -10 279.843 21.2201   3
  -1   7  10 339.367 20.9864   2
   0  -7 -10 41.7451 4.91445   3
   0   7  10 38.1149 4.41186   2
  -1  -7 -10 462.694 31.9003   3
   1   7  10 501.105 31.7225   2
  -2  -7 -10 2.30638 2.55020   3
   2   7  10 2.74554 2.69417   2
  -3  -7 -10 -0.4040 2.32497   3
   3   7  10 4.03438 2.70170   2
  -4  -7 -10 40.5126 4.70164   3
   4   7  10 37.0396 4.63398   2
  -5  -7 -10 107.496 8.91486   3
   5   7  10 126.214 9.64602   2
  -6  -7 -10 58.7790 6.10531   3
   6   7  10 74.7148 7.10261   2
   8  -8 -10 39.8807 6.33439   1
   7  -8 -10 104.604 9.75235   1
   6  -8 -10 22.2842 4.76509   1
  -6   8  10 27.6822 4.03429   2
   5  -8 -10 58.7159 6.73359   1
  -5   8  10 57.7490 5.42880   2
   4  -8 -10 18.1615 4.19657   1
  -4   8  10 16.7557 3.03960   2
   3  -8 -10 108.507 9.77695   1
  -3   8  10 122.291 8.86651   2
   2  -8 -10 26.6930 4.15594   3
  -2   8  10 25.7356 3.74732   2
   1  -8 -10 1.41129 2.59727   3
  -1   8  10 1.69125 2.30283   2
   0  -8 -10 409.376 28.4148   3
   0   8  10 442.872 28.3174   2
  -1  -8 -10 2.55679 2.68590   3
   1   8  10 0.82960 2.59429   2
  -2  -8 -10 20.3368 3.54698   3
   2   8  10 18.1196 3.54363   2
  -3  -8 -10 345.730 25.3631   3
   3   8  10 419.069 25.7721   2
  -4  -8 -10 -0.0352 2.65962   3
   4   8  10 -2.3596 2.99229   2
  -5  -8 -10 14.1902 3.26427   3
   5   8  10 14.1653 4.02748   2
  -6  -8 -10 16.6523 3.63400   3
   6   8  10 16.4656 4.21125   2
   8  -9 -10 1.36912 3.67888   1
   7  -9 -10 19.2915 5.04884   1
   6  -9 -10 95.1776 9.44583   1
  -6   9  10 103.280 8.56978   2
   5  -9 -10 69.6455 7.75256   1
  -5   9  10 63.3010 6.13687   2
   4  -9 -10 107.510 10.2133   1
  -4   9  10 122.319 9.09388   2
  -3   9  10 -1.7641 2.31024   2
  -2   9  10 -1.0508 2.45001   2
   1  -9 -10 6.84066 2.78162   3
  -1   9  10 5.43504 2.64750   2
   0  -9 -10 105.003 8.75144   3
   0   9  10 113.894 8.71038   2
  -1  -9 -10 120.289 9.62124   3
   1   9  10 128.085 9.85714   2
  -2  -9 -10 1.13618 2.70498   3
   2   9  10 1.88688 2.87917   2
  -3  -9 -10 108.888 9.24808   3
   3   9  10 122.232 9.54399   2
  -4  -9 -10 2.25132 2.67420   3
   4   9  10 0.87638 3.28038   2
  -5  -9 -10 1.00093 2.76786   3
   5   9  10 0.02911 3.25189   2
   7 -10 -10 305.716 22.4806   1
   6 -10 -10 138.072 11.9369   1
  -6  10  10 125.624 10.5505   2
   5 -10 -10 0.38216 4.28671   1
  -5  10  10 -0.7591 2.58435   2
  -4  10  10 28.0837 4.22813   2
  -3  10  10 53.6613 5.51730   2
  -2  10  10 113.276 9.07226   2
  -1  10  10 -1.2311 2.58999   2
   0  10  10 145.116 10.9104   2
  -1 -10 -10 11.6632 3.21579   3
   1  10  10 11.1710 3.28985   2
  -2 -10 -10 13.6563 3.56307   3
   2  10  10 15.6516 3.69627   2
  -3 -10 -10 29.7090 4.74107   3
   3  10  10 38.4574 5.35926   2
  -4 -10 -10 133.245 11.0992   3
   4  10  10 156.789 11.5632   2
   6 -11 -10 21.9132 5.77996   1
  -6  11  10 20.2745 4.25680   2
  -5  11  10 16.6054 3.79810   2
  -4  11  10 58.5750 6.20390   2
  -3  11  10 22.0095 3.86938   2
  -2  11  10 16.2988 3.72396   2
  -1  11  10 187.675 13.8784   2
   0  11  10 9.99743 3.39354   2
   1  11  10 0.44662 2.78238   2
   2  11  10 183.093 13.7328   2
  -3 -11 -10 14.5944 3.71439   3
  -5  12  10 68.9412 6.84753   2
  -4  12  10 4.24442 3.25928   2
  -3  12  10 14.6053 3.74762   2
  -2  12  10 3.50867 3.25785   2
  -1  12  10 270.636 19.0639   2
   0  12  10 158.289 12.2657   2
   1  12  10 -1.8903 2.91673   2
  -2 -13  11 33.6317 6.32803   1
  -1 -13  11 24.3687 5.08158   1
   0 -13  11 1.81355 3.17268   1
   1 -13  11 58.7004 6.41857   1
   2 -13  11 7.65869 3.12139   1
   3 -13  11 1.89552 2.57643   1
  -4  13 -11 226.173 14.5547   2
   4 -13  11 198.734 15.3808   1
  -5  13 -11 5.51112 2.20321   2
   5 -13  11 3.51449 2.87613   1
  -3 -12  11 58.0041 8.57525   1
  -2 -12  11 118.449 10.9227   1
  -1 -12  11 126.564 10.8759   1
   0 -12  11 84.9786 7.93402   1
   1 -12  11 161.828 12.3450   1
   2 -12  11 436.811 29.3488   1
  -3  12 -11 29.4522 3.11166   2
   3 -12  11 23.4298 4.05206   1
  -4  12 -11 36.8760 3.63223   2
   4 -12  11 32.8022 4.61530   1
  -5  12 -11 1.37126 1.85901   2
   5 -12  11 3.50094 2.70873   1
  -6  12 -11 181.650 12.3170   2
   6 -12  11 168.233 12.8629   1
   4  11 -11 219.070 14.3304   3
  -4 -11  11 179.601 18.3298   1
  -3 -11  11 10.4173 5.04731   1
  -2 -11  11 83.7110 8.42988   1
  -1 -11  11 14.9562 3.73729   1
   0 -11  11 4.05090 2.79878   1
   1 -11  11 62.9466 6.09727   1
  -2  11 -11 45.5940 3.80055   2
   2 -11  11 39.4147 4.76935   1
  -3  11 -11 26.0978 2.87723   2
   3 -11  11 26.8589 3.93516   1
  -4  11 -11 5.82355 1.86059   2
   4 -11  11 4.91867 2.57370   1
  -5  11 -11 119.762 8.28786   2
   5 -11  11 104.493 8.69435   1
  -6  11 -11 189.507 12.9908   2
   6 -11  11 184.417 13.4938   1
  -7  11 -11 48.2301 4.74143   2
   7 -11  11 44.7224 4.12756   4
   7 -11  11 48.3104 5.30673   1
   5  10 -11 8.05381 2.32712   3
  -5 -10  11 11.0767 7.59601   1
   4  10 -11 4.27478 2.04144   3
  -4 -10  11 3.80803 5.60381   1
   3  10 -11 13.1505 2.29477   3
  -3 -10  11 14.6487 4.83119   1
   2  10 -11 32.1270 3.35383   3
  -2 -10  11 28.5531 4.99274   1
  -1 -10  11 2.26969 2.76019   1
   0 -10  11 175.533 13.0574   1
   1 -10  11 83.7015 7.08050   1
  -2  10 -11 1.51643 1.39430   2
   2 -10  11 1.10073 2.11186   1
  -3  10 -11 203.539 13.2299   2
   3 -10  11 199.751 13.9839   1
   3 -10  11 191.405 12.9118   4
  -4  10 -11 0.99322 1.56286   2
   4 -10  11 -0.6615 2.01591   1
  -5  10 -11 193.131 13.1827   2
   5 -10  11 194.710 13.6390   1
  -6  10 -11 3.57212 2.08481   2
   6 -10  11 4.71383 2.40463   1
  -7  10 -11 167.003 11.4633   2
   7 -10  11 147.429 10.8315   4
   7 -10  11 165.560 11.7489   1
   6   9 -11 594.268 37.7782   3
  -6  -9  11 551.255 43.9374   1
   5   9 -11 62.6084 5.40550   3
  -5  -9  11 72.6027 11.0448   1
   4   9 -11 118.909 8.61187   3
  -4  -9  11 126.560 12.4986   1
   3   9 -11 164.215 11.0961   3
  -3  -9  11 157.546 13.4772   1
   2   9 -11 254.903 16.0478   3
  -2  -9  11 220.092 17.4162   1
   1   9 -11 272.814 17.0598   3
  -1  -9  11 234.735 17.9720   1
   0  -9  11 121.294 9.55410   1
  -1   9 -11 529.913 32.5586   2
   1  -9  11 481.218 33.3654   1
  -2   9 -11 173.417 11.2612   2
   2  -9  11 158.722 10.9711   4
   2  -9  11 175.604 12.0520   1
  -3   9 -11 57.9740 4.23895   2
   3  -9  11 44.4589 3.76436   4
   3  -9  11 54.2431 4.94863   1
  -4   9 -11 26.1259 2.88190   2
   4  -9  11 27.6142 2.58902   4
   4  -9  11 26.8100 3.51632   1
  -5   9 -11 92.6388 6.93638   2
   5  -9  11 94.3415 7.29374   1
   5  -9  11 92.0643 6.51631   4
  -6   9 -11 12.0949 2.43497   2
   6  -9  11 13.9401 2.11373   4
   6  -9  11 12.1192 2.61145   1
  -7   9 -11 12.6147 2.76696   2
   7  -9  11 11.5472 2.77708   1
   7  -9  11 13.9046 2.13586   4
  -8   9 -11 3.05770 2.42016   2
   8  -9  11 3.74553 1.84390   4
   7   8 -11 130.503 9.69235   3
  -7  -8  11 154.697 16.1238   1
   6   8 -11 47.0576 4.46508   3
  -6  -8  11 59.6853 10.6943   1
   5   8 -11 258.165 17.3321   3
  -5  -8  11 264.577 21.6212   1
   4   8 -11 6.49943 1.77668   3
  -4  -8  11 6.52473 4.80701   1
   3   8 -11 312.637 20.4986   3
  -3  -8  11 314.944 22.7330   1
   2   8 -11 6.61376 1.68060   3
  -2  -8  11 2.16368 2.87158   1
   1   8 -11 24.5706 2.84238   3
  -1  -8  11 26.5755 3.89896   1
   0   8 -11 2.28432 1.90516   3
   0  -8  11 -0.3638 1.95380   1
  -1   8 -11 56.3420 5.20158   3
  -1   8 -11 64.8318 4.50538   2
   1  -8  11 58.1196 4.16272   4
   1  -8  11 60.5692 5.38758   1
  -2   8 -11 31.2341 2.73100   2
   2  -8  11 29.2804 3.47967   1
   2  -8  11 25.6342 2.40356   4
  -3   8 -11 18.8073 2.38381   2
   3  -8  11 22.0290 3.07576   1
   3  -8  11 23.2080 2.10138   4
  -4   8 -11 140.849 9.16348   2
   4  -8  11 122.520 9.33138   1
   4  -8  11 131.830 8.79741   4
  -5   8 -11 629.511 38.3307   2
   5  -8  11 571.891 38.4005   1
   5  -8  11 580.530 37.9323   4
  -6   8 -11 30.6457 3.70307   2
   6  -8  11 33.5819 3.74110   1
   6  -8  11 31.9332 3.10679   4
  -7   8 -11 6.45818 2.38007   2
   7  -8  11 6.60468 1.81954   4
  -8   8 -11 200.531 13.7055   2
   8  -8  11 186.153 12.9458   4
   7   7 -11 182.720 12.7993   3
  -7  -7  11 196.371 17.7637   1
   6   7 -11 5.29296 1.92808   3
  -6  -7  11 6.58615 6.03932   1
   5   7 -11 63.4699 5.10863   3
  -5  -7  11 63.3279 9.57348   1
   4   7 -11 2.51107 1.52839   3
  -4  -7  11 -1.5725 3.85570   1
   3   7 -11 5.65270 1.57856   3
  -3  -7  11 7.92877 3.81142   1
   2   7 -11 1.97530 1.41586   3
  -2  -7  11 2.83693 2.70532   1
   1   7 -11 580.393 36.9414   3
  -1  -7  11 564.054 37.8421   1
   0   7 -11 125.703 9.12813   3
   0  -7  11 129.357 9.55460   1
  -1   7 -11 23.1736 2.09484   2
  -1   7 -11 20.8790 3.01184   3
   1  -7  11 16.5501 1.74634   4
   1  -7  11 14.8930 2.63696   1
  -2   7 -11 212.036 13.4593   3
  -2   7 -11 199.748 13.0398   2
   2  -7  11 188.874 13.5180   1
   2  -7  11 190.717 12.7829   4
  -3   7 -11 63.3647 4.80149   2
   3  -7  11 63.4473 4.51062   4
   3  -7  11 62.1250 5.23968   1
  -4   7 -11 635.812 39.8236   2
   4  -7  11 602.789 39.9555   1
   4  -7  11 621.027 39.5102   4
  -5   7 -11 30.7222 3.46566   2
   5  -7  11 29.6903 3.33860   1
   5  -7  11 34.4842 2.89191   4
  -6   7 -11 305.745 19.7646   2
   6  -7  11 287.107 19.6104   1
   6  -7  11 297.257 19.2523   4
  -7   7 -11 7.03907 2.46780   2
   7  -7  11 8.74157 1.96533   4
  -8   7 -11 2.43394 2.56151   2
   8  -7  11 3.12179 1.89687   4
   8   6 -11 50.0342 4.82894   3
  -8  -6  11 61.1331 10.5503   1
   7   6 -11 468.607 31.0972   3
  -7  -6  11 496.217 34.8549   1
   6   6 -11 83.3239 6.46294   3
  -6  -6  11 92.3187 11.2858   1
   5   6 -11 67.8851 5.27141   3
  -5  -6  11 70.2587 9.75193   1
   4   6 -11 41.3831 3.72518   3
  -4  -6  11 58.8928 7.57154   1
   3   6 -11 272.931 18.1042   3
  -3  -6  11 284.336 20.2878   1
   2   6 -11 262.929 16.8654   3
  -2  -6  11 245.572 18.1258   1
   1   6 -11 158.900 10.8341   3
  -1  -6  11 156.041 11.6519   1
   0   6 -11 369.470 25.3719   3
   0   6 -11 407.017 24.7762   2
   0  -6  11 376.490 24.7052   4
   0  -6  11 388.279 25.6360   1
  -1   6 -11 846.705 55.8334   3
  -1   6 -11 881.080 55.3229   2
   1  -6  11 911.953 55.9817   1
   1  -6  11 839.833 55.1648   4
  -2   6 -11 91.5219 6.56687   2
  -2   6 -11 102.909 7.17076   3
   2  -6  11 100.018 7.09497   1
   2  -6  11 88.6511 6.34505   4
  -3   6 -11 121.510 8.59380   2
  -3   6 -11 113.579 9.39511   3
   3  -6  11 128.967 8.85314   1
   3  -6  11 129.634 8.28994   4
  -4   6 -11 13.9305 2.11459   2
   4  -6  11 16.5585 2.32560   1
   4  -6  11 15.4597 1.94297   4
  -5   6 -11 22.8823 2.87622   2
   5  -6  11 20.5527 2.64183   1
   5  -6  11 19.5517 2.45772   4
  -6   6 -11 1.73450 1.80964   2
   6  -6  11 3.37198 1.61195   4
  -7   6 -11 36.8041 4.29691   2
   7  -6  11 41.8478 3.59362   4
  -8   6 -11 141.181 10.7183   2
   8  -6  11 143.254 9.85379   4
  -9   6 -11 52.1971 5.86114   2
   9  -6  11 48.0955 4.45348   4
   8   5 -11 74.9981 6.39240   3
  -8  -5  11 104.599 12.2367   1
   7   5 -11 246.285 16.9907   3
  -7  -5  11 271.993 20.6981   1
   6   5 -11 213.779 14.7070   3
  -6  -5  11 236.284 18.2880   1
   5   5 -11 31.2767 3.19769   3
  -5  -5  11 41.1698 7.43589   1
   4   5 -11 281.019 18.7945   3
  -4  -5  11 301.265 21.7221   1
   3   5 -11 2.65135 1.36439   3
  -3  -5  11 3.28346 3.41633   1
   2   5 -11 59.8808 4.74700   3
  -2  -5  11 63.8286 6.42614   1
   1   5 -11 180.766 12.4168   3
  -1  -5  11 187.012 13.1462   1
   0   5 -11 57.1403 4.90052   3
   0   5 -11 58.0262 4.00089   2
   0  -5  11 47.3831 4.89903   1
  -1   5 -11 54.9114 4.08757   2
  -1   5 -11 54.7302 4.63589   3
   1  -5  11 59.4955 4.78835   1
   1  -5  11 52.9191 4.00263   4
  -2   5 -11 17.0105 1.99885   2
  -2   5 -11 17.9716 2.55834   3
   2  -5  11 19.0425 2.47452   1
   2  -5  11 16.0031 1.77959   4
  -3   5 -11 40.3625 4.44232   3
  -3   5 -11 40.2467 3.40854   2
   3  -5  11 39.2700 3.07824   4
   3  -5  11 38.2721 3.52029   1
  -4   5 -11 766.135 48.7588   2
  -4   5 -11 770.266 48.8633   3
   4  -5  11 751.363 48.4137   4
   4  -5  11 755.441 48.7102   1
  -5   5 -11 2.18653 1.65559   2
   5  -5  11 0.37304 1.33265   4
   5  -5  11 4.39600 1.51137   1
  -6   5 -11 4.38824 2.04101   2
   6  -5  11 3.83184 1.58498   4
  -7   5 -11 103.590 8.24187   2
   7  -5  11 110.094 7.54702   4
  -8   5 -11 5.19333 2.86515   2
   8  -5  11 5.80707 1.97929   4
   9  -5  11 119.389 8.59295   4
   8   4 -11 390.232 26.7527   3
  -8  -4  11 444.440 30.3700   1
   7   4 -11 0.35831 1.75704   3
  -7  -4  11 3.71237 4.77130   1
   6   4 -11 178.362 12.2414   3
  -6  -4  11 184.655 15.0653   1
   5   4 -11 27.7976 2.92687   3
  -5  -4  11 32.0127 6.08505   1
   4   4 -11 117.405 8.13376   3
  -4  -4  11 116.303 11.0020   1
   3   4 -11 2.29802 1.29527   3
  -3  -4  11 1.01710 3.07168   1
   2   4 -11 1065.03 66.6570   3
  -2  -4  11 1020.48 67.8996   1
   1   4 -11 81.6609 6.07142   3
  -1  -4  11 74.4995 6.67601   1
   0   4 -11 24.8755 3.54468   3
   0   4 -11 29.1171 2.51924   2
   0  -4  11 30.8227 3.70705   1
  -1   4 -11 2.61966 1.10798   2
  -1   4 -11 5.96200 1.89085   3
   1  -4  11 4.15263 1.16112   4
   1  -4  11 2.26586 1.53064   1
  -2   4 -11 74.8512 5.92261   3
  -2   4 -11 73.0396 5.25465   2
   2  -4  11 68.0421 5.03825   4
   2  -4  11 75.6992 5.53550   1
  -3   4 -11 819.549 55.9124   3
  -3   4 -11 867.140 55.2468   2
   3  -4  11 879.938 55.2760   1
   3  -4  11 887.812 54.9725   4
  -4   4 -11 12.6972 2.11129   2
  -4   4 -11 17.1975 2.60303   3
   4  -4  11 11.8259 1.67276   4
   4  -4  11 15.3178 2.07273   1
  -5   4 -11 289.483 19.0775   2
   5  -4  11 283.569 18.5590   4
  -6   4 -11 15.0967 2.75840   2
   6  -4  11 16.6847 2.03005   4
  -7   4 -11 150.776 11.1775   2
   7  -4  11 153.029 10.3549   4
   8  -4  11 67.0830 5.38109   4
   9  -4  11 37.1244 5.42364   2
   9  -4  11 28.8647 3.58952   4
   9   3 -11 87.3788 7.12397   3
  -9  -3  11 95.5368 11.1305   1
   8   3 -11 315.539 23.0551   3
  -8  -3  11 438.269 27.2850   1
   7   3 -11 123.597 9.32220   3
  -7  -3  11 158.889 12.8685   1
   6   3 -11 50.0840 4.28472   3
  -6  -3  11 51.7242 7.09200   1
   5   3 -11 42.1676 3.59845   3
  -5  -3  11 40.7589 6.31815   1
   4   3 -11 184.696 12.4768   3
  -4  -3  11 191.730 15.1713   1
   3   3 -11 320.436 21.0142   3
  -3  -3  11 323.335 22.9943   1
   2   3 -11 14.8554 2.20271   3
   1   3 -11 208.151 13.9726   3
  -1  -3  11 196.679 13.6112   2
  -1  -3  11 209.127 14.6799   1
   0   3 -11 1508.83 99.5124   3
   0  -3  11 1565.89 98.9942   2
   0  -3  11 1604.44 99.6724   1
  -1   3 -11 34.7139 3.34294   3
  -1   3 -11 33.5050 3.07802   2
   1  -3  11 37.6031 3.57978   1
   1  -3  11 35.6226 3.00621   4
  -2   3 -11 142.722 9.76869   2
  -2   3 -11 143.253 10.6085   3
   2  -3  11 144.260 9.54103   4
   2  -3  11 144.269 9.88837   1
  -3   3 -11 1.91985 1.47259   2
  -3   3 -11 4.69637 2.47859   3
   3  -3  11 2.77660 1.21746   4
   3  -3  11 4.66357 1.31883   1
  -4   3 -11 5.88726 1.81289   2
  -4   3 -11 8.90272 2.17598   3
   4  -3  11 6.92625 1.39065   4
  -5   3 -11 32.8459 3.05074   3
  -5   3 -11 15.9865 2.81493   2
   5  -3  11 18.7274 2.35484   4
  -6   3 -11 371.968 23.8072   3
   6  -3  11 356.954 23.5925   4
   7  -3  11 87.4893 7.95833   2
   7  -3  11 94.8692 6.69266   4
   8  -3  11 88.3402 8.14456   2
   8  -3  11 81.8386 6.44566   4
   9  -3  11 78.1549 8.53851   2
   9  -3  11 78.7555 6.40404   4
   9   2 -11 4.33274 2.17798   3
  -9  -2  11 9.05042 5.71998   1
   8   2 -11 290.910 21.1793   3
  -8  -2  11 393.290 25.0216   1
   7   2 -11 46.8447 4.42466   3
  -7  -2  11 72.6678 7.84120   1
   6   2 -11 157.420 11.2008   3
  -6  -2  11 182.255 13.4797   1
   5   2 -11 148.983 10.2538   3
  -5  -2  11 153.501 12.2139   1
   4   2 -11 7.00327 1.56059   3
  -4  -2  11 7.32960 3.50278   1
   3   2 -11 158.623 10.8608   3
   2   2 -11 349.936 23.6215   3
  -2  -2  11 373.061 24.9507   1
   1   2 -11 14.5524 2.51107   3
  -1  -2  11 14.1222 3.12905   1
  -1  -2  11 16.0327 2.26216   2
   0   2 -11 23.8571 2.74402   3
   0  -2  11 23.6417 3.45722   1
   0  -2  11 23.0794 3.15435   2
  -1   2 -11 -0.5438 1.44714   3
   1  -2  11 0.96432 1.51769   1
   1  -2  11 0.84865 1.44864   2
  -2   2 -11 21.5428 3.58031   3
   2  -2  11 29.4922 2.92272   1
   2  -2  11 28.3190 2.63835   4
   2  -2  11 29.0379 3.18296   2
  -3   2 -11 455.617 31.7052   3
   3  -2  11 485.178 31.0740   2
   3  -2  11 481.453 30.7107   1
   3  -2  11 483.087 30.6183   4
  -4   2 -11 59.9294 5.06702   3
   4  -2  11 55.5401 4.25422   4
   4  -2  11 52.1604 5.13866   2
  -5   2 -11 109.578 7.87764   3
   5  -2  11 103.839 7.48631   4
   5  -2  11 110.063 8.53419   2
  -6   2 -11 5.41986 1.88464   3
   6  -2  11 1.62055 1.59112   4
   6  -2  11 3.64860 2.79495   2
  -7   2 -11 3.90822 1.84658   3
   7  -2  11 3.19878 1.90162   4
   7  -2  11 -0.0382 3.06306   2
   8  -2  11 85.2311 6.37355   4
   8  -2  11 73.5838 8.19859   2
   9  -2  11 107.004 8.10159   4
   9  -2  11 105.557 10.3190   2
   9   1 -11 372.383 25.6957   3
  -9  -1  11 418.645 28.7200   1
   8   1 -11 13.9747 2.52602   3
  -8  -1  11 12.7043 5.12032   1
   7   1 -11 177.276 13.1226   3
  -7  -1  11 234.525 16.1231   1
   6   1 -11 23.4238 2.77799   3
  -6  -1  11 22.8152 4.58187   1
   5   1 -11 455.861 30.1463   3
  -5  -1  11 480.853 31.6268   1
   4   1 -11 56.0826 4.63581   3
  -4  -1  11 64.4392 6.25540   1
   3   1 -11 1282.34 73.2758   3
  -3  -1  11 999.327 74.1561   1
   2   1 -11 18.3501 2.83662   3
  -2  -1  11 21.8100 2.27756   2
  -2  -1  11 16.0315 3.80812   1
   1   1 -11 4.47073 1.75757   3
  -1  -1  11 3.55761 1.45048   2
  -1  -1  11 2.67619 2.41646   1
   0   1 -11 43.8675 3.88697   3
   0  -1  11 46.7362 4.77089   1
   0  -1  11 54.5030 4.56905   2
  -1   1 -11 37.2311 3.64306   3
   1  -1  11 34.5943 3.93847   2
   1  -1  11 30.7464 3.59818   1
   2  -1  11 756.028 48.5243   1
   2  -1  11 758.875 48.8556   2
  -3   1 -11 51.3431 5.09405   3
   3  -1  11 41.1876 4.53959   2
   3  -1  11 38.2870 3.61440   4
  -4   1 -11 296.128 19.0866   3
   4  -1  11 288.621 19.3680   2
   4  -1  11 267.538 18.4732   4
  -5   1 -11 98.7689 7.47228   3
   5  -1  11 113.292 8.58926   2
   5  -1  11 94.4211 7.11432   4
  -6   1 -11 479.853 31.1580   3
   6  -1  11 473.358 30.9492   4
   6  -1  11 485.951 32.1839   2
  -7   1 -11 80.7985 6.49365   3
   7  -1  11 84.8754 8.59735   2
   7  -1  11 93.5431 6.56550   4
  -8   1 -11 7.25811 2.21030   3
   8  -1  11 8.16203 2.46222   4
   8  -1  11 7.48576 4.95620   2
   9  -1  11 61.3614 8.47987   2
   9  -1  11 62.1293 5.60132   4
   9   0 -11 105.604 8.39050   3
  -9   0  11 129.676 11.5436   1
   8   0 -11 180.000 13.2091   3
  -8   0  11 224.933 16.2699   1
   7   0 -11 8.97757 2.00017   3
  -7   0  11 -3.6684 4.14578   1
   6   0 -11 286.475 20.5173   3
  -6   0  11 358.714 22.6211   1
   5   0 -11 41.5661 3.81782   3
  -5   0  11 46.7072 5.36561   1
   4   0 -11 326.436 21.1590   3
  -4   0  11 314.211 22.0761   1
   3   0 -11 67.7623 5.19305   3
  -3   0  11 51.1319 5.55466   1
   2   0 -11 146.513 10.8111   3
  -2   0  11 160.906 10.1365   2
  -2   0  11 138.292 11.0851   1
   1   0 -11 1953.11 120.332   3
  -1   0  11 1835.44 120.002   2
  -1   0  11 1892.98 120.986   1
   0   0 -11 197.388 12.9472   3
   0   0  11 189.489 13.2408   2
   0   0  11 184.914 13.5620   1
  -1   0 -11 57.9941 5.19378   3
   1   0  11 58.1351 5.36605   2
   1   0  11 50.6818 4.86274   1
  -2   0 -11 12.0113 3.72468   3
   2   0  11 17.8889 3.18854   2
  -3   0 -11 39.7115 4.95710   3
   3   0  11 45.9135 5.26458   2
  -4   0 -11 131.822 9.68787   3
   4   0  11 130.954 10.4771   2
  -5   0 -11 524.261 34.7060   3
   5   0  11 547.814 35.8094   2
  -6   0 -11 16.0386 2.65432   3
   6   0  11 19.8538 4.79653   2
  -7   0 -11 104.391 8.01990   3
   7   0  11 120.305 10.6891   2
  -8   0 -11 93.5716 7.36704   3
   8   0  11 105.498 10.6534   2
  -9   0 -11 6.05736 2.41816   3
   9   0  11 9.89133 5.51727   2
   9  -1 -11 223.809 16.2587   3
  -9   1  11 269.022 19.2227   1
   8  -1 -11 2.01300 1.98196   3
  -8   1  11 3.15771 3.91653   1
   7  -1 -11 382.744 27.4746   3
  -7   1  11 485.465 29.8299   1
   6  -1 -11 41.9528 4.06721   3
  -6   1  11 46.4114 6.26918   1
   5  -1 -11 58.0522 5.14022   3
  -5   1  11 71.6255 6.80342   1
   4  -1 -11 241.849 16.7856   3
  -4   1  11 256.229 17.6088   1
   3  -1 -11 359.802 23.9091   3
  -3   1  11 358.606 24.0934   1
   2  -1 -11 102.469 7.56280   3
  -2   1  11 105.470 7.20210   2
  -2   1  11 100.024 7.87978   1
   1  -1 -11 43.3523 3.64786   3
  -1   1  11 44.0093 3.49675   2
  -1   1  11 37.9991 3.83266   1
   0  -1 -11 40.7538 3.81790   3
   0   1  11 38.9630 3.66096   2
   0   1  11 40.5015 3.73693   1
  -1  -1 -11 65.3389 6.24922   3
   1   1  11 67.8101 6.02692   2
   1   1  11 62.6391 4.78898   1
  -2  -1 -11 242.821 18.3557   3
   2   1  11 266.356 17.8742   2
  -3  -1 -11 152.578 11.5360   3
   3   1  11 154.264 11.7566   2
  -4  -1 -11 348.961 23.1949   3
   4   1  11 344.188 23.8912   2
  -5  -1 -11 196.209 13.6597   3
   5   1  11 197.572 14.8850   2
  -6  -1 -11 3.00196 1.99202   3
   6   1  11 2.21587 3.86185   2
  -7  -1 -11 78.2161 6.44475   3
   7   1  11 78.4530 8.99676   2
  -8  -1 -11 12.5035 2.65047   3
   8   1  11 14.4824 5.68139   2
  -9   2  11 23.5502 5.37131   1
   8  -2 -11 173.781 12.9312   3
  -8   2  11 210.030 15.3805   1
   7  -2 -11 4.93837 2.10415   3
  -7   2  11 2.01876 3.64096   1
   6  -2 -11 576.552 40.8846   3
  -6   2  11 704.554 42.4932   1
   5  -2 -11 28.8100 3.71390   3
  -5   2  11 35.8181 5.20828   1
   4  -2 -11 500.877 34.3283   3
  -4   2  11 548.345 34.8633   1
   3  -2 -11 6.58236 2.11650   3
  -3   2  11 4.08028 2.20134   1
  -3   2  11 6.55663 1.52019   2
   2  -2 -11 16.3196 2.46688   3
  -2   2  11 7.83855 1.78253   2
  -2   2  11 9.39334 2.27752   1
   1  -2 -11 42.5446 3.74092   3
  -1   2  11 43.9877 3.72285   2
  -1   2  11 45.1827 4.14099   1
   0  -2 -11 23.9528 3.44891   3
   0   2  11 27.5120 2.97519   2
   0   2  11 32.1756 3.13385   1
  -1  -2 -11 144.381 12.1074   3
   1   2  11 165.452 11.1195   2
  -2  -2 -11 15.1120 3.62717   3
   2   2  11 10.6159 2.95878   2
  -3  -2 -11 196.409 13.6956   3
   3   2  11 178.615 13.9128   2
  -4  -2 -11 396.628 26.4124   3
   4   2  11 395.476 27.2072   2
  -5  -2 -11 496.337 32.6755   3
   5   2  11 500.924 33.8669   2
  -6  -2 -11 66.2151 5.67346   3
   6   2  11 62.7675 7.96994   2
  -7  -2 -11 0.62725 2.14712   3
   7   2  11 4.35323 4.48930   2
  -8  -2 -11 41.6140 4.56445   3
   8   2  11 48.2707 7.20302   2
  -9   3  11 156.061 13.3131   1
  -8   3  11 6.03426 3.79206   1
   7  -3 -11 577.225 39.6254   3
  -7   3  11 647.260 41.1370   1
   6  -3 -11 3.56847 2.39354   3
  -6   3  11 4.31240 3.20925   1
   5  -3 -11 178.347 13.2026   3
  -5   3  11 190.386 13.9289   1
   4  -3 -11 147.572 10.8314   3
  -4   3  11 150.567 11.2924   1
   3  -3 -11 182.471 12.2289   3
  -3   3  11 150.572 12.0998   2
  -3   3  11 221.327 13.2305   1
   2  -3 -11 1155.71 80.2312   3
  -2   3  11 1388.88 80.8470   1
  -2   3  11 1242.44 80.3249   2
   1  -3 -11 337.713 24.5721   3
  -1   3  11 403.719 24.8920   1
  -1   3  11 385.451 24.6050   2
   0  -3 -11 -2.5356 2.29641   3
   0   3  11 0.48100 1.50035   2
  -1  -3 -11 53.0592 6.78344   3
   1   3  11 71.1275 5.40247   2
  -2  -3 -11 83.2871 7.81385   3
   2   3  11 80.5743 6.64591   2
  -3  -3 -11 142.896 10.6849   3
   3   3  11 134.206 10.3377   2
  -4  -3 -11 399.366 25.0430   3
   4   3  11 341.393 25.2798   2
  -5  -3 -11 13.0319 2.79548   3
   5   3  11 6.34352 3.54033   2
  -6  -3 -11 73.3047 6.24110   3
   6   3  11 63.0848 7.65856   2
  -7  -3 -11 75.6920 6.49417   3
   7   3  11 80.2996 8.57513   2
  -8  -3 -11 2.11514 2.31930   3
   8   3  11 0.55355 3.64550   2
  -9   4  11 27.8197 5.56255   1
  -8   4  11 493.105 33.9156   1
  -7   4  11 32.7476 5.54013   1
   6  -4 -11 21.3073 3.86072   3
  -6   4  11 17.3736 4.07091   1
   5  -4 -11 299.635 20.6506   3
  -5   4  11 316.773 21.3650   1
   4  -4 -11 92.2172 6.50631   3
  -4   4  11 71.3931 6.26787   2
  -4   4  11 100.702 7.63327   1
   3  -4 -11 329.706 21.3365   3
  -3   4  11 370.681 22.2024   1
  -3   4  11 283.608 21.3690   2
   2  -4 -11 20.2582 2.63394   3
  -2   4  11 21.7267 3.24296   1
  -2   4  11 15.9043 2.49234   2
   1  -4 -11 52.5390 4.95303   3
  -1   4  11 51.1749 4.55535   1
  -1   4  11 47.7702 4.41623   2
   0  -4 -11 159.720 14.5132   3
   0   4  11 223.203 13.5768   2
  -1  -4 -11 -1.2149 2.86361   3
   1   4  11 3.43909 1.82574   2
  -2  -4 -11 371.237 25.0914   3
   2   4  11 364.937 24.3049   2
  -3  -4 -11 231.405 15.1902   3
   3   4  11 191.133 14.4439   2
  -4  -4 -11 553.083 34.7842   3
   4   4  11 498.322 34.5773   2
  -5  -4 -11 3.13712 2.52534   3
   5   4  11 6.21181 3.02838   2
  -6  -4 -11 67.7265 6.26580   3
   6   4  11 67.8678 7.01077   2
  -7  -4 -11 8.29864 2.75481   3
   7   4  11 10.2487 3.95373   2
  -9   5  11 157.949 13.4133   1
  -8   5  11 52.0027 7.13898   1
  -7   5  11 476.162 32.6086   1
  -6   5  11 2.32101 3.09343   1
   5  -5 -11 85.8785 6.57389   3
  -5   5  11 81.4859 7.61138   1
   4  -5 -11 43.1402 3.74648   3
  -4   5  11 32.0693 3.95169   2
  -4   5  11 39.9735 4.78511   1
   3  -5 -11 52.5134 4.24316   3
  -3   5  11 38.4753 4.34128   2
  -3   5  11 51.7491 5.07564   1
   2  -5 -11 285.407 18.5669   3
  -2   5  11 290.414 18.7598   1
  -2   5  11 249.033 18.3037   2
   1  -5 -11 76.8573 7.45106   3
  -1   5  11 89.1399 6.66014   2
   0  -5 -11 -0.7184 2.91224   3
   0   5  11 3.14882 2.17391   2
  -1  -5 -11 8.98627 3.29416   3
   1   5  11 11.0039 2.28889   2
  -2  -5 -11 45.6697 5.67036   3
   2   5  11 49.3105 4.70523   2
  -3  -5 -11 425.916 28.2700   3
   3   5  11 414.758 27.7402   2
  -4  -5 -11 282.082 18.6369   3
   4   5  11 252.971 18.1989   2
  -5  -5 -11 10.3360 3.00600   3
   5   5  11 9.86002 3.06940   2
  -6  -5 -11 82.5408 6.91987   3
   6   5  11 64.4667 6.73301   2
  -7  -5 -11 11.8081 3.09585   3
   7   5  11 9.00048 3.49972   2
  -9   6  11 0.90326 3.79331   1
  -8   6  11 332.017 23.7256   1
  -7   6  11 3.73908 3.48252   1
  -6   6  11 19.6202 4.18325   1
  -5   6  11 118.539 9.59185   1
  -5   6  11 106.336 8.52350   2
   4  -6 -11 104.349 7.25520   3
  -4   6  11 79.2449 7.40926   2
  -4   6  11 107.177 8.31557   1
   3  -6 -11 462.843 27.2423   3
  -3   6  11 363.244 27.0708   2
   2  -6 -11 315.301 18.5216   3
   2  -6 -11 226.724 18.1097   1
  -2   6  11 257.650 17.7100   2
   1  -6 -11 12.1267 3.92228   3
  -1   6  11 19.8194 3.01201   2
   0  -6 -11 17.6291 4.26954   3
   0   6  11 35.4509 3.81900   2
  -1  -6 -11 41.2147 5.66298   3
   1   6  11 54.0165 4.97591   2
  -2  -6 -11 72.2218 7.10768   3
   2   6  11 76.1343 6.29047   2
  -3  -6 -11 88.2801 7.49703   3
   3   6  11 72.9659 6.72749   2
  -4  -6 -11 12.7630 3.36301   3
   4   6  11 14.6410 3.01549   2
  -5  -6 -11 5.38696 2.89032   3
   5   6  11 3.15609 2.68728   2
  -6  -6 -11 1.82677 2.67868   3
   6   6  11 4.31188 3.08564   2
   8  -7 -11 105.490 9.86503   1
   5  -7 -11 4.50656 3.02229   1
  -5   7  11 -3.4673 2.27671   2
   4  -7 -11 451.178 28.9993   1
  -4   7  11 399.697 27.9161   2
   3  -7 -11 62.3525 6.01978   3
   3  -7 -11 48.1084 6.19761   1
  -3   7  11 43.7332 4.84549   2
   2  -7 -11 68.2743 7.64110   3
  -2   7  11 92.1248 6.85170   2
   1  -7 -11 124.893 12.0598   3
  -1   7  11 187.246 11.6771   2
   0  -7 -11 22.9012 4.19916   3
   0   7  11 24.5832 3.58834   2
  -1  -7 -11 328.782 24.6342   3
   1   7  11 388.819 24.1330   2
  -2  -7 -11 74.3524 7.25615   3
   2   7  11 76.0643 6.67187   2
  -3  -7 -11 555.865 38.5064   3
   3   7  11 607.827 38.2091   2
  -4  -7 -11 5.30792 3.11283   3
   4   7  11 5.10960 2.67261   2
  -5  -7 -11 35.3592 5.12657   3
   5   7  11 39.9184 5.00520   2
  -6  -7 -11 18.8771 3.81141   3
   6   7  11 29.2565 4.46923   2
   8  -8 -11 119.276 10.8251   1
   7  -8 -11 5.77053 3.88764   1
   6  -8 -11 10.3558 4.16741   1
   5  -8 -11 95.0090 8.70932   1
  -5   8  11 78.8986 7.27155   2
   4  -8 -11 18.7485 4.39076   1
  -4   8  11 13.2162 3.18009   2
  -3   8  11 188.565 13.3910   2
   2  -8 -11 47.0192 5.81613   3
  -2   8  11 53.6427 5.15580   2
   1  -8 -11 29.7612 4.58686   3
  -1   8  11 38.8198 4.41324   2
   0  -8 -11 18.4153 4.05328   3
   0   8  11 21.9488 3.65215   2
  -1  -8 -11 43.4744 5.99245   3
   1   8  11 61.9311 5.73448   2
  -2  -8 -11 396.413 28.5454   3
   2   8  11 450.511 28.3037   2
  -3  -8 -11 95.3065 8.76387   3
   3   8  11 111.455 8.51557   2
  -4  -8 -11 9.42643 3.58080   3
   4   8  11 14.2588 3.53967   2
  -5  -8 -11 156.930 12.9830   3
   5   8  11 191.521 13.1095   2
   7  -9 -11 4.33386 4.04602   1
   6  -9 -11 30.0719 5.50446   1
   5  -9 -11 46.9819 6.69408   1
  -5   9  11 40.1401 5.14613   2
  -4   9  11 143.897 10.8992   2
  -3   9  11 182.667 13.1421   2
  -2   9  11 73.9941 6.66303   2
   1  -9 -11 3.23766 3.13067   3
  -1   9  11 2.27095 2.55735   2
   0  -9 -11 2.61353 3.15567   3
   0   9  11 1.61094 2.77250   2
  -1  -9 -11 59.3025 6.64844   3
   1   9  11 70.9143 6.63338   2
  -2  -9 -11 17.8660 3.99464   3
   2   9  11 17.8666 3.87626   2
  -3  -9 -11 7.36772 3.52748   3
   3   9  11 16.0729 3.56200   2
  -4  -9 -11 0.86250 2.93837   3
   4   9  11 -0.4563 3.02790   2
   6 -10 -11 7.03602 4.82479   1
  -6  10  11 0.98232 3.83117   2
  -4  10  11 150.068 11.3847   2
  -3  10  11 51.0180 5.52242   2
  -2  10  11 44.0072 5.27923   2
  -1  10  11 11.1041 3.34083   2
   0  10  11 166.142 12.3034   2
  -1 -10 -11 2.93504 3.21130   3
   1  10  11 1.41613 3.13082   2
  -2 -10 -11 341.885 26.1608   3
   2  10  11 432.938 26.3663   2
  -3 -10 -11 31.8808 4.82200   3
   3  10  11 32.5888 4.85272   2
  -5  11  11 0.11525 3.12531   2
  -4  11  11 124.136 10.1168   2
  -3  11  11 24.7058 4.38263   2
  -2  11  11 12.4242 3.57921   2
  -1  11  11 4.94166 3.46250   2
   0  11  11 43.5144 5.59259   2
   1  11  11 248.071 17.5304   2
   2  11  11 1.77782 3.31190   2
  -3  12  11 18.3879 4.13451   2
  -2  12  11 -3.5918 2.89507   2
  -1  12  11 -0.6203 3.26966   2
  -1 -13  12 38.0702 6.22082   1
   0 -13  12 69.7432 7.50264   1
   1 -13  12 71.6459 7.17390   1
   2 -13  12 6.62638 3.12975   1
   3 -13  12 3.99959 2.91850   1
  -4  13 -12 27.7190 3.42005   2
   4 -13  12 29.2370 4.45576   1
  -3 -12  12 293.092 22.7757   1
  -2 -12  12 130.756 11.8345   1
  -1 -12  12 125.284 11.1274   1
   0 -12  12 151.089 12.1524   1
   1 -12  12 106.503 9.04718   1
   2 -12  12 13.2599 3.37023   1
   3 -12  12 191.559 14.0001   1
  -4  12 -12 412.148 25.8986   2
   4 -12  12 377.095 26.6143   1
  -5  12 -12 45.3797 4.39107   2
   5 -12  12 52.4127 5.56647   1
   5 -12  12 42.6339 3.85286   4
   4  11 -12 4.44189 2.26165   3
  -4 -11  12 7.89509 5.82724   1
  -3 -11  12 25.5675 6.15186   1
  -2 -11  12 180.721 14.5215   1
  -1 -11  12 2.79670 3.24693   1
   0 -11  12 85.1318 7.73459   1
   1 -11  12 9.36891 2.99364   1
   2 -11  12 15.6139 3.30127   1
  -3  11 -12 107.662 7.47178   2
   3 -11  12 96.9050 8.28558   1
  -4  11 -12 9.49090 2.09366   2
   4 -11  12 5.53197 2.73070   1
   4 -11  12 11.1178 1.71797   4
  -5  11 -12 9.69563 2.28907   2
   5 -11  12 10.3320 2.92715   1
   5 -11  12 6.41787 1.72974   4
  -6  11 -12 -0.0891 2.13043   2
   6 -11  12 1.97903 1.68902   4
   6 -11  12 2.36002 2.49201   1
   5  10 -12 12.3327 2.58931   3
  -5 -10  12 11.9771 7.04734   1
   4  10 -12 6.59349 2.20977   3
  -4 -10  12 8.76334 5.85045   1
   3  10 -12 20.4180 2.97590   3
  -3 -10  12 11.5035 5.04463   1
   2  10 -12 2.26413 2.00326   3
  -2 -10  12 2.22915 3.27145   1
  -1 -10  12 62.9015 6.83122   1
   0 -10  12 87.6753 7.78716   1
   1 -10  12 1.73144 2.35511   1
  -2  10 -12 88.2830 6.23542   2
   2 -10  12 79.4461 7.13995   1
  -3  10 -12 126.497 8.47795   2
   3 -10  12 115.845 9.13188   1
   3 -10  12 116.058 8.04408   4
  -4  10 -12 2.71896 1.77977   2
   4 -10  12 2.21197 1.31643   4
   4 -10  12 2.78142 2.29327   1
  -5  10 -12 347.698 21.6381   2
   5 -10  12 309.325 21.1489   4
   5 -10  12 324.415 22.0304   1
  -6  10 -12 2.53229 2.10994   2
   6 -10  12 1.94098 2.41432   1
   6 -10  12 -0.1283 1.55934   4
  -7  10 -12 26.1671 3.78292   2
   7 -10  12 30.3329 4.31283   1
   7 -10  12 33.5721 3.14669   4
   6   9 -12 3.37594 2.22302   3
  -6  -9  12 5.41344 7.15274   1
   5   9 -12 2.53697 2.10382   3
  -5  -9  12 -1.7778 5.71617   1
   4   9 -12 490.129 31.7578   3
  -4  -9  12 487.668 35.0729   1
   3   9 -12 155.420 10.8544   3
  -3  -9  12 159.533 13.4811   1
   2   9 -12 219.387 14.3731   3
  -2  -9  12 200.196 15.8713   1
   1   9 -12 345.199 22.4453   3
  -1  -9  12 333.750 23.6671   1
   0  -9  12 223.306 15.9242   1
   1  -9  12 31.7838 4.25355   1
  -2   9 -12 237.916 15.0183   2
   2  -9  12 217.029 14.6950   4
   2  -9  12 226.641 15.8135   1
  -3   9 -12 378.764 23.9099   2
   3  -9  12 362.379 23.5721   4
   3  -9  12 359.604 24.4646   1
  -4   9 -12 229.653 14.8266   2
   4  -9  12 221.559 14.4389   4
   4  -9  12 210.840 15.2581   1
  -5   9 -12 114.262 8.10653   2
   5  -9  12 114.029 8.48185   1
   5  -9  12 102.751 7.54203   4
  -6   9 -12 42.9859 4.46595   2
   6  -9  12 41.2221 3.79905   4
   6  -9  12 49.0775 4.65088   1
  -7   9 -12 277.734 18.4500   2
   7  -9  12 266.119 17.8609   4
   6   8 -12 2.59719 2.03853   3
  -6  -8  12 1.37333 6.33957   1
   5   8 -12 27.7683 3.34581   3
  -5  -8  12 26.6496 7.29343   1
   4   8 -12 27.4962 3.09456   3
  -4  -8  12 26.6364 6.26562   1
   3   8 -12 269.450 17.9784   3
  -3  -8  12 275.478 20.2684   1
   2   8 -12 1.88910 1.69273   3
  -2  -8  12 0.43359 2.80530   1
   1   8 -12 249.419 16.0743   3
  -1  -8  12 225.083 17.1077   1
   0   8 -12 13.3183 2.71935   3
   0  -8  12 8.95220 2.65874   1
  -1   8 -12 44.6192 3.60756   2
  -1   8 -12 43.5952 4.42896   3
   1  -8  12 42.3597 4.59187   1
  -2   8 -12 3.60013 1.45438   2
   2  -8  12 4.26111 2.07289   1
   2  -8  12 2.27803 1.09576   4
  -3   8 -12 23.2099 2.61462   2
   3  -8  12 19.7034 2.11343   4
   3  -8  12 20.6545 3.08558   1
  -4   8 -12 6.21049 1.82744   2
   4  -8  12 5.61051 2.16077   1
   4  -8  12 5.10507 1.47289   4
  -5   8 -12 1.32162 1.83030   2
   5  -8  12 -0.5177 1.72848   1
   5  -8  12 0.59483 1.51032   4
  -6   8 -12 108.367 8.24936   2
   6  -8  12 107.829 8.28826   1
   6  -8  12 116.196 7.81253   4
  -7   8 -12 326.719 20.4521   2
   7  -8  12 279.952 19.7019   4
  -8   8 -12 42.9701 4.99568   2
   8  -8  12 45.2550 4.02502   4
   7   7 -12 200.881 13.9860   3
  -7  -7  12 208.921 18.0330   1
   6   7 -12 13.0500 2.39783   3
  -6  -7  12 14.6405 6.82058   1
   5   7 -12 31.3048 3.40107   3
  -5  -7  12 33.3059 7.50186   1
   4   7 -12 8.91049 1.88744   3
  -4  -7  12 8.55203 4.92765   1
   3   7 -12 22.5917 2.74789   3
  -3  -7  12 26.4307 5.02805   1
   2   7 -12 13.0725 2.18573   3
  -2  -7  12 11.1143 3.47017   1
   1   7 -12 51.3496 4.28507   3
  -1  -7  12 38.6976 5.02830   1
   0   7 -12 2.01908 2.11153   3
   0  -7  12 4.57639 2.30068   1
  -1   7 -12 412.564 29.3789   3
  -1   7 -12 477.063 28.9031   2
   1  -7  12 453.283 28.7205   4
   1  -7  12 449.800 29.6243   1
  -2   7 -12 116.857 8.20333   3
  -2   7 -12 115.874 7.77358   2
   2  -7  12 106.664 8.30515   1
   2  -7  12 107.787 7.46844   4
  -3   7 -12 2.79866 1.56395   2
   3  -7  12 1.81020 1.11627   4
   3  -7  12 0.89730 1.68253   1
  -4   7 -12 176.812 12.0103   2
   4  -7  12 178.813 11.6548   4
   4  -7  12 173.668 12.2281   1
  -5   7 -12 10.8572 2.24524   2
   5  -7  12 12.0461 2.16556   1
   5  -7  12 13.7832 1.92013   4
  -6   7 -12 240.726 15.9795   2
   6  -7  12 228.809 15.4567   4
  -7   7 -12 12.2767 2.94956   2
   7  -7  12 14.1589 2.28169   4
  -8   7 -12 234.733 15.7209   2
   8  -7  12 210.059 14.7684   4
   7   6 -12 2.19643 2.09250   3
  -7  -6  12 10.2647 5.83054   1
   6   6 -12 39.6342 3.90058   3
  -6  -6  12 40.9727 7.92001   1
   5   6 -12 630.427 40.9949   3
  -5  -6  12 649.408 44.7493   1
   4   6 -12 136.827 9.63778   3
  -4  -6  12 149.693 13.0663   1
   3   6 -12 236.334 16.0533   3
  -3  -6  12 256.231 18.5826   1
   2   6 -12 279.160 18.5459   3
  -2  -6  12 284.023 20.0261   1
   1   6 -12 423.199 27.4662   3
  -1  -6  12 416.090 28.1579   1
   0   6 -12 58.8924 5.45029   3
   0  -6  12 61.1291 5.60006   1
  -1   6 -12 204.696 14.6521   3
  -1   6 -12 224.656 14.2321   2
   1  -6  12 220.994 14.0972   4
   1  -6  12 214.573 14.9035   1
  -2   6 -12 248.143 16.7662   3
  -2   6 -12 251.500 16.4597   2
   2  -6  12 255.302 16.9335   1
   2  -6  12 248.922 16.2190   4
  -3   6 -12 648.295 40.3176   2
   3  -6  12 610.058 40.0063   4
   3  -6  12 626.517 40.5549   1
  -4   6 -12 128.463 9.13075   2
   4  -6  12 131.787 8.76230   4
   4  -6  12 129.930 9.21789   1
  -5   6 -12 132.971 9.20963   2
   5  -6  12 125.652 9.15047   1
   5  -6  12 130.669 8.81823   4
  -6   6 -12 269.434 18.3478   2
   6  -6  12 274.861 17.8197   4
  -7   6 -12 4.11144 2.33007   2
   7  -6  12 0.83234 1.76546   4
  -8   6 -12 51.9142 5.58424   2
   8  -6  12 53.3818 4.47799   4
   8   5 -12 18.5777 2.92557   3
  -8  -5  12 22.5633 6.62809   1
   7   5 -12 3.37489 1.96786   3
  -7  -5  12 -2.3433 4.68860   1
   6   5 -12 14.7389 2.37505   3
  -6  -5  12 15.6851 5.49240   1
   5   5 -12 208.387 13.8145   3
  -5  -5  12 198.924 17.2210   1
   4   5 -12 203.483 13.7215   3
  -4  -5  12 208.812 16.6595   1
   3   5 -12 0.94827 1.44541   3
  -3  -5  12 -2.1475 3.19153   1
   2   5 -12 349.593 22.5905   3
  -2  -5  12 335.858 24.0190   1
  -1  -5  12 9.08327 2.83814   1
   0   5 -12 13.9467 1.91029   2
   0   5 -12 16.9313 3.08862   3
   0  -5  12 20.9777 3.17855   1
  -1   5 -12 247.686 16.3021   3
  -1   5 -12 239.990 15.8765   2
   1  -5  12 245.484 15.7494   4
   1  -5  12 237.456 16.4485   1
  -2   5 -12 8.25291 1.53557   2
  -2   5 -12 6.18175 2.15286   3
   2  -5  12 9.52011 1.44045   4
   2  -5  12 7.50946 1.92306   1
  -3   5 -12 12.3289 3.11277   3
  -3   5 -12 19.8895 2.42749   2
   3  -5  12 18.4950 2.01171   4
   3  -5  12 18.0183 2.53752   1
  -4   5 -12 55.0265 4.95380   3
  -4   5 -12 49.4735 4.34219   2
   4  -5  12 49.3523 3.95721   4
   4  -5  12 52.6983 4.37195   1
  -5   5 -12 74.8289 6.14931   2
   5  -5  12 79.9902 5.59735   4
  -6   5 -12 535.459 35.5170   2
   6  -5  12 554.486 34.9892   4
  -7   5 -12 33.2916 4.31030   2
   7  -5  12 36.0228 3.46855   4
  -8   5 -12 29.8004 4.42502   2
   8  -5  12 23.1455 2.99736   4
   8   4 -12 179.405 13.0517   3
  -8  -4  12 210.859 16.2950   1
   7   4 -12 45.0678 4.28228   3
  -7  -4  12 51.7267 7.44618   1
   6   4 -12 77.1170 5.99513   3
  -6  -4  12 82.4529 8.76497   1
   5   4 -12 34.0937 3.38050   3
  -5  -4  12 32.8039 6.07525   1
   4   4 -12 75.3876 5.74664   3
  -4  -4  12 82.6209 8.98659   1
   3   4 -12 17.0830 2.55370   3
  -3  -4  12 18.3063 4.66178   1
   2   4 -12 10.9596 2.10825   3
  -2  -4  12 13.6943 3.76096   1
   1   4 -12 34.0116 3.74775   3
  -1  -4  12 29.7637 4.36111   1
   0   4 -12 1075.74 73.7539   3
   0  -4  12 1224.41 73.9482   1
  -1   4 -12 26.5410 3.05430   3
  -1   4 -12 27.9089 2.64998   2
   1  -4  12 28.3704 2.62025   4
   1  -4  12 25.7841 3.23750   1
  -2   4 -12 37.0888 3.85379   3
  -2   4 -12 36.8574 3.22485   2
   2  -4  12 33.4869 3.46087   1
   2  -4  12 37.5056 3.04935   4
  -3   4 -12 26.1238 2.83982   2
  -3   4 -12 16.0369 3.71720   3
   3  -4  12 29.9789 2.91328   1
   3  -4  12 29.4428 2.63718   4
  -4   4 -12 10.6943 2.15580   2
  -4   4 -12 22.5501 3.38894   3
   4  -4  12 10.2189 1.83239   1
   4  -4  12 13.9928 1.77982   4
  -5   4 -12 469.080 30.4690   2
   5  -4  12 462.430 29.9251   4
  -6   4 -12 0.06418 2.11564   2
   6  -4  12 -0.2953 1.49834   4
   8  -4  12 34.6960 5.25950   2
   8  -4  12 27.8747 3.42507   4
   9  -4  12 186.141 15.0849   2
   9  -4  12 198.867 13.3582   4
   8   3 -12 2.01680 2.02779   3
  -8  -3  12 4.47304 5.04256   1
   7   3 -12 30.3099 3.36694   3
  -7  -3  12 27.0131 5.76349   1
   6   3 -12 498.177 32.2160   3
  -6  -3  12 493.381 34.1533   1
   5   3 -12 87.6803 6.48129   3
  -5  -3  12 90.3112 8.89747   1
   4   3 -12 115.721 7.92581   3
  -4  -3  12 98.7274 10.0499   1
   3   3 -12 32.2871 3.34881   3
  -3  -3  12 29.9106 5.19982   1
   2   3 -12 273.781 18.4445   3
  -2  -3  12 278.121 19.9356   1
   1   3 -12 258.677 17.5773   3
  -1  -3  12 256.852 18.2016   1
   0   3 -12 8.42695 2.00062   3
   0  -3  12 10.6870 2.54494   1
   0  -3  12 5.41643 1.93481   2
  -1   3 -12 151.824 10.7536   3
   1  -3  12 165.351 11.0744   1
   1  -3  12 150.442 10.6351   2
  -2   3 -12 1386.01 89.7377   3
   2  -3  12 1392.61 88.9483   4
   2  -3  12 1424.89 89.3157   1
  -3   3 -12 270.200 19.3958   3
   3  -3  12 281.569 18.0498   1
   3  -3  12 267.691 17.8062   4
  -4   3 -12 376.847 24.0558   3
   4  -3  12 342.032 23.1053   4
  -5   3 -12 141.396 9.59925   3
   5  -3  12 125.126 9.05979   4
  -6   3 -12 7.84620 2.20733   3
   6  -3  12 0.58753 2.78380   2
   6  -3  12 8.93264 1.90647   4
   7  -3  12 2.47668 1.91810   4
   7  -3  12 3.81488 3.30274   2
   8  -3  12 133.776 10.9898   2
   8  -3  12 129.502 9.43389   4
   9  -3  12 93.4805 9.36674   2
   9  -3  12 88.7007 7.20506   4
   9   2 -12 16.5492 3.03734   3
  -9  -2  12 28.8871 7.07508   1
   8   2 -12 15.9720 2.83639   3
  -8  -2  12 23.6242 6.02775   1
   7   2 -12 8.28007 2.20586   3
  -7  -2  12 11.0046 4.26760   1
   6   2 -12 376.933 25.1860   3
  -6  -2  12 399.287 26.9982   1
   5   2 -12 73.3219 5.61413   3
  -5  -2  12 70.5049 7.46422   1
   4   2 -12 17.5464 2.49726   3
  -4  -2  12 13.0384 3.78344   1
   3   2 -12 475.953 31.6208   3
  -3  -2  12 503.005 33.4838   1
   2   2 -12 15.0845 2.65152   3
   1   2 -12 6.87859 2.34820   3
  -1  -2  12 4.07656 1.95670   2
  -1  -2  12 6.15005 3.07528   1
   0   2 -12 470.333 35.2005   3
   0  -2  12 581.176 36.0609   1
   0  -2  12 595.427 35.4972   2
  -1   2 -12 15.8526 2.37551   3
   1  -2  12 12.7356 2.45995   2
   1  -2  12 13.2655 2.49249   1
  -2   2 -12 4.10864 2.57440   3
   2  -2  12 4.05272 1.64551   1
   2  -2  12 3.58541 1.94784   2
  -3   2 -12 14.5373 4.04101   3
   3  -2  12 20.3453 2.99137   2
   3  -2  12 18.6267 2.21258   4
  -4   2 -12 20.3845 3.19399   3
   4  -2  12 12.9850 2.05862   4
   4  -2  12 12.1095 3.04745   2
  -5   2 -12 846.555 52.9894   3
   5  -2  12 815.079 53.3082   2
   5  -2  12 803.631 52.4687   4
  -6   2 -12 1.00429 1.94920   3
   6  -2  12 1.03806 1.71709   4
   6  -2  12 -5.0619 2.79774   2
  -7   2 -12 3.22056 2.17929   3
   7  -2  12 1.69636 3.62638   2
   7  -2  12 2.20924 2.02984   4
   8  -2  12 13.3089 4.98220   2
   8  -2  12 15.9100 2.84410   4
   9  -2  12 -0.0585 4.96807   2
   9  -2  12 0.25924 2.40838   4
   9   1 -12 117.773 9.47476   3
  -9  -1  12 162.485 13.5795   1
   8   1 -12 24.6825 3.46219   3
  -8  -1  12 29.7142 6.03240   1
   7   1 -12 144.605 10.5791   3
  -7  -1  12 163.351 12.9288   1
   6   1 -12 27.6818 3.19300   3
  -6  -1  12 26.3050 4.45750   1
   5   1 -12 131.415 9.19911   3
  -5  -1  12 128.797 10.5449   1
   4   1 -12 26.2962 3.05067   3
  -4  -1  12 23.1090 4.01238   1
   3   1 -12 247.429 16.1499   3
  -3  -1  12 224.168 17.0164   1
   2   1 -12 118.508 8.52888   3
  -2  -1  12 102.816 9.12705   1
   1   1 -12 1439.71 92.6980   3
  -1  -1  12 1532.19 93.7425   1
  -1  -1  12 1398.25 92.3205   2
   0   1 -12 2.36825 1.47950   3
   0  -1  12 4.39268 2.41153   1
   0  -1  12 2.21099 2.09191   2
  -1   1 -12 66.3127 5.38141   3
   1  -1  12 62.9280 5.86295   2
   1  -1  12 62.3233 5.71362   1
  -2   1 -12 12.0887 3.39799   3
   2  -1  12 11.1101 2.88810   2
  -3   1 -12 1.10210 3.00635   3
   3  -1  12 2.93082 2.58423   2
  -4   1 -12 467.125 31.1331   3
   4  -1  12 472.651 31.2150   2
  -5   1 -12 32.2579 3.94376   3
   5  -1  12 23.2866 2.88140   4
   5  -1  12 33.7288 4.63588   2
  -6   1 -12 351.695 23.0862   3
   6  -1  12 366.759 24.3056   2
   6  -1  12 330.280 22.7223   4
  -7   1 -12 104.419 7.81108   3
   7  -1  12 93.3430 7.53927   4
   7  -1  12 112.254 10.1546   2
  -8   1 -12 389.400 28.5685   3
   8  -1  12 486.210 31.2119   2
   8  -1  12 469.164 28.7259   4
   9   0 -12 13.2693 2.88488   3
  -9   0  12 10.8255 5.19440   1
   8   0 -12 9.43561 2.49486   3
  -8   0  12 9.04541 4.94377   1
   7   0 -12 251.388 17.9194   3
  -7   0  12 295.893 20.0867   1
   6   0 -12 79.3346 6.47888   3
  -6   0  12 91.1486 8.23108   1
   5   0 -12 4.30946 1.90756   3
  -5   0  12 8.07976 3.01907   1
   4   0 -12 66.2692 5.55694   3
  -4   0  12 64.2617 6.33079   1
   3   0 -12 95.4174 7.08800   3
  -3   0  12 79.9744 7.30437   1
   2   0 -12 264.836 18.7562   3
  -2   0  12 236.293 18.8399   1
  -2   0  12 323.123 18.2396   2
   1   0 -12 76.8941 5.53782   3
  -1   0  12 65.2340 6.03385   1
  -1   0  12 68.4482 5.16106   2
   0   0 -12 148.343 9.47296   3
   0   0  12 131.105 9.98259   1
   0   0  12 121.633 9.52478   2
  -1   0 -12 1898.47 113.719   3
   1   0  12 1676.17 113.651   1
   1   0  12 1775.02 113.774   2
  -2   0 -12 567.725 43.7605   3
   2   0  12 756.213 43.5396   2
  -3   0 -12 215.490 16.1787   3
   3   0  12 225.802 15.8835   2
  -4   0 -12 20.9505 3.45577   3
   4   0  12 13.6988 3.99535   2
  -5   0 -12 48.3044 4.86795   3
   5   0  12 42.9088 6.49459   2
  -6   0 -12 58.3635 5.29849   3
   6   0  12 49.7715 7.08387   2
  -7   0 -12 228.566 16.4512   3
   7   0  12 271.426 18.8708   2
  -8   0 -12 35.8965 4.10183   3
   8   0  12 39.4225 6.86320   2
   9  -1 -12 8.63505 2.76325   3
  -9   1  12 8.84044 5.02037   1
   8  -1 -12 1.82245 2.23372   3
  -8   1  12 1.13031 3.91229   1
   7  -1 -12 519.575 37.8551   3
  -7   1  12 677.076 39.9274   1
   6  -1 -12 2.56588 1.96936   3
  -6   1  12 -1.3179 2.93311   1
   5  -1 -12 207.336 14.7831   3
  -5   1  12 225.778 15.8388   1
   4  -1 -12 176.462 12.6761   3
  -4   1  12 179.609 13.0912   1
   3  -1 -12 1.46464 2.42709   3
  -3   1  12 6.78112 2.20341   1
   2  -1 -12 10.2258 2.02430   3
  -2   1  12 14.3029 2.61366   1
  -2   1  12 12.0045 1.97302   2
   1  -1 -12 431.932 27.2986   3
  -1   1  12 382.478 27.4842   1
  -1   1  12 446.095 27.1817   2
   0  -1 -12 90.6168 6.17593   3
   0   1  12 71.3248 5.95234   1
   0   1  12 80.2624 6.01244   2
  -1  -1 -12 3.36781 2.74178   3
   1   1  12 4.32534 2.23890   2
  -2  -1 -12 -0.1596 3.61253   3
   2   1  12 3.52809 2.96455   2
  -3  -1 -12 9.20476 3.62144   3
   3   1  12 13.6094 3.69364   2
  -4  -1 -12 452.590 30.4890   3
   4   1  12 459.661 30.9820   2
  -5  -1 -12 79.6454 6.66004   3
   5   1  12 67.8643 7.97721   2
  -6  -1 -12 54.0291 5.36732   3
   6   1  12 54.2720 7.50837   2
  -7  -1 -12 58.9070 5.55768   3
   7   1  12 62.7465 8.51777   2
  -8  -1 -12 3.00522 2.37924   3
   8   1  12 5.19713 5.00470   2
  -9   2  12 21.5238 5.26639   1
   8  -2 -12 51.9008 5.20929   3
  -8   2  12 60.9832 7.78706   1
   7  -2 -12 8.61978 2.62118   3
  -7   2  12 5.90129 3.69235   1
   6  -2 -12 150.086 11.1930   3
  -6   2  12 159.741 12.3126   1
   5  -2 -12 12.0346 2.87222   3
  -5   2  12 12.1826 3.43643   1
   4  -2 -12 526.933 35.2032   3
  -4   2  12 536.440 35.2316   1
   3  -2 -12 86.3248 6.23198   3
  -3   2  12 88.8346 6.68973   1
  -3   2  12 62.5788 5.70028   2
   2  -2 -12 914.424 64.4022   3
  -2   2  12 1116.56 64.5717   2
  -2   2  12 1002.50 64.8554   1
   1  -2 -12 13.2791 2.01195   3
  -1   2  12 12.5917 2.18814   1
  -1   2  12 11.1942 1.87525   2
   0  -2 -12 101.141 7.62776   3
   0   2  12 100.063 7.25724   2
  -1  -2 -12 54.3504 6.17456   3
   1   2  12 64.0341 5.28863   2
  -2  -2 -12 82.4497 8.49516   3
   2   2  12 93.1504 7.34664   2
  -3  -2 -12 138.441 10.7810   3
   3   2  12 121.065 10.4877   2
  -4  -2 -12 2.23577 2.86337   3
   4   2  12 0.70095 3.19736   2
  -5  -2 -12 215.408 14.8404   3
   5   2  12 193.281 15.6465   2
  -6  -2 -12 136.461 10.3502   3
   6   2  12 138.974 12.0167   2
  -7  -2 -12 534.758 35.7542   3
   7   2  12 556.653 37.5281   2
  -8  -2 -12 21.3218 3.45102   3
   8   2  12 19.7883 5.85486   2
  -9   3  12 -1.3202 3.76253   1
  -8   3  12 64.4589 7.73962   1
   7  -3 -12 39.6342 4.76548   3
  -7   3  12 34.5984 5.74427   1
   6  -3 -12 3.49854 2.64566   3
  -6   3  12 -0.5585 2.94727   1
   5  -3 -12 357.610 25.3293   3
  -5   3  12 392.052 25.7811   1
   4  -3 -12 3.43610 1.89757   3
  -4   3  12 2.19186 2.38308   1
   3  -3 -12 178.333 11.8186   3
  -3   3  12 190.874 12.5078   1
  -3   3  12 151.974 11.7433   2
   2  -3 -12 252.310 17.5302   3
  -2   3  12 272.971 17.7331   2
  -2   3  12 271.933 17.9859   1
   1  -3 -12 122.929 9.02093   3
  -1   3  12 124.281 9.15664   1
  -1   3  12 129.666 8.90601   2
   0  -3 -12 1052.74 64.3240   3
   0   3  12 946.905 63.6392   2
  -1  -3 -12 544.780 40.3648   3
   1   3  12 645.680 39.0381   2
  -2  -3 -12 29.2977 5.24103   3
   2   3  12 33.6667 3.93295   2
  -3  -3 -12 7.11717 3.31564   3
   3   3  12 2.12015 2.59333   2
  -4  -3 -12 26.8157 4.25949   3
   4   3  12 23.0060 3.84063   2
  -5  -3 -12 84.2832 7.27729   3
   5   3  12 72.8256 7.49858   2
  -6  -3 -12 296.124 19.3847   3
   6   3  12 257.119 19.9533   2
  -7  -3 -12 4.83327 2.80516   3
   7   3  12 7.23074 3.93096   2
  -9   4  12 66.1159 8.22205   1
  -8   4  12 306.426 22.4032   1
  -7   4  12 72.1194 7.97393   1
   6  -4 -12 268.471 20.3313   3
  -6   4  12 332.951 21.4954   1
   5  -4 -12 14.3818 2.65304   3
  -5   4  12 14.7075 3.41831   1
   4  -4 -12 -0.4755 1.52351   3
  -4   4  12 2.58785 2.57138   1
   3  -4 -12 66.8141 5.02686   3
  -3   4  12 74.3731 5.96009   1
  -3   4  12 48.1685 5.02412   2
   2  -4 -12 129.782 9.64709   3
  -2   4  12 140.782 9.90873   2
  -2   4  12 146.998 10.2739   1
   1  -4 -12 199.719 13.4358   3
  -1   4  12 183.252 12.9492   2
   0  -4 -12 -1.8111 2.83896   3
   0   4  12 5.65402 1.89621   2
  -1  -4 -12 20.0899 4.67867   3
   1   4  12 33.3007 3.47423   2
  -2  -4 -12 105.707 9.93736   3
   2   4  12 121.983 8.65582   2
  -3  -4 -12 86.1732 8.19628   3
   3   4  12 87.4665 7.06496   2
  -4  -4 -12 223.616 16.1141   3
   4   4  12 218.766 15.5545   2
  -5  -4 -12 60.1260 6.27294   3
   5   4  12 51.3283 5.87763   2
  -6  -4 -12 247.166 17.3000   3
   6   4  12 238.969 17.4451   2
  -7  -4 -12 11.4500 3.32474   3
   7   4  12 17.3950 4.12995   2
  -9   5  12 1.39132 4.08433   1
  -8   5  12 -1.6017 3.79374   1
  -7   5  12 117.984 10.5718   1
  -6   5  12 2.74765 3.30076   1
   5  -5 -12 476.902 33.1267   3
  -5   5  12 555.894 34.4974   1
   4  -5 -12 54.6549 4.59017   3
  -4   5  12 43.9857 4.95229   2
  -4   5  12 61.6351 5.95685   1
   3  -5 -12 291.945 19.3501   3
  -3   5  12 268.323 19.5669   2
  -3   5  12 320.483 20.2683   1
   2  -5 -12 5.03211 2.10891   3
  -2   5  12 5.09638 2.36364   1
  -2   5  12 2.94273 2.21843   2
   1  -5 -12 91.9389 7.83904   3
  -1   5  12 91.6388 7.14334   2
   0  -5 -12 174.762 16.4507   3
   0   5  12 264.304 15.5498   2
  -1  -5 -12 62.9391 7.88146   3
   1   5  12 91.3286 6.49893   2
  -2  -5 -12 6.17086 3.38777   3
   2   5  12 0.36927 2.13606   2
  -3  -5 -12 -0.1358 3.14169   3
   3   5  12 0.45421 2.17795   2
  -4  -5 -12 110.495 9.04142   3
   4   5  12 95.7566 8.04677   2
  -5  -5 -12 188.807 13.9497   3
   5   5  12 185.903 13.5775   2
  -6  -5 -12 497.098 32.6793   3
   6   5  12 472.873 32.2941   2
  -7  -5 -12 3.39519 3.09433   3
   7   5  12 4.13452 3.38252   2
  -8   6  12 4.15502 4.07788   1
  -7   6  12 -3.2978 3.38780   1
  -6   6  12 333.875 23.5795   1
  -5   6  12 -0.3234 3.06859   1
   4  -6 -12 54.9364 4.76869   3
  -4   6  12 66.5514 6.16406   1
  -4   6  12 40.4568 5.04091   2
   3  -6 -12 264.652 16.5370   3
  -3   6  12 218.057 16.5329   2
   2  -6 -12 156.549 11.1962   3
  -2   6  12 143.712 10.8569   2
   1  -6 -12 423.487 31.2433   3
  -1   6  12 490.859 30.3984   2
   0  -6 -12 621.913 46.5240   3
   0   6  12 769.564 45.4766   2
  -1  -6 -12 11.5646 3.87516   3
   1   6  12 15.2118 2.86684   2
  -2  -6 -12 2.54624 3.38534   3
   2   6  12 6.75878 2.45256   2
  -3  -6 -12 4.36725 3.54721   3
   3   6  12 5.81047 2.68068   2
  -4  -6 -12 91.5498 8.62938   3
   4   6  12 90.4167 7.48611   2
  -5  -6 -12 100.766 8.84068   3
   5   6  12 95.0158 7.95899   2
  -6  -6 -12 9.53903 3.46231   3
   6   6  12 12.2585 3.25630   2
   8  -7 -12 98.0941 9.42105   1
   5  -7 -12 13.4410 3.78732   1
  -4   7  12 59.7786 5.80040   2
   3  -7 -12 2.96186 2.97594   3
  -3   7  12 -0.1425 2.48403   2
   2  -7 -12 488.682 31.2142   3
  -2   7  12 436.272 30.1803   2
   1  -7 -12 17.0220 4.63578   3
  -1   7  12 38.4052 4.55478   2
   0  -7 -12 129.758 12.6343   3
   0   7  12 192.224 11.9940   2
  -1  -7 -12 63.2889 7.73978   3
   1   7  12 85.9288 6.51926   2
  -2  -7 -12 29.2680 5.09757   3
   2   7  12 38.8603 4.40764   2
  -3  -7 -12 164.184 13.0005   3
   3   7  12 165.387 11.9435   2
  -4  -7 -12 63.7368 6.96537   3
   4   7  12 57.3203 5.76521   2
  -5  -7 -12 399.026 26.9330   3
   5   7  12 378.551 25.9034   2
   7  -8 -12 35.8103 5.95611   1
   6  -8 -12 248.953 18.5961   1
   5  -8 -12 2.83392 3.94051   1
  -5   8  12 -1.9120 2.92758   2
  -4   8  12 4.17697 2.94481   2
  -3   8  12 -3.3709 2.54803   2
   2  -8 -12 9.77806 4.00440   3
  -2   8  12 19.9878 3.34957   2
   1  -8 -12 150.610 13.5294   3
  -1   8  12 205.186 13.1077   2
   0  -8 -12 77.1863 8.79271   3
   0   8  12 121.423 8.49949   2
  -1  -8 -12 12.4904 4.05500   3
   1   8  12 13.3836 3.16144   2
  -2  -8 -12 2.07627 3.55238   3
   2   8  12 -2.4402 2.33864   2
  -3  -8 -12 89.4104 8.80889   3
   3   8  12 94.0653 7.70168   2
  -4  -8 -12 235.428 17.7740   3
   4   8  12 248.140 17.0293   2
  -5  -8 -12 190.721 14.8769   3
   5   8  12 198.184 14.1895   2
   7  -9 -12 196.325 15.6738   1
   6  -9 -12 -1.3976 4.20814   1
   5  -9 -12 -6.3645 3.93690   1
  -5   9  12 -0.8526 3.27228   2
  -4   9  12 106.829 8.88135   2
  -3   9  12 83.7835 7.33956   2
  -2   9  12 130.150 10.0783   2
  -1   9  12 373.258 25.1347   2
   0  -9 -12 43.4095 6.38841   3
   0   9  12 65.8004 6.03395   2
  -1  -9 -12 -0.4850 3.43859   3
   1   9  12 0.68464 3.04294   2
  -2  -9 -12 1.55634 3.74074   3
   2   9  12 6.62006 3.13618   2
  -3  -9 -12 61.9958 7.28924   3
   3   9  12 64.0277 6.14145   2
  -4  -9 -12 3.43494 3.68088   3
   4   9  12 -1.1208 2.59618   2
   6 -10 -12 -1.9873 4.23110   1
  -5  10  12 21.6203 4.18227   2
  -4  10  12 46.6726 5.85872   2
  -3  10  12 523.759 34.7041   2
  -2  10  12 38.1466 5.25006   2
  -1  10  12 197.279 14.3622   2
   0  10  12 37.1138 5.15590   2
  -1 -10 -12 4.17109 3.84558   3
   1  10  12 10.4931 3.56300   2
  -2 -10 -12 85.3125 9.25456   3
   2  10  12 116.966 8.75160   2
  -3 -10 -12 -1.1289 3.70245   3
  -4  11  12 36.1514 5.34749   2
  -3  11  12 -0.8711 3.08657   2
  -2  11  12 243.484 17.3102   2
  -1  11  12 30.2133 4.77510   2
   0  11  12 14.6527 3.99542   2
   1  11  12 1.84276 3.21230   2
   0 -13  13 8.65024 4.01291   1
   1 -13  13 53.4496 6.41039   1
   2 -13  13 79.1438 7.63931   1
   3 -13  13 76.5561 7.39512   1
  -2 -12  13 8.20729 4.32306   1
  -1 -12  13 80.6877 8.28374   1
   0 -12  13 156.574 12.5745   1
   1 -12  13 44.0476 5.68035   1
   2 -12  13 104.806 9.01991   1
   3 -12  13 32.9003 4.73740   1
  -4  12 -13 13.9198 2.44957   2
   4 -12  13 10.9423 3.17296   1
  -5  12 -13 119.315 8.42866   2
   5 -12  13 104.491 9.04349   1
   4  11 -13 69.3290 5.98680   3
  -4 -11  13 65.3929 10.1379   1
  -3 -11  13 27.4379 6.33615   1
  -2 -11  13 31.6615 5.62728   1
  -1 -11  13 13.6450 3.98731   1
   0 -11  13 42.3181 5.65010   1
   1 -11  13 22.7723 4.09244   1
   2 -11  13 5.83711 2.89229   1
   3 -11  13 4.64542 2.69437   1
  -4  11 -13 14.2725 2.43329   2
   4 -11  13 13.4424 3.10424   1
  -5  11 -13 77.2461 6.10086   2
   5 -11  13 72.1805 5.50330   4
   5 -11  13 70.3975 6.66978   1
  -6  11 -13 1.19009 2.28463   2
   6 -11  13 -0.9027 1.66271   4
   6 -11  13 3.48266 2.75320   1
   5  10 -13 3.66007 2.38959   3
  -5 -10  13 1.37887 6.19386   1
   4  10 -13 129.990 9.49222   3
  -4 -10  13 130.339 13.4745   1
   3  10 -13 4.85508 2.28434   3
  -3 -10  13 1.08563 4.54314   1
   2  10 -13 58.5764 5.02801   3
  -2 -10  13 38.6444 6.32348   1
  -1 -10  13 1.00172 2.85638   1
   0 -10  13 20.9229 4.03794   1
   1 -10  13 118.459 9.52002   1
   2 -10  13 186.025 13.5005   1
  -3  10 -13 20.4496 2.75193   2
   3 -10  13 21.5902 3.68798   1
  -4  10 -13 12.7874 2.34454   2
   4 -10  13 10.3094 2.80285   1
   4 -10  13 8.48741 1.70904   4
  -5  10 -13 174.000 11.7313   2
   5 -10  13 175.549 12.2744   1
   5 -10  13 154.260 11.1569   4
  -6  10 -13 8.23995 2.49931   2
   6 -10  13 5.36657 1.86554   4
   6 -10  13 8.28195 2.68735   1
   7 -10  13 174.869 11.8346   4
   5   9 -13 24.9696 3.56548   3
  -5  -9  13 26.0299 7.64424   1
   4   9 -13 94.6428 7.23605   3
  -4  -9  13 90.6791 10.8550   1
   3   9 -13 0.72256 1.90257   3
  -3  -9  13 -1.2237 3.77560   1
   2   9 -13 223.844 14.2786   3
  -2  -9  13 182.501 15.5969   1
   1   9 -13 206.672 13.8245   3
  -1  -9  13 188.360 14.7070   1
   0  -9  13 203.976 14.9385   1
   1  -9  13 358.943 24.3299   1
  -2   9 -13 197.689 12.8234   2
   2  -9  13 181.929 13.5884   1
  -3   9 -13 40.1584 3.63700   2
   3  -9  13 35.0101 3.11121   4
   3  -9  13 37.3548 4.30075   1
  -4   9 -13 183.558 11.9488   2
   4  -9  13 165.304 12.2922   1
   4  -9  13 170.700 11.4765   4
  -5   9 -13 200.091 12.8802   2
   5  -9  13 176.731 13.1008   1
   5  -9  13 180.583 12.3061   4
  -6   9 -13 267.760 17.0814   2
   6  -9  13 245.349 16.5028   4
   6  -9  13 241.747 17.1759   1
  -7   9 -13 15.1060 2.86502   2
   7  -9  13 10.3185 2.22815   4
   6   8 -13 32.9382 3.84871   3
  -6  -8  13 41.0429 8.39036   1
   5   8 -13 60.5281 5.29752   3
  -5  -8  13 61.5387 10.0930   1
   4   8 -13 22.1997 3.04312   3
  -4  -8  13 23.6912 6.34957   1
   3   8 -13 27.3107 3.38267   3
  -3  -8  13 30.9837 5.81316   1
   2   8 -13 99.2223 7.48534   3
   1   8 -13 68.4689 5.70677   3
  -1  -8  13 60.9525 6.47494   1
   0   8 -13 2.94717 2.38773   3
   0  -8  13 0.51842 2.41331   1
   1  -8  13 59.2549 5.74840   1
  -2   8 -13 8.96467 1.90467   2
   2  -8  13 7.03304 2.39577   1
   2  -8  13 7.90762 1.38740   4
  -3   8 -13 45.1152 4.00146   2
   3  -8  13 40.3474 4.32514   1
   3  -8  13 41.3153 3.34409   4
  -4   8 -13 1.53463 1.81416   2
   4  -8  13 2.29199 1.99535   1
   4  -8  13 2.16183 1.38066   4
  -5   8 -13 2.80120 1.97720   2
   5  -8  13 1.42341 1.59179   4
   5  -8  13 1.20910 2.03242   1
  -6   8 -13 4.88212 2.28690   2
   6  -8  13 2.73360 1.80361   4
  -7   8 -13 59.4676 5.72771   2
   7  -8  13 58.4782 4.85970   4
   7   7 -13 31.7203 3.81336   3
  -7  -7  13 27.7232 6.92655   1
   6   7 -13 6.31502 2.14987   3
  -6  -7  13 3.64138 6.03996   1
   5   7 -13 161.649 11.2767   3
  -5  -7  13 159.093 15.3268   1
   4   7 -13 76.3668 5.96396   3
  -4  -7  13 81.3064 9.83415   1
   3   7 -13 28.2880 3.34291   3
  -3  -7  13 30.9866 5.92019   1
   2   7 -13 29.0142 3.35464   3
  -2  -7  13 23.4009 4.56461   1
   1   7 -13 0.74810 2.02102   3
  -1  -7  13 2.83826 2.70362   1
   0   7 -13 72.8910 6.30152   3
   0  -7  13 63.1440 6.27763   1
  -1   7 -13 262.555 17.8844   3
   1  -7  13 266.761 18.2931   1
   1  -7  13 271.657 17.3274   4
  -2   7 -13 11.0497 2.36842   3
  -2   7 -13 9.95672 1.78739   2
   2  -7  13 9.73911 1.47836   4
   2  -7  13 8.39684 2.35397   1
  -3   7 -13 135.145 9.06688   2
   3  -7  13 122.912 9.38137   1
   3  -7  13 130.553 8.68578   4
  -4   7 -13 140.433 9.66527   2
   4  -7  13 139.492 9.83584   1
   4  -7  13 130.466 9.16493   4
  -5   7 -13 30.3654 3.47381   2
   5  -7  13 33.1011 3.82883   1
   5  -7  13 36.9173 3.17658   4
  -6   7 -13 198.924 14.0965   2
   6  -7  13 206.056 13.5349   4
  -7   7 -13 25.6578 3.97520   2
   7  -7  13 24.8932 3.12598   4
  -8   7 -13 17.3468 3.47096   2
   8  -7  13 14.9726 2.51453   4
   7   6 -13 9.07496 2.39111   3
  -7  -6  13 11.7452 5.41644   1
   6   6 -13 42.4808 4.08499   3
  -6  -6  13 41.9997 7.44975   1
   5   6 -13 133.654 9.65792   3
  -5  -6  13 149.482 14.2066   1
   4   6 -13 1.39998 1.64538   3
  -4  -6  13 -0.9529 3.99196   1
   3   6 -13 325.783 21.6155   3
  -3  -6  13 331.915 23.9667   1
   2   6 -13 102.066 7.58287   3
  -2  -6  13 100.539 9.37215   1
   1   6 -13 306.908 20.1331   3
  -1  -6  13 291.752 20.8718   1
   0   6 -13 449.940 29.9932   3
   0  -6  13 450.337 30.1355   1
  -1   6 -13 271.342 17.6667   2
  -1   6 -13 275.054 18.0733   3
   1  -6  13 265.776 18.3775   1
   1  -6  13 266.164 17.4962   4
  -2   6 -13 20.9031 2.93862   3
  -2   6 -13 12.9434 1.94514   2
   2  -6  13 10.5992 2.39542   1
   2  -6  13 14.4635 1.84662   4
  -3   6 -13 128.546 11.1821   3
  -3   6 -13 163.076 10.5701   2
   3  -6  13 156.143 10.8671   1
   3  -6  13 159.918 10.2299   4
  -4   6 -13 105.110 7.67179   2
   4  -6  13 103.476 7.19504   4
   4  -6  13 104.088 7.71342   1
  -5   6 -13 438.057 29.3029   2
   5  -6  13 459.144 28.9192   4
  -6   6 -13 8.55804 2.44662   2
   6  -6  13 11.0510 2.09129   4
  -7   6 -13 91.6960 7.45954   2
   7  -6  13 87.8747 6.67429   4
  -8   6 -13 247.495 17.4860   2
  -8  -5  13 1.74344 4.89606   1
   7   5 -13 8.03596 2.25519   3
  -7  -5  13 8.75745 5.25494   1
   6   5 -13 100.194 7.71839   3
  -6  -5  13 111.944 11.0306   1
   5   5 -13 0.33359 1.61423   3
  -5  -5  13 -1.0881 3.84665   1
   4   5 -13 5.00483 1.81795   3
  -4  -5  13 1.31513 4.08426   1
   3   5 -13 324.419 21.7568   3
  -3  -5  13 340.697 24.1964   1
   2   5 -13 106.567 7.88668   3
  -2  -5  13 101.667 9.53120   1
   1   5 -13 14.8873 2.85966   3
  -1  -5  13 13.2115 3.30928   1
   0   5 -13 249.503 16.7266   3
   0  -5  13 235.537 16.8287   1
  -1   5 -13 1.19252 1.26157   2
  -1   5 -13 2.72810 1.67747   3
   1  -5  13 0.53004 1.38429   4
   1  -5  13 -0.9997 1.88353   1
  -2   5 -13 69.4008 5.64022   3
  -2   5 -13 61.9805 5.03963   2
   2  -5  13 66.0480 4.88196   4
   2  -5  13 69.6305 5.64784   1
  -3   5 -13 147.947 10.2600   2
  -3   5 -13 122.656 11.0152   3
   3  -5  13 154.171 10.4285   1
   3  -5  13 161.199 9.96196   4
  -4   5 -13 4.53518 2.79648   3
  -4   5 -13 2.93189 1.72382   2
   4  -5  13 1.71274 1.36512   4
   4  -5  13 2.69438 1.70018   1
  -5   5 -13 10.9078 2.39183   2
   5  -5  13 9.30101 1.86440   4
  -6   5 -13 103.721 8.32926   2
   6  -5  13 113.372 7.74348   4
  -7   5 -13 33.6853 4.49576   2
   7  -5  13 35.1636 3.61836   4
   8   4 -13 11.8340 2.63422   3
  -8  -4  13 9.76085 5.05871   1
   7   4 -13 19.3190 3.08265   3
  -7  -4  13 20.7879 5.22480   1
   6   4 -13 207.385 14.0382   3
  -6  -4  13 204.200 16.2003   1
   5   4 -13 121.509 8.89001   3
  -5  -4  13 134.717 11.8105   1
   4   4 -13 2.04685 1.71600   3
  -4  -4  13 0.71513 4.17239   1
   3   4 -13 66.5710 5.39003   3
  -3  -4  13 60.1126 7.73079   1
   2   4 -13 37.5455 3.94174   3
  -2  -4  13 31.4413 5.61992   1
   1   4 -13 6.85183 2.51559   3
  -1  -4  13 8.39096 3.21816   1
   0   4 -13 71.9780 5.95911   3
   0  -4  13 69.3878 5.53077   2
   0  -4  13 78.4532 6.59842   1
  -1   4 -13 31.2940 3.49183   3
   1  -4  13 37.7707 4.12137   1
  -2   4 -13 670.194 40.4861   3
   2  -4  13 589.929 40.1934   1
   2  -4  13 610.218 39.7582   4
  -3   4 -13 30.6999 4.63795   3
  -3   4 -13 40.6499 3.75529   2
   3  -4  13 40.3173 3.75129   1
   3  -4  13 43.1151 3.46077   4
  -4   4 -13 54.2125 4.95297   2
  -4   4 -13 59.8412 5.99016   3
   4  -4  13 57.1582 4.45970   4
  -5   4 -13 232.533 15.2716   3
  -5   4 -13 214.074 15.1638   2
   5  -4  13 217.407 14.6423   4
   6  -4  13 50.6518 4.32659   4
   7  -4  13 107.747 9.41891   2
   8  -4  13 1.56130 4.05150   2
   8  -4  13 4.87532 2.32832   4
   8   3 -13 80.5408 6.64969   3
  -8  -3  13 85.3141 9.44682   1
   7   3 -13 109.905 8.27348   3
  -7  -3  13 113.871 10.6595   1
   6   3 -13 198.933 13.6547   3
  -6  -3  13 201.717 15.5904   1
   5   3 -13 -0.0619 1.61286   3
  -5  -3  13 1.35428 3.45507   1
   4   3 -13 233.210 15.9106   3
  -4  -3  13 242.193 18.1922   1
   3   3 -13 49.6595 4.51254   3
  -3  -3  13 50.6370 7.08925   1
   2   3 -13 158.287 11.5167   3
  -2  -3  13 166.927 13.1774   1
   1   3 -13 231.371 16.6505   3
  -1  -3  13 245.013 17.3661   1
   0   3 -13 216.781 15.5809   3
   0  -3  13 243.266 15.8267   2
   0  -3  13 240.175 16.5232   1
  -1   3 -13 4.75916 1.92541   3
   1  -3  13 1.64649 1.86074   2
   1  -3  13 2.13411 1.94677   1
  -2   3 -13 27.3554 3.97000   3
   2  -3  13 29.2455 3.62819   1
   2  -3  13 27.0485 3.42052   2
  -3   3 -13 16.3846 4.01616   3
   3  -3  13 19.6564 3.02309   2
   3  -3  13 25.5950 2.66582   4
  -4   3 -13 786.768 50.8897   3
   4  -3  13 798.105 50.3855   2
   4  -3  13 754.925 49.7500   4
  -5   3 -13 92.5927 7.57801   3
   5  -3  13 104.377 8.04324   2
   5  -3  13 88.7146 6.78947   4
  -6   3 -13 242.915 15.6647   3
   6  -3  13 200.601 15.0952   4
   6  -3  13 243.616 16.4061   2
   7  -3  13 136.852 9.86281   4
   7  -3  13 144.658 11.4672   2
   8  -3  13 12.1773 4.63405   2
   8  -3  13 11.0341 2.69251   4
   8   2 -13 3.10759 2.33511   3
  -8  -2  13 -0.0745 4.25602   1
   7   2 -13 104.448 8.15950   3
  -7  -2  13 119.804 10.2794   1
   6   2 -13 41.8228 4.13336   3
  -6  -2  13 43.9765 6.07195   1
   5   2 -13 1.70351 1.73222   3
  -5  -2  13 3.52065 3.02790   1
   4   2 -13 721.657 46.4324   3
  -4  -2  13 719.395 47.9491   1
   3   2 -13 8.67374 2.37233   3
  -3  -2  13 9.33220 3.63037   1
   2   2 -13 3.86090 2.34932   3
  -2  -2  13 7.36611 3.66815   1
   1   2 -13 336.007 23.1610   3
  -1  -2  13 362.826 24.3157   1
   0   2 -13 12.8521 2.02754   3
   0  -2  13 9.05757 2.63298   2
   0  -2  13 11.8287 3.16777   1
  -1   2 -13 156.730 10.8103   3
   1  -2  13 149.791 11.2705   1
   1  -2  13 153.344 11.1196   2
  -2   2 -13 521.173 33.3497   3
   2  -2  13 480.733 32.8286   1
   2  -2  13 516.073 33.0627   2
  -3   2 -13 0.89400 3.61923   3
   3  -2  13 6.01780 2.63495   2
  -4   2 -13 24.5595 4.05640   3
   4  -2  13 24.1703 3.80222   2
   4  -2  13 17.6861 2.49714   4
  -5   2 -13 80.9552 6.51825   3
   5  -2  13 67.8926 6.93562   2
   5  -2  13 67.1147 5.61272   4
  -6   2 -13 18.5819 3.12940   3
   6  -2  13 10.2401 2.33146   4
   6  -2  13 10.4468 3.85944   2
  -7   2 -13 487.274 33.2121   3
   7  -2  13 513.505 33.0465   4
   7  -2  13 534.164 34.6679   2
   8  -2  13 -0.8206 2.27464   4
   8  -2  13 3.08300 4.76518   2
   9   1 -13 3.42076 2.49304   3
   8   1 -13 22.4852 3.55197   3
  -8  -1  13 23.6354 5.53227   1
   7   1 -13 288.929 20.2653   3
  -7  -1  13 324.626 22.0534   1
   6   1 -13 176.134 12.4229   3
  -6  -1  13 181.318 13.6605   1
   5   1 -13 11.5093 2.29710   3
  -5  -1  13 9.47502 3.40723   1
   4   1 -13 5.47155 2.10215   3
  -4  -1  13 4.53599 2.84449   1
   3   1 -13 38.7602 4.48005   3
  -3  -1  13 47.5359 5.52175   1
   2   1 -13 5.62723 2.66316   3
  -2  -1  13 6.35639 3.12540   1
   1   1 -13 0.47479 1.55981   3
  -1  -1  13 1.80098 2.89560   1
  -1  -1  13 0.37904 1.22481   2
   0   1 -13 118.737 8.56944   3
   0  -1  13 125.200 9.11477   2
   0  -1  13 119.749 9.66620   1
  -1   1 -13 1216.83 73.9457   3
   1  -1  13 1132.62 74.1437   2
   1  -1  13 1112.04 74.2873   1
  -2   1 -13 3.13419 3.08507   3
   2  -1  13 8.57419 3.04499   2
  -3   1 -13 44.5463 6.73166   3
   3  -1  13 59.7558 6.14161   2
  -4   1 -13 117.024 9.85675   3
   4  -1  13 118.355 9.80580   2
  -5   1 -13 3.37667 2.66585   3
   5  -1  13 -3.4556 3.41230   2
  -6   1 -13 79.0278 7.03119   3
   6  -1  13 91.9127 8.77971   2
  -7   1 -13 0.93185 2.43759   3
   7  -1  13 7.55548 4.91742   2
  -8   1 -13 107.066 8.75155   3
   8  -1  13 140.171 12.0230   2
   9   0 -13 112.454 8.84889   3
  -9   0  13 109.181 10.7733   1
   8   0 -13 71.3449 6.56619   3
  -8   0  13 89.7193 8.84968   1
   7   0 -13 45.5966 4.65886   3
  -7   0  13 46.7053 6.34871   1
   6   0 -13 8.57559 2.33374   3
  -6   0  13 10.9328 3.70581   1
   5   0 -13 129.523 9.30491   3
  -5   0  13 119.970 10.0956   1
   4   0 -13 26.3372 3.75043   3
  -4   0  13 30.9991 4.54486   1
   3   0 -13 38.9839 4.65080   3
  -3   0  13 43.6268 4.87803   1
   2   0 -13 15.6515 2.51756   3
  -2   0  13 16.4600 2.99807   1
   1   0 -13 87.3038 6.43535   3
  -1   0  13 82.2024 7.21417   1
  -1   0  13 91.1120 6.26057   2
   0   0 -13 20.5002 2.47518   3
   0   0  13 9.35925 2.13821   2
   0   0  13 9.79341 2.46473   1
  -1   0 -13 54.5152 5.16447   3
   1   0  13 56.5115 5.68571   2
  -2   0 -13 -1.4612 3.00654   3
   2   0  13 5.48625 3.29105   2
  -3   0 -13 614.039 45.1023   3
   3   0  13 735.579 44.6477   2
  -4   0 -13 231.453 16.9082   3
   4   0  13 235.628 17.1035   2
  -5   0 -13 121.373 9.76574   3
   5   0  13 129.829 10.9530   2
  -6   0 -13 87.2137 7.43443   3
   6   0  13 81.8335 9.05427   2
  -7   0 -13 2.38974 2.72008   3
   7   0  13 4.10644 4.68917   2
  -8   0 -13 7.02274 2.71177   3
   8   0  13 7.93121 5.52992   2
   9  -1 -13 6.32500 2.76406   3
  -9   1  13 5.94574 4.62002   1
   8  -1 -13 45.6483 5.00694   3
  -8   1  13 55.1611 6.87016   1
   7  -1 -13 50.4329 5.18923   3
  -7   1  13 57.0311 6.80097   1
   6  -1 -13 71.9201 6.29544   3
  -6   1  13 74.4346 7.26414   1
   5  -1 -13 621.922 41.8830   3
  -5   1  13 663.675 42.4634   1
   4  -1 -13 49.5608 5.32290   3
  -4   1  13 52.8838 5.50216   1
   3  -1 -13 77.0363 6.43312   3
  -3   1  13 73.5540 6.48003   1
   2  -1 -13 180.417 12.0313   3
  -2   1  13 155.758 12.2404   1
  -2   1  13 187.647 11.7534   2
   1  -1 -13 2.65187 1.49601   3
  -1   1  13 0.84554 1.70220   1
  -1   1  13 1.68132 1.29632   2
   0  -1 -13 68.0015 5.12165   3
   0   1  13 59.1151 5.02644   1
   0   1  13 56.1553 4.83561   2
  -1  -1 -13 650.664 36.2746   3
   1   1  13 463.147 35.5345   2
  -2  -1 -13 5.32484 4.02153   3
   2   1  13 13.4792 3.55896   2
  -3  -1 -13 20.2182 5.06400   3
   3   1  13 23.5063 4.58998   2
  -4  -1 -13 77.5353 7.71926   3
   4   1  13 80.4222 8.21100   2
  -5  -1 -13 9.01387 3.25211   3
   5   1  13 12.1713 4.58989   2
  -6  -1 -13 308.886 21.8215   3
   6   1  13 334.262 23.2963   2
  -7  -1 -13 30.3467 4.50743   3
   7   1  13 24.3594 6.16510   2
  -8  -1 -13 3.22216 2.60388   3
   8   1  13 1.81443 5.44781   2
  -9   2  13 8.93557 4.50073   1
   8  -2 -13 305.530 22.4399   3
  -8   2  13 369.415 24.3025   1
   7  -2 -13 61.5212 5.91861   3
  -7   2  13 66.6829 7.17380   1
   6  -2 -13 9.20412 3.01510   3
  -6   2  13 8.51130 3.42126   1
   5  -2 -13 8.08349 2.99014   3
  -5   2  13 10.2352 3.26403   1
   4  -2 -13 46.5064 4.87064   3
  -4   2  13 37.1694 4.69918   1
   3  -2 -13 76.4650 6.06989   3
  -3   2  13 79.0675 6.64402   1
   2  -2 -13 122.997 9.35137   3
  -2   2  13 128.812 9.77482   1
  -2   2  13 157.209 9.53060   2
   1  -2 -13 250.063 15.9029   3
  -1   2  13 231.378 15.6412   2
  -1   2  13 230.520 15.9337   1
   0  -2 -13 863.794 52.3019   3
   0   2  13 763.065 51.9239   2
  -1  -2 -13 127.891 9.33283   3
   1   2  13 103.161 8.24957   2
  -2  -2 -13 62.4914 7.91884   3
   2   2  13 70.9571 6.22539   2
  -3  -2 -13 2.80083 3.86823   3
   3   2  13 0.98337 2.95208   2
  -4  -2 -13 53.1168 6.48063   3
   4   2  13 50.2257 6.76387   2
  -5  -2 -13 20.1975 4.11312   3
   5   2  13 15.7657 4.62165   2
  -6  -2 -13 4.18626 3.21013   3
   6   2  13 7.95935 4.60149   2
  -7  -2 -13 44.9619 5.66962   3
   7   2  13 48.5099 7.34420   2
  -8   3  13 -0.7885 3.68621   1
   7  -3 -13 7.06689 3.11703   3
  -7   3  13 1.93978 3.50754   1
   6  -3 -13 35.5442 5.03205   3
  -6   3  13 24.2491 4.38051   1
   5  -3 -13 5.95667 2.59179   3
  -5   3  13 4.51208 2.69623   1
   4  -3 -13 1.34834 1.80408   3
  -4   3  13 4.74287 2.45813   1
   3  -3 -13 38.5742 3.65091   3
  -3   3  13 39.1963 4.27812   1
   2  -3 -13 18.7017 2.42649   3
  -2   3  13 13.4694 2.52537   1
  -2   3  13 13.8956 2.49984   2
   1  -3 -13 46.6668 4.37719   3
  -1   3  13 46.0140 4.20156   2
   0  -3 -13 233.879 16.1914   3
   0   3  13 233.479 15.6740   2
  -1  -3 -13 -1.4322 3.23001   3
   1   3  13 3.00366 1.90330   2
  -2  -3 -13 245.915 20.4269   3
   2   3  13 299.567 18.8919   2
  -3  -3 -13 444.072 31.5612   3
   3   3  13 473.697 30.5900   2
  -4  -3 -13 39.8970 5.90177   3
   4   3  13 39.0047 5.18754   2
  -5  -3 -13 73.9697 7.20530   3
   5   3  13 59.6646 6.57618   2
  -6  -3 -13 4.16989 3.35934   3
   6   3  13 7.69273 3.64853   2
  -7  -3 -13 21.7872 4.40336   3
   7   3  13 25.7016 5.03883   2
  -8   4  13 89.3005 9.18425   1
  -7   4  13 90.2279 8.79047   1
   6  -4 -13 288.941 20.6209   3
  -6   4  13 323.424 21.5755   1
   5  -4 -13 85.0089 6.57134   3
  -5   4  13 79.5996 7.29595   1
   4  -4 -13 114.195 8.33166   3
  -4   4  13 116.982 9.04500   1
   3  -4 -13 86.0539 6.78339   3
  -3   4  13 101.265 7.77020   1
  -3   4  13 99.4151 7.38772   2
   2  -4 -13 10.2023 2.10768   3
  -2   4  13 9.55414 2.36844   1
  -2   4  13 13.3692 2.69701   2
   1  -4 -13 13.9858 2.82666   3
  -1   4  13 13.5099 2.29795   2
   0  -4 -13 245.364 17.0877   3
   0   4  13 238.980 16.1660   2
  -1  -4 -13 50.5338 7.37318   3
   1   4  13 67.9396 5.36058   2
  -2  -4 -13 8.58250 4.39819   3
   2   4  13 14.7748 2.74612   2
  -3  -4 -13 6.33677 4.00041   3
   3   4  13 6.37991 2.50606   2
  -4  -4 -13 23.5739 4.86406   3
   4   4  13 23.6023 3.72006   2
  -5  -4 -13 217.794 14.9685   3
   5   4  13 173.953 13.8380   2
  -6  -4 -13 61.7899 6.91480   3
   6   4  13 51.9503 6.15833   2
  -7  -4 -13 25.6207 4.49897   3
   7   4  13 28.1404 4.72662   2
  -8   5  13 -0.3791 3.74948   1
  -7   5  13 109.196 9.93020   1
  -6   5  13 -0.1360 3.04982   1
   5  -5 -13 4.76815 2.03974   3
  -5   5  13 1.65631 2.86232   1
   4  -5 -13 39.8964 3.85364   3
  -4   5  13 41.5215 4.93578   1
   3  -5 -13 210.593 14.4561   3
  -3   5  13 210.413 14.8151   2
  -3   5  13 217.674 15.0204   1
   2  -5 -13 206.757 14.6766   3
  -2   5  13 220.772 14.8256   2
   1  -5 -13 391.642 24.3291   3
  -1   5  13 333.429 23.5633   2
   0  -5 -13 165.670 13.7033   3
   0   5  13 184.449 12.3453   2
  -1  -5 -13 25.7789 5.73350   3
   1   5  13 45.8223 4.18704   2
  -2  -5 -13 0.90189 3.79385   3
   2   5  13 3.30576 2.19340   2
  -3  -5 -13 89.9699 8.85581   3
   3   5  13 83.7393 6.99187   2
  -4  -5 -13 7.68554 4.23021   3
   4   5  13 7.72953 2.79092   2
  -5  -5 -13 8.74557 4.04660   3
   5   5  13 6.07586 2.95653   2
  -6  -5 -13 26.5550 5.30402   3
   6   5  13 33.4384 4.84084   2
  -8   6  13 73.1418 8.10641   1
  -7   6  13 19.4183 4.64411   1
  -6   6  13 15.2767 4.06266   1
  -5   6  13 5.53195 3.38239   1
   4  -6 -13 175.235 11.2293   3
  -4   6  13 131.805 11.3667   2
  -4   6  13 159.973 11.8856   1
   3  -6 -13 -0.7438 2.17464   3
  -3   6  13 -0.9364 2.59652   2
   2  -6 -13 10.6311 3.00560   3
  -2   6  13 12.8319 3.06324   2
   1  -6 -13 423.956 27.9863   3
  -1   6  13 397.879 26.9186   2
   0  -6 -13 6.25825 4.40447   3
   0   6  13 11.6953 2.50096   2
  -1  -6 -13 75.6859 9.18689   3
   1   6  13 109.449 7.69446   2
  -2  -6 -13 550.120 41.4866   3
   2   6  13 670.311 40.2093   2
  -3  -6 -13 3.72480 4.17638   3
   3   6  13 3.22861 2.57079   2
  -4  -6 -13 35.3922 5.90509   3
   4   6  13 38.1426 4.45767   2
  -5  -6 -13 2.95439 3.90227   3
   5   6  13 -0.4858 2.76442   2
   5  -7 -13 252.982 18.2193   1
   4  -7 -13 17.0151 3.98258   1
  -4   7  13 6.41686 3.34190   2
   3  -7 -13 1.00643 2.72156   3
  -3   7  13 -2.0706 2.68206   2
   2  -7 -13 4.18960 3.61435   3
  -2   7  13 6.20646 2.79339   2
   1  -7 -13 -0.8555 3.86731   3
  -1   7  13 4.60365 2.81044   2
   0  -7 -13 158.361 15.2208   3
   0   7  13 238.748 14.3731   2
  -1  -7 -13 4.57412 3.96448   3
   1   7  13 0.78974 2.23708   2
  -2  -7 -13 57.6478 7.55464   3
   2   7  13 69.7168 6.00829   2
  -3  -7 -13 12.8063 4.67344   3
   3   7  13 13.8610 3.16823   2
  -4  -7 -13 81.5031 8.51345   3
   4   7  13 76.6174 6.72049   2
  -5  -7 -13 33.8833 5.79923   3
   5   7  13 31.1072 4.39930   2
   7  -8 -13 28.6403 5.28987   1
   6  -8 -13 -0.5499 3.77584   1
   5  -8 -13 -0.3005 3.61932   1
  -4   8  13 132.504 10.3480   2
  -3   8  13 57.9185 5.98560   2
   2  -8 -13 50.8208 7.02246   3
  -2   8  13 57.1544 5.71045   2
   1  -8 -13 56.0727 7.60739   3
  -1   8  13 86.8836 6.75511   2
   0  -8 -13 6.15879 4.09173   3
   0   8  13 7.09720 2.87110   2
  -1  -8 -13 48.5177 7.22018   3
   1   8  13 62.1024 5.54167   2
  -2  -8 -13 107.603 10.6767   3
   2   8  13 127.187 9.21611   2
  -3  -8 -13 33.0380 5.99319   3
   3   8  13 38.3478 4.87078   2
  -4  -8 -13 12.0947 4.73897   3
   4   8  13 20.4197 3.62658   2
   6  -9 -13 5.36294 4.03525   1
  -4   9  13 -1.6075 3.47788   2
  -3   9  13 -0.8620 3.09629   2
  -2   9  13 279.294 19.3423   2
  -1   9  13 13.2497 3.38373   2
   0  -9 -13 12.9278 4.66425   3
   0   9  13 25.9400 3.85479   2
  -1  -9 -13 291.928 24.2779   3
   1   9  13 391.714 23.5563   2
  -2  -9 -13 16.1923 4.97921   3
   2   9  13 15.9985 3.40136   2
  -3  -9 -13 5.20933 4.38364   3
   3   9  13 12.9045 3.16764   2
  -5  10  13 -2.9271 3.36459   2
  -4  10  13 -6.0296 3.23122   2
  -3  10  13 0.09080 3.23508   2
  -2  10  13 70.8920 7.20329   2
  -1  10  13 309.507 21.3124   2
   0  10  13 0.70882 2.76864   2
  -1 -10 -13 107.205 10.9799   3
   1  10  13 136.977 9.90142   2
  -2 -10 -13 2.37027 4.25463   3
  -3  11  13 12.3614 3.87694   2
  -2  11  13 16.3072 4.07561   2
  -1  11  13 4.61932 3.57063   2
  -1 -12  14 47.0434 6.45491   1
   0 -12  14 28.5391 4.96449   1
   1 -12  14 3.98548 3.21519   1
   2 -12  14 263.317 18.8205   1
   3 -12  14 6.73007 3.00151   1
   4 -12  14 72.5259 7.01542   1
  -3 -11  14 90.1151 10.4023   1
  -2 -11  14 28.7645 5.72547   1
  -1 -11  14 136.395 11.4864   1
   0 -11  14 195.101 14.9348   1
   1 -11  14 11.3642 3.54158   1
   2 -11  14 3.29289 2.80431   1
   3 -11  14 3.20281 2.72911   1
  -4  11 -14 62.1039 5.14011   2
   4 -11  14 51.7153 5.81955   1
  -5  11 -14 1.71877 2.18857   2
   5 -11  14 5.07035 2.71903   1
   5 -11  14 1.27489 1.69120   4
   4  10 -14 61.8822 5.82062   3
  -4 -10  14 73.2882 10.2118   1
   3  10 -14 6.15311 2.65917   3
  -3 -10  14 6.50563 4.94547   1
   2  10 -14 8.60442 2.88893   3
  -2 -10  14 5.18628 3.78627   1
  -1 -10  14 1.58786 3.08045   1
   0 -10  14 35.3385 5.23702   1
   1 -10  14 5.25910 3.01601   1
   2 -10  14 33.3896 4.53032   1
   3 -10  14 90.1994 7.69057   1
  -4  10 -14 301.415 18.1877   2
   4 -10  14 250.729 17.5708   4
   4 -10  14 260.823 18.6251   1
  -5  10 -14 41.5954 4.34145   2
   5 -10  14 33.3180 3.31255   4
   5 -10  14 29.9947 4.34987   1
  -6  10 -14 19.4944 3.08132   2
   6 -10  14 15.5030 2.36633   4
   5   9 -14 10.0338 2.54986   3
  -5  -9  14 7.62386 6.50959   1
   4   9 -14 0.72765 2.22408   3
  -4  -9  14 -2.7485 5.14817   1
   3   9 -14 5.47384 2.42409   3
  -3  -9  14 9.01466 5.07710   1
   2   9 -14 250.317 16.5183   3
  -2  -9  14 226.045 18.0027   1
   1   9 -14 15.5579 3.20650   3
  -1  -9  14 15.5176 3.92496   1
   0  -9  14 41.1354 5.28090   1
   1  -9  14 225.530 16.1266   1
   2  -9  14 54.5953 5.56006   1
  -3   9 -14 360.386 21.0565   2
   3  -9  14 292.619 20.4999   4
   3  -9  14 302.659 21.5345   1
  -4   9 -14 13.8827 2.57648   2
   4  -9  14 13.6430 2.90541   1
   4  -9  14 12.4688 1.83380   4
  -5   9 -14 171.911 11.1702   2
   5  -9  14 153.863 10.5550   4
   5  -9  14 144.174 11.2999   1
  -6   9 -14 24.4212 3.47435   2
   6  -9  14 27.1783 3.08052   4
  -7   9 -14 41.6534 4.69818   2
   7  -9  14 35.7026 3.72205   4
   6   8 -14 40.7847 4.47984   3
  -6  -8  14 47.0440 8.70860   1
   5   8 -14 100.534 7.72810   3
  -5  -8  14 103.592 12.5334   1
   4   8 -14 108.343 8.20420   3
  -4  -8  14 109.002 12.0077   1
   3   8 -14 91.9012 7.20520   3
  -3  -8  14 88.8077 9.99735   1
   2   8 -14 158.644 11.2997   3
  -2  -8  14 160.397 13.2244   1
   1   8 -14 180.222 12.3431   3
  -1  -8  14 158.881 13.1188   1
   0   8 -14 153.672 11.5843   3
   0  -8  14 153.747 11.9854   1
   1  -8  14 5.04763 2.66515   1
   2  -8  14 22.8622 2.63267   4
   2  -8  14 25.8311 3.81357   1
  -3   8 -14 19.9795 2.93088   2
   3  -8  14 17.6561 3.00957   1
   3  -8  14 21.6036 2.29520   4
  -4   8 -14 3.95130 2.10537   2
   4  -8  14 4.20697 2.27060   1
   4  -8  14 3.39799 1.52621   4
  -5   8 -14 1.23745 1.90616   2
   5  -8  14 1.22620 2.14932   1
   5  -8  14 0.29966 1.59925   4
  -6   8 -14 4.24492 2.43087   2
   6  -8  14 2.42185 1.83292   4
  -7   8 -14 30.8587 4.30283   2
   7  -8  14 38.1856 3.68692   4
   6   7 -14 10.1136 2.47080   3
  -6  -7  14 3.82189 5.76946   1
   5   7 -14 68.9645 5.78726   3
  -5  -7  14 67.4092 10.4659   1
   4   7 -14 9.26041 2.34138   3
  -4  -7  14 3.52733 5.03653   1
   3   7 -14 26.9868 3.49711   3
  -3  -7  14 23.8079 5.62683   1
   2   7 -14 97.2771 7.48038   3
  -2  -7  14 87.8403 9.20693   1
   1   7 -14 22.2710 3.53047   3
  -1  -7  14 22.7103 4.26704   1
   0   7 -14 19.6001 3.18537   3
   0  -7  14 15.5537 3.43934   1
  -1   7 -14 0.74684 2.16895   3
   1  -7  14 0.93535 2.26627   1
   1  -7  14 3.33115 1.44776   4
  -2   7 -14 67.1286 5.35817   2
  -2   7 -14 76.3720 5.97191   3
   2  -7  14 64.1227 5.96182   1
   2  -7  14 72.0955 5.11269   4
  -3   7 -14 474.744 29.9614   2
   3  -7  14 451.682 29.5758   4
   3  -7  14 456.696 30.3073   1
  -4   7 -14 14.4206 2.49107   2
   4  -7  14 14.8345 2.01156   4
   4  -7  14 12.1214 2.54261   1
  -5   7 -14 5.01473 2.16877   2
   5  -7  14 5.58234 1.75652   4
  -6   7 -14 135.111 10.0153   2
   6  -7  14 136.457 9.45001   4
  -7   7 -14 9.67021 2.90000   2
   7  -7  14 6.19591 2.17172   4
   7   6 -14 96.4088 7.71235   3
  -7  -6  14 102.565 10.7518   1
   6   6 -14 3.63917 2.12970   3
  -6  -6  14 -3.3822 4.54983   1
   5   6 -14 17.3375 2.71776   3
  -5  -6  14 15.0917 6.19463   1
   4   6 -14 44.9901 4.32590   3
  -4  -6  14 42.8552 7.30726   1
   3   6 -14 570.277 37.4183   3
  -3  -6  14 585.821 39.8742   1
   2   6 -14 17.1335 2.97603   3
  -2  -6  14 22.5794 4.75703   1
   1   6 -14 41.8539 4.56908   3
  -1  -6  14 28.9745 4.99970   1
   0   6 -14 94.4339 7.33313   3
   0  -6  14 84.4238 7.59002   1
  -1   6 -14 36.4120 3.91077   3
   1  -6  14 43.6117 4.64102   1
  -2   6 -14 627.823 37.9895   3
  -2   6 -14 574.584 37.6166   2
   2  -6  14 572.300 37.3861   4
   2  -6  14 565.060 38.0664   1
  -3   6 -14 13.2590 3.37213   3
  -3   6 -14 22.3646 2.81958   2
   3  -6  14 23.3883 2.54721   4
   3  -6  14 20.8460 3.25337   1
  -4   6 -14 177.361 12.6057   2
   4  -6  14 189.725 12.2360   4
  -5   6 -14 26.7000 3.46482   2
   5  -6  14 28.2843 3.01119   4
  -6   6 -14 1.10393 2.33127   2
   6  -6  14 3.37582 1.90238   4
  -7   6 -14 286.401 19.9818   2
   7  -6  14 295.086 19.2394   4
   7   5 -14 23.3094 3.45349   3
  -7  -5  14 28.5667 6.23528   1
   6   5 -14 20.9190 3.31349   3
  -6  -5  14 24.0264 5.69151   1
   5   5 -14 63.7930 5.50600   3
  -5  -5  14 66.6578 8.77607   1
   4   5 -14 246.746 17.2575   3
  -4  -5  14 282.645 20.6634   1
   3   5 -14 9.14859 2.33473   3
  -3  -5  14 14.4992 4.83223   1
   2   5 -14 78.4383 6.43847   3
  -2  -5  14 67.9437 8.25560   1
   1   5 -14 526.061 35.2380   3
  -1  -5  14 544.031 36.0661   1
   0   5 -14 2.75758 2.04500   3
   0  -5  14 2.25943 2.55275   1
  -1   5 -14 58.8604 4.96742   3
   1  -5  14 60.2572 5.80029   1
  -2   5 -14 10.5470 2.52198   3
  -2   5 -14 7.36496 1.86112   2
   2  -5  14 8.88143 1.73714   4
   2  -5  14 5.49961 2.22561   1
  -3   5 -14 -1.1565 2.72791   3
  -3   5 -14 1.06283 1.72030   2
   3  -5  14 1.01754 1.48817   4
   3  -5  14 1.17654 1.81869   1
  -4   5 -14 30.7056 3.87092   2
  -4   5 -14 69.6825 6.08596   3
   4  -5  14 42.0620 3.67954   4
  -5   5 -14 60.5524 5.73271   2
   5  -5  14 71.7877 5.25210   4
  -6   5 -14 29.0195 4.07527   2
   6  -5  14 31.6556 3.41922   4
   7  -5  14 51.9354 6.13559   2
   7  -5  14 49.2171 4.67019   4
   8  -5  14 98.7961 9.19305   2
   8  -5  14 87.7115 7.18471   4
   7   4 -14 4.51445 2.30530   3
  -7  -4  14 4.14086 4.26665   1
   6   4 -14 69.0678 5.70355   3
  -6  -4  14 62.6778 7.74834   1
   5   4 -14 11.8615 2.44533   3
  -5  -4  14 11.0988 4.34350   1
   4   4 -14 80.7425 6.31135   3
  -4  -4  14 72.1827 9.25410   1
   3   4 -14 267.000 18.5913   3
  -3  -4  14 293.141 21.0489   1
   2   4 -14 3.02419 2.38510   3
  -2  -4  14 0.70921 3.70929   1
   1   4 -14 6.00288 2.95251   3
  -1  -4  14 9.00719 3.67211   1
   0   4 -14 2.27563 1.87276   3
   0  -4  14 1.95494 2.67404   1
  -1   4 -14 13.7964 2.36373   3
   1  -4  14 8.56835 2.68403   1
   1  -4  14 8.92350 2.24903   2
  -2   4 -14 716.427 40.8227   3
   2  -4  14 557.531 40.4972   1
   2  -4  14 609.555 40.2709   2
  -3   4 -14 12.4976 3.50271   3
   3  -4  14 17.7109 2.34299   4
   3  -4  14 21.8907 3.25480   2
  -4   4 -14 79.9497 7.77482   3
   4  -4  14 84.9234 6.61799   2
   4  -4  14 70.4141 5.74511   4
  -5   4 -14 78.0050 6.88436   3
   5  -4  14 77.1978 5.82607   4
   5  -4  14 72.1629 6.83996   2
   6  -4  14 16.5485 2.54480   4
   6  -4  14 11.5094 3.79468   2
   7  -4  14 101.888 9.46844   2
   8  -4  14 55.2825 7.19659   2
   8  -4  14 46.4439 4.85973   4
   8   3 -14 155.709 11.3558   3
  -8  -3  14 153.774 13.3436   1
   7   3 -14 14.4982 2.82917   3
  -7  -3  14 13.0566 4.35043   1
   6   3 -14 171.781 11.7621   3
  -6  -3  14 155.782 13.3559   1
   5   3 -14 85.2094 6.49016   3
  -5  -3  14 72.4671 8.05209   1
   4   3 -14 734.378 48.1611   3
  -4  -3  14 761.937 50.2047   1
   3   3 -14 0.54607 2.08778   3
  -3  -3  14 -0.3924 3.92095   1
   2   3 -14 19.7838 3.42405   3
   1   3 -14 56.1836 5.36958   3
   0   3 -14 30.8161 3.55135   3
   0  -3  14 26.7285 3.86675   2
   0  -3  14 27.3694 4.72822   1
  -1   3 -14 713.358 46.6275   3
   1  -3  14 740.242 47.2087   1
   1  -3  14 720.730 46.8185   2
  -2   3 -14 104.339 7.89410   3
   2  -3  14 108.933 7.93535   2
   2  -3  14 91.1492 7.71317   1
  -3   3 -14 180.987 14.1389   3
   3  -3  14 200.528 13.4822   2
  -4   3 -14 2.39899 3.52181   3
   4  -3  14 0.81403 2.56980   2
   4  -3  14 3.26704 1.75039   4
  -5   3 -14 84.7212 7.26006   3
   5  -3  14 74.7489 6.01830   4
   5  -3  14 75.8290 7.08848   2
  -6   3 -14 440.947 28.1561   3
   6  -3  14 420.158 28.6374   2
   6  -3  14 405.171 27.4489   4
   7  -3  14 2.88549 2.25315   4
   7  -3  14 0.02080 4.00611   2
   8  -3  14 86.8514 9.63679   2
   8  -3  14 101.396 7.65145   4
   8   2 -14 3.47213 2.51738   3
  -8  -2  14 1.13850 4.05917   1
   7   2 -14 8.74771 2.52077   3
  -7  -2  14 5.43720 3.93342   1
   6   2 -14 30.7473 3.71239   3
  -6  -2  14 25.8175 4.83282   1
   5   2 -14 243.794 16.3657   3
  -5  -2  14 236.490 17.6826   1
   4   2 -14 12.1097 2.64198   3
  -4  -2  14 14.9544 4.07616   1
   3   2 -14 119.346 9.08377   3
  -3  -2  14 114.246 10.4342   1
   2   2 -14 811.974 53.5059   3
  -2  -2  14 833.040 54.7617   1
   1   2 -14 156.262 11.6575   3
  -1  -2  14 181.680 13.2877   1
   0   2 -14 13.9367 2.18690   3
   0  -2  14 9.67997 2.80052   2
   0  -2  14 16.0782 3.74150   1
  -1   2 -14 59.6332 5.11025   3
   1  -2  14 55.9165 5.83862   2
   1  -2  14 63.6926 6.15527   1
  -2   2 -14 -2.8645 2.53387   3
   2  -2  14 1.21673 2.80783   2
  -3   2 -14 125.490 11.8981   3
   3  -2  14 172.124 11.4442   2
  -4   2 -14 350.841 24.4463   3
   4  -2  14 344.783 23.6486   2
  -5   2 -14 5.99597 3.08869   3
   5  -2  14 0.26939 3.44054   2
  -6   2 -14 105.945 8.68153   3
   6  -2  14 98.7540 7.80391   4
   6  -2  14 114.955 9.82556   2
  -7   2 -14 182.804 13.5876   3
   7  -2  14 204.456 15.6580   2
   8  -2  14 0.58795 5.14295   2
   8   1 -14 84.5575 7.09806   3
  -8  -1  14 77.6613 8.66648   1
   7   1 -14 8.46030 2.68848   3
  -7  -1  14 8.68666 4.18711   1
   6   1 -14 10.0987 2.59055   3
  -6  -1  14 13.6948 3.86659   1
   5   1 -14 189.835 13.2206   3
  -5  -1  14 184.527 14.1510   1
   4   1 -14 385.555 25.3121   3
  -4  -1  14 372.650 25.9797   1
   3   1 -14 60.0389 5.68675   3
  -3  -1  14 53.7085 6.01882   1
   2   1 -14 4.74178 2.29455   3
  -2  -1  14 5.73451 2.93427   1
   1   1 -14 5.91013 1.97198   3
  -1  -1  14 1.30479 2.56350   1
   0   1 -14 43.5540 3.79542   3
   0  -1  14 31.3574 4.15152   2
   0  -1  14 36.0885 5.23678   1
  -1   1 -14 297.223 19.4755   3
   1  -1  14 279.455 19.9044   2
  -2   1 -14 148.727 11.3636   3
   2  -1  14 151.421 11.5210   2
  -3   1 -14 213.368 18.6349   3
   3  -1  14 304.468 18.5796   2
  -4   1 -14 5.01749 3.92040   3
   4  -1  14 7.95592 3.94749   2
  -5   1 -14 42.7623 5.65632   3
   5  -1  14 45.4622 6.73880   2
  -6   1 -14 65.3774 6.71514   3
   6  -1  14 67.6990 8.14249   2
  -7   1 -14 9.18907 3.07622   3
   7  -1  14 7.65889 5.34137   2
  -8   1 -14 5.90912 2.84800   3
   8  -1  14 8.15933 5.37563   2
   8   0 -14 11.3474 3.09256   3
  -8   0  14 15.7472 4.46732   1
   7   0 -14 278.069 19.4910   3
  -7   0  14 297.322 20.6251   1
   6   0 -14 37.2816 4.39630   3
  -6   0  14 38.3475 5.66391   1
   5   0 -14 429.088 28.9193   3
  -5   0  14 444.124 29.5568   1
   4   0 -14 1.20322 2.44770   3
  -4   0  14 2.51591 2.62949   1
   3   0 -14 5.41989 2.37593   3
  -3   0  14 2.48281 2.29527   1
   2   0 -14 11.0309 2.28519   3
   1   0 -14 6.43956 1.74528   3
  -1   0  14 7.75492 1.53637   2
  -1   0  14 10.2451 2.45687   1
   0   0 -14 239.204 14.7653   3
   0   0  14 206.034 14.6081   2
   0   0  14 205.897 15.0185   1
  -1   0 -14 43.7223 4.53941   3
   1   0  14 42.4659 5.34717   2
  -2   0 -14 80.8861 7.77816   3
   2   0  14 83.7871 7.83371   2
  -3   0 -14 23.7366 5.74509   3
   3   0  14 57.6829 6.46397   2
  -4   0 -14 148.410 12.7310   3
   4   0  14 165.526 12.7877   2
  -5   0 -14 383.786 26.3723   3
   5   0  14 381.121 26.7948   2
  -6   0 -14 19.0908 4.05548   3
   6   0  14 13.6204 5.32400   2
  -7   0 -14 75.3775 7.40895   3
   7   0  14 89.6943 9.75725   2
   8  -1 -14 169.048 12.4010   3
  -8   1  14 166.766 13.3101   1
   7  -1 -14 4.44743 2.74766   3
  -7   1  14 -2.0560 3.23463   1
   6  -1 -14 179.560 12.8005   3
  -6   1  14 169.669 13.3088   1
   5  -1 -14 138.898 10.2996   3
  -5   1  14 124.518 10.2579   1
   4  -1 -14 116.780 9.31225   3
  -4   1  14 110.747 9.01533   1
   3  -1 -14 501.017 32.0370   3
  -3   1  14 474.093 32.1587   1
   2  -1 -14 194.168 12.4506   3
  -2   1  14 169.585 12.6864   1
   1  -1 -14 4.66964 1.65945   3
  -1   1  14 4.12009 1.85780   1
  -1   1  14 3.10803 1.47117   2
   0  -1 -14 160.829 10.0872   3
   0   1  14 124.735 9.68546   2
  -1  -1 -14 -0.7165 2.28640   3
   1   1  14 2.64955 2.33839   2
  -2  -1 -14 148.057 12.0548   3
   2   1  14 148.161 11.4811   2
  -3  -1 -14 456.387 36.1547   3
   3   1  14 589.216 35.5418   2
  -4  -1 -14 -2.7504 3.57904   3
   4   1  14 6.52705 4.12848   2
  -5  -1 -14 109.157 10.0767   3
   5   1  14 120.803 10.9697   2
  -6  -1 -14 139.087 11.6004   3
   6   1  14 157.996 13.2154   2
  -7  -1 -14 6.99038 3.54085   3
   7   1  14 1.93252 5.16124   2
   8  -2 -14 13.6086 3.43437   3
  -8   2  14 8.85590 4.04546   1
   7  -2 -14 23.1337 3.88107   3
  -7   2  14 20.5764 4.29338   1
   6  -2 -14 271.310 18.9007   3
  -6   2  14 265.302 19.0646   1
   5  -2 -14 154.068 11.9741   3
  -5   2  14 165.469 12.1450   1
   4  -2 -14 186.572 13.0538   3
  -4   2  14 181.026 13.3078   1
   3  -2 -14 8.23093 2.26912   3
  -3   2  14 5.28563 2.45231   1
   2  -2 -14 20.1952 2.68688   3
  -2   2  14 20.2781 2.58706   2
  -2   2  14 19.7185 3.11011   1
   1  -2 -14 154.220 9.97314   3
  -1   2  14 132.356 9.76793   2
   0  -2 -14 13.0736 2.45658   3
   0   2  14 14.0593 2.24047   2
  -1  -2 -14 349.909 21.4894   3
   1   2  14 282.594 20.5686   2
  -2  -2 -14 271.842 20.7972   3
   2   2  14 301.524 19.7348   2
  -3  -2 -14 130.031 12.8486   3
   3   2  14 155.822 11.1894   2
  -4  -2 -14 43.8659 6.87576   3
   4   2  14 49.1745 6.19787   2
  -5  -2 -14 69.2908 7.73687   3
   5   2  14 65.8200 7.88153   2
  -6  -2 -14 2.98307 3.80056   3
   6   2  14 2.88552 4.47440   2
  -7  -2 -14 27.9885 4.84058   3
   7   2  14 28.7417 5.79617   2
  -8   3  14 313.491 22.3744   1
   7  -3 -14 25.5557 4.64403   3
  -7   3  14 18.8346 4.54608   1
   6  -3 -14 162.248 12.1188   3
  -6   3  14 155.108 12.3056   1
   5  -3 -14 14.6281 3.14811   3
  -5   3  14 20.6879 3.57818   1
   4  -3 -14 9.74081 2.56393   3
  -4   3  14 5.30325 2.50359   1
   3  -3 -14 107.627 7.83411   3
  -3   3  14 107.813 8.41566   1
   2  -3 -14 47.1300 4.47231   3
  -2   3  14 54.2075 4.93381   1
  -2   3  14 62.1100 4.83297   2
   1  -3 -14 3.92783 1.84919   3
  -1   3  14 2.21539 1.73178   2
   0  -3 -14 5.74000 2.49600   3
   0   3  14 8.87809 2.13393   2
  -1  -3 -14 12.2388 3.74288   3
   1   3  14 11.4480 2.42701   2
  -2  -3 -14 126.259 12.6918   3
   2   3  14 159.387 10.7188   2
  -3  -3 -14 80.2575 9.43691   3
   3   3  14 103.910 7.95285   2
  -4  -3 -14 117.716 11.2663   3
   4   3  14 130.241 10.0855   2
  -5  -3 -14 163.922 13.2120   3
   5   3  14 151.487 12.3276   2
  -6  -3 -14 28.4517 5.26226   3
   6   3  14 24.9932 4.93976   2
  -7  -3 -14 31.9667 5.45264   3
   7   3  14 34.1834 5.58813   2
  -8   4  14 -0.3126 3.43395   1
  -7   4  14 64.6772 7.09968   1
   6  -4 -14 176.052 12.9819   3
  -6   4  14 192.965 13.8951   1
   5  -4 -14 60.8793 5.33209   3
  -5   4  14 57.4778 5.93547   1
   4  -4 -14 393.463 26.1787   3
  -4   4  14 407.106 26.7161   1
   3  -4 -14 312.919 20.2608   3
  -3   4  14 297.620 20.6582   1
   2  -4 -14 119.238 8.56606   3
  -2   4  14 113.793 8.52251   2
   1  -4 -14 79.0581 6.32683   3
  -1   4  14 74.2091 5.85882   2
   0  -4 -14 -2.4242 2.42280   3
   0   4  14 0.03751 1.77830   2
  -1  -4 -14 148.928 12.1454   3
   1   4  14 151.408 10.6797   2
  -2  -4 -14 151.924 15.1490   3
   2   4  14 205.722 13.1246   2
  -3  -4 -14 12.1199 4.88412   3
   3   4  14 10.4352 2.88382   2
  -4  -4 -14 24.0523 5.41174   3
   4   4  14 26.8341 4.00637   2
  -5  -4 -14 18.9965 5.26616   3
   5   4  14 18.4844 3.90139   2
  -6  -4 -14 5.23157 4.38744   3
   6   4  14 3.01127 3.20253   2
  -8   5  14 28.4586 5.02522   1
  -7   5  14 300.207 21.3889   1
  -6   5  14 39.1149 5.26128   1
   5  -5 -14 439.586 28.0839   3
  -5   5  14 415.736 28.7575   1
   4  -5 -14 17.0497 2.62761   3
  -4   5  14 13.7394 3.22356   1
   3  -5 -14 131.969 9.70809   3
  -3   5  14 137.322 10.2369   2
   2  -5 -14 78.4455 6.37409   3
  -2   5  14 73.5211 6.26828   2
   1  -5 -14 0.75510 2.51774   3
  -1   5  14 -0.3991 1.89429   2
   0  -5 -14 250.253 16.8070   3
   0   5  14 219.273 15.5462   2
  -1  -5 -14 225.531 18.2765   3
   1   5  14 248.458 16.2888   2
   2   5  14 304.095 20.4399   2
  -3  -5 -14 5.41289 4.74194   3
   3   5  14 21.8436 3.20955   2
  -4  -5 -14 24.6189 5.94718   3
   4   5  14 24.7598 3.65155   2
  -5  -5 -14 48.5110 7.36743   3
   5   5  14 42.7634 5.20322   2
  -6  -5 -14 105.783 10.2971   3
   6   5  14 104.755 8.92052   2
  -7   6  14 -0.2146 3.18464   1
  -6   6  14 40.9406 5.66007   1
  -5   6  14 -1.3270 2.78405   1
   4  -6 -14 117.299 8.62691   3
   3  -6 -14 64.8428 5.80930   3
  -3   6  14 71.1714 6.45646   2
   2  -6 -14 40.9921 4.80208   3
  -2   6  14 40.4973 4.52902   2
   1  -6 -14 -2.3426 3.18768   3
  -1   6  14 0.81650 2.12912   2
   0  -6 -14 6.16995 4.26768   3
   0   6  14 9.39281 2.46879   2
   1   6  14 341.120 22.6691   2
  -2  -6 -14 32.9437 6.65813   3
   2   6  14 54.5223 4.93759   2
  -3  -6 -14 16.1041 5.80154   3
   3   6  14 42.8388 4.31848   2
  -4  -6 -14 187.372 16.3053   3
   4   6  14 215.374 14.6338   2
  -5  -6 -14 1.58432 4.31410   3
   5   6  14 4.05263 2.77811   2
   5  -7 -14 230.884 16.6710   1
   3  -7 -14 255.111 17.7930   3
  -3   7  14 263.024 18.0195   2
   2  -7 -14 26.8392 4.41482   3
  -2   7  14 26.0513 3.90043   2
   1  -7 -14 1.26765 3.95302   3
  -1   7  14 5.59166 2.66925   2
   0  -7 -14 42.9824 6.94126   3
   0   7  14 66.5853 5.43702   2
  -1  -7 -14 -1.4830 4.16281   3
   1   7  14 8.40906 2.46881   2
  -2  -7 -14 18.7351 5.79206   3
   2   7  14 41.6241 4.36697   2
  -3  -7 -14 -3.3849 4.23855   3
   3   7  14 0.10082 2.82665   2
  -4  -7 -14 -5.7936 4.26264   3
   4   7  14 -0.1960 2.65530   2
   6  -8 -14 502.887 33.9498   1
  -4   8  14 88.6969 8.05800   2
  -3   8  14 32.8427 4.63856   2
   2  -8 -14 15.4062 4.66197   3
  -2   8  14 9.24541 3.03999   2
   1  -8 -14 93.1893 9.83799   3
  -1   8  14 112.788 8.38343   2
   0  -8 -14 21.4812 5.49318   3
   0   8  14 32.9555 4.24334   2
  -1  -8 -14 176.292 17.2269   3
   1   8  14 263.486 15.9755   2
  -2  -8 -14 -2.6327 4.34593   3
   2   8  14 2.69863 2.61323   2
  -3  -8 -14 -10.603 3.89546   3
   3   8  14 5.18305 2.79153   2
  -4   9  14 0.44036 3.91404   2
  -3   9  14 22.6176 4.20022   2
  -2   9  14 10.8882 3.39002   2
  -1   9  14 2.01084 2.67376   2
   0  -9 -14 143.358 14.4698   3
   0   9  14 210.737 13.2666   2
  -1  -9 -14 -2.6045 4.51032   3
   1   9  14 0.89143 2.78215   2
  -2  -9 -14 -2.7715 4.40544   3
   2   9  14 2.94335 2.79707   2
  -4  10  14 97.6133 8.79372   2
  -3  10  14 15.2060 3.86093   2
  -2  10  14 0.98913 3.12687   2
  -1  10  14 11.7122 3.34580   2
   0  10  14 41.1959 4.78950   2
   0 -12  15 5.61049 3.78327   1
   1 -12  15 33.6799 5.56578   1
   2 -12  15 55.2330 6.42402   1
   3 -12  15 6.78643 3.16257   1
  -2 -11  15 117.365 11.4476   1
  -1 -11  15 174.962 14.2436   1
   0 -11  15 4.03032 3.62321   1
   1 -11  15 293.292 21.0170   1
   2 -11  15 275.996 19.6515   1
   3 -11  15 134.487 10.6862   1
   4 -11  15 8.85381 3.19079   1
   4  10 -15 151.440 11.2239   3
   3  10 -15 1.22613 2.60686   3
  -3 -10  15 1.37704 4.75989   1
  -2 -10  15 46.6550 7.29100   1
  -1 -10  15 -0.0427 3.35901   1
   0 -10  15 8.57886 3.69975   1
   1 -10  15 1.08203 3.04832   1
   2 -10  15 14.0923 3.53615   1
   3 -10  15 10.8185 3.23182   1
  -4  10 -15 1.05998 2.08118   2
   4 -10  15 0.35973 1.59968   4
   4 -10  15 3.58817 2.67873   1
  -5  10 -15 60.4882 5.33956   2
   5 -10  15 56.2722 5.71637   1
   5 -10  15 54.3330 4.55736   4
   4   9 -15 33.7478 4.45584   3
  -4  -9  15 41.1957 8.15171   1
   3   9 -15 125.772 9.34478   3
  -3  -9  15 115.180 12.1491   1
   2   9 -15 18.9039 3.46463   3
  -2  -9  15 18.4280 5.24219   1
   1   9 -15 5.01533 3.17842   3
  -1  -9  15 5.75593 3.62140   1
   0  -9  15 175.558 13.4612   1
   1  -9  15 93.1688 8.25322   1
   2  -9  15 27.8885 4.32272   1
   3  -9  15 137.694 9.20327   4
   3  -9  15 131.178 10.2772   1
  -4   9 -15 -0.3210 1.89290   2
   4  -9  15 1.53500 1.62232   4
   4  -9  15 1.21926 2.37383   1
  -5   9 -15 104.647 7.98035   2
   5  -9  15 102.091 7.37321   4
  -6   9 -15 48.9347 4.99449   2
   6  -9  15 53.2303 4.46890   4
   5   8 -15 81.9871 6.82249   3
  -5  -8  15 74.6207 11.2298   1
   4   8 -15 246.667 17.1349   3
  -4  -8  15 256.825 20.7048   1
   3   8 -15 169.083 12.0098   3
  -3  -8  15 164.843 14.8151   1
   2   8 -15 267.950 18.3591   3
  -2  -8  15 265.570 20.2059   1
   1   8 -15 36.6933 4.84492   3
  -1  -8  15 30.9683 5.48246   1
   0   8 -15 246.539 16.0519   3
   0  -8  15 210.072 16.3587   1
   1  -8  15 241.989 17.1804   1
   2  -8  15 328.663 22.4005   1
  -3   8 -15 1.83227 2.03616   2
   3  -8  15 0.81369 1.59599   4
   3  -8  15 4.04867 2.46257   1
  -4   8 -15 34.9995 3.85144   2
   4  -8  15 32.6510 4.11417   1
   4  -8  15 30.2972 3.13048   4
  -5   8 -15 179.267 12.4318   2
   5  -8  15 172.444 11.8805   4
  -6   8 -15 4.11868 2.42025   2
   6  -8  15 0.90477 1.92041   4
   6   7 -15 26.4902 3.83865   3
  -6  -7  15 26.3866 6.72811   1
   5   7 -15 101.519 7.94317   3
  -5  -7  15 100.934 12.3512   1
   4   7 -15 15.5950 2.99608   3
  -4  -7  15 17.5650 6.09671   1
   3   7 -15 96.2700 7.63178   3
  -3  -7  15 96.6051 10.5442   1
   2   7 -15 10.6587 2.95771   3
  -2  -7  15 4.31587 4.07015   1
   1   7 -15 2.23499 2.78821   3
  -1  -7  15 0.96353 3.09444   1
   0   7 -15 111.678 8.57965   3
   0  -7  15 111.627 9.37189   1
  -1   7 -15 4.84415 2.25499   3
   1  -7  15 8.49379 2.87764   1
   2  -7  15 37.4886 4.64811   1
   2  -7  15 42.0486 3.62072   4
  -3   7 -15 23.4931 3.06515   2
   3  -7  15 22.1873 3.50622   1
   3  -7  15 19.0426 2.43787   4
  -4   7 -15 54.2728 4.92937   2
   4  -7  15 55.6162 4.52283   4
  -5   7 -15 417.282 27.9226   2
   5  -7  15 430.085 27.4748   4
  -6   7 -15 14.4556 3.04340   2
   6  -7  15 10.7112 2.36199   4
  -7   7 -15 45.2452 5.36418   2
   7  -7  15 56.0047 4.76315   4
   6   6 -15 33.2792 4.02229   3
  -6  -6  15 25.1165 6.29267   1
   5   6 -15 100.218 7.93344   3
  -5  -6  15 115.060 11.6721   1
   4   6 -15 31.4669 3.83564   3
  -4  -6  15 27.4603 6.86452   1
   3   6 -15 23.2233 3.68240   3
  -3  -6  15 20.1960 5.79507   1
   2   6 -15 21.5396 3.43906   3
  -2  -6  15 22.4684 5.29170   1
   1   6 -15 682.139 45.2983   3
  -1  -6  15 703.221 46.2385   1
   0   6 -15 95.7714 7.70735   3
   0  -6  15 101.828 8.64148   1
  -1   6 -15 67.4981 5.59166   3
   1  -6  15 70.2129 6.50070   1
  -2   6 -15 161.512 11.3129   2
  -2   6 -15 174.614 11.6247   3
   2  -6  15 164.682 12.0070   1
   2  -6  15 156.492 11.0792   4
  -3   6 -15 14.4134 2.52772   2
  -3   6 -15 14.4471 3.57879   3
   3  -6  15 14.0898 2.80401   1
   3  -6  15 11.5359 2.10627   4
  -4   6 -15 383.882 25.0012   2
   4  -6  15 372.673 24.5333   4
  -5   6 -15 5.53582 2.43325   2
   5  -6  15 5.71030 2.10918   4
  -6   6 -15 304.330 21.4146   2
   6  -6  15 329.009 20.9437   4
   7  -6  15 9.58907 2.68298   4
   7   5 -15 421.758 27.1958   3
  -7  -5  15 390.958 28.9288   1
   6   5 -15 73.4025 6.30669   3
  -6  -5  15 70.8291 8.48382   1
   5   5 -15 143.447 10.5433   3
  -5  -5  15 148.682 13.5697   1
   4   5 -15 106.832 8.54513   3
  -4  -5  15 139.132 12.5910   1
   3   5 -15 233.092 16.8350   3
  -3  -5  15 268.134 19.5030   1
   2   5 -15 96.1678 8.24870   3
  -2  -5  15 110.834 10.1911   1
   1   5 -15 89.6606 7.76305   3
  -1  -5  15 93.7102 8.86563   1
   0   5 -15 195.321 14.0680   3
   0  -5  15 218.665 15.1286   1
  -1   5 -15 711.304 45.6656   3
   1  -5  15 704.860 46.2531   1
  -2   5 -15 103.967 7.93615   3
   2  -5  15 102.151 8.31106   1
   2  -5  15 100.578 7.70977   2
  -3   5 -15 97.5356 8.32720   3
   3  -5  15 109.767 7.47268   4
  -4   5 -15 83.8762 8.31990   3
   4  -5  15 96.8776 6.78483   4
   5  -5  15 4.20176 2.04045   4
   6  -5  15 -0.6928 2.12445   4
   6  -5  15 0.01082 3.26862   2
   7  -5  15 18.1859 3.04012   4
   7  -5  15 16.6044 4.44530   2
   7   4 -15 121.939 9.23897   3
  -7  -4  15 119.976 11.0984   1
   6   4 -15 34.7102 4.03502   3
  -6  -4  15 26.8382 5.39237   1
   5   4 -15 1.28278 2.08923   3
  -5  -4  15 -0.3904 3.92031   1
   4   4 -15 131.009 9.87190   3
  -4  -4  15 143.066 12.5582   1
   3   4 -15 32.8736 4.21063   3
  -3  -4  15 32.4117 6.39171   1
   2   4 -15 1.06231 2.65961   3
  -2  -4  15 0.93592 3.90104   1
   1   4 -15 484.889 32.7866   3
  -1  -4  15 509.148 34.0242   1
   0   4 -15 41.8134 4.51205   3
   0  -4  15 43.6432 5.86261   1
  -1   4 -15 60.6686 5.26804   3
   1  -4  15 63.3820 6.22283   1
   1  -4  15 65.8529 5.81722   2
  -2   4 -15 10.4247 2.75814   3
   2  -4  15 6.72446 2.52420   1
   2  -4  15 6.93598 2.59280   2
  -3   4 -15 6.31345 3.33291   3
   3  -4  15 12.3419 3.11769   2
  -4   4 -15 577.591 43.0402   3
   4  -4  15 697.276 42.4700   2
   4  -4  15 669.515 41.8121   4
  -5   4 -15 10.1808 3.56898   3
   5  -4  15 7.02997 2.22706   4
   5  -4  15 13.1459 3.56300   2
   6  -4  15 5.23676 3.58152   2
   6  -4  15 4.36718 2.27118   4
   7  -4  15 100.634 9.49974   2
   7  -4  15 92.5402 7.33853   4
   7   3 -15 44.4502 4.93662   3
  -7  -3  15 44.8960 6.27447   1
   6   3 -15 182.414 12.6062   3
  -6  -3  15 168.096 13.8640   1
   5   3 -15 1.98852 2.14546   3
  -5  -3  15 0.85542 3.31908   1
   4   3 -15 152.669 10.9720   3
  -4  -3  15 144.081 12.5413   1
   3   3 -15 53.1729 5.30106   3
  -3  -3  15 40.2121 7.08914   1
   2   3 -15 1171.05 77.9515   3
  -2  -3  15 1249.59 79.3201   1
   1   3 -15 23.4837 3.52685   3
   0   3 -15 90.8205 6.95082   3
  -1   3 -15 89.1872 6.67147   3
   1  -3  15 72.2064 7.51431   1
   1  -3  15 91.6064 7.68359   2
  -2   3 -15 -0.6838 2.36165   3
   2  -3  15 -1.3509 2.79902   2
  -3   3 -15 506.627 35.1722   3
   3  -3  15 552.302 34.9365   2
  -4   3 -15 2.96096 3.91721   3
   4  -3  15 -0.0996 2.82704   2
  -5   3 -15 303.098 21.1778   3
   5  -3  15 279.918 19.8391   4
   5  -3  15 324.716 21.0809   2
  -6   3 -15 22.5886 4.13653   3
   6  -3  15 21.1076 3.20132   4
   6  -3  15 23.4856 4.87711   2
   7  -3  15 189.788 13.5197   4
   7  -3  15 200.619 15.6115   2
   8   2 -15 303.312 20.6275   3
  -8  -2  15 297.041 21.8724   1
   7   2 -15 71.2766 6.19756   3
  -7  -2  15 62.1091 7.64337   1
   6   2 -15 14.6564 3.02417   3
  -6  -2  15 16.0379 4.18092   1
   5   2 -15 0.52198 2.25014   3
  -5  -2  15 2.71260 3.30878   1
   4   2 -15 81.7201 6.73074   3
  -4  -2  15 73.3046 7.60740   1
   3   2 -15 136.702 10.5527   3
  -3  -2  15 138.414 11.6014   1
   2   2 -15 4.36318 2.65374   3
   1   2 -15 154.433 11.8531   3
  -1  -2  15 208.257 14.2914   1
   0   2 -15 635.636 40.0866   3
   0  -2  15 601.993 41.3035   1
  -1   2 -15 240.931 16.2107   3
   1  -2  15 237.949 16.9570   2
  -2   2 -15 74.9318 6.59946   3
   2  -2  15 69.8589 7.10899   2
  -3   2 -15 13.7546 4.15133   3
   3  -2  15 18.2717 4.11461   2
  -4   2 -15 -0.6085 4.04106   3
   4  -2  15 3.40185 3.64347   2
  -5   2 -15 42.3578 6.10926   3
   5  -2  15 42.9257 6.58044   2
  -6   2 -15 183.889 14.1447   3
   6  -2  15 193.191 15.1434   2
  -7   2 -15 36.0441 5.47798   3
   7  -2  15 37.5461 7.08628   2
   8   1 -15 237.819 16.4055   3
  -8  -1  15 225.760 17.4938   1
   7   1 -15 4.35963 2.62606   3
  -7  -1  15 1.47728 3.64605   1
   6   1 -15 26.0846 3.99578   3
  -6  -1  15 23.6831 4.53208   1
   5   1 -15 50.8564 4.96394   3
  -5  -1  15 37.9790 5.94336   1
   4   1 -15 29.6094 4.10827   3
  -4  -1  15 19.1688 3.89617   1
   3   1 -15 27.3774 4.25099   3
  -3  -1  15 22.2158 4.06470   1
   2   1 -15 614.613 40.3115   3
  -2  -1  15 623.328 41.1058   1
   1   1 -15 94.0137 6.85618   3
  -1  -1  15 85.0943 8.27495   1
   0   1 -15 8.89896 2.03325   3
   0  -1  15 7.65677 3.02599   1
   0  -1  15 4.57788 2.00266   2
  -1   1 -15 7.91951 2.42450   3
   1  -1  15 12.2603 3.50323   2
  -2   1 -15 34.7280 4.65714   3
   2  -1  15 40.0082 5.88562   2
  -3   1 -15 427.980 30.7234   3
   3  -1  15 473.604 30.5719   2
  -4   1 -15 94.8907 10.3209   3
   4  -1  15 115.377 9.86916   2
  -5   1 -15 18.2408 4.64695   3
   5  -1  15 12.0248 4.87143   2
  -6   1 -15 6.04160 3.70171   3
   6  -1  15 5.51566 4.91714   2
  -7   1 -15 -2.0040 3.33148   3
   7  -1  15 0.72526 4.92399   2
   8   0 -15 88.3608 7.49761   3
  -8   0  15 76.0677 8.36465   1
   7   0 -15 140.708 11.0620   3
  -7   0  15 152.626 12.0248   1
   6   0 -15 6.74432 2.78484   3
  -6   0  15 2.52129 3.41452   1
   5   0 -15 359.637 23.7692   3
  -5   0  15 337.664 23.9298   1
   4   0 -15 63.2685 6.39861   3
  -4   0  15 58.2350 5.95681   1
   3   0 -15 1044.69 65.3818   3
  -3   0  15 984.036 65.5331   1
   2   0 -15 6.34876 2.05844   3
  -2   0  15 4.24383 2.46921   1
   1   0 -15 99.0791 7.02173   3
  -1   0  15 88.6863 7.52288   1
   0   0 -15 2.79666 1.68719   3
   0   0  15 5.50493 2.01529   2
  -1   0 -15 66.5696 5.83973   3
   1   0  15 65.1563 6.29630   2
  -2   0 -15 219.568 15.8709   3
   2   0  15 221.547 16.1635   2
  -3   0 -15 -3.0527 3.88045   3
   3   0  15 17.3129 4.52450   2
  -4   0 -15 127.274 12.8402   3
   4   0  15 181.659 13.0645   2
  -5   0 -15 34.5347 6.04254   3
   5   0  15 48.3018 6.90150   2
  -6   0 -15 426.447 30.8234   3
   6   0  15 484.039 31.9376   2
  -7   0 -15 71.5910 7.90633   3
   7   0  15 98.6885 10.2528   2
   8  -1 -15 39.0317 5.06247   3
  -8   1  15 31.6379 5.39391   1
   7  -1 -15 1.80887 2.96591   3
  -7   1  15 2.07018 3.33259   1
   6  -1 -15 84.8328 7.83502   3
  -6   1  15 92.3389 8.23088   1
   5  -1 -15 1.32588 3.08064   3
  -5   1  15 4.77504 2.88954   1
   4  -1 -15 204.903 14.8275   3
  -4   1  15 210.497 14.9392   1
   3  -1 -15 75.3713 5.99638   3
  -3   1  15 69.1995 6.35857   1
   2  -1 -15 53.3790 4.53365   3
  -2   1  15 51.3620 5.12485   1
   1  -1 -15 517.214 31.1107   3
  -1   1  15 443.792 30.7688   2
   0  -1 -15 354.845 21.8896   3
   0   1  15 306.636 21.5756   2
  -1  -1 -15 4.53040 2.67135   3
   1   1  15 5.39920 2.41037   2
  -2  -1 -15 -3.3474 3.15965   3
   2   1  15 2.88523 2.69155   2
  -3  -1 -15 1.62035 4.75373   3
   3   1  15 27.9399 4.73426   2
  -4  -1 -15 100.205 10.6611   3
   4   1  15 115.640 10.1932   2
  -5  -1 -15 254.154 20.1054   3
   5   1  15 287.148 20.2280   2
  -6  -1 -15 -0.7036 4.07468   3
   6   1  15 1.79607 4.76726   2
  -7  -1 -15 86.4579 8.81513   3
   7   1  15 92.7577 10.0898   2
   8  -2 -15 53.0837 6.23674   3
  -8   2  15 51.8999 6.66032   1
   7  -2 -15 97.9778 8.67998   3
  -7   2  15 97.1845 8.80171   1
   6  -2 -15 6.86151 3.35735   3
  -6   2  15 5.17658 3.24709   1
   5  -2 -15 54.6881 5.54106   3
  -5   2  15 49.4593 5.71240   1
   4  -2 -15 91.1761 7.16579   3
  -4   2  15 88.1011 7.57625   1
   3  -2 -15 373.147 24.9053   3
  -3   2  15 385.188 25.3532   1
   2  -2 -15 199.866 13.8459   3
  -2   2  15 209.881 14.2715   1
   1  -2 -15 9.04924 2.01964   3
  -1   2  15 11.9261 2.09825   2
   0  -2 -15 50.3013 4.73820   3
   0   2  15 48.4758 4.27692   2
  -1  -2 -15 84.8748 7.01438   3
   1   2  15 72.8586 6.26718   2
  -2  -2 -15 298.661 20.5668   3
   2   2  15 277.798 19.4585   2
  -3  -2 -15 176.507 16.2409   3
   3   2  15 217.296 14.7573   2
  -4  -2 -15 72.1610 8.88137   3
   4   2  15 66.8420 7.02824   2
  -5  -2 -15 118.252 11.8082   3
   5   2  15 134.811 11.1500   2
  -6  -2 -15 2.94062 4.55176   3
   6   2  15 3.00864 4.47590   2
  -8   3  15 97.8751 9.25083   1
   7  -3 -15 6.95249 3.30691   3
  -7   3  15 5.44788 3.40975   1
   6  -3 -15 329.054 23.7198   3
  -6   3  15 377.778 24.4402   1
   5  -3 -15 38.6754 4.31956   3
  -5   3  15 39.7439 5.02301   1
   4  -3 -15 535.618 35.4292   3
  -4   3  15 554.995 35.9021   1
   3  -3 -15 1.75170 1.82498   3
  -3   3  15 2.41227 2.16075   1
   2  -3 -15 32.4558 3.34555   3
   1  -3 -15 14.5628 2.42837   3
  -1   3  15 15.6822 2.35368   2
   0  -3 -15 109.068 7.81192   3
   0   3  15 93.4449 7.24383   2
  -1  -3 -15 35.2187 4.98806   3
   1   3  15 35.4990 3.88110   2
  -2  -3 -15 -3.5899 3.70516   3
   2   3  15 2.77139 2.35533   2
  -3  -3 -15 46.7640 7.87336   3
   3   3  15 74.7940 6.34320   2
  -4  -3 -15 137.742 13.8891   3
   4   3  15 173.879 12.2778   2
  -5  -3 -15 453.980 32.1329   3
   5   3  15 451.837 30.6364   2
  -6  -3 -15 20.8171 5.67580   3
   6   3  15 32.1525 5.10185   2
  -8   4  15 2.09376 3.32531   1
  -7   4  15 115.094 9.69674   1
   6  -4 -15 2.77165 2.79294   3
  -6   4  15 4.66325 3.18982   1
   5  -4 -15 101.321 7.94211   3
  -5   4  15 109.548 8.81466   1
   4  -4 -15 208.700 14.2634   3
  -4   4  15 208.254 14.8266   1
   3  -4 -15 93.3791 7.01182   3
   2  -4 -15 286.691 19.7646   3
  -2   4  15 309.814 19.7937   2
   1  -4 -15 619.688 37.4968   3
  -1   4  15 535.999 37.0750   2
   0  -4 -15 75.2283 6.47738   3
   0   4  15 66.6337 5.71354   2
  -1  -4 -15 -2.1910 3.17753   3
   1   4  15 3.14880 2.22821   2
  -2  -4 -15 19.4165 5.66716   3
   2   4  15 25.6531 3.49508   2
  -3  -4 -15 98.7340 12.2058   3
   3   4  15 157.618 10.4505   2
  -4  -4 -15 115.016 12.1719   3
   4   4  15 136.795 10.1228   2
  -5  -4 -15 -1.1149 4.87292   3
   5   4  15 0.54996 2.75144   2
  -6  -4 -15 47.3697 7.32220   3
   6   4  15 43.2218 5.41476   2
  -7   5  15 16.7893 4.02337   1
  -6   5  15 33.9785 5.04758   1
   5  -5 -15 151.813 10.7018   3
  -5   5  15 150.801 11.4894   1
   4  -5 -15 112.001 8.22472   3
   3  -5 -15 420.049 27.5072   3
   2  -5 -15 34.0970 3.97158   3
  -2   5  15 37.1404 3.99225   2
   1  -5 -15 153.995 10.8930   3
  -1   5  15 142.182 10.3438   2
   0  -5 -15 76.5345 6.96843   3
   0   5  15 68.4670 5.88485   2
  -1  -5 -15 127.175 11.1942   3
   1   5  15 131.072 9.48210   2
  -2  -5 -15 121.860 13.5060   3
   2   5  15 179.237 11.5874   2
  -3  -5 -15 36.3041 7.36110   3
   3   5  15 64.2181 5.53633   2
  -4  -5 -15 240.973 20.9520   3
   4   5  15 289.879 18.7484   2
  -5  -5 -15 12.2880 5.72564   3
   5   5  15 9.23640 3.18666   2
  -7   6  15 254.573 18.1969   1
  -6   6  15 0.89501 2.94991   1
  -5   6  15 84.3128 7.43299   1
   4  -6 -15 -0.1919 2.09145   3
   3  -6 -15 14.5666 2.80500   3
   2  -6 -15 110.744 8.22647   3
  -2   6  15 94.1582 7.77647   2
   1  -6 -15 120.278 9.02633   3
  -1   6  15 98.3335 8.02149   2
   0  -6 -15 1.52272 3.84990   3
   0   6  15 6.43628 2.24797   2
  -1  -6 -15 -0.6356 4.47305   3
   1   6  15 6.88239 2.50655   2
  -2  -6 -15 11.5858 5.91528   3
   2   6  15 34.4407 4.06708   2
  -3  -6 -15 155.570 14.7184   3
   3   6  15 177.867 12.2812   2
  -4  -6 -15 207.727 18.7411   3
   4   6  15 256.038 16.7953   2
   6  -7 -15 15.2367 3.71727   1
   3  -7 -15 42.0311 4.87088   3
  -3   7  15 42.8342 5.10978   2
   2  -7 -15 412.679 25.3030   3
  -2   7  15 340.001 24.5745   2
   1  -7 -15 131.132 10.5127   3
  -1   7  15 118.643 9.16903   2
   0  -7 -15 1.72466 4.18108   3
   0   7  15 4.67223 2.53238   2
  -1  -7 -15 1.74007 4.87880   3
   1   7  15 18.7033 3.03442   2
  -2  -7 -15 36.1505 7.48513   3
   2   7  15 69.0197 5.72977   2
  -3  -7 -15 12.6737 5.85643   3
   3   7  15 20.4828 3.62060   2
  -4  -7 -15 -3.1897 4.89076   3
  -3   8  15 11.8168 3.40065   2
   2  -8 -15 253.520 16.5425   3
  -2   8  15 201.029 15.2869   2
   1  -8 -15 72.8697 8.09161   3
  -1   8  15 74.1836 6.38386   2
   0  -8 -15 14.2551 5.53772   3
   0   8  15 22.6132 3.42908   2
  -1  -8 -15 60.2177 9.38502   3
   1   8  15 98.0909 7.27029   2
  -2  -8 -15 -10.679 4.55593   3
   2   8  15 2.57094 2.48028   2
  -3  -8 -15 240.185 19.3226   3
  -3   9  15 182.776 13.2428   2
  -2   9  15 25.3433 3.86819   2
  -1   9  15 2.86798 2.55585   2
   0  -9 -15 7.36916 4.99253   3
   0   9  15 17.4849 3.26124   2
  -1  -9 -15 19.1427 6.01275   3
   1   9  15 30.4249 4.18423   2
  -1 -11  16 153.138 13.2437   1
   0 -11  16 127.109 11.0115   1
   1 -11  16 144.496 11.8850   1
   2 -11  16 8.66882 3.54733   1
   3 -11  16 281.639 19.9880   1
   3  10 -16 11.5888 3.40194   3
  -3 -10  16 6.17947 5.16856   1
  -2 -10  16 74.8351 9.20763   1
  -1 -10  16 -2.7219 3.60834   1
   0 -10  16 3.15306 3.40176   1
   1 -10  16 8.89717 3.57966   1
   2 -10  16 9.95047 3.44456   1
   3 -10  16 16.7978 3.70016   1
   4 -10  16 3.89063 2.92708   1
  -5  10 -16 14.5384 3.00960   2
   5 -10  16 14.1513 2.26551   4
   4   9 -16 4.49368 2.65878   3
  -4  -9  16 4.03851 5.62825   1
   3   9 -16 12.9436 3.43118   3
  -3  -9  16 8.60193 5.32541   1
   2   9 -16 13.4123 3.59912   3
  -2  -9  16 9.02561 4.75542   1
   1   9 -16 142.184 10.7880   3
  -1  -9  16 116.934 11.2448   1
   0  -9  16 83.2729 8.24541   1
   1  -9  16 27.6121 4.63164   1
   2  -9  16 41.4971 5.25700   1
   3  -9  16 170.063 12.7220   1
  -4   9 -16 53.5999 4.79818   2
   4  -9  16 45.5608 4.14748   4
   4  -9  16 40.6923 5.08976   1
  -5   9 -16 92.7522 7.60020   2
   5  -9  16 96.8931 7.02309   4
   5   8 -16 8.59085 2.90106   3
  -5  -8  16 8.57854 6.72077   1
   4   8 -16 266.111 18.5778   3
  -4  -8  16 281.833 22.2125   1
   3   8 -16 146.434 11.3211   3
  -3  -8  16 159.633 14.3682   1
   2   8 -16 199.779 14.2891   3
  -2  -8  16 189.641 16.1725   1
   1   8 -16 306.462 21.1732   3
  -1  -8  16 296.679 21.9269   1
   0   8 -16 259.225 17.7592   3
   0  -8  16 259.787 18.8167   1
   1  -8  16 -0.3613 2.80303   1
   2  -8  16 327.778 22.5439   1
   3  -8  16 190.290 12.3508   4
   3  -8  16 176.241 13.2438   1
  -4   8 -16 472.011 30.2161   2
   4  -8  16 448.939 29.7212   4
  -5   8 -16 6.95207 2.69309   2
   5  -8  16 5.75123 2.20159   4
  -6   8 -16 61.8038 5.76812   2
   6  -8  16 53.6210 4.96182   4
   5   7 -16 3.14907 2.58645   3
  -5  -7  16 -3.0459 4.69452   1
   4   7 -16 13.9695 3.18029   3
  -4  -7  16 22.8012 6.92691   1
   3   7 -16 65.5526 6.31484   3
  -3  -7  16 69.1043 9.46390   1
   2   7 -16 3.93121 3.04284   3
  -2  -7  16 3.97796 4.60207   1
   1   7 -16 81.7274 7.60197   3
  -1  -7  16 80.8108 8.68964   1
   0   7 -16 0.28337 2.26441   3
   0  -7  16 -1.0165 2.87273   1
  -1   7 -16 39.0748 4.06793   3
   1  -7  16 32.7855 4.69010   1
   2  -7  16 39.5821 4.89767   1
  -3   7 -16 1.85174 2.16789   2
   3  -7  16 4.72623 1.90472   4
   3  -7  16 4.19300 2.53960   1
  -4   7 -16 97.7428 7.66875   2
   4  -7  16 96.4205 7.13624   4
  -5   7 -16 16.0295 3.18076   2
   5  -7  16 18.9083 2.72564   4
  -6   7 -16 5.25240 2.76421   2
   6  -7  16 3.40453 2.32386   4
   6   6 -16 28.7675 4.11401   3
  -6  -6  16 15.3974 5.41998   1
   5   6 -16 36.8892 4.40148   3
  -5  -6  16 37.0873 7.47804   1
   4   6 -16 14.1360 3.15495   3
  -4  -6  16 16.5919 6.28590   1
   3   6 -16 54.2038 5.77680   3
  -3  -6  16 64.5714 8.89619   1
   2   6 -16 53.5887 5.90576   3
  -2  -6  16 55.8156 7.89881   1
   1   6 -16 11.7498 3.22687   3
  -1  -6  16 19.1902 4.73256   1
   0   6 -16 -0.5146 1.97477   3
   0  -6  16 1.68267 3.06100   1
  -1   6 -16 387.332 25.2719   3
   1  -6  16 378.982 26.0774   1
  -2   6 -16 180.912 12.3378   3
   2  -6  16 165.783 12.8762   1
   3  -6  16 76.0676 5.84057   4
   4  -6  16 102.340 7.46898   4
   5  -6  16 8.52587 2.39202   4
   6  -6  16 117.477 9.81107   2
   6  -6  16 118.153 8.69975   4
   7  -6  16 24.3170 5.03647   2
   6   5 -16 25.9023 3.91245   3
  -6  -5  16 19.8665 5.23054   1
   5   5 -16 272.973 19.0254   3
  -5  -5  16 290.412 21.5587   1
   4   5 -16 133.779 10.4362   3
  -4  -5  16 156.106 13.9844   1
   3   5 -16 123.667 10.0796   3
  -3  -5  16 149.636 13.0189   1
   2   5 -16 271.738 19.6763   3
  -2  -5  16 297.057 21.6257   1
   1   5 -16 302.469 21.5498   3
  -1  -5  16 338.427 23.2552   1
   0   5 -16 5.29519 2.40123   3
   0  -5  16 4.29274 3.51474   1
  -1   5 -16 221.833 15.0321   3
   1  -5  16 220.201 15.9934   1
  -2   5 -16 91.7343 7.02051   3
   2  -5  16 82.1190 6.95756   2
   2  -5  16 77.2859 7.16952   1
  -3   5 -16 723.702 46.0944   3
   3  -5  16 691.721 45.8160   2
  -4   5 -16 26.5158 4.85144   3
   4  -5  16 38.8389 4.89699   2
   4  -5  16 36.3855 3.72120   4
   5  -5  16 107.841 9.02174   2
   5  -5  16 106.161 7.96556   4
   6  -5  16 132.301 11.0002   2
   6  -5  16 127.210 9.45607   4
   7  -5  16 7.91008 2.67509   4
   7  -5  16 4.65055 4.02090   2
   7   4 -16 1.33012 2.57349   3
  -7  -4  16 -0.2510 3.90860   1
   6   4 -16 8.57186 2.75336   3
  -6  -4  16 16.6341 4.76257   1
   5   4 -16 127.954 9.51842   3
  -5  -4  16 114.822 11.2748   1
   4   4 -16 6.79769 2.80478   3
  -4  -4  16 6.57278 4.63924   1
   3   4 -16 2.14168 2.79995   3
  -3  -4  16 3.90772 5.01082   1
   2   4 -16 127.782 10.7274   3
  -2  -4  16 139.650 12.4469   1
   1   4 -16 3.36257 2.36735   3
  -1  -4  16 -1.0507 3.84884   1
   0   4 -16 89.1252 6.92284   3
  -1   4 -16 366.882 24.7885   3
   1  -4  16 386.943 25.9030   1
  -2   4 -16 17.6949 3.16613   3
   2  -4  16 19.2264 3.70215   2
  -3   4 -16 131.429 10.0944   3
   3  -4  16 117.223 9.68080   2
  -4   4 -16 17.4653 4.70320   3
   4  -4  16 42.7025 5.16791   2
  -5   4 -16 1.24866 4.05114   3
   5  -4  16 3.32539 3.56574   2
   6  -4  16 348.781 23.6701   4
   6  -4  16 368.713 24.9947   2
   7  -4  16 23.2200 5.34379   2
   7  -4  16 21.7042 3.48861   4
   7   3 -16 67.9126 6.53525   3
  -7  -3  16 79.2111 7.91679   1
   6   3 -16 33.4934 4.35753   3
  -6  -3  16 28.7852 5.31502   1
   5   3 -16 42.4344 4.69193   3
  -5  -3  16 34.0406 6.04292   1
   4   3 -16 43.9050 4.96250   3
  -4  -3  16 40.1237 6.81621   1
   3   3 -16 5.71793 2.96636   3
  -3  -3  16 9.78237 4.65162   1
   2   3 -16 7.46009 2.98020   3
  -2  -3  16 7.71404 4.76900   1
   1   3 -16 20.8999 3.03487   3
   0   3 -16 828.064 57.0639   3
   0  -3  16 968.365 58.8486   1
  -1   3 -16 31.2030 3.63180   3
   1  -3  16 34.4911 5.19801   2
  -2   3 -16 221.994 14.7911   3
   2  -3  16 192.452 15.1828   2
  -3   3 -16 39.3045 5.32901   3
   3  -3  16 45.7768 5.94759   2
  -4   3 -16 6.05827 4.06172   3
   4  -3  16 10.0566 3.78121   2
  -5   3 -16 108.326 10.4297   3
   5  -3  16 116.274 10.0760   2
  -6   3 -16 48.1525 6.92788   3
   6  -3  16 64.9204 7.96313   2
   7  -3  16 226.173 17.8898   2
   7   2 -16 43.9335 5.01592   3
  -7  -2  16 38.8460 6.08423   1
   6   2 -16 236.059 16.6295   3
  -6  -2  16 237.543 17.5049   1
   5   2 -16 63.5844 6.21480   3
  -5  -2  16 71.3793 7.26546   1
   4   2 -16 36.7569 4.85639   3
  -4  -2  16 35.1342 5.75623   1
   3   2 -16 35.3024 5.09249   3
  -3  -2  16 26.1229 5.17912   1
   2   2 -16 146.660 11.1000   3
  -2  -2  16 159.006 12.7835   1
   1   2 -16 58.4400 5.28769   3
  -1  -2  16 70.8633 8.16764   1
  -1   2 -16 4.34531 2.21738   3
   1  -2  16 4.64618 3.61027   2
  -2   2 -16 814.813 49.7987   3
   2  -2  16 714.637 50.0611   2
  -3   2 -16 55.6113 6.53291   3
   3  -2  16 60.6177 6.97254   2
  -4   2 -16 58.9312 7.95747   3
   4  -2  16 88.0568 8.07660   2
  -5   2 -16 79.8563 9.14864   3
   5  -2  16 89.1049 9.08657   2
  -6   2 -16 10.4730 4.56426   3
   6  -2  16 6.76041 5.11174   2
   7  -2  16 0.42808 4.95522   2
   7   1 -16 50.6303 5.44137   3
  -7  -1  16 39.0505 6.10510   1
   6   1 -16 138.258 10.7298   3
  -6  -1  16 139.961 11.4259   1
   5   1 -16 8.41272 3.05142   3
  -5  -1  16 4.14382 3.19443   1
   4   1 -16 30.3056 4.68837   3
  -4  -1  16 26.9351 4.65140   1
   3   1 -16 89.5327 7.66846   3
  -3  -1  16 91.1990 8.17714   1
   2   1 -16 2.18011 2.00497   3
  -2  -1  16 1.11862 2.87845   1
   1   1 -16 28.6434 3.30481   3
   0   1 -16 743.139 47.8770   3
  -1   1 -16 27.1656 3.66331   3
   1  -1  16 30.0322 4.64142   2
  -2   1 -16 174.093 12.4805   3
   2  -1  16 168.120 13.3493   2
  -3   1 -16 20.5174 4.69154   3
   3  -1  16 38.2759 5.71163   2
  -4   1 -16 4.32325 4.60495   3
   4  -1  16 24.2784 5.27495   2
  -5   1 -16 338.235 26.8067   3
   5  -1  16 423.127 26.9854   2
  -6   1 -16 75.3651 8.97549   3
   6  -1  16 89.8159 9.96655   2
  -7   1 -16 7.71047 4.26211   3
   7  -1  16 5.12653 5.63843   2
   7   0 -16 17.2899 3.90717   3
  -7   0  16 15.2741 4.32725   1
   6   0 -16 79.0037 7.49214   3
  -6   0  16 80.8064 7.84679   1
   5   0 -16 42.2316 5.48531   3
  -5   0  16 40.1850 5.44491   1
   4   0 -16 4.30220 2.80188   3
  -4   0  16 9.30262 3.10942   1
   3   0 -16 94.7472 7.72482   3
  -3   0  16 103.067 8.32880   1
   2   0 -16 72.1232 5.72183   3
  -2   0  16 70.4220 6.48432   1
   1   0 -16 1005.51 64.3912   3
   0   0 -16 9.90253 2.23859   3
   0   0  16 7.03384 2.06104   2
  -1   0 -16 239.336 15.1436   3
   1   0  16 192.353 15.0313   2
  -2   0 -16 23.6172 3.99568   3
   2   0  16 22.9625 4.66952   2
  -3   0 -16 39.0769 5.97998   3
   3   0  16 50.2529 6.78977   2
  -4   0 -16 17.0195 5.68453   3
   4   0  16 54.1000 7.00295   2
  -5   0 -16 17.4862 5.95322   3
   5   0  16 35.7576 6.37518   2
  -6   0 -16 91.2700 10.4509   3
   6   0  16 119.435 11.2492   2
  -7   0 -16 45.7463 6.83081   3
   7  -1 -16 159.553 12.8144   3
  -7   1  16 172.108 13.0390   1
   6  -1 -16 8.79346 3.58118   3
  -6   1  16 5.29070 3.39941   1
   5  -1 -16 9.35756 3.22076   3
  -5   1  16 8.54156 3.19429   1
   4  -1 -16 7.86904 2.60350   3
  -4   1  16 2.79299 2.66530   1
   3  -1 -16 99.3891 7.49557   3
  -3   1  16 87.0443 7.68119   1
   2  -1 -16 105.309 7.53198   3
  -2   1  16 96.0831 7.95766   1
   1  -1 -16 55.1750 4.77681   3
   0  -1 -16 10.5863 2.27713   3
   0   1  16 11.2318 2.28115   2
  -1  -1 -16 446.439 27.1796   3
   1   1  16 375.025 26.8954   2
  -2  -1 -16 373.730 23.9856   3
   2   1  16 324.208 23.4857   2
  -3  -1 -16 10.8410 4.98447   3
   3   1  16 19.9331 4.29277   2
  -4  -1 -16 35.7785 7.51066   3
   4   1  16 80.9135 7.82651   2
  -5  -1 -16 26.0717 6.63043   3
   5   1  16 33.2190 6.17801   2
  -6  -1 -16 23.0739 6.35061   3
   6   1  16 31.3361 6.29540   2
   7  -2 -16 156.176 12.0784   3
  -7   2  16 155.661 12.3202   1
   6  -2 -16 67.8327 6.63216   3
  -6   2  16 63.8766 6.43700   1
   5  -2 -16 145.432 10.9324   3
  -5   2  16 148.430 11.2697   1
   4  -2 -16 70.4941 6.04379   3
  -4   2  16 56.8862 6.00531   1
   3  -2 -16 12.4353 2.39107   3
  -3   2  16 11.5467 2.95326   1
   2  -2 -16 0.72817 1.66073   3
   1  -2 -16 561.319 34.8212   3
  -1   2  16 511.412 34.4607   2
   0  -2 -16 128.292 9.09188   3
   0   2  16 116.580 8.65165   2
  -1  -2 -16 151.730 10.8095   3
   1   2  16 138.482 10.3330   2
  -2  -2 -16 2.38508 3.45513   3
   2   2  16 4.39451 2.71245   2
  -3  -2 -16 20.0342 5.71825   3
   3   2  16 34.9724 4.98027   2
  -4  -2 -16 246.423 22.5660   3
   4   2  16 340.848 21.3247   2
  -5  -2 -16 87.6790 11.0269   3
   5   2  16 105.408 9.15553   2
  -6  -2 -16 4.25229 5.46283   3
   6   2  16 16.2710 4.38025   2
   7  -3 -16 41.2344 5.24328   3
  -7   3  16 44.1710 5.83265   1
   6  -3 -16 13.2438 3.09910   3
  -6   3  16 14.7045 3.68469   1
   5  -3 -16 4.99342 2.58937   3
  -5   3  16 4.80026 2.79466   1
   4  -3 -16 188.929 13.1781   3
  -4   3  16 192.110 13.7148   1
   3  -3 -16 50.3389 4.47478   3
   2  -3 -16 682.496 44.0223   3
   1  -3 -16 37.7568 3.92840   3
  -1   3  16 39.9098 3.79476   2
   0  -3 -16 128.541 9.05345   3
   0   3  16 114.829 8.63498   2
  -1  -3 -16 0.84252 2.82479   3
   1   3  16 6.03432 2.28188   2
  -2  -3 -16 122.276 10.6151   3
   2   3  16 115.122 8.93904   2
  -3  -3 -16 5.90833 4.85048   3
   3   3  16 10.8492 2.96476   2
  -4  -3 -16 -6.6818 5.48848   3
   4   3  16 4.56203 3.15112   2
  -5  -3 -16 15.7482 7.15587   3
   5   3  16 44.8625 5.64679   2
  -7   4  16 0.93171 3.01376   1
   6  -4 -16 0.88737 2.36554   3
  -6   4  16 -1.7413 2.78791   1
   5  -4 -16 58.9123 5.28046   3
  -5   4  16 55.1601 5.91440   1
   4  -4 -16 28.1505 3.53013   3
   3  -4 -16 49.2375 4.52733   3
   2  -4 -16 252.576 16.9931   3
   1  -4 -16 30.1663 3.72856   3
  -1   4  16 26.5047 3.19746   2
   0  -4 -16 117.477 8.81882   3
   0   4  16 103.517 8.05546   2
  -1  -4 -16 589.966 34.4782   3
   1   4  16 456.877 33.1465   2
  -2  -4 -16 12.9940 4.83315   3
   2   4  16 18.8362 3.13638   2
  -3  -4 -16 19.6757 6.26815   3
   3   4  16 32.5447 4.21234   2
  -4  -4 -16 25.9232 7.28795   3
   4   4  16 34.5846 4.71529   2
  -5  -4 -16 49.7427 8.50605   3
   5   4  16 55.9649 6.09010   2
  -7   5  16 80.2385 7.59844   1
  -6   5  16 195.791 14.4449   1
   5  -5 -16 12.7642 2.78067   3
  -5   5  16 13.0155 3.40792   1
   4  -5 -16 10.4142 2.53304   3
   3  -5 -16 17.4341 2.80434   3
   2  -5 -16 169.662 11.2925   3
  -2   5  16 143.951 10.8928   2
   1  -5 -16 271.251 17.1676   3
  -1   5  16 230.296 16.6216   2
   0  -5 -16 24.6769 4.06299   3
   0   5  16 25.1544 3.32411   2
  -1  -5 -16 22.6025 4.89040   3
   1   5  16 36.8780 4.11938   2
  -2  -5 -16 40.9774 6.49940   3
   2   5  16 43.9709 4.48962   2
  -3  -5 -16 90.5859 12.3573   3
   3   5  16 150.735 10.1360   2
  -4  -5 -16 53.4909 9.14569   3
   4   5  16 72.6228 6.37686   2
  -6   6  16 1.13925 2.83368   1
   4  -6 -16 11.3369 2.65953   3
   3  -6 -16 193.247 13.5248   3
   2  -6 -16 13.2110 2.94317   3
  -2   6  16 8.40330 2.67121   2
   1  -6 -16 38.3391 4.81373   3
  -1   6  16 38.2889 4.17556   2
   0  -6 -16 29.9747 5.01420   3
   0   6  16 32.1956 3.81568   2
  -1  -6 -16 127.889 11.5263   3
   1   6  16 140.904 10.0469   2
  -2  -6 -16 -1.4549 4.85211   3
   2   6  16 4.16216 2.87976   2
  -3  -6 -16 -11.997 4.57630   3
   3   6  16 0.03504 2.56455   2
  -4  -6 -16 -0.4367 5.87458   3
   4   6  16 11.1353 3.01393   2
   3  -7 -16 249.040 17.2390   3
   2  -7 -16 23.2851 3.83125   3
  -2   7  16 21.0849 3.26381   2
   1  -7 -16 15.7640 4.15907   3
  -1   7  16 13.7473 2.93543   2
   0  -7 -16 474.144 30.5274   3
   0   7  16 426.866 29.2726   2
  -1  -7 -16 52.9689 7.65520   3
   1   7  16 49.5852 4.95894   2
  -2  -7 -16 -0.9350 5.50110   3
   2   7  16 11.7121 2.86806   2
  -3  -7 -16 6.08364 6.25874   3
   3   7  16 27.8794 4.09165   2
  -2   8  16 342.214 22.8727   2
   1  -8 -16 -3.4801 3.50618   3
  -1   8  16 2.76487 2.50830   2
   0  -8 -16 175.764 14.1022   3
   0   8  16 167.911 12.1969   2
  -1  -8 -16 22.7333 6.33058   3
   1   8  16 28.2952 4.14753   2
  -2  -8 -16 29.1795 7.10566   3
  -3   9  16 0.55187 2.81040   2
  -2   9  16 0.36369 2.73745   2
  -1   9  16 50.3281 5.05586   2
   0 -11  17 142.891 12.4378   1
   1 -11  17 43.1927 6.14291   1
   2 -11  17 78.6082 7.85804   1
  -2 -10  17 46.5925 8.18447   1
  -1 -10  17 -0.8496 4.05197   1
   0 -10  17 45.7713 6.54085   1
   1 -10  17 18.2653 4.16696   1
   2 -10  17 15.7666 3.86369   1
   3 -10  17 12.8841 3.70301   1
   3   9 -17 11.9722 3.58996   3
  -3  -9  17 12.8090 6.21183   1
   2   9 -17 5.40989 3.63030   3
  -2  -9  17 1.38634 5.19687   1
  -1  -9  17 29.9650 6.02937   1
   0  -9  17 3.32461 3.53480   1
   1  -9  17 90.5561 8.26418   1
   2  -9  17 131.174 10.7125   1
   3  -9  17 13.6149 3.56210   1
   4  -9  17 5.13367 2.09903   4
  -5   9 -17 272.477 18.0298   2
   5  -9  17 249.409 17.3076   4
   4   8 -17 151.944 11.8653   3
  -4  -8  17 171.820 15.7031   1
   3   8 -17 0.42476 2.98777   3
  -3  -8  17 -2.5043 5.03657   1
   2   8 -17 38.6604 5.66550   3
  -2  -8  17 42.5967 7.42488   1
   1   8 -17 221.886 15.7934   3
  -1  -8  17 213.250 17.3565   1
   0   8 -17 79.0425 6.46893   3
   0  -8  17 67.6364 7.85843   1
   1  -8  17 241.486 17.4765   1
   2  -8  17 76.3553 7.53217   1
   3  -8  17 98.8206 7.30959   4
   4  -8  17 121.400 8.70807   4
  -5   8 -17 36.7885 4.81748   2
   5  -8  17 42.7623 4.18619   4
   5   7 -17 63.1347 6.24056   3
  -5  -7  17 71.0498 10.0747   1
   4   7 -17 33.3284 4.76852   3
  -4  -7  17 36.8558 8.12673   1
   3   7 -17 32.4948 5.11759   3
  -3  -7  17 37.6558 7.47682   1
   2   7 -17 50.2589 6.03815   3
  -2  -7  17 45.9446 8.00842   1
   1   7 -17 15.8398 3.60450   3
  -1  -7  17 24.2362 5.28902   1
   0   7 -17 0.74431 2.49213   3
   0  -7  17 2.36929 3.47188   1
  -1   7 -17 6.02632 2.48980   3
   1  -7  17 3.06348 3.04719   1
   2  -7  17 2.74409 2.80378   1
   4  -7  17 0.05918 2.08286   4
   5  -7  17 22.2300 3.08963   4
   6  -7  17 44.2319 6.05485   2
   6  -7  17 45.7184 4.61553   4
   5   6 -17 24.5583 3.82165   3
  -5  -6  17 17.0029 6.03248   1
   4   6 -17 164.844 12.6444   3
  -4  -6  17 185.447 16.6335   1
   3   6 -17 -1.1911 2.87056   3
  -3  -6  17 -4.1330 4.91426   1
   2   6 -17 23.5250 4.33726   3
  -2  -6  17 17.0037 5.86831   1
   1   6 -17 4.36116 2.56140   3
  -1  -6  17 3.16281 4.41579   1
   0   6 -17 61.5193 5.45722   3
   0  -6  17 66.5270 7.66699   1
  -1   6 -17 208.686 14.1773   3
   1  -6  17 205.501 15.4051   1
  -2   6 -17 0.58840 2.46430   3
   3  -6  17 72.9231 6.75133   2
   4  -6  17 193.057 13.7201   4
   4  -6  17 211.786 14.7125   2
   5  -6  17 21.9708 4.55811   2
   5  -6  17 26.7519 3.34141   4
   6  -6  17 43.7832 6.52858   2
   6  -6  17 56.6494 5.20037   4
   6   5 -17 103.945 8.38099   3
  -6  -5  17 92.6199 9.97105   1
   5   5 -17 295.816 20.2599   3
  -5  -5  17 289.839 22.3739   1
   4   5 -17 21.9346 3.85019   3
  -4  -5  17 24.2357 6.25440   1
   3   5 -17 54.1666 6.18618   3
  -3  -5  17 57.3509 9.01381   1
   2   5 -17 195.905 15.3356   3
  -2  -5  17 241.220 17.8763   1
   1   5 -17 90.6264 7.71034   3
  -1  -5  17 107.189 10.2231   1
   0   5 -17 284.530 20.3941   3
   0  -5  17 343.103 22.5642   1
  -1   5 -17 81.7718 6.54974   3
   1  -5  17 77.9354 8.13053   1
  -2   5 -17 66.5179 5.93538   3
  -3   5 -17 148.383 11.0755   3
   3  -5  17 135.705 10.9240   2
   4  -5  17 0.99725 3.18204   2
   5  -5  17 633.377 41.8889   2
   6  -5  17 13.6172 4.81080   2
   6  -5  17 13.3419 3.08570   4
   6   4 -17 99.6080 8.27880   3
  -6  -4  17 99.5881 9.85611   1
   5   4 -17 0.42664 2.77195   3
  -5  -4  17 2.15852 3.95005   1
   4   4 -17 75.4351 7.06180   3
  -4  -4  17 73.6930 8.96581   1
   3   4 -17 86.5916 8.08480   3
  -3  -4  17 96.6473 10.6445   1
   2   4 -17 1.10938 2.72113   3
  -2  -4  17 -2.5570 4.31071   1
   1   4 -17 2.84833 2.16943   3
  -1  -4  17 0.09957 4.27164   1
  -1   4 -17 26.5771 3.54101   3
  -2   4 -17 89.9896 7.27801   3
   2  -4  17 84.1678 8.28828   2
  -3   4 -17 249.771 17.5734   3
   3  -4  17 249.592 17.7262   2
  -4   4 -17 -4.5044 3.65047   3
   4  -4  17 3.23927 3.77085   2
   5  -4  17 132.431 11.2959   2
   6  -4  17 164.758 13.5880   2
   6   3 -17 77.4068 7.09454   3
  -6  -3  17 77.3331 8.36767   1
   5   3 -17 252.123 17.6732   3
  -5  -3  17 248.597 18.7395   1
   4   3 -17 3.11878 3.09036   3
  -4  -3  17 5.90894 3.99422   1
   3   3 -17 8.40766 3.42153   3
  -3  -3  17 5.74235 4.20823   1
   2   3 -17 23.1578 3.55129   3
  -2  -3  17 22.4551 5.57927   1
   1   3 -17 5.29453 2.39445   3
  -1  -3  17 6.59943 4.61030   1
   0   3 -17 116.671 8.95638   3
   0  -3  17 135.866 11.3315   1
  -1   3 -17 33.7625 3.87111   3
  -2   3 -17 330.346 20.7007   3
   2  -3  17 271.145 21.0264   2
  -3   3 -17 26.5085 4.65759   3
   3  -3  17 29.4143 5.15825   2
  -4   3 -17 78.6223 8.34230   3
   4  -3  17 82.9567 8.64245   2
  -5   3 -17 55.7659 8.06938   3
   5  -3  17 89.6739 8.74452   2
   6  -3  17 7.95690 5.22992   2
   7   2 -17 141.187 11.0621   3
  -7  -2  17 139.388 11.8543   1
   6   2 -17 297.281 20.6159   3
  -6  -2  17 294.561 21.1847   1
   5   2 -17 1.26018 3.09542   3
  -5  -2  17 4.91709 3.74268   1
   4   2 -17 50.1959 5.80794   3
  -4  -2  17 47.6904 6.45017   1
   3   2 -17 65.6799 6.37830   3
  -3  -2  17 64.0473 7.35977   1
   2   2 -17 22.9629 3.41956   3
  -2  -2  17 21.6328 4.69678   1
   1   2 -17 160.621 11.4165   3
  -1  -2  17 165.269 13.3821   1
   0   2 -17 58.1290 5.05046   3
  -1   2 -17 3.46429 2.29549   3
  -2   2 -17 48.3784 5.20590   3
   2  -2  17 46.5410 6.95880   2
  -3   2 -17 21.5204 4.46458   3
   3  -2  17 30.4526 5.39431   2
  -4   2 -17 485.226 34.9844   3
   4  -2  17 551.404 35.1393   2
  -5   2 -17 -1.3326 4.57238   3
   5  -2  17 4.68788 4.81331   2
  -6   2 -17 149.175 13.6765   3
   6  -2  17 166.446 13.8034   2
   7   1 -17 130.375 10.6359   3
  -7  -1  17 130.094 11.0425   1
   6   1 -17 104.150 9.10690   3
  -6  -1  17 106.201 9.51105   1
   5   1 -17 43.0742 5.65881   3
  -5  -1  17 44.2312 5.74926   1
   4   1 -17 98.6230 9.17450   3
  -4  -1  17 127.269 9.79247   1
   3   1 -17 45.7745 4.76308   3
  -3  -1  17 36.6699 5.38969   1
   2   1 -17 30.5077 3.78629   3
  -2  -1  17 26.3000 4.37275   1
   1   1 -17 39.2155 4.10962   3
   0   1 -17 7.98127 2.12055   3
  -1   1 -17 99.8434 7.70772   3
   1  -1  17 99.3729 8.36030   2
  -2   1 -17 536.183 34.3835   3
   2  -1  17 498.982 34.8655   2
  -3   1 -17 -5.5751 3.25908   3
   3  -1  17 1.60742 4.22711   2
  -4   1 -17 141.653 13.6247   3
   4  -1  17 200.977 14.2968   2
  -5   1 -17 95.1895 10.4549   3
  -6   1 -17 5.67333 5.53784   3
   6  -1  17 14.9072 5.88063   2
   7   0 -17 160.066 12.7377   3
  -7   0  17 169.960 13.1655   1
   6   0 -17 141.722 11.5776   3
  -6   0  17 146.638 11.6065   1
   5   0 -17 19.9755 3.81821   3
  -5   0  17 17.0012 4.01192   1
   4   0 -17 14.4388 3.12184   3
  -4   0  17 15.2321 3.61940   1
   3   0 -17 6.82744 2.33260   3
  -3   0  17 6.24162 2.70850   1
   2   0 -17 8.49502 2.21555   3
  -2   0  17 11.1744 3.12667   1
   1   0 -17 23.6725 3.03895   3
   0   0 -17 109.459 8.29575   3
  -1   0 -17 624.399 37.0860   3
   1   0  17 510.185 36.9180   2
  -2   0 -17 8.07492 3.42562   3
   2   0  17 8.13396 3.42781   2
  -3   0 -17 76.7684 8.14694   3
   3   0  17 79.9568 8.43952   2
  -4   0 -17 75.6934 9.60164   3
   4   0  17 115.360 10.0229   2
  -5   0 -17 -6.4782 5.25943   3
   5   0  17 6.19562 4.78283   2
  -6   0 -17 -2.6726 5.39262   3
   6   0  17 -0.7028 4.60369   2
   7  -1 -17 117.787 10.6586   3
  -7   1  17 128.886 10.5844   1
   6  -1 -17 -0.9972 2.85016   3
  -6   1  17 -0.4244 3.08500   1
   5  -1 -17 70.2993 6.48537   3
  -5   1  17 71.1630 7.02016   1
   4  -1 -17 19.8591 3.14695   3
  -4   1  17 18.9097 3.64030   1
   3  -1 -17 0.29620 1.97192   3
  -3   1  17 1.58682 2.56568   1
   2  -1 -17 44.4145 4.31324   3
   1  -1 -17 49.4955 4.39261   3
   0  -1 -17 1.33416 2.01199   3
   0   1  17 5.19140 2.01852   2
  -1  -1 -17 32.2293 4.13211   3
   1   1  17 34.0747 3.93095   2
  -2  -1 -17 21.5639 4.12399   3
   2   1  17 14.2319 3.43113   2
  -3  -1 -17 277.264 18.9809   3
   3   1  17 237.620 17.9865   2
  -4  -1 -17 84.3904 10.5370   3
   4   1  17 121.527 9.83934   2
  -5  -1 -17 39.8976 8.35313   3
   5   1  17 58.9272 7.43957   2
  -6  -1 -17 48.4871 8.58515   3
   6   1  17 67.2570 8.10817   2
   7  -2 -17 131.261 10.3559   3
  -7   2  17 128.844 10.6613   1
   6  -2 -17 64.3451 6.31363   3
  -6   2  17 65.0799 6.71652   1
   5  -2 -17 138.399 10.4840   3
  -5   2  17 146.276 11.1000   1
   4  -2 -17 212.043 14.3387   3
  -4   2  17 199.491 14.6805   1
   3  -2 -17 149.576 10.6844   3
   2  -2 -17 31.2459 3.59428   3
   1  -2 -17 7.16338 2.09092   3
   0  -2 -17 93.6345 7.23965   3
   0   2  17 91.3200 7.04102   2
  -1  -2 -17 336.364 21.0163   3
   1   2  17 284.023 20.4601   2
  -2  -2 -17 17.3861 4.10347   3
   2   2  17 15.6197 3.13856   2
  -3  -2 -17 83.6881 8.92178   3
   3   2  17 82.2262 7.50482   2
  -4  -2 -17 63.5579 9.47004   3
   4   2  17 95.7405 8.21590   2
  -5  -2 -17 14.4057 7.05022   3
   5   2  17 28.1525 4.98295   2
   7  -3 -17 79.5572 7.08969   3
  -7   3  17 82.1635 7.52782   1
   6  -3 -17 110.031 8.71218   3
  -6   3  17 98.0758 9.02644   1
   5  -3 -17 22.9745 3.29799   3
  -5   3  17 19.0244 3.82856   1
   4  -3 -17 7.20198 2.42279   3
   3  -3 -17 7.45836 2.29112   3
   2  -3 -17 5.34489 2.21592   3
   1  -3 -17 81.5927 6.61599   3
   0  -3 -17 486.909 29.9483   3
   0   3  17 423.390 29.4430   2
  -1  -3 -17 72.9343 6.64814   3
   1   3  17 67.1214 5.94538   2
  -2  -3 -17 45.4540 5.89435   3
   2   3  17 29.4134 4.25489   2
  -3  -3 -17 36.3499 6.37852   3
   3   3  17 43.2088 5.17391   2
  -4  -3 -17 75.2490 10.7439   3
   4   3  17 98.8088 8.01330   2
  -5  -3 -17 0.72506 6.91157   3
   5   3  17 16.2810 3.87481   2
   6  -4 -17 34.6837 4.18269   3
  -6   4  17 29.8619 4.61251   1
   5  -4 -17 2.96425 2.51635   3
   4  -4 -17 7.01502 2.41487   3
   3  -4 -17 7.27322 2.42086   3
   2  -4 -17 19.9940 3.05189   3
   1  -4 -17 6.29969 2.43165   3
  -1   4  17 13.2085 2.38794   2
   0  -4 -17 96.7825 7.69469   3
   0   4  17 88.5865 7.08272   2
  -1  -4 -17 19.8315 4.14527   3
   1   4  17 28.7515 3.70546   2
  -2  -4 -17 95.1911 9.18439   3
   2   4  17 96.9890 7.84244   2
  -3  -4 -17 243.151 19.1833   3
   3   4  17 257.718 17.3834   2
  -4  -4 -17 -11.493 5.30422   3
   4   4  17 2.11830 2.94874   2
  -6   5  17 77.0981 7.17783   1
   5  -5 -17 162.213 11.5260   3
   4  -5 -17 193.394 13.6306   3
   3  -5 -17 29.3811 3.85149   3
   2  -5 -17 5.72879 2.38008   3
   1  -5 -17 15.5682 3.24985   3
  -1   5  17 14.6039 2.71104   2
   0  -5 -17 119.254 8.89567   3
   0   5  17 99.9228 7.90252   2
  -1  -5 -17 30.8545 4.93233   3
   1   5  17 37.8562 4.38712   2
  -2  -5 -17 8.74796 4.41955   3
   2   5  17 8.48977 2.93752   2
  -3  -5 -17 -3.6179 4.63074   3
   3   5  17 4.93248 3.08301   2
  -4  -5 -17 14.0893 7.04456   3
   4   5  17 35.3910 4.61303   2
   4  -6 -17 11.6231 3.01289   3
   3  -6 -17 16.4327 3.09226   3
   2  -6 -17 30.9796 4.39687   3
   1  -6 -17 132.013 9.56768   3
  -1   6  17 111.057 8.74922   2
   0  -6 -17 115.185 9.01476   3
   0   6  17 94.4328 7.71445   2
  -1  -6 -17 3.73856 3.80333   3
   1   6  17 12.5629 2.70280   2
  -2  -6 -17 -2.0482 4.22004   3
   2   6  17 6.11100 2.85767   2
  -3  -6 -17 98.5418 11.6590   3
   3   6  17 134.672 9.59891   2
   3  -7 -17 46.5032 5.37777   3
   2  -7 -17 1.73214 2.90996   3
   1  -7 -17 124.775 9.38888   3
  -1   7  17 99.1040 8.15852   2
   0  -7 -17 -6.0769 3.16515   3
   0   7  17 1.47220 2.43566   2
  -1  -7 -17 9.72464 4.51405   3
   1   7  17 13.8726 3.05942   2
  -2  -7 -17 440.045 28.7912   3
   2   7  17 379.383 26.4872   2
  -2   8  17 6.54660 2.70959   2
   1  -8 -17 -2.6149 3.41866   3
  -1   8  17 1.86354 2.39195   2
   0  -8 -17 80.9799 8.27501   3
   0   8  17 77.0053 6.70226   2
   0 -10  18 83.4411 8.98172   1
   1 -10  18 86.0784 8.71187   1
   2 -10  18 14.2111 4.03520   1
   2   9 -18 6.70343 4.03628   3
  -2  -9  18 2.65742 5.21901   1
  -1  -9  18 39.4752 6.80899   1
   0  -9  18 4.03476 3.98792   1
   1  -9  18 118.031 10.4729   1
   2  -9  18 7.36841 3.36511   1
   3   8 -18 6.63883 3.56370   3
  -3  -8  18 4.42179 5.88623   1
   2   8 -18 286.738 20.2570   3
  -2  -8  18 272.012 21.9599   1
   1   8 -18 36.4422 4.95481   3
  -1  -8  18 29.7908 6.46366   1
   0  -8  18 6.32073 4.46339   1
   1  -8  18 209.229 15.8344   1
   2  -8  18 31.9793 5.05146   1
   4  -8  18 3.01820 2.24143   4
   4   7 -18 91.0701 8.52130   3
  -4  -7  18 118.154 13.0771   1
   3   7 -18 19.0734 4.27848   3
  -3  -7  18 17.0453 6.92689   1
   2   7 -18 146.594 11.9060   3
  -2  -7  18 165.670 14.7102   1
   1   7 -18 111.429 9.23981   3
  -1  -7  18 132.644 12.1440   1
   0   7 -18 149.608 11.2204   3
   0  -7  18 172.252 13.6345   1
  -1   7 -18 8.01917 2.60718   3
   1  -7  18 9.76152 3.80998   1
   5  -7  18 -0.9440 3.51477   2
   5  -7  18 5.53872 2.47651   4
   5   6 -18 46.4632 5.39662   3
  -5  -6  18 33.3050 7.07078   1
   4   6 -18 55.5864 6.23024   3
  -4  -6  18 51.8256 9.01382   1
   3   6 -18 1.79799 3.54881   3
  -3  -6  18 2.90462 5.75408   1
   2   6 -18 315.258 23.2867   3
  -2  -6  18 377.947 26.0343   1
   1   6 -18 10.6048 2.79898   3
  -1  -6  18 12.4829 5.18624   1
   0   6 -18 98.9907 7.81581   3
   0  -6  18 112.475 10.5843   1
  -1   6 -18 3.76285 2.32606   3
   1  -6  18 3.28362 3.80131   1
  -2   6 -18 13.3996 3.07870   3
   4  -6  18 -1.1700 3.38287   2
   5  -6  18 7.40004 4.00353   2
   5   5 -18 29.7705 4.67122   3
  -5  -5  18 24.8833 5.84191   1
   4   5 -18 33.3240 5.27236   3
  -4  -5  18 33.0541 7.11990   1
   3   5 -18 585.105 42.2249   3
  -3  -5  18 712.954 45.3489   1
   2   5 -18 2.72212 2.93794   3
  -2  -5  18 6.90473 5.21625   1
   1   5 -18 8.87008 2.52025   3
  -1  -5  18 13.7118 5.37396   1
   0   5 -18 139.263 10.4203   3
   0  -5  18 157.810 12.9178   1
  -1   5 -18 16.1738 2.80303   3
  -2   5 -18 191.371 13.4607   3
  -3   5 -18 -0.3825 3.16877   3
   4  -5  18 154.139 12.3530   2
   5  -5  18 23.4853 5.38110   2
  -6  -4  18 20.7584 5.04924   1
   5   4 -18 32.2226 5.05510   3
  -5  -4  18 34.5927 6.12366   1
   4   4 -18 94.6375 8.81757   3
  -4  -4  18 106.225 10.8616   1
   3   4 -18 16.8397 3.66894   3
  -3  -4  18 10.0309 5.43399   1
   2   4 -18 65.7692 6.55232   3
  -2  -4  18 92.6383 10.5019   1
   1   4 -18 148.027 11.1683   3
  -1  -4  18 166.421 13.9531   1
   0   4 -18 1.65384 2.22679   3
  -1   4 -18 3.80739 2.26688   3
  -2   4 -18 31.7922 4.56164   3
  -3   4 -18 31.1987 4.61102   3
   3  -4  18 36.6689 5.82880   2
  -4   4 -18 27.3622 5.12044   3
   4  -4  18 36.4184 5.93120   2
   5  -4  18 47.9856 7.02221   2
   6  -4  18 28.5637 6.17769   2
   6   3 -18 20.8625 4.08775   3
  -6  -3  18 18.5327 4.83612   1
   5   3 -18 56.8645 6.26558   3
  -5  -3  18 52.4833 7.22602   1
   4   3 -18 25.1053 4.62938   3
  -4  -3  18 16.2572 4.93351   1
   3   3 -18 480.696 32.8820   3
  -3  -3  18 507.115 34.2880   1
   2   3 -18 4.17533 2.37112   3
  -2  -3  18 5.34672 4.72153   1
   1   3 -18 67.2814 5.96464   3
  -1  -3  18 87.1386 9.76370   1
   0   3 -18 25.9222 3.52979   3
  -1   3 -18 7.54349 2.69862   3
  -2   3 -18 241.321 16.7060   3
  -3   3 -18 48.2323 6.00137   3
   3  -3  18 48.4160 7.03895   2
  -4   3 -18 6.14647 4.41833   3
   4  -3  18 5.72299 4.67292   2
  -5   3 -18 14.6007 5.37063   3
   5  -3  18 38.4077 6.34774   2
   6  -3  18 11.1794 5.48475   2
   6   2 -18 113.416 9.83045   3
  -6  -2  18 119.266 10.5271   1
   5   2 -18 66.5738 7.19444   3
  -5  -2  18 74.0270 8.02390   1
   4   2 -18 644.402 43.1456   3
  -4  -2  18 661.782 43.5979   1
   3   2 -18 2.76344 2.61721   3
  -3  -2  18 6.81666 3.81496   1
   2   2 -18 8.83825 2.84709   3
  -2  -2  18 5.67192 3.84279   1
   1   2 -18 96.0209 7.43546   3
   0   2 -18 2.73212 2.18721   3
  -1   2 -18 133.782 9.77812   3
  -2   2 -18 6.44532 2.86845   3
   2  -2  18 7.86051 4.50104   2
  -3   2 -18 78.4138 7.74499   3
   3  -2  18 77.4184 8.81669   2
  -4   2 -18 -5.2044 3.80284   3
   4  -2  18 1.69413 4.99702   2
  -5   2 -18 52.3181 8.33712   3
   5  -2  18 101.076 9.75335   2
  -6   2 -18 137.635 12.8386   3
   6   1 -18 1.53360 3.27966   3
  -6  -1  18 2.80752 3.75955   1
   5   1 -18 130.149 11.0630   3
  -5  -1  18 154.231 11.9200   1
   4   1 -18 44.5576 5.00640   3
  -4  -1  18 33.5350 5.63551   1
   3   1 -18 40.1202 4.53720   3
  -3  -1  18 46.5469 5.83105   1
   2   1 -18 166.996 12.0525   3
  -2  -1  18 177.867 13.1443   1
   1   1 -18 99.2579 7.49024   3
   0   1 -18 32.5003 3.80237   3
  -1   1 -18 3.65753 2.64120   3
  -2   1 -18 36.5820 4.84647   3
   2  -1  18 37.7052 5.52075   2
  -3   1 -18 130.457 10.8068   3
   3  -1  18 133.549 11.5634   2
  -4   1 -18 107.616 10.8529   3
   4  -1  18 138.317 11.9752   2
  -5   1 -18 3.86095 5.26513   3
   5  -1  18 20.3600 6.16182   2
   6   0 -18 49.3733 5.98918   3
  -6   0  18 50.8078 6.27988   1
   5   0 -18 84.6472 7.51295   3
  -5   0  18 86.9595 8.26970   1
   4   0 -18 443.729 30.5066   3
  -4   0  18 480.488 31.1102   1
   3   0 -18 55.5955 5.22954   3
  -3   0  18 62.8288 6.34602   1
   2   0 -18 36.3123 4.03763   3
   1   0 -18 2.65596 2.05256   3
   0   0 -18 10.6668 2.48386   3
  -1   0 -18 203.389 13.3885   3
   1   0  18 172.378 13.2058   2
  -2   0 -18 149.461 10.9927   3
   2   0  18 130.573 10.9595   2
  -3   0 -18 126.132 10.5887   3
   3   0  18 123.387 10.6143   2
  -4   0 -18 0.45677 4.54435   3
   4   0  18 1.00041 4.52658   2
  -5   0 -18 -3.3440 5.05699   3
   5   0  18 9.10175 5.28776   2
   6  -1 -18 31.4503 4.63297   3
  -6   1  18 40.5718 5.61589   1
   5  -1 -18 391.519 27.8393   3
  -5   1  18 449.067 28.5326   1
   4  -1 -18 17.9621 3.04557   3
  -4   1  18 11.5673 3.39601   1
   3  -1 -18 8.42340 2.49706   3
   2  -1 -18 65.7473 5.54594   3
   1  -1 -18 12.4918 2.53280   3
   0  -1 -18 34.9035 4.04247   3
  -1  -1 -18 2.66626 2.59689   3
   1   1  18 5.07091 2.47809   2
  -2  -1 -18 29.5599 4.50138   3
   2   1  18 32.3401 4.63451   2
  -3  -1 -18 14.6513 4.53568   3
   3   1  18 23.1546 4.42585   2
  -4  -1 -18 178.846 14.8019   3
   4   1  18 183.225 14.0434   2
  -5  -1 -18 93.9566 11.5165   3
   5   1  18 123.204 9.97679   2
   6  -2 -18 65.0846 6.18780   3
  -6   2  18 71.7979 6.93265   1
   5  -2 -18 159.835 11.7543   3
  -5   2  18 167.734 12.2600   1
   4  -2 -18 77.1692 6.46404   3
   3  -2 -18 76.2220 6.14735   3
   2  -2 -18 271.664 18.2159   3
   1  -2 -18 122.593 8.97538   3
   0  -2 -18 1.00425 2.17689   3
  -1  -2 -18 74.8118 6.60534   3
   1   2  18 70.6672 6.15522   2
  -2  -2 -18 113.121 9.40476   3
   2   2  18 108.114 8.69164   2
  -3  -2 -18 172.941 13.4612   3
   3   2  18 162.376 12.3975   2
  -4  -2 -18 -6.9802 4.51312   3
   4   2  18 7.91548 3.62502   2
  -5  -2 -18 52.9354 9.34397   3
   5   2  18 98.0591 8.24689   2
   6  -3 -18 163.346 11.9670   3
  -6   3  18 166.403 12.6202   1
   5  -3 -18 226.146 15.6371   3
   4  -3 -18 175.837 12.3101   3
   3  -3 -18 -1.2694 1.87292   3
   2  -3 -18 21.8711 3.29299   3
   1  -3 -18 20.8576 3.29937   3
   0  -3 -18 81.7494 6.84008   3
   0   3  18 81.5233 6.55879   2
  -1  -3 -18 121.515 9.51448   3
   1   3  18 122.072 9.15950   2
  -2  -3 -18 101.304 8.34445   3
   2   3  18 80.6651 7.29504   2
  -3  -3 -18 64.9383 7.91423   3
   3   3  18 68.3350 6.52575   2
  -4  -3 -18 -5.7681 4.66267   3
   4   3  18 3.38312 3.04058   2
   6  -4 -18 92.6437 7.65227   3
   5  -4 -18 0.80786 2.25605   3
   4  -4 -18 4.88228 2.36425   3
   3  -4 -18 4.46655 2.36868   3
   2  -4 -18 28.1663 3.76521   3
   1  -4 -18 2.46462 2.38161   3
   0  -4 -18 3.01404 2.61919   3
   0   4  18 0.79935 2.31421   2
  -1  -4 -18 5.52903 3.12675   3
   1   4  18 6.56194 2.72822   2
  -2  -4 -18 31.4719 5.03571   3
   2   4  18 38.1390 4.78658   2
  -3  -4 -18 159.774 13.2521   3
   3   4  18 160.979 11.8399   2
   5  -5 -18 51.0912 5.13235   3
   4  -5 -18 15.8359 3.00902   3
   3  -5 -18 329.521 22.0685   3
   2  -5 -18 155.714 11.1905   3
   1  -5 -18 0.75721 2.66589   3
   0  -5 -18 52.5453 5.53366   3
   0   5  18 47.0605 4.82947   2
  -1  -5 -18 55.3285 6.03283   3
   1   5  18 51.0660 5.27416   2
  -2  -5 -18 81.6511 8.04470   3
   2   5  18 79.4948 6.98796   2
  -3  -5 -18 -6.8769 4.02974   3
   3   5  18 1.62739 2.59300   2
   4  -6 -18 9.26347 2.89803   3
   3  -6 -18 90.5909 7.48337   3
   2  -6 -18 21.5127 3.69845   3
   1  -6 -18 38.3356 4.81013   3
  -1   6  18 32.9907 4.26670   2
   0  -6 -18 61.5103 6.30121   3
   0   6  18 56.7025 5.38557   2
  -1  -6 -18 36.7159 5.58510   3
   1   6  18 39.9105 4.26070   2
  -2  -6 -18 126.798 10.8725   3
   2   6  18 120.135 9.37130   2
   2  -7 -18 2.17739 2.98629   3
   1  -7 -18 21.8937 4.02564   3
  -1   7  18 21.2446 3.21676   2
   0  -7 -18 13.4001 3.88453   3
   0   7  18 11.1349 2.97588   2
  -1  -9  19 10.7972 5.78313   1
   0  -9  19 15.1154 5.39282   1
   1  -9  19 9.39218 4.33345   1
   2   8 -19 9.32742 3.60896   3
  -2  -8  19 12.3211 6.15589   1
   1   8 -19 7.04050 2.95752   3
  -1  -8  19 8.37870 5.33100   1
   0  -8  19 140.524 12.7456   1
   1  -8  19 149.197 12.5390   1
   3   7 -19 132.491 11.3670   3
  -3  -7  19 132.352 14.2341   1
   2   7 -19 118.200 10.1419   3
  -2  -7  19 146.176 13.7132   1
   1   7 -19 1.46318 2.58034   3
  -1  -7  19 -1.1425 4.65603   1
   0   7 -19 237.940 17.3707   3
   0  -7  19 292.950 20.2817   1
  -1   7 -19 89.8601 7.30902   3
   4   6 -19 0.94881 3.35176   3
  -4  -6  19 3.69611 5.55460   1
   3   6 -19 12.7331 3.96628   3
  -3  -6  19 9.64114 6.78598   1
   2   6 -19 6.50928 3.17639   3
  -2  -6  19 5.82593 5.74868   1
   1   6 -19 16.9586 3.73330   3
  -1  -6  19 16.2789 6.01673   1
   0   6 -19 253.466 17.8641   3
   0  -6  19 282.449 20.4626   1
  -1   6 -19 1.01312 2.25539   3
  -2   6 -19 194.018 13.7756   3
   4   5 -19 57.7685 6.79861   3
  -4  -5  19 62.9279 8.82005   1
   3   5 -19 -0.2585 3.07735   3
  -3  -5  19 0.22611 5.00612   1
   2   5 -19 6.47714 2.98489   3
  -2  -5  19 9.34926 6.16868   1
   1   5 -19 390.836 28.5558   3
  -1  -5  19 521.532 31.9395   1
   0   5 -19 91.5449 7.36093   3
  -2   5 -19 107.074 8.66768   3
  -3   5 -19 -1.2288 3.17921   3
   4  -5  19 140.695 12.3453   2
   5  -5  19 65.5606 8.45339   2
   5   4 -19 69.4890 7.44407   3
  -5  -4  19 74.8907 8.52777   1
   4   4 -19 62.7106 7.13840   3
  -4  -4  19 57.5624 8.16836   1
   3   4 -19 70.5031 6.83369   3
  -3  -4  19 72.2215 9.24917   1
   2   4 -19 28.3282 4.15161   3
  -2  -4  19 30.2332 6.49002   1
   1   4 -19 82.3766 7.10138   3
  -1  -4  19 107.132 11.0736   1
   0   4 -19 37.2316 4.25714   3
  -1   4 -19 503.143 33.0251   3
  -2   4 -19 0.57192 2.84066   3
  -3   4 -19 37.8315 5.52659   3
  -4   4 -19 75.0220 8.28883   3
   4  -4  19 95.1635 9.60345   2
   5  -4  19 -0.9782 4.90728   2
   5   3 -19 3.76071 3.50874   3
  -5  -3  19 5.08433 4.09486   1
   4   3 -19 21.5954 4.22644   3
  -4  -3  19 17.7941 4.90717   1
   3   3 -19 9.76854 3.18042   3
  -3  -3  19 7.66798 4.46368   1
   2   3 -19 5.83630 3.00222   3
  -2  -3  19 4.46061 4.42901   1
   1   3 -19 570.381 37.1673   3
   0   3 -19 4.81803 2.47419   3
  -1   3 -19 246.705 16.8183   3
  -2   3 -19 48.0236 5.25289   3
  -3   3 -19 34.1512 4.90571   3
   3  -3  19 32.1879 6.50613   2
  -4   3 -19 263.003 20.4570   3
   4  -3  19 319.264 21.5310   2
  -5   3 -19 61.1588 8.31700   3
   5  -3  19 106.705 10.0220   2
   5   2 -19 32.5382 5.04991   3
  -5  -2  19 39.5227 5.94118   1
   4   2 -19 18.6633 3.63844   3
  -4  -2  19 23.3583 4.75551   1
   3   2 -19 43.4740 4.76596   3
  -3  -2  19 41.4775 6.31255   1
   2   2 -19 736.866 47.7431   3
   1   2 -19 14.4795 2.84205   3
   0   2 -19 93.0019 7.29652   3
  -1   2 -19 148.380 10.8178   3
  -2   2 -19 15.5529 3.56657   3
  -3   2 -19 99.4512 8.99855   3
   3  -2  19 115.601 10.6408   2
  -4   2 -19 37.7121 6.01246   3
   4  -2  19 61.1553 8.33185   2
  -5   2 -19 75.8084 9.28954   3
   5  -2  19 124.438 10.8712   2
   5   1 -19 14.3418 3.40222   3
  -5  -1  19 14.2487 4.31921   1
   4   1 -19 43.8435 5.01808   3
  -4  -1  19 44.3172 5.89497   1
   3   1 -19 54.0155 5.35791   3
  -3  -1  19 58.0905 6.73181   1
   2   1 -19 6.84773 2.48201   3
   1   1 -19 39.3321 4.27890   3
   0   1 -19 337.504 22.5697   3
  -1   1 -19 156.921 11.4411   3
  -2   1 -19 -2.5059 2.68695   3
   2  -1  19 5.47203 3.39712   2
  -3   1 -19 73.8453 7.65958   3
   3  -1  19 77.1605 8.66130   2
  -4   1 -19 25.3666 5.38740   3
   4  -1  19 28.7686 6.22274   2
  -5   1 -19 11.9824 5.46892   3
   5  -1  19 30.3223 6.13260   2
   6   0 -19 21.4198 3.90548   3
   5   0 -19 22.6061 3.62775   3
  -5   0  19 21.0707 4.34595   1
   4   0 -19 15.6140 3.54388   3
  -4   0  19 20.4898 4.19580   1
   3   0 -19 5.85736 2.43592   3
   2   0 -19 599.048 38.8904   3
   1   0 -19 56.0165 5.03698   3
   0   0 -19 112.643 8.52214   3
  -1   0 -19 13.4776 3.03434   3
  -2   0 -19 53.3816 5.75635   3
   2   0  19 51.2774 6.13896   2
  -3   0 -19 306.450 20.0968   3
   3   0  19 256.289 19.7798   2
  -4   0 -19 136.506 11.6064   3
   4   0  19 124.910 11.0307   2
   5  -1 -19 86.5396 7.44167   3
  -5   1  19 76.6735 7.67591   1
   4  -1 -19 22.0624 3.36760   3
   3  -1 -19 651.962 42.3519   3
   2  -1 -19 3.77336 2.20268   3
   1  -1 -19 114.783 8.62239   3
   0  -1 -19 49.7168 4.91880   3
  -1  -1 -19 106.148 8.41484   3
  -2  -1 -19 40.1608 5.12184   3
   2   1  19 37.8745 4.83105   2
  -3  -1 -19 39.3329 6.05369   3
   3   1  19 49.4035 5.93267   2
  -4  -1 -19 36.4532 6.18736   3
   4   1  19 41.6477 6.01458   2
   5  -2 -19 11.7649 2.84407   3
   4  -2 -19 51.1828 5.13737   3
   3  -2 -19 97.0203 7.60736   3
   2  -2 -19 35.3281 4.13728   3
   1  -2 -19 86.5304 7.01235   3
   0  -2 -19 318.362 21.2908   3
  -1  -2 -19 31.0893 4.35192   3
   1   2  19 33.8389 4.26518   2
  -2  -2 -19 27.5945 4.64610   3
   2   2  19 37.8904 4.74242   2
  -3  -2 -19 95.7948 8.94614   3
   3   2  19 91.6127 8.12610   2
  -4  -2 -19 26.2790 6.07730   3
   4   2  19 43.4240 5.25342   2
   5  -3 -19 26.1471 4.03486   3
   4  -3 -19 43.6334 4.70581   3
   3  -3 -19 390.271 25.8774   3
   2  -3 -19 157.276 11.2348   3
   1  -3 -19 23.1660 3.66958   3
   0  -3 -19 4.15634 2.54324   3
  -1  -3 -19 85.0853 7.36786   3
   1   3  19 85.5154 6.98645   2
  -2  -3 -19 182.763 13.4154   3
   2   3  19 176.531 12.8922   2
  -3  -3 -19 124.781 10.6470   3
   3   3  19 122.462 9.67865   2
   5  -4 -19 6.86067 2.64654   3
   4  -4 -19 252.421 17.2933   3
   3  -4 -19 5.54518 2.53061   3
   2  -4 -19 29.5165 3.87487   3
   1  -4 -19 1.69722 2.49044   3
   0  -4 -19 121.277 9.43741   3
  -1  -4 -19 -5.0565 2.62953   3
   1   4  19 0.86323 2.73030   2
  -2  -4 -19 3.48330 3.29367   3
   2   4  19 12.3502 3.15364   2
   4  -5 -19 180.462 12.7951   3
   3  -5 -19 25.6839 3.95606   3
   2  -5 -19 36.4106 4.50270   3
   1  -5 -19 551.147 36.1496   3
   0  -5 -19 125.939 9.47853   3
   0   5  19 114.891 8.91569   2
  -1  -5 -19 19.7468 3.98532   3
   1   5  19 22.0193 3.54933   2
   2  -6 -19 11.2698 3.19834   3
   1  -6 -19 124.185 9.68326   3
   0  -6 -19 45.6443 5.18831   3
   0   6  19 41.3501 4.61416   2
   0  -8  20 33.8072 6.90889   1
   2   7 -20 114.758 9.67283   3
  -2  -7  20 147.118 13.7808   1
   1   7 -20 62.1889 5.78156   3
  -1  -7  20 71.8236 9.68339   1
   0   7 -20 78.6931 6.79963   3
   0  -7  20 82.9264 10.0339   1
   3   6 -20 19.1241 3.94092   3
  -3  -6  20 23.0753 7.03403   1
   2   6 -20 13.6777 3.20694   3
  -2  -6  20 12.6796 6.56426   1
   1   6 -20 4.49512 2.81454   3
  -1  -6  20 5.71905 5.32985   1
   0   6 -20 4.57876 2.50995   3
  -1   6 -20 3.53619 2.72773   3
  -2   6 -20 89.1225 7.61493   3
   3   5 -20 79.9937 7.26754   3
  -3  -5  20 74.1011 10.3412   1
   2   5 -20 84.8219 7.47053   3
  -2  -5  20 101.095 11.7099   1
   1   5 -20 13.8682 2.95623   3
   0   5 -20 5.35102 2.51253   3
  -1   5 -20 225.374 15.7501   3
  -2   5 -20 154.502 11.4352   3
  -3   5 -20 116.897 9.66878   3
   4   4 -20 200.741 15.8461   3
  -4  -4  20 240.380 17.5079   1
   3   4 -20 49.5241 5.57346   3
  -3  -4  20 63.1785 8.72263   1
   2   4 -20 88.3719 7.69716   3
  -2  -4  20 103.874 10.8218   1
   1   4 -20 73.9506 6.42838   3
   0   4 -20 1.66888 2.47319   3
  -1   4 -20 130.786 9.74678   3
  -2   4 -20 17.8197 3.65390   3
  -3   4 -20 617.854 40.6460   3
  -4   4 -20 3.48783 3.94726   3
   4   3 -20 12.0834 3.35030   3
  -4  -3  20 14.7699 4.66705   1
   3   3 -20 8.33247 2.86337   3
  -3  -3  20 12.7879 4.74055   1
   2   3 -20 2.54921 2.46399   3
   1   3 -20 4.93321 2.65536   3
   0   3 -20 24.5011 3.62661   3
  -1   3 -20 268.046 18.2607   3
  -2   3 -20 10.6739 3.16070   3
  -3   3 -20 315.054 21.7827   3
  -4   3 -20 95.5249 9.35055   3
   4  -3  20 123.983 11.2517   2
   4   2 -20 48.1948 5.25263   3
  -4  -2  20 52.0008 7.05616   1
   3   2 -20 49.8937 5.34608   3
   2   2 -20 5.84102 2.69755   3
   1   2 -20 17.3864 3.15863   3
   0   2 -20 478.734 31.5196   3
  -1   2 -20 60.7044 5.97661   3
  -2   2 -20 137.904 10.5662   3
  -3   2 -20 80.9862 7.67698   3
  -4   2 -20 -1.4955 3.97597   3
   4  -2  20 3.74732 4.84040   2
  -5  -1  20 126.067 10.9372   1
   4   1 -20 13.6745 3.25091   3
  -4  -1  20 10.9207 4.07984   1
   3   1 -20 19.1848 3.17749   3
   2   1 -20 31.8628 4.16703   3
   1   1 -20 3.60132 2.29187   3
   0   1 -20 10.1379 2.81458   3
  -1   1 -20 2.75215 2.79377   3
  -2   1 -20 326.681 22.3464   3
  -3   1 -20 26.6163 4.80456   3
   3  -1  20 27.9953 4.89959   2
  -4   1 -20 38.2305 5.72980   3
   4  -1  20 45.2464 6.86490   2
   5   0 -20 128.337 10.4223   3
  -5   0  20 147.762 11.4031   1
   4   0 -20 40.5585 4.71255   3
   3   0 -20 1.87417 2.44489   3
   2   0 -20 4.73068 2.35293   3
   1   0 -20 27.8710 3.96418   3
   0   0 -20 498.824 32.7885   3
  -1   0 -20 33.0543 4.46480   3
  -2   0 -20 199.806 14.5375   3
  -3   0 -20 132.726 10.1154   3
   3   0  20 97.7943 9.57864   2
  -4   0 -20 49.7933 6.97047   3
   4  -1 -20 21.1995 3.33715   3
   3  -1 -20 17.9773 3.05152   3
   2  -1 -20 16.9209 2.94128   3
   1  -1 -20 353.119 23.4485   3
   0  -1 -20 7.73731 2.76257   3
  -1  -1 -20 101.144 8.20532   3
  -2  -1 -20 35.4246 4.98584   3
   2   1  20 33.5301 4.89832   2
  -3  -1 -20 61.8333 6.79657   3
   3   1  20 50.6255 5.95093   2
   4  -2 -20 2.38182 2.45417   3
   3  -2 -20 10.1052 2.53213   3
   2  -2 -20 23.1678 3.59545   3
   1  -2 -20 15.0087 2.99018   3
   0  -2 -20 6.58365 2.69135   3
  -1  -2 -20 143.325 10.7869   3
  -2  -2 -20 178.276 12.7845   3
   2   2  20 161.193 12.1919   2
   3   2  20 5.63469 3.29708   2
   4  -3 -20 1.01723 2.16868   3
   3  -3 -20 -0.8655 2.34401   3
   2  -3 -20 3.15803 2.58569   3
   1  -3 -20 371.132 24.6509   3
   0  -3 -20 87.2260 7.37603   3
  -1  -3 -20 99.2760 8.24960   3
  -2  -3 -20 7.68278 3.45165   3
   2   3  20 14.4421 3.40377   2
   3  -4 -20 14.5496 3.15832   3
   2  -4 -20 218.698 15.0875   3
   1  -4 -20 4.49890 2.56326   3
   0  -4 -20 33.4123 4.31762   3
  -1  -4 -20 10.4181 3.34805   3
   1   4  20 14.9015 3.22235   2
   1   6 -21 15.0764 3.13152   3
   0   6 -21 4.38995 2.61938   3
  -1   6 -21 6.29444 2.75314   3
   2   5 -21 50.4644 5.14279   3
   1   5 -21 60.1552 5.74504   3
   0   5 -21 14.9445 3.03691   3
  -1   5 -21 72.3057 6.38675   3
  -2   5 -21 10.6893 3.15137   3
  -3  -4  21 3.58931 4.48460   1
   2   4 -21 238.088 16.4615   3
   1   4 -21 8.65535 2.70000   3
   0   4 -21 45.9563 4.80211   3
  -1   4 -21 3.82547 2.77812   3
  -2   4 -21 31.5011 4.43786   3
  -3   4 -21 25.1040 4.28243   3
   3   3 -21 49.6457 5.16157   3
   2   3 -21 49.3055 5.07935   3
   1   3 -21 21.8176 3.47654   3
   0   3 -21 4.19076 2.73483   3
  -1   3 -21 31.8493 4.65406   3
  -2   3 -21 45.8882 5.36726   3
  -3   3 -21 74.3407 7.12406   3
   3   2 -21 9.72042 2.77960   3
   2   2 -21 30.0637 4.31839   3
   1   2 -21 1.65127 2.40617   3
   0   2 -21 61.0585 5.69447   3
  -1   2 -21 47.0552 5.28630   3
  -2   2 -21 100.708 8.32842   3
  -3   2 -21 64.9186 6.86882   3
   3   1 -21 121.308 9.26709   3
   2   1 -21 2.59134 2.61089   3
   1   1 -21 15.0837 3.17069   3
   0   1 -21 1.89766 2.62354   3
  -1   1 -21 1.79385 2.61468   3
  -2   1 -21 9.24290 3.22695   3
  -3   1 -21 23.3269 4.38335   3
   3   0 -21 129.875 9.61046   3
   2   0 -21 80.0966 6.59902   3
   1   0 -21 11.4299 2.85126   3
   0   0 -21 85.8147 7.16487   3
  -1   0 -21 38.3571 4.78572   3
  -2   0 -21 255.652 17.8382   3
   3  -1 -21 4.60433 2.44565   3
   2  -1 -21 4.68315 2.70638   3
   1  -1 -21 61.2490 5.70031   3
   0  -1 -21 41.8403 4.58395   3
  -1  -1 -21 134.807 10.3540   3
  -2  -1 -21 0.45871 3.13867   3
   3  -2 -21 17.5233 3.24228   3
   2  -2 -21 1.38155 2.40589   3
   1  -2 -21 0.39776 2.44042   3
   0  -2 -21 -0.5495 2.29070   3
  -1  -2 -21 12.9239 3.13284   3
   1  -3 -21 76.5108 6.69417   3
   1   3 -22 101.120 8.04056   3
   0   3 -22 0.78920 2.56184   3
   1   2 -22 142.763 10.6082   3
   0   2 -22 45.7194 4.94262   3
  -1   2 -22 11.4080 3.07194   3
   0   1 -22 32.4198 4.61010   3
   0   0   0    0.00    0.00   0
 _exptl_absorpt_process_details 'SADABS 2014/5'
 _exptl_absorpt_correction_type   numerical
 _exptl_absorpt_correction_T_max  0.5041
 _exptl_absorpt_correction_T_min  0.0432
 _exptl_special_details
)
 The following wavelength and cell were deduced by SADABS from the
 direction cosines etc. They are given here for emergency use only:
 CELL 0.71089    7.178    9.937   14.421   96.767   91.921  100.110
)
;
_shelx_hkl_checksum              97222
_shelx_res_file
;
    sr7v4te12o41_P-1.res created by SHELXL-2014/7
TITL sad in P-1
CELL 0.71073   7.17720   9.93140  14.41160  96.7621  91.9467 100.1115
ZERR    1.00   0.00050   0.00060   0.00090   0.0012   0.0012   0.0012
LATT 1
SFAC O  V  Sr Te
UNIT 41 4  7  12
LIST 4 ! automatically inserted. Change 6 to 4 for CHECKCIF!!
rem Sr7O7 and V4Te12O36 (VTe3O9)
L.S. 9
ACTA
CONF
REM conn 15
REM conn 9 Sr4
REM conn 4 $V $Te
REM omit 0 -1 2
BOND
FMAP -2
PLAN 50
REM ISOR .01
REM SIMU .01
REM DELU .01
SIZE 0.05 0.22 0.3
TEMP -173.
SHEL .73 110.
REM WGHT 0.050000 6.000000
WGHT    0.040200    1.889500
FVAR       0.13802
SR1   3    0.500000    0.500000    0.500000    10.50000    0.00447    0.01524 =
         0.00801    0.00447    0.00031    0.00254
SR2   3    0.401809    0.467506    0.762613    11.00000    0.00457    0.01004 =
         0.00505    0.00173    0.00038    0.00160
SR3   3    0.228031    0.406717    1.020256    11.00000    0.00297    0.01069 =
         0.00501    0.00147   -0.00041    0.00185
SR4   3    0.136878    0.744312    1.196486    11.00000    0.00396    0.01097 =
         0.00624    0.00147   -0.00039    0.00231
V1    2    0.959100    0.971515    0.617978    11.00000    0.00632    0.01081 =
         0.00654    0.00109    0.00088    0.00091
V2    2    0.780061    0.907679    0.892001    11.00000    0.00513    0.01042 =
         0.00750    0.00175   -0.00008    0.00240
TE1   4    0.478480    0.818690    0.663211    11.00000    0.00529    0.01079 =
         0.00840    0.00180   -0.00036    0.00228
TE2   4    0.493085    0.180669    0.597279    11.00000    0.00470    0.01073 =
         0.00916    0.00153   -0.00106    0.00179
TE3   4    0.341519    0.133489    0.848986    11.00000    0.00410    0.00919 =
         0.00806    0.00085   -0.00129    0.00169
TE4   4    0.306085    0.737645    0.953874    11.00000    0.00366    0.00928 =
         0.00600    0.00160    0.00014    0.00200
TE5   4    0.057940    0.372085    1.248699    11.00000    0.00373    0.01011 =
         0.00516    0.00192   -0.00060    0.00190
TE6   4    0.038821    0.640120    1.443376    11.00000    0.00472    0.01094 =
         0.00544    0.00098   -0.00066    0.00183
O1    1    1.000000    1.000000    0.500000    10.50000    0.02487    0.05650 =
         0.01181    0.01045    0.00167    0.00698
O2    1    1.061272    0.845762    0.642969    11.00000    0.01789    0.02113 =
         0.02988    0.01380    0.00671    0.00755
O3    1    1.053236    1.109450    0.689974    11.00000    0.00740    0.02365 =
         0.02592   -0.01182   -0.00054    0.00121
O4    1    0.705696    0.932879    0.633531    11.00000    0.00751    0.02126 =
         0.02189    0.01052    0.00117    0.00013
O5    1    0.901449    0.770260    0.854686    11.00000    0.00947    0.01711 =
         0.00793   -0.00002    0.00128    0.00697
O6    1    0.709217    0.872522    1.001102    11.00000    0.01127    0.02046 =
         0.01362    0.00018    0.00408    0.00375
O7    1    0.916198    1.059513    0.892680    11.00000    0.01289    0.01539 =
         0.02621    0.00715    0.00147    0.00089
O8    1    0.584108    0.895533    0.820194    11.00000    0.01149    0.02771 =
         0.01858    0.00562   -0.00383    0.00893
O9    1    0.404377    0.767320    0.531962    11.00000    0.01583    0.02242 =
         0.00359   -0.00118   -0.00006    0.00286
O10   1    0.557104    0.653780    0.671690    11.00000    0.01139    0.01325 =
         0.01517    0.00594    0.00398    0.00388
O11   1    0.373092    0.329362    0.601686    11.00000    0.01109    0.01179 =
         0.01251    0.00156    0.00062    0.00733
O12   1    0.486942    0.189613    0.738184    11.00000    0.00942    0.02018 =
         0.00359    0.00199    0.00017    0.00124
O13   1    0.231703    0.290184    0.856725    11.00000    0.00497    0.00915 =
         0.00728    0.00128   -0.00149    0.00215
O14   1    0.442157    0.595363    0.931740    11.00000    0.00629    0.00936 =
         0.00515    0.00026   -0.00050    0.00330
O15   1    0.177693    0.633428    0.815480    11.00000    0.00475    0.01496 =
         0.01236   -0.00147   -0.00288    0.00494
O16   1    0.111991    0.639842    1.013829    11.00000    0.00424    0.01150 =
         0.00814    0.00266    0.00150    0.00077
O17   1    0.418254    0.782315    1.091835    11.00000    0.00172    0.01417 =
         0.01015   -0.00015   -0.00102   -0.00105
O18   1    0.216310    0.504195    1.192327    11.00000    0.00627    0.01447 =
         0.00947    0.00189    0.00227    0.00082
O19   1    0.251640    0.726042    1.366331    11.00000    0.00659    0.02175 =
         0.00485    0.00411    0.00081   -0.00318
O20   1    0.065571    0.448802    0.673467    11.00000    0.00599    0.01160 =
         0.00660   -0.00310   -0.00039    0.00289
O21   1    0.166321    0.499073    0.473440    11.00000    0.00696    0.01214 =
         0.01531    0.00465    0.00164    0.00392
REM O9B 1 0.4331 0.8555 0.5423 .10000 10.05
HKLF 4
REM  sad in P-1
REM R1 =  0.0331 for    4972 Fo > 4sig(Fo)  and  0.0362 for all    5374 data
REM    292 parameters refined using      0 restraints
END
WGHT      0.0409      2.0743
REM Highest difference peak  2.535,  deepest hole -2.227,  1-sigma level  0.384
Q1    1   0.3267  0.8196  0.9756  11.00000  0.05    2.53
Q2    1   0.4513  0.1565  0.8749  11.00000  0.05   -2.23
Q3    1   0.5091  0.8987  0.6784  11.00000  0.05    2.13
Q4    1   0.6028  0.1979  0.6235  11.00000  0.05   -2.09
Q5    1  -0.0529  0.3602  1.2232  11.00000  0.05   -2.07
Q6    1   0.4488  0.0995  0.5809  11.00000  0.05    2.05
Q7    1   0.4177  0.7529  0.9852  11.00000  0.05   -2.04
Q8    1   0.3113  0.0555  0.8332  11.00000  0.05    2.03
Q9    1   0.1648  0.6599  1.4708  11.00000  0.05   -1.98
Q10   1   0.3692  0.8237  0.6409  11.00000  0.05   -1.98
Q11   1   0.1172  0.3850  0.9868  11.00000  0.05   -1.96
Q12   1   0.0328  0.2948  1.2353  11.00000  0.05    1.95
Q13   1   0.4241  0.0621  0.8609  11.00000  0.05   -1.94
Q14   1   0.1728  0.3967  1.2779  11.00000  0.05   -1.93
Q15   1   0.1276  0.5743  0.4592  11.00000  0.05   -1.92
Q16   1   0.4554  0.7380  0.6419  11.00000  0.05    1.90
Q17   1   0.1433  0.2879  1.2592  11.00000  0.05   -1.90
Q18   1   0.2818  0.6595  0.9411  11.00000  0.05    1.86
Q19   1   0.3994  0.8833  0.6575  11.00000  0.05   -1.85
Q20   1   0.0637  0.7264  1.4612  11.00000  0.05    1.84
Q21   1   0.1956  0.7085  0.9214  11.00000  0.05   -1.83
Q22   1   0.2386  0.7572  1.2261  11.00000  0.05   -1.82
Q23   1   0.2550  0.7206  1.0188  11.00000  0.05    1.78
Q24   1   0.2225  0.8044  0.9433  11.00000  0.05   -1.78
Q25   1   0.0868  0.4469  1.2639  11.00000  0.05    1.77
Q26   1  -0.0239  0.4304  1.2366  11.00000  0.05   -1.75
Q27   1   0.2641  0.1906  0.8414  11.00000  0.05   -1.73
Q28   1  -0.0707  0.6251  1.4157  11.00000  0.05   -1.72
Q29   1   0.4192  0.5407  0.7841  11.00000  0.05    1.71
Q30   1   0.2947  0.4420  0.7385  11.00000  0.05   -1.67
Q31   1   0.4047  0.1775  0.5722  11.00000  0.05   -1.66
Q32   1   0.4823  0.4024  0.7760  11.00000  0.05   -1.66
Q33   1   0.4032  0.2137  0.5787  11.00000  0.05   -1.64
Q34   1   0.2264  0.1179  0.8175  11.00000  0.05   -1.64
Q35   1   0.5143  0.4846  0.7908  11.00000  0.05   -1.64
Q36   1   0.5798  0.8468  0.6970  11.00000  0.05   -1.63
Q37   1   0.3802  0.3969  0.7478  11.00000  0.05    1.63
Q38   1   0.5091  0.8186  0.6027  11.00000  0.05    1.63
Q39   1   0.0199  0.5539  1.4247  11.00000  0.05    1.60
Q40   1   0.0145  0.7291  1.1610  11.00000  0.05   -1.59
Q41   1   0.0868  0.6625  1.3793  11.00000  0.05    1.59
Q42   1   0.1407  0.4653  1.0010  11.00000  0.05   -1.59
Q43   1   0.3822  0.6771  0.9658  11.00000  0.05   -1.58
Q44   1   0.3751  0.1414  0.7968  11.00000  0.05    1.57
Q45   1  -0.0412  0.7050  1.4326  11.00000  0.05   -1.56
Q46   1   0.3252  0.7418  0.9018  11.00000  0.05    1.54
Q47   1   0.5909  0.1242  0.6116  11.00000  0.05   -1.54
Q48   1   0.3676  0.2112  0.8694  11.00000  0.05    1.50
Q49   1   0.4650  0.8256  0.7209  11.00000  0.05    1.49
Q50   1   0.5239  0.2688  0.6102  11.00000  0.05    1.47
;
_shelx_res_checksum              74709
loop_
_space_group_symop_operation_xyz
'x, y, z'
'-x, -y, -z'
loop_
_atom_site_type_symbol
_atom_site_label
_atom_site_fract_x
_atom_site_fract_y
_atom_site_fract_z
_atom_site_U_iso_or_equiv
_atom_site_adp_type
_atom_site_calc_flag
_atom_site_occupancy
Sr Sr1 0.5000 0.5000 0.5000 0.00890(15) Uani d 1
Sr Sr2 0.40181(7) 0.46751(5) 0.76261(4) 0.00646(11) Uani d 1
Sr Sr3 0.22803(7) 0.40672(5) 1.02026(4) 0.00612(11) Uani d 1
Sr Sr4 0.13688(7) 0.74431(5) 1.19649(4) 0.00693(11) Uani d 1
V V1 0.95910(14) 0.97151(10) 0.61798(7) 0.00795(18) Uani d 1
V V2 0.78006(13) 0.90768(10) 0.89200(7) 0.00752(19) Uani d 1
Te Te1 0.47848(5) 0.81869(4) 0.66321(3) 0.00803(9) Uani d 1
Te Te2 0.49308(5) 0.18067(4) 0.59728(3) 0.00816(9) Uani d 1
Te Te3 0.34152(5) 0.13349(4) 0.84899(3) 0.00711(9) Uani d 1
Te Te4 0.30609(5) 0.73764(4) 0.95387(2) 0.00616(9) Uani d 1
Te Te5 0.05794(5) 0.37209(4) 1.24870(2) 0.00620(9) Uani d 1
Te Te6 0.03882(5) 0.64012(4) 1.44338(2) 0.00701(9) Uani d 1
O O1 1.0000 1.0000 0.5000 0.0306(18) Uani d 1
O O2 1.0613(7) 0.8458(5) 0.6430(4) 0.0215(10) Uani d 1
O O3 1.0532(6) 1.1094(5) 0.6900(3) 0.0204(10) Uani d 1
O O4 0.7057(6) 0.9329(5) 0.6335(3) 0.0165(9) Uani d 1
O O5 0.9014(6) 0.7703(4) 0.8547(3) 0.0111(8) Uani d 1
O O6 0.7092(6) 0.8725(5) 1.0011(3) 0.0151(9) Uani d 1
O O7 0.9162(6) 1.0595(4) 0.8927(3) 0.0180(9) Uani d 1
O O8 0.5841(6) 0.8955(5) 0.8202(3) 0.0185(9) Uani d 1
O O9 0.4044(6) 0.7673(5) 0.5320(3) 0.0143(9) Uani d 1
O O10 0.5571(6) 0.6538(4) 0.6717(3) 0.0127(8) Uani d 1
O O11 0.3731(6) 0.3294(4) 0.6017(3) 0.0112(8) Uani d 1
O O12 0.4869(6) 0.1896(4) 0.7382(3) 0.0112(8) Uani d 1
O O13 0.2317(5) 0.2902(4) 0.8567(3) 0.0070(7) Uani d 1
O O14 0.4422(5) 0.5954(4) 0.9317(3) 0.0068(7) Uani d 1
O O15 0.1777(5) 0.6334(4) 0.8155(3) 0.0106(8) Uani d 1
O O16 0.1120(5) 0.6398(4) 1.0138(3) 0.0079(7) Uani d 1
O O17 0.4183(5) 0.7823(4) 1.0918(3) 0.0092(8) Uani d 1
O O18 0.2163(6) 0.5042(4) 1.1923(3) 0.0101(8) Uani d 1
O O19 0.2516(6) 0.7260(4) 1.3663(3) 0.0116(8) Uani d 1
O O20 0.0656(5) 0.4488(4) 0.6735(3) 0.0083(7) Uani d 1
O O21 0.1663(6) 0.4991(4) 0.4734(3) 0.0109(8) Uani d 1
loop_
_atom_site_aniso_label
_atom_site_aniso_U_11
_atom_site_aniso_U_22
_atom_site_aniso_U_33
_atom_site_aniso_U_12
_atom_site_aniso_U_13
_atom_site_aniso_U_23
Sr1 0.0045(3) 0.0152(4) 0.0080(4) 0.0025(3) 0.0003(3) 0.0045(3)
Sr2 0.0046(2) 0.0100(2) 0.0051(2) 0.00160(18) 0.00038(17) 0.00173(18)
Sr3 0.0030(2) 0.0107(2) 0.0050(2) 0.00185(17) -0.00041(17) 0.00147(18)
Sr4 0.0040(2) 0.0110(2) 0.0062(2) 0.00231(18) -0.00039(18) 0.00147(19)
V1 0.0063(4) 0.0108(4) 0.0065(5) 0.0009(3) 0.0009(3) 0.0011(3)
V2 0.0051(4) 0.0104(4) 0.0075(5) 0.0024(3) -0.0001(3) 0.0017(4)
Te1 0.00529(16) 0.01079(17) 0.00840(18) 0.00228(13) -0.00036(13) 0.00180(13)
Te2 0.00470(16) 0.01073(17) 0.00916(18) 0.00179(13) -0.00106(13) 0.00153(13)
Te3 0.00410(16) 0.00919(17) 0.00806(18) 0.00169(13) -0.00129(13) 0.00085(13)
Te4 0.00366(16) 0.00928(17) 0.00600(18) 0.00200(12) 0.00014(13) 0.00160(13)
Te5 0.00373(16) 0.01011(17) 0.00516(17) 0.00190(12) -0.00060(12) 0.00192(13)
Te6 0.00472(16) 0.01094(17) 0.00544(17) 0.00183(13) -0.00066(12) 0.00098(13)
O1 0.025(4) 0.057(5) 0.012(3) 0.007(4) 0.002(3) 0.010(3)
O2 0.018(2) 0.021(2) 0.030(3) 0.0076(19) 0.007(2) 0.014(2)
O3 0.007(2) 0.024(2) 0.026(3) 0.0012(17) -0.0005(18) -0.012(2)
O4 0.0075(19) 0.021(2) 0.022(2) 0.0001(17) 0.0012(17) 0.0105(19)
O5 0.0095(19) 0.017(2) 0.008(2) 0.0070(16) 0.0013(15) 0.0000(16)
O6 0.011(2) 0.020(2) 0.014(2) 0.0037(17) 0.0041(16) 0.0002(17)
O7 0.013(2) 0.015(2) 0.026(3) 0.0009(17) 0.0015(18) 0.0071(19)
O8 0.011(2) 0.028(2) 0.019(2) 0.0089(18) -0.0038(18) 0.0056(19)
O9 0.016(2) 0.022(2) 0.0036(19) 0.0029(18) -0.0001(16) -0.0012(16)
O10 0.011(2) 0.013(2) 0.015(2) 0.0039(16) 0.0040(16) 0.0059(17)
O11 0.0111(19) 0.0118(19) 0.013(2) 0.0073(16) 0.0006(16) 0.0016(16)
O12 0.0094(19) 0.020(2) 0.0036(19) 0.0012(16) 0.0002(15) 0.0020(16)
O13 0.0050(17) 0.0091(18) 0.0073(19) 0.0021(14) -0.0015(14) 0.0013(14)
O14 0.0063(18) 0.0094(18) 0.0051(18) 0.0033(14) -0.0005(14) 0.0003(14)
O15 0.0048(17) 0.0150(19) 0.012(2) 0.0049(15) -0.0029(15) -0.0015(16)
O16 0.0042(17) 0.0115(19) 0.0081(19) 0.0008(14) 0.0015(14) 0.0027(15)
O17 0.0017(17) 0.0142(19) 0.010(2) -0.0011(14) -0.0010(14) -0.0002(15)
O18 0.0063(18) 0.0145(19) 0.009(2) 0.0008(15) 0.0023(15) 0.0019(16)
O19 0.0066(18) 0.022(2) 0.0049(19) -0.0032(16) 0.0008(14) 0.0041(16)
O20 0.0060(18) 0.0116(18) 0.0066(19) 0.0029(14) -0.0004(14) -0.0031(15)
O21 0.0070(18) 0.0121(19) 0.015(2) 0.0039(15) 0.0016(15) 0.0046(16)
loop_
_atom_type_symbol
_atom_type_description
_atom_type_scat_dispersion_real
_atom_type_scat_dispersion_imag
_atom_type_scat_source
O O 0.0106 0.0060 'International Tables Vol C Tables 4.2.6.8 and 6.1.1.4'
V V 0.3005 0.5294 'International Tables Vol C Tables 4.2.6.8 and 6.1.1.4'
Sr Sr -1.5307 3.2498 'International Tables Vol C Tables 4.2.6.8 and 6.1.1.4'
Te Te -0.5308 1.6751 'International Tables Vol C Tables 4.2.6.8 and 6.1.1.4'
loop_
_geom_angle_atom_site_label_1
_geom_angle_atom_site_label_2
_geom_angle_atom_site_label_3
_geom_angle_site_symmetry_1
_geom_angle_site_symmetry_3
_geom_angle
O21 Sr1 O21 2_666 . 180.0
O21 Sr1 O11 2_666 2_666 80.68(13)
O21 Sr1 O11 . 2_666 99.32(13)
O21 Sr1 O11 2_666 . 99.32(13)
O21 Sr1 O11 . . 80.68(13)
O11 Sr1 O11 2_666 . 180.0
O21 Sr1 O10 2_666 . 81.06(14)
O21 Sr1 O10 . . 98.94(14)
O11 Sr1 O10 2_666 . 101.38(13)
O11 Sr1 O10 . . 78.62(13)
O21 Sr1 O10 2_666 2_666 98.94(14)
O21 Sr1 O10 . 2_666 81.06(14)
O11 Sr1 O10 2_666 2_666 78.62(13)
O11 Sr1 O10 . 2_666 101.38(13)
O10 Sr1 O10 . 2_666 180.00(17)
O21 Sr1 O9 2_666 2_666 66.77(13)
O21 Sr1 O9 . 2_666 113.23(13)
O11 Sr1 O9 2_666 2_666 118.26(13)
O11 Sr1 O9 . 2_666 61.74(13)
O10 Sr1 O9 . 2_666 121.87(11)
O10 Sr1 O9 2_666 2_666 58.13(11)
O21 Sr1 O9 2_666 . 113.23(13)
O21 Sr1 O9 . . 66.77(13)
O11 Sr1 O9 2_666 . 61.74(13)
O11 Sr1 O9 . . 118.25(13)
O10 Sr1 O9 . . 58.13(11)
O10 Sr1 O9 2_666 . 121.87(11)
O9 Sr1 O9 2_666 . 180.0
O21 Sr1 Te2 2_666 . 78.40(9)
O21 Sr1 Te2 . . 101.61(9)
O11 Sr1 Te2 2_666 . 152.44(9)
O11 Sr1 Te2 . . 27.56(9)
O10 Sr1 Te2 . . 92.89(8)
O10 Sr1 Te2 2_666 . 87.11(8)
O9 Sr1 Te2 2_666 . 35.81(8)
O9 Sr1 Te2 . . 144.19(8)
O21 Sr1 Te2 2_666 2_666 101.61(9)
O21 Sr1 Te2 . 2_666 78.39(9)
O11 Sr1 Te2 2_666 2_666 27.56(9)
O11 Sr1 Te2 . 2_666 152.44(9)
O10 Sr1 Te2 . 2_666 87.11(8)
O10 Sr1 Te2 2_666 2_666 92.89(8)
O9 Sr1 Te2 2_666 2_666 144.19(8)
O9 Sr1 Te2 . 2_666 35.81(8)
Te2 Sr1 Te2 . 2_666 179.999(11)
O21 Sr1 Te1 2_666 2_666 82.96(10)
O21 Sr1 Te1 . 2_666 97.04(10)
O11 Sr1 Te1 2_666 2_666 98.24(10)
O11 Sr1 Te1 . 2_666 81.76(10)
O10 Sr1 Te1 . 2_666 152.24(8)
O10 Sr1 Te1 2_666 2_666 27.76(8)
O9 Sr1 Te1 2_666 2_666 30.37(8)
O9 Sr1 Te1 . 2_666 149.63(8)
Te2 Sr1 Te1 . 2_666 61.611(9)
Te2 Sr1 Te1 2_666 2_666 118.388(9)
O21 Sr1 Te1 2_666 . 97.04(10)
O21 Sr1 Te1 . . 82.96(10)
O11 Sr1 Te1 2_666 . 81.76(10)
O11 Sr1 Te1 . . 98.24(10)
O10 Sr1 Te1 . . 27.76(8)
O10 Sr1 Te1 2_666 . 152.24(8)
O9 Sr1 Te1 2_666 . 149.63(8)
O9 Sr1 Te1 . . 30.37(8)
Te2 Sr1 Te1 . . 118.389(9)
Te2 Sr1 Te1 2_666 . 61.612(9)
Te1 Sr1 Te1 2_666 . 180.0
O10 Sr2 O13 . . 176.48(13)
O10 Sr2 O11 . . 81.17(14)
O13 Sr2 O11 . . 100.68(13)
O10 Sr2 O15 . . 86.05(13)
O13 Sr2 O15 . . 90.43(13)
O11 Sr2 O15 . . 123.27(12)
O10 Sr2 O14 . . 101.30(13)
O13 Sr2 O14 . . 77.02(13)
O11 Sr2 O14 . . 175.95(12)
O15 Sr2 O14 . . 60.35(12)
O10 Sr2 O20 . . 92.89(13)
O13 Sr2 O20 . . 85.16(12)
O11 Sr2 O20 . . 66.53(12)
O15 Sr2 O20 . . 59.21(12)
O14 Sr2 O20 . . 116.31(12)
O10 Sr2 O18 . 2_667 75.12(13)
O13 Sr2 O18 . 2_667 107.29(12)
O11 Sr2 O18 . 2_667 101.44(13)
O15 Sr2 O18 . 2_667 127.96(13)
O14 Sr2 O18 . 2_667 76.26(12)
O20 Sr2 O18 . 2_667 164.55(12)
O10 Sr2 O12 . . 122.42(13)
O13 Sr2 O12 . . 61.01(12)
O11 Sr2 O12 . . 59.40(12)
O15 Sr2 O12 . . 149.85(13)
O14 Sr2 O12 . . 116.59(11)
O20 Sr2 O12 . . 105.60(12)
O18 Sr2 O12 2_667 . 74.01(12)
O10 Sr2 Te3 . . 155.19(10)
O13 Sr2 Te3 . . 28.34(9)
O11 Sr2 Te3 . . 85.03(9)
O15 Sr2 Te3 . . 118.75(10)
O14 Sr2 Te3 . . 91.51(8)
O20 Sr2 Te3 . . 100.41(9)
O18 Sr2 Te3 2_667 . 87.63(8)
O12 Sr2 Te3 . . 33.59(8)
O10 Sr2 Te2 . . 95.45(10)
O13 Sr2 Te2 . . 87.46(9)
O11 Sr2 Te2 . . 27.47(8)
O15 Sr2 Te2 . . 148.17(9)
O14 Sr2 Te2 . . 148.50(8)
O20 Sr2 Te2 . . 88.98(8)
O18 Sr2 Te2 2_667 . 82.64(9)
O12 Sr2 Te2 . . 33.51(8)
Te3 Sr2 Te2 . . 64.226(12)
O10 Sr2 Te4 . . 90.23(10)
O13 Sr2 Te4 . . 86.97(9)
O11 Sr2 Te4 . . 157.54(9)
O15 Sr2 Te4 . . 34.84(9)
O14 Sr2 Te4 . . 26.37(8)
O20 Sr2 Te4 . . 93.45(8)
O18 Sr2 Te4 2_667 . 96.25(9)
O12 Sr2 Te4 . . 140.26(8)
Te3 Sr2 Te4 . . 109.590(16)
Te2 Sr2 Te4 . . 173.712(17)
O10 Sr2 Te1 . . 22.70(9)
O13 Sr2 Te1 . . 153.77(9)
O11 Sr2 Te1 . . 93.28(9)
O15 Sr2 Te1 . . 63.39(10)
O14 Sr2 Te1 . . 90.12(8)
O20 Sr2 Te1 . . 80.18(9)
O18 Sr2 Te1 2_667 . 91.31(8)
O12 Sr2 Te1 . . 144.20(8)
Te3 Sr2 Te1 . . 177.792(18)
Te2 Sr2 Te1 . . 113.715(16)
Te4 Sr2 Te1 . . 72.450(13)
O16 Sr3 O14 2_567 2_667 167.32(13)
O16 Sr3 O13 2_567 . 82.95(13)
O14 Sr3 O13 2_667 . 97.37(12)
O16 Sr3 O18 2_567 . 96.07(13)
O14 Sr3 O18 2_667 . 82.46(13)
O13 Sr3 O18 . . 174.80(13)
O16 Sr3 O16 2_567 . 71.16(14)
O14 Sr3 O16 2_667 . 120.23(12)
O13 Sr3 O16 . . 108.79(12)
O18 Sr3 O16 . . 75.59(13)
O16 Sr3 O14 2_567 . 118.53(12)
O14 Sr3 O14 2_667 . 73.58(13)
O13 Sr3 O14 . . 75.74(12)
O18 Sr3 O14 . . 109.09(12)
O16 Sr3 O14 . . 63.07(12)
O16 Sr3 O5 2_567 2_667 76.96(12)
O14 Sr3 O5 2_667 2_667 91.41(12)
O13 Sr3 O5 . 2_667 113.55(13)
O18 Sr3 O5 . 2_667 61.29(13)
O16 Sr3 O5 . 2_667 122.26(12)
O14 Sr3 O5 . 2_667 163.61(12)
O16 Sr3 O6 2_567 2_667 98.37(13)
O14 Sr3 O6 2_667 2_667 70.85(13)
O13 Sr3 O6 . 2_667 62.87(12)
O18 Sr3 O6 . 2_667 112.35(13)
O16 Sr3 O6 . 2_667 167.92(13)
O14 Sr3 O6 . 2_667 119.81(12)
O5 Sr3 O6 2_667 2_667 58.74(12)
O16 Sr3 Te4 2_567 . 96.08(9)
O14 Sr3 Te4 2_667 . 96.55(9)
O13 Sr3 Te4 . . 94.00(9)
O18 Sr3 Te4 . . 91.19(9)
O16 Sr3 Te4 . . 31.37(9)
O14 Sr3 Te4 . . 31.77(8)
O5 Sr3 Te4 2_667 . 150.10(9)
O6 Sr3 Te4 2_667 . 150.70(9)
O16 Sr3 V2 2_567 2_667 92.61(9)
O14 Sr3 V2 2_667 2_667 74.71(9)
O13 Sr3 V2 . 2_667 90.43(9)
O18 Sr3 V2 . 2_667 84.51(9)
O16 Sr3 V2 . 2_667 152.45(9)
O14 Sr3 V2 . 2_667 143.24(8)
O5 Sr3 V2 2_667 2_667 30.28(8)
O6 Sr3 V2 2_667 2_667 29.38(9)
Te4 Sr3 V2 . 2_667 170.67(2)
O16 Sr3 Te5 2_567 . 78.81(9)
O14 Sr3 Te5 2_667 . 94.36(9)
O13 Sr3 Te5 . . 145.44(9)
O18 Sr3 Te5 . . 29.76(9)
O16 Sr3 Te5 . . 92.77(9)
O14 Sr3 Te5 . . 138.82(8)
O5 Sr3 Te5 2_667 . 33.54(9)
O6 Sr3 Te5 2_667 . 90.99(9)
Te4 Sr3 Te5 . . 116.835(17)
V2 Sr3 Te5 2_667 . 61.613(18)
O16 Sr3 Te3 2_567 . 97.10(10)
O14 Sr3 Te3 2_667 . 78.43(9)
O13 Sr3 Te3 . . 27.63(8)
O18 Sr3 Te3 . . 148.26(9)
O16 Sr3 Te3 . . 136.10(9)
O14 Sr3 Te3 . . 89.52(8)
O5 Sr3 Te3 2_667 . 93.94(9)
O6 Sr3 Te3 2_667 . 37.02(9)
Te4 Sr3 Te3 . . 115.867(16)
V2 Sr3 Te3 2_667 . 66.177(19)
Te5 Sr3 Te3 . . 127.280(17)
O7 Sr4 O18 2_677 . 148.11(15)
O7 Sr4 O17 2_677 . 74.72(14)
O18 Sr4 O17 . . 83.28(13)
O7 Sr4 O19 2_677 . 134.83(15)
O18 Sr4 O19 . . 74.52(14)
O17 Sr4 O19 . . 110.74(13)
O7 Sr4 O3 2_677 2_677 75.97(16)
O18 Sr4 O3 . 2_677 133.65(15)
O17 Sr4 O3 . 2_677 139.03(14)
O19 Sr4 O3 . 2_677 72.54(14)
O7 Sr4 O13 2_677 2_567 71.03(13)
O18 Sr4 O13 . 2_567 106.43(12)
O17 Sr4 O13 . 2_567 126.93(12)
O19 Sr4 O13 . 2_567 122.21(12)
O3 Sr4 O13 2_677 2_567 67.00(13)
O7 Sr4 O16 2_677 . 74.51(14)
O18 Sr4 O16 . . 74.25(12)
O17 Sr4 O16 . . 57.68(12)
O19 Sr4 O16 . . 147.79(13)
O3 Sr4 O16 2_677 . 137.38(13)
O13 Sr4 O16 2_567 . 74.68(12)
O7 Sr4 O12 2_677 2_667 105.10(13)
O18 Sr4 O12 . 2_667 79.86(13)
O17 Sr4 O12 . 2_667 55.52(12)
O19 Sr4 O12 . 2_667 56.33(12)
O3 Sr4 O12 2_677 2_667 106.86(13)
O13 Sr4 O12 2_567 2_667 173.20(12)
O16 Sr4 O12 . 2_667 110.04(12)
O7 Sr4 O20 2_677 2_567 140.58(13)
O18 Sr4 O20 . 2_567 61.67(12)
O17 Sr4 O20 . 2_567 143.92(11)
O19 Sr4 O20 . 2_567 54.27(12)
O3 Sr4 O20 2_677 2_567 72.73(13)
O13 Sr4 O20 2_567 2_567 75.03(11)
O16 Sr4 O20 . 2_567 115.01(11)
O12 Sr4 O20 2_667 2_567 106.45(11)
O7 Sr4 Te4 2_677 . 63.10(11)
O18 Sr4 Te4 . . 86.00(9)
O17 Sr4 Te4 . . 32.37(9)
O19 Sr4 Te4 . . 141.25(9)
O3 Sr4 Te4 2_677 . 138.92(11)
O13 Sr4 Te4 2_567 . 95.13(8)
O16 Sr4 Te4 . . 27.99(8)
O12 Sr4 Te4 2_667 . 87.82(8)
O20 Sr4 Te4 2_567 . 140.53(8)
O7 Sr4 V2 2_677 2_677 19.94(10)
O18 Sr4 V2 . 2_677 148.91(9)
O17 Sr4 V2 . 2_677 65.91(9)
O19 Sr4 V2 . 2_677 119.15(10)
O3 Sr4 V2 2_677 2_677 76.91(11)
O13 Sr4 V2 2_567 2_677 89.89(8)
O16 Sr4 V2 . 2_677 85.27(8)
O12 Sr4 V2 2_667 2_677 85.71(9)
O20 Sr4 V2 2_567 2_677 149.41(7)
Te4 Sr4 V2 . 2_677 65.940(18)
O7 Sr4 Te5 2_677 . 155.23(11)
O18 Sr4 Te5 . . 25.32(9)
O17 Sr4 Te5 . . 108.50(9)
O19 Sr4 Te5 . . 68.18(10)
O3 Sr4 Te5 2_677 . 110.15(11)
O13 Sr4 Te5 2_567 . 88.95(8)
O16 Sr4 Te5 . . 86.45(8)
O12 Sr4 Te5 2_667 . 96.14(9)
O20 Sr4 Te5 2_567 . 37.44(7)
Te4 Sr4 Te5 . . 105.934(15)
V2 Sr4 Te5 2_677 . 171.65(2)
O2 V1 O3 . . 107.7(3)
O2 V1 O1 . . 109.08(18)
O3 V1 O1 . . 110.25(19)
O2 V1 O4 . . 111.0(2)
O3 V1 O4 . . 108.9(2)
O1 V1 O4 . . 109.93(15)
O2 V1 Sr4 . 2_677 122.83(19)
O3 V1 Sr4 . 2_677 34.29(15)
O1 V1 Sr4 . 2_677 122.41(4)
O4 V1 Sr4 . 2_677 74.65(16)
O7 V2 O8 . . 110.0(2)
O7 V2 O6 . . 113.8(2)
O8 V2 O6 . . 108.5(2)
O7 V2 O5 . . 111.9(2)
O8 V2 O5 . . 109.1(2)
O6 V2 O5 . . 103.3(2)
O7 V2 Sr3 . 2_667 140.91(16)
O8 V2 Sr3 . 2_667 108.96(17)
O6 V2 Sr3 . 2_667 54.74(15)
O5 V2 Sr3 . 2_667 50.60(14)
O7 V2 Sr4 . 2_677 31.64(15)
O8 V2 Sr4 . 2_677 78.36(16)
O6 V2 Sr4 . 2_677 126.92(15)
O5 V2 Sr4 . 2_677 124.62(14)
Sr3 V2 Sr4 2_667 2_677 171.98(3)
O10 Te1 O4 . . 102.01(18)
O10 Te1 O9 . . 91.89(19)
O4 Te1 O9 . . 90.95(19)
O10 Te1 O8 . . 90.32(17)
O4 Te1 O8 . . 85.07(18)
O9 Te1 O8 . . 175.77(18)
O10 Te1 Sr1 . . 43.71(14)
O4 Te1 Sr1 . . 99.42(15)
O9 Te1 Sr1 . . 48.18(13)
O8 Te1 Sr1 . . 133.90(11)
O10 Te1 Sr2 . . 31.86(13)
O4 Te1 Sr2 . . 130.50(12)
O9 Te1 Sr2 . . 103.20(13)
O8 Te1 Sr2 . . 80.52(11)
Sr1 Te1 Sr2 . . 61.710(10)
O11 Te2 O19 . 2_667 99.75(19)
O11 Te2 O12 . . 89.56(18)
O19 Te2 O12 2_667 . 79.78(17)
O11 Te2 O9 . 2_666 87.60(18)
O19 Te2 O9 2_667 2_666 78.12(17)
O12 Te2 O9 . 2_666 156.89(17)
O11 Te2 Sr1 . . 38.16(13)
O19 Te2 Sr1 2_667 . 79.15(12)
O12 Te2 Sr1 . . 116.79(12)
O9 Te2 Sr1 2_666 . 52.03(12)
O11 Te2 Sr2 . . 39.66(13)
O19 Te2 Sr2 2_667 . 79.32(13)
O12 Te2 Sr2 . . 52.63(12)
O9 Te2 Sr2 2_666 . 115.92(12)
Sr1 Te2 Sr2 . . 65.157(11)
O11 Te2 Sr4 . 2_667 106.68(13)
O19 Te2 Sr4 2_667 2_667 37.75(12)
O12 Te2 Sr4 . 2_667 44.22(12)
O9 Te2 Sr4 2_666 2_667 115.27(12)
Sr1 Te2 Sr4 . 2_667 106.909(12)
Sr2 Te2 Sr4 . 2_667 69.689(13)
O13 Te3 O17 . 2_667 97.62(17)
O13 Te3 O12 . . 91.57(17)
O17 Te3 O12 2_667 . 78.79(17)
O13 Te3 O6 . 2_667 87.34(16)
O17 Te3 O6 2_667 2_667 77.45(17)
O12 Te3 O6 . 2_667 155.86(17)
O13 Te3 Sr2 . . 40.09(12)
O17 Te3 Sr2 2_667 . 79.69(12)
O12 Te3 Sr2 . . 53.07(12)
O6 Te3 Sr2 2_667 . 117.63(12)
O13 Te3 Sr3 . . 38.68(12)
O17 Te3 Sr3 2_667 . 76.49(12)
O12 Te3 Sr3 . . 118.06(12)
O6 Te3 Sr3 2_667 . 51.45(11)
Sr2 Te3 Sr3 . . 67.039(14)
O13 Te3 Sr4 . 2_667 105.63(12)
O17 Te3 Sr4 2_667 2_667 36.46(12)
O12 Te3 Sr4 . 2_667 44.21(11)
O6 Te3 Sr4 2_667 2_667 113.18(11)
Sr2 Te3 Sr4 . 2_667 69.902(12)
Sr3 Te3 Sr4 . 2_667 104.250(14)
O13 Te3 Sr4 . 2_567 37.72(12)
O17 Te3 Sr4 2_667 2_567 135.00(12)
O12 Te3 Sr4 . 2_567 102.03(11)
O6 Te3 Sr4 2_667 2_567 91.77(11)
Sr2 Te3 Sr4 . 2_567 66.914(13)
Sr3 Te3 Sr4 . 2_567 63.368(12)
Sr4 Te3 Sr4 2_667 2_567 136.463(17)
O16 Te4 O14 . . 96.32(17)
O16 Te4 O17 . . 80.12(16)
O14 Te4 O17 . . 90.90(16)
O16 Te4 O15 . . 90.48(17)
O14 Te4 O15 . . 78.38(15)
O17 Te4 O15 . . 164.94(15)
O16 Te4 Sr3 . . 47.03(12)
O14 Te4 Sr3 . . 49.42(12)
O17 Te4 Sr3 . . 80.25(11)
O15 Te4 Sr3 . . 84.73(11)
O16 Te4 Sr4 . . 43.17(13)
O14 Te4 Sr4 . . 108.93(12)
O17 Te4 Sr4 . . 41.11(11)
O15 Te4 Sr4 . . 132.93(11)
Sr3 Te4 Sr4 . . 69.495(13)
O16 Te4 Sr2 . . 102.06(13)
O14 Te4 Sr2 . . 38.34(12)
O17 Te4 Sr2 . . 129.22(11)
O15 Te4 Sr2 . . 41.26(10)
Sr3 Te4 Sr2 . . 67.302(14)
Sr4 Te4 Sr2 . . 136.777(15)
O16 Te4 Sr3 . 2_667 111.30(11)
O14 Te4 Sr3 . 2_667 29.56(12)
O17 Te4 Sr3 . 2_667 69.66(11)
O15 Te4 Sr3 . 2_667 103.50(10)
Sr3 Te4 Sr3 . 2_667 67.490(15)
Sr4 Te4 Sr3 . 2_667 101.886(13)
Sr2 Te4 Sr3 . 2_667 62.345(12)
O16 Te4 Sr3 . 2_567 28.12(12)
O14 Te4 Sr3 . 2_567 110.94(12)
O17 Te4 Sr3 . 2_567 103.62(11)
O15 Te4 Sr3 . 2_567 71.13(11)
Sr3 Te4 Sr3 . 2_567 67.039(14)
Sr4 Te4 Sr3 . 2_567 62.779(12)
Sr2 Te4 Sr3 . 2_567 98.440(14)
Sr3 Te4 Sr3 2_667 2_567 134.511(17)
O18 Te5 O15 . 2_567 101.74(18)
O18 Te5 O5 . 2_667 89.04(18)
O15 Te5 O5 2_567 2_667 85.35(17)
O18 Te5 O20 . 2_567 87.43(16)
O15 Te5 O20 2_567 2_567 75.14(16)
O5 Te5 O20 2_667 2_567 159.00(15)
O18 Te5 Sr3 . . 43.14(13)
O15 Te5 Sr3 2_567 . 82.01(13)
O5 Te5 Sr3 2_667 . 49.25(12)
O20 Te5 Sr3 2_567 . 118.77(10)
O18 Te5 Sr4 . . 35.75(12)
O15 Te5 Sr4 2_567 . 81.92(13)
O5 Te5 Sr4 2_667 . 116.83(12)
O20 Te5 Sr4 2_567 . 53.43(10)
Sr3 Te5 Sr4 . . 67.727(13)
O18 Te5 Sr2 . 2_567 97.83(12)
O15 Te5 Sr2 2_567 2_567 33.80(12)
O5 Te5 Sr2 2_667 2_567 118.98(11)
O20 Te5 Sr2 2_567 2_567 41.39(10)
Sr3 Te5 Sr2 . 2_567 101.615(14)
Sr4 Te5 Sr2 . 2_567 65.184(12)
O18 Te5 Sr2 . 2_667 38.88(12)
O15 Te5 Sr2 2_567 2_667 139.95(13)
O5 Te5 Sr2 2_667 2_667 86.71(12)
O20 Te5 Sr2 2_567 2_667 103.16(10)
Sr3 Te5 Sr2 . 2_667 63.475(12)
Sr4 Te5 Sr2 . 2_667 67.069(12)
Sr2 Te5 Sr2 2_567 2_667 132.019(17)
O20 Te6 O21 2_567 1_556 96.34(18)
O20 Te6 O19 2_567 . 83.49(17)
O21 Te6 O19 1_556 . 93.79(17)
O20 Te6 O21 2_567 2_567 94.09(17)
O21 Te6 O21 1_556 2_567 73.67(18)
O19 Te6 O21 . 2_567 166.95(16)
O20 Te6 Sr4 2_567 . 50.86(12)
O21 Te6 Sr4 1_556 . 113.22(13)
O19 Te6 Sr4 . . 38.09(11)
O21 Te6 Sr4 2_567 . 144.03(11)
O20 Te6 Sr1 2_567 1_556 108.12(11)
O21 Te6 Sr1 1_556 1_556 28.01(13)
O19 Te6 Sr1 . 1_556 70.55(11)
O21 Te6 Sr1 2_567 1_556 98.26(9)
Sr4 Te6 Sr1 . 1_556 100.452(11)
O20 Te6 Sr1 2_567 1_456 77.90(12)
O21 Te6 Sr1 1_556 1_456 103.17(13)
O19 Te6 Sr1 . 1_456 155.98(11)
O21 Te6 Sr1 2_567 1_456 32.34(9)
Sr4 Te6 Sr1 . 1_456 118.214(11)
Sr1 Te6 Sr1 1_556 1_456 129.812(10)
V1 O1 V1 . 2_776 180.0
V1 O3 Sr4 . 2_677 125.1(2)
V1 O4 Te1 . . 153.8(3)
V2 O5 Te5 . 2_667 147.1(2)
V2 O5 Sr3 . 2_667 99.12(17)
Te5 O5 Sr3 2_667 2_667 97.21(16)
V2 O6 Te3 . 2_667 168.4(3)
V2 O6 Sr3 . 2_667 95.88(18)
Te3 O6 Sr3 2_667 2_667 91.53(14)
V2 O7 Sr4 . 2_677 128.4(2)
V2 O8 Te1 . . 139.4(3)
Te1 O9 Te2 . 2_666 137.3(2)
Te1 O9 Sr1 . . 101.45(16)
Te2 O9 Sr1 2_666 . 92.16(15)
Te1 O10 Sr2 . . 125.4(2)
Te1 O10 Sr1 . . 108.53(18)
Sr2 O10 Sr1 . . 96.45(14)
Te2 O11 Sr1 . . 114.28(19)
Te2 O11 Sr2 . . 112.87(18)
Sr1 O11 Sr2 . . 103.57(15)
Te3 O12 Te2 . . 147.5(2)
Te3 O12 Sr4 . 2_667 105.27(15)
Te2 O12 Sr4 . 2_667 105.12(16)
Te3 O12 Sr2 . . 93.34(15)
Te2 O12 Sr2 . . 93.86(14)
Sr4 O12 Sr2 2_667 . 97.77(13)
Te3 O13 Sr3 . . 113.68(17)
Te3 O13 Sr2 . . 111.57(17)
Sr3 O13 Sr2 . . 106.89(14)
Te3 O13 Sr4 . 2_567 117.20(17)
Sr3 O13 Sr4 . 2_567 100.19(13)
Sr2 O13 Sr4 . 2_567 106.22(13)
Te4 O14 Sr3 . 2_667 128.45(19)
Te4 O14 Sr2 . . 115.29(16)
Sr3 O14 Sr2 2_667 . 103.83(14)
Te4 O14 Sr3 . . 98.81(16)
Sr3 O14 Sr3 2_667 . 106.42(13)
Sr2 O14 Sr3 . . 99.81(13)
Te5 O15 Te4 2_567 . 133.1(2)
Te5 O15 Sr2 2_567 . 122.07(19)
Te4 O15 Sr2 . . 103.90(14)
Te4 O16 Sr3 . 2_567 130.76(19)
Te4 O16 Sr3 . . 101.60(16)
Sr3 O16 Sr3 2_567 . 108.83(14)
Te4 O16 Sr4 . . 108.84(17)
Sr3 O16 Sr4 2_567 . 101.67(14)
Sr3 O16 Sr4 . . 101.95(13)
Te3 O17 Te4 2_667 . 135.2(2)
Te3 O17 Sr4 2_667 . 117.34(18)
Te4 O17 Sr4 . . 106.52(15)
Te5 O18 Sr4 . . 118.93(18)
Te5 O18 Sr3 . . 107.10(18)
Sr4 O18 Sr3 . . 107.71(14)
Te5 O18 Sr2 . 2_667 116.00(17)
Sr4 O18 Sr2 . 2_667 107.89(14)
Sr3 O18 Sr2 . 2_667 96.55(13)
Te2 O19 Te6 2_667 . 131.2(2)
Te2 O19 Sr4 2_667 . 115.18(17)
Te6 O19 Sr4 . . 112.82(17)
Te6 O20 Te5 2_567 2_567 121.29(18)
Te6 O20 Sr2 2_567 . 132.93(18)
Te5 O20 Sr2 2_567 . 103.51(14)
Te6 O20 Sr4 2_567 2_567 100.78(15)
Te5 O20 Sr4 2_567 2_567 89.14(12)
Sr2 O20 Sr4 . 2_567 93.07(11)
Te6 O21 Te6 1_554 2_567 106.33(18)
Te6 O21 Sr1 1_554 . 130.4(2)
Te6 O21 Sr1 2_567 . 116.90(16)
loop_
_geom_bond_atom_site_label_1
_geom_bond_atom_site_label_2
_geom_bond_site_symmetry_2
_geom_bond_distance
Sr1 O21 2_666 2.411(4)
Sr1 O21 . 2.411(4)
Sr1 O11 2_666 2.446(4)
Sr1 O11 . 2.446(4)
Sr1 O10 . 2.728(4)
Sr1 O10 2_666 2.728(4)
Sr1 O9 2_666 2.847(4)
Sr1 O9 . 2.847(4)
Sr1 Te2 . 3.6086(4)
Sr1 Te2 2_666 3.6086(4)
Sr1 Te1 2_666 3.7439(4)
Sr1 Te1 . 3.7439(4)
Sr2 O10 . 2.516(4)
Sr2 O13 . 2.520(4)
Sr2 O11 . 2.534(4)
Sr2 O15 . 2.569(4)
Sr2 O14 . 2.594(4)
Sr2 O20 . 2.662(4)
Sr2 O18 2_667 2.753(4)
Sr2 O12 . 2.914(4)
Sr2 Te3 . 3.6395(6)
Sr2 Te2 . 3.6585(7)
Sr2 Te4 . 3.7818(6)
Sr2 Te1 . 3.8827(6)
Sr3 O16 2_567 2.425(4)
Sr3 O14 2_667 2.448(4)
Sr3 O13 . 2.503(4)
Sr3 O18 . 2.563(4)
Sr3 O16 . 2.605(4)
Sr3 O14 . 2.680(4)
Sr3 O5 2_667 2.736(4)
Sr3 O6 2_667 2.870(4)
Sr3 Te4 . 3.4873(6)
Sr3 V2 2_667 3.4961(10)
Sr3 Te5 . 3.5832(7)
Sr3 Te3 . 3.6680(6)
Sr4 O7 2_677 2.532(4)
Sr4 O18 . 2.542(4)
Sr4 O17 . 2.563(4)
Sr4 O19 . 2.593(4)
Sr4 O3 2_677 2.634(4)
Sr4 O13 2_567 2.681(4)
Sr4 O16 . 2.701(4)
Sr4 O12 2_667 2.769(4)
Sr4 O20 2_567 3.059(4)
Sr4 Te4 . 3.7372(7)
Sr4 V2 2_677 3.7806(10)
Sr4 Te5 . 3.8081(6)
V1 O2 . 1.624(4)
V1 O3 . 1.644(5)
V1 O1 . 1.7819(10)
V1 O4 . 1.819(4)
V1 Sr4 2_677 3.8236(11)
V2 O7 . 1.645(4)
V2 O8 . 1.696(4)
V2 O6 . 1.724(4)
V2 O5 . 1.785(4)
V2 Sr3 2_667 3.4961(10)
V2 Sr4 2_677 3.7807(10)
Te1 O10 . 1.839(4)
Te1 O4 . 1.908(4)
Te1 O9 . 1.931(4)
Te1 O8 . 2.356(5)
Te2 O11 . 1.832(4)
Te2 O19 2_667 1.927(4)
Te2 O12 . 2.024(4)
Te2 O9 2_666 2.113(4)
Te2 Sr4 2_667 3.8327(6)
Te3 O13 . 1.858(4)
Te3 O17 2_667 1.904(4)
Te3 O12 . 2.017(4)
Te3 O6 2_667 2.209(4)
Te3 Sr4 2_667 3.8309(7)
Te3 Sr4 2_567 3.8974(6)
Te4 O16 . 1.853(4)
Te4 O14 . 1.858(4)
Te4 O17 . 2.087(4)
Te4 O15 . 2.225(4)
Te4 Sr3 2_667 3.8858(6)
Te4 Sr3 2_567 3.8965(7)
Te5 O18 . 1.861(4)
Te5 O15 2_567 1.889(4)
Te5 O5 2_667 1.995(4)
Te5 O20 2_567 2.315(4)
Te5 Sr2 2_567 3.9145(6)
Te5 Sr2 2_667 3.9414(7)
Te6 O20 2_567 1.873(4)
Te6 O21 1_556 1.885(4)
Te6 O19 . 2.043(4)
Te6 O21 2_567 2.305(4)
Te6 Sr1 1_556 3.9064(4)
Te6 Sr1 1_456 4.0187(4)
O1 V1 2_776 1.7819(10)
O3 Sr4 2_677 2.634(4)
O5 Te5 2_667 1.995(4)
O5 Sr3 2_667 2.736(4)
O6 Te3 2_667 2.209(4)
O6 Sr3 2_667 2.870(4)
O7 Sr4 2_677 2.532(4)
O9 Te2 2_666 2.113(4)
O12 Sr4 2_667 2.769(4)
O13 Sr4 2_567 2.681(4)
O14 Sr3 2_667 2.448(4)
O15 Te5 2_567 1.889(4)
O16 Sr3 2_567 2.425(4)
O17 Te3 2_667 1.904(4)
O18 Sr2 2_667 2.753(4)
O19 Te2 2_667 1.927(4)
O20 Te6 2_567 1.873(4)
O20 Te5 2_567 2.315(4)
O20 Sr4 2_567 3.059(4)
O21 Te6 1_554 1.885(4)
O21 Te6 2_567 2.305(4)
loop_
_geom_torsion_atom_site_label_1
_geom_torsion_atom_site_label_2
_geom_torsion_atom_site_label_3
_geom_torsion_atom_site_label_4
_geom_torsion_site_symmetry_1
_geom_torsion_site_symmetry_4
_geom_torsion
O2 V1 O3 Sr4 . 2_677 -122.9(3)
O1 V1 O3 Sr4 . 2_677 118.2(2)
O4 V1 O3 Sr4 . 2_677 -2.5(4)
O2 V1 O4 Te1 . . -1.6(7)
O3 V1 O4 Te1 . . -120.0(6)
O1 V1 O4 Te1 . . 119.1(6)
Sr4 V1 O4 Te1 2_677 . -121.4(7)
O7 V2 O5 Te5 . 2_667 -102.4(5)
O8 V2 O5 Te5 . 2_667 19.6(5)
O6 V2 O5 Te5 . 2_667 134.9(4)
Sr3 V2 O5 Te5 2_667 2_667 118.8(5)
Sr4 V2 O5 Te5 2_677 2_667 -69.2(5)
O7 V2 O5 Sr3 . 2_667 138.8(2)
O8 V2 O5 Sr3 . 2_667 -99.2(2)
O6 V2 O5 Sr3 . 2_667 16.1(2)
Sr4 V2 O5 Sr3 2_677 2_667 171.93(4)
O7 V2 O6 Te3 . 2_667 -7.1(13)
O8 V2 O6 Te3 . 2_667 -130.0(12)
O5 V2 O6 Te3 . 2_667 114.3(12)
Sr3 V2 O6 Te3 2_667 2_667 129.5(13)
Sr4 V2 O6 Te3 2_677 2_667 -40.8(13)
O7 V2 O6 Sr3 . 2_667 -136.65(19)
O8 V2 O6 Sr3 . 2_667 100.5(2)
O5 V2 O6 Sr3 . 2_667 -15.2(2)
Sr4 V2 O6 Sr3 2_677 2_667 -170.29(4)
O8 V2 O7 Sr4 . 2_677 -0.4(4)
O6 V2 O7 Sr4 . 2_677 -122.4(3)
O5 V2 O7 Sr4 . 2_677 121.1(3)
Sr3 V2 O7 Sr4 2_667 2_677 174.85(8)
O7 V2 O8 Te1 . . 92.3(4)
O6 V2 O8 Te1 . . -142.6(4)
O5 V2 O8 Te1 . . -30.7(4)
Sr3 V2 O8 Te1 2_667 . -84.5(4)
Sr4 V2 O8 Te1 2_677 . 92.1(4)
O4 Te1 O10 Sr2 . . 156.3(2)
O9 Te1 O10 Sr2 . . -112.3(3)
O8 Te1 O10 Sr2 . . 71.3(2)
Sr1 Te1 O10 Sr2 . . -112.6(3)
O4 Te1 O10 Sr1 . . -91.1(2)
O9 Te1 O10 Sr1 . . 0.25(19)
O8 Te1 O10 Sr1 . . -176.14(17)
Sr2 Te1 O10 Sr1 . . 112.6(3)
O19 Te2 O11 Sr1 2_667 . 58.1(2)
O12 Te2 O11 Sr1 . . 137.7(2)
O9 Te2 O11 Sr1 2_666 . -19.4(2)
Sr2 Te2 O11 Sr1 . . 118.0(3)
Sr4 Te2 O11 Sr1 2_667 . 96.32(17)
O19 Te2 O11 Sr2 2_667 . -59.9(2)
O12 Te2 O11 Sr2 . . 19.7(2)
O9 Te2 O11 Sr2 2_666 . -137.4(2)
Sr1 Te2 O11 Sr2 . . -118.0(3)
Sr4 Te2 O11 Sr2 2_667 . -21.7(2)
O17 Te3 O13 Sr3 2_667 . -57.0(2)
O12 Te3 O13 Sr3 . . -135.94(19)
O6 Te3 O13 Sr3 2_667 . 19.92(18)
Sr2 Te3 O13 Sr3 . . -121.0(3)
Sr4 Te3 O13 Sr3 2_667 . -93.41(15)
Sr4 Te3 O13 Sr3 2_567 . 116.3(3)
O17 Te3 O13 Sr2 2_667 . 63.94(19)
O12 Te3 O13 Sr2 . . -14.96(18)
O6 Te3 O13 Sr2 2_667 . 140.90(19)
Sr3 Te3 O13 Sr2 . . 121.0(3)
Sr4 Te3 O13 Sr2 2_667 . 27.56(17)
Sr4 Te3 O13 Sr2 2_567 . -122.7(3)
O17 Te3 O13 Sr4 2_667 2_567 -173.31(19)
O12 Te3 O13 Sr4 . 2_567 107.79(19)
O6 Te3 O13 Sr4 2_667 2_567 -96.35(19)
Sr2 Te3 O13 Sr4 . 2_567 122.7(3)
Sr3 Te3 O13 Sr4 . 2_567 -116.3(3)
Sr4 Te3 O13 Sr4 2_667 2_567 150.31(13)
O16 Te4 O14 Sr3 . 2_667 -123.1(2)
O17 Te4 O14 Sr3 . 2_667 -42.9(2)
O15 Te4 O14 Sr3 . 2_667 147.8(3)
Sr3 Te4 O14 Sr3 . 2_667 -119.2(3)
Sr4 Te4 O14 Sr3 . 2_667 -80.6(2)
Sr2 Te4 O14 Sr3 . 2_667 135.5(3)
Sr3 Te4 O14 Sr3 2_567 2_667 -147.86(17)
O16 Te4 O14 Sr2 . . 101.47(19)
O17 Te4 O14 Sr2 . . -178.37(19)
O15 Te4 O14 Sr2 . . 12.28(17)
Sr3 Te4 O14 Sr2 . . 105.3(2)
Sr4 Te4 O14 Sr2 . . 143.93(12)
Sr3 Te4 O14 Sr2 2_667 . -135.5(3)
Sr3 Te4 O14 Sr2 2_567 . 76.67(17)
O16 Te4 O14 Sr3 . . -3.83(16)
O17 Te4 O14 Sr3 . . 76.33(15)
O15 Te4 O14 Sr3 . . -93.02(15)
Sr4 Te4 O14 Sr3 . . 38.63(13)
Sr2 Te4 O14 Sr3 . . -105.3(2)
Sr3 Te4 O14 Sr3 2_667 . 119.2(3)
Sr3 Te4 O14 Sr3 2_567 . -28.64(14)
O14 Te4 O16 Sr3 . 2_567 -123.8(3)
O17 Te4 O16 Sr3 . 2_567 146.4(3)
O15 Te4 O16 Sr3 . 2_567 -45.4(3)
Sr3 Te4 O16 Sr3 . 2_567 -127.7(3)
Sr4 Te4 O16 Sr3 . 2_567 125.2(3)
Sr2 Te4 O16 Sr3 . 2_567 -85.3(2)
Sr3 Te4 O16 Sr3 2_667 2_567 -150.11(19)
O14 Te4 O16 Sr3 . . 3.97(17)
O17 Te4 O16 Sr3 . . -85.84(16)
O15 Te4 O16 Sr3 . . 82.33(15)
Sr4 Te4 O16 Sr3 . . -107.06(18)
Sr2 Te4 O16 Sr3 . . 42.41(13)
Sr3 Te4 O16 Sr3 2_667 . -22.37(16)
Sr3 Te4 O16 Sr3 2_567 . 127.7(3)
O14 Te4 O16 Sr4 . . 111.04(17)
O17 Te4 O16 Sr4 . . 21.22(15)
O15 Te4 O16 Sr4 . . -170.60(15)
Sr3 Te4 O16 Sr4 . . 107.06(18)
Sr2 Te4 O16 Sr4 . . 149.47(10)
Sr3 Te4 O16 Sr4 2_667 . 84.69(14)
Sr3 Te4 O16 Sr4 2_567 . -125.2(3)
O15 Te5 O18 Sr4 2_567 . 57.7(2)
O5 Te5 O18 Sr4 2_667 . 142.7(2)
O20 Te5 O18 Sr4 2_567 . -16.55(19)
Sr3 Te5 O18 Sr4 . . 122.3(3)
Sr2 Te5 O18 Sr4 2_567 . 23.60(19)
Sr2 Te5 O18 Sr4 2_667 . -131.3(3)
O15 Te5 O18 Sr3 2_567 . -64.56(19)
O5 Te5 O18 Sr3 2_667 . 20.49(17)
O20 Te5 O18 Sr3 2_567 . -138.81(16)
Sr4 Te5 O18 Sr3 . . -122.3(3)
Sr2 Te5 O18 Sr3 2_567 . -98.65(13)
Sr2 Te5 O18 Sr3 2_667 . 106.4(2)
O15 Te5 O18 Sr2 2_567 2_667 -170.99(18)
O5 Te5 O18 Sr2 2_667 2_667 -85.9(2)
O20 Te5 O18 Sr2 2_567 2_667 114.76(19)
Sr3 Te5 O18 Sr2 . 2_667 -106.4(2)
Sr4 Te5 O18 Sr2 . 2_667 131.3(3)
Sr2 Te5 O18 Sr2 2_567 2_667 154.92(15)

_cod_database_fobs_code 2020555
