#------------------------------------------------------------------------------
#$Date: 2017-02-04 05:55:42 +0200 (Sat, 04 Feb 2017) $
#$Revision: 191418 $
#$URL: file:///home/coder/svn-repositories/cod/cif/2/02/06/2020691.cif $
#------------------------------------------------------------------------------
#
# This file is available in the Crystallography Open Database (COD),
# http://www.crystallography.net/. The original data for this entry
# were provided by IUCr Journals, http://journals.iucr.org/.
#
# The file may be used within the scientific community so long as
# proper attribution is given to the journal article from which the
# data were obtained.
#
data_2020691
loop_
_publ_author_name
'Ardan, Bohdan'
'Kinzhybalo, Vasyl'
'Slyvka, Yurii'
'Shyyka, Olga'
'Luk`yanov, Mykhaylo'
'Lis, Tadeusz'
'Mys`kiv, Marian'
_publ_section_title
;
 Ligand-forced dimerization of copper(I)--olefin complexes bearing a
 1,3,4-thiadiazole core
;
_journal_issue                   1
_journal_name_full               'Acta Crystallographica Section C'
_journal_page_first              36
_journal_page_last               46
_journal_paper_doi               10.1107/S2053229616018751
_journal_volume                  73
_journal_year                    2017
_chemical_formula_iupac          '[Cu2 (B F4)2 (C6 H9 N3 S)2]'
_chemical_formula_moiety         'C12 H18 B2 Cu2 F8 N6 S2'
_chemical_formula_sum            'C12 H18 B2 Cu2 F8 N6 S2'
_chemical_formula_weight         611.14
_chemical_name_systematic
Bis[\m-5-methyl-<i>N</i>-(prop-2-en-1-yl)-1,3,4-thiadiazol-2-amine]bis[(tetrafluoroborato)copper(I)]
_space_group_crystal_system      triclinic
_space_group_IT_number           2
_space_group_name_Hall           '-P 1'
_space_group_name_H-M_alt        'P -1'
_symmetry_space_group_name_Hall  '-P 1'
_symmetry_space_group_name_H-M   'P -1'
_atom_sites_solution_hydrogens   mixed
_atom_sites_solution_primary     direct
_audit_creation_method
;
Olex2 1.2
(compiled 2015.01.26 svn.r3150 for OlexSys, GUI svn.r4998)
;
_cell_angle_alpha                67.57(3)
_cell_angle_beta                 89.99(3)
_cell_angle_gamma                61.07(3)
_cell_formula_units_Z            1
_cell_length_a                   7.754(3)
_cell_length_b                   7.965(3)
_cell_length_c                   10.372(4)
_cell_measurement_reflns_used    6709
_cell_measurement_temperature    100(2)
_cell_measurement_theta_max      38.3923
_cell_measurement_theta_min      3.0152
_cell_volume                     504.6(4)
_computing_cell_refinement
;
CrysAlis RED (Oxford Diffraction, 2010)
;
_computing_data_collection
;
CrysAlis CCD (Oxford Diffraction, 2010)
;
_computing_data_reduction
;
CrysAlis RED (Oxford Diffraction, 2010)
;
_computing_molecular_graphics
;
OLEX2 (Dolomanov <i>et al.</i>,  2009)
;
_computing_publication_material
;
OLEX2 (Dolomanov <i>et al.</i>,  2009)
;
_computing_structure_refinement
;
SHELXL2014 (Sheldrick, 2015b)
;
_computing_structure_solution
;
SHELXT (Sheldrick, 2015a)
;
_diffrn_ambient_temperature      100.15
_diffrn_detector_area_resol_mean 8.1956
_diffrn_measured_fraction_theta_full 0.990
_diffrn_measured_fraction_theta_max 0.844
_diffrn_measurement_device_type  'Rigaku Xcalibur Onyx'
_diffrn_measurement_method       '\w and \p scans'
_diffrn_radiation_monochromator  graphite
_diffrn_radiation_type           MoK\a
_diffrn_radiation_wavelength     0.71073
_diffrn_reflns_av_R_equivalents  0.0141
_diffrn_reflns_limit_h_max       10
_diffrn_reflns_limit_h_min       -12
_diffrn_reflns_limit_k_max       13
_diffrn_reflns_limit_k_min       -13
_diffrn_reflns_limit_l_max       18
_diffrn_reflns_limit_l_min       -16
_diffrn_reflns_number            8712
_diffrn_reflns_theta_full        26.000
_diffrn_reflns_theta_max         38.484
_diffrn_reflns_theta_min         3.021
_exptl_absorpt_coefficient_mu    2.401
_exptl_absorpt_correction_T_max  0.711
_exptl_absorpt_correction_T_min  0.498
_exptl_absorpt_correction_type   analytical
_exptl_absorpt_process_details
;
[CrysAlis PRO (Rigaku OD, 2015), based on expressions
derived by Clark & Reid (1995)]
;
_exptl_crystal_colour            'clear colourless'
_exptl_crystal_density_diffrn    2.011
_exptl_crystal_description       block
_exptl_crystal_F_000             304
_exptl_crystal_size_max          0.4384
_exptl_crystal_size_mid          0.2332
_exptl_crystal_size_min          0.176
_refine_diff_density_max         0.558
_refine_diff_density_min         -0.508
_refine_ls_extinction_method     none
_refine_ls_goodness_of_fit_ref   1.065
_refine_ls_hydrogen_treatment    mixed
_refine_ls_matrix_type           full
_refine_ls_number_parameters     149
_refine_ls_number_reflns         4784
_refine_ls_number_restraints     0
_refine_ls_restrained_S_all      1.065
_refine_ls_R_factor_all          0.0269
_refine_ls_R_factor_gt           0.0223
_refine_ls_shift/su_max          0.001
_refine_ls_shift/su_mean         0.000
_refine_ls_structure_factor_coef Fsqd
_refine_ls_weighting_details
'w=1/[\s^2^(Fo^2^)+(0.0370P)^2^+0.0070P] where P=(Fo^2^+2Fc^2^)/3'
_refine_ls_weighting_scheme      calc
_refine_ls_wR_factor_gt          0.0604
_refine_ls_wR_factor_ref         0.0614
_reflns_number_gt                4163
_reflns_number_total             4784
_reflns_threshold_expression     'I > 2\s(I)'
_cod_data_source_file            fn3225sup1.cif
_cod_data_source_block           2
_cod_depositor_comments
'Adding full bibliography for 2020689--2020694.cif.'
_cod_database_code               2020691
_cod_database_fobs_code          2020691
_shelx_space_group_comment
;
The symmetry employed for this shelxl refinement is uniquely defined
by the following loop, which should always be used as a source of
symmetry information in preference to the above space-group names.
They are only intended as comments.
;
_shelx_hkl_file
;
   0   0   2 1442.60   20.57
   0   0  -2 1424.72   20.33
   0   0  -2 1440.20   13.16
   0   0  -3   15.59    0.52
   0   0  -3   15.15    0.81
   0   0   3   16.73    0.82
   0   0  -4   25.80    1.15
   0   0   4   24.07    1.13
   0   0  -4   27.04    0.74
   0   0  -5 1365.53    8.10
   0   0  -5 1365.42   20.47
   0   0   5 1369.09    8.14
   0   0   6  361.95    4.68
   0   0  -6  353.83    4.67
   0   0  -6  352.11    2.93
   0   0  -7   39.51    2.02
   0   0  -7   41.80    1.29
   0   0   7   43.45    2.07
   0   0  -8  279.08    3.16
   0   0  -8  297.68    5.09
   0   0   8  282.93    5.02
   0   0  -9   64.77    1.83
   0   0   9   62.31    2.90
   0   0  -9   58.34    2.81
   0   0  10  152.57    4.43
   0   0 -10  151.10    4.38
   0   0 -10  152.07    2.83
   0   0 -11  108.69    4.15
   0   0 -11  114.92    2.69
   0   0  11  116.44    4.30
   0   0 -12   11.39    2.53
   0   0  12   12.95    2.35
   0   0 -12   12.96    1.62
   0   0 -13   42.72    3.52
   0   0  13   44.39    3.48
   0   0 -13   46.98    2.28
   0   0  14   50.21    4.05
   0   0 -14   67.72    2.76
   0   0 -15    0.24    1.70
   0   0 -16    0.04    1.81
   0   1 -15    7.70    2.07
   0   1 -14   12.89    2.06
   0   1 -13   73.45    2.88
   0   1 -13   64.24    4.32
   0   1 -12    0.74    1.49
   0   1 -12    1.35    2.32
   0  -1  12    3.57    2.29
   0  -1  11  127.21    4.65
   0   1 -11  128.73    4.67
   0   1 -11  129.90    3.10
   0  -1  10  240.71    5.67
   0   1 -10  243.59    3.71
   0   1 -10  254.73    5.74
   0  -1   9    1.64    1.45
   0   1  -9    1.91    1.12
   0   1  -9    0.27    1.60
   0   1  -8  318.30    5.53
   0  -1   8  330.22    5.61
   0   1  -8  327.55    3.71
   0   1  -7  102.51    2.05
   0   1  -7  101.20    3.07
   0  -1   7  108.26    3.12
   0   1  -6   29.76    1.73
   0   1  -6   29.95    1.16
   0  -1   6   29.65    1.70
   0   1  -5 1444.72    8.72
   0   1  -5 1445.92   23.50
   0  -1   4  288.38    3.59
   0   1  -4  297.25    3.62
   0   1  -4  293.36    2.43
   0  -1   3 1041.35    5.88
   0   1  -3 1062.38    5.91
   0   1  -3 1045.51   15.99
   0   1  -2  598.49   10.49
   0  -1   2  593.15    3.81
   0   1  -2  587.61   10.78
   0   1  -2  604.07    3.82
   0   1  -1 2027.56   15.69
   0  -1   1 2021.40   21.86
   0   1  -1 2005.40   16.12
   0   1  -1 1975.27   21.83
   0   1  -1 2037.21   21.92
   0   1   0  181.67    0.85
   0  -1   0  190.92    1.20
   0   1   0  183.56    1.18
   0   1   0  183.31    0.99
   0   1   1  509.76    6.30
   0   1   1  513.46    8.07
   0  -1  -1  500.46    7.96
   0   1   2 1408.82   12.48
   0   1   2 1419.01   18.70
   0   1   2 1419.81   18.20
   0  -1  -2 1433.24   18.48
   0  -1  -3 1230.17   12.11
   0   1   3 1193.24   21.38
   0   1   4 2684.28   37.85
   0  -1  -4 2671.01   21.84
   0  -1  -4 2642.71   37.63
   0  -1  -5   58.67    1.00
   0   1   5   53.80    1.69
   0  -1  -5   58.21    1.74
   0  -1  -6  568.98    3.32
   0   1   6  565.19    5.63
   0  -1  -6  566.47    5.59
   0  -1  -7   92.79    2.67
   0   1   7   92.95    2.68
   0  -1  -7   91.08    1.55
   0   1   8  556.79    6.63
   0  -1  -8  534.79    3.90
   0  -1  -8  536.70    6.52
   0  -1  -9 1049.91    5.94
   0  -1  -9 1070.16    9.78
   0   1   9 1031.39    9.65
   0  -1 -10   72.47    3.16
   0   1  10   82.24    3.33
   0  -1 -10   73.04    1.90
   0   1  11   86.64    3.66
   0  -1 -11   87.96    2.21
   0  -1 -11   83.33    3.61
   0   1  12   29.25    2.75
   0  -1 -12   28.72    1.74
   0  -1 -12   28.23    2.75
   0  -1 -13    2.74    1.39
   0   1  13    1.21    2.21
   0  -1 -13    2.30    2.25
   0  -1 -14  127.42    5.49
   0  -1 -14  126.96    3.20
   0   1  14  116.34    5.34
   0  -1 -15   20.56    2.01
   0  -1 -16   35.87    2.41
   0   2 -14    5.11    2.08
   0   2 -13  121.76    3.64
   0   2 -12  196.36    6.14
   0   2 -12  198.98    4.20
   0   2 -11    6.84    1.69
   0   2 -11    5.82    2.36
   0   2 -10   34.58    2.86
   0  -2  10   32.94    2.84
   0   2 -10   33.26    2.00
   0   2  -9   18.96    1.55
   0  -2   9   16.31    2.08
   0   2  -9   18.06    2.27
   0  -2   8  167.52    4.32
   0   2  -8  182.65    4.46
   0   2  -8  174.20    3.00
   0  -2   7  106.19    3.27
   0   2  -7  110.75    3.33
   0   2  -7  109.38    2.33
   0   2  -6    1.41    0.84
   0   2  -6    1.45    1.13
   0  -2   6    1.55    1.07
   0   2  -5   31.05    1.22
   0  -2   5   30.35    1.69
   0   2  -5   29.97    1.67
   0  -2   4  565.33    5.33
   0   2  -4  563.67    3.78
   0   2  -4  570.95    5.35
   0   2  -3    4.41    0.55
   0   2  -3    3.76    0.79
   0  -2   3    6.18    0.78
   0   2  -3    4.50    0.60
   0   2  -2 1142.10   17.50
   0   2  -2 1148.03   17.03
   0  -2   2 1103.38    5.87
   0   2  -2 1140.00    5.96
   0  -2   1 1077.10    4.88
   0   2  -1 1054.27    4.78
   0   2  -1 1066.62   15.09
   0   2  -1 1074.30   19.44
   0   2  -1 1085.40   14.30
   0   2   0   43.95    0.64
   0  -2   0   40.84    0.85
   0   2   0   42.18    0.85
   0   2   0   43.61    0.89
   0   2   0   44.28    0.75
   0   2   1 2322.34   18.79
   0   2   1 2447.73   22.36
   0   2   1 2359.24   12.92
   0  -2  -1 2432.61   22.40
   0   2   2  752.93    3.46
   0   2   2  738.91   10.84
   0  -2  -3  445.33    3.23
   0   2   3  436.46    2.23
   0  -2  -4 2299.34   16.51
   0   2   4 2266.98   32.93
   0   2   4 2223.50   22.53
   0  -2  -4 2341.22   34.14
   0  -2  -5   19.59    0.55
   0   2   5   18.47    1.07
   0  -2  -5   18.29    1.06
   0   2   6 3098.04   49.80
   0  -2  -6 3087.46   26.93
   0  -2  -6 3045.54   49.28
   0  -2  -7  497.57    3.08
   0  -2  -7  475.04    5.46
   0   2   7  488.74    5.54
   0  -2  -8  210.97    2.26
   0  -2  -8  199.87    3.96
   0   2   8  203.81    3.97
   0   2   9   56.02    2.53
   0  -2  -9   56.31    1.42
   0  -2  -9   51.84    2.49
   0  -2 -10  231.55    2.84
   0  -2 -10  226.29    4.96
   0   2  10  223.75    4.88
   0  -2 -11  434.27    7.17
   0   2  11  428.98    7.10
   0  -2 -11  437.56    4.16
   0  -2 -12  419.50    4.39
   0  -2 -12  413.39    7.52
   0   2  12  419.53    7.50
   0  -2 -13   22.55    1.58
   0  -2 -13   19.20    2.78
   0  -2 -14    1.03    1.27
   0  -2 -14   -0.97    2.47
   0   2  14   -0.55    2.28
   0  -2 -15    2.01    2.66
   0   2  15    6.48    2.47
   0  -2 -15    3.92    1.45
   0   2  17   25.34    2.53
   0   3 -13    4.27    2.04
   0   3 -12   13.24    2.19
   0   3 -11   61.37    2.78
   0   3 -11   59.20    3.83
   0   3 -10  179.61    5.41
   0   3 -10  170.33    3.75
   0   3  -9  212.82    5.38
   0   3  -9  211.46    3.82
   0  -3   8   62.42    3.08
   0   3  -8   59.95    3.09
   0   3  -8   61.44    2.18
   0   3  -7  318.79    4.04
   0   3  -7  319.28    5.67
   0  -3   7  302.45    5.52
   0   3  -6  109.15    3.29
   0   3  -6  108.60    2.30
   0  -3   6  101.66    3.18
   0  -3   5  263.55    4.38
   0   3  -5  260.04    3.13
   0   3  -5  274.42    4.41
   0   3  -4  774.88    5.02
   0  -3   4  772.81    6.71
   0   3  -4  769.42    4.84
   0   3  -4  771.44    6.64
   0   3  -3  201.68    2.42
   0   3  -3  203.86    2.34
   0  -3   3  205.23    3.25
   0   3  -3  202.82    3.19
   0  -3   2  119.13    2.24
   0   3  -2  119.70    2.23
   0   3  -2  124.64    1.68
   0   3  -2  124.08    1.75
   0   3  -1  105.67    1.92
   0  -3   1  103.89    1.87
   0   3  -1   99.93    1.45
   0   3  -1  105.99    1.38
   0   3   0    8.92    0.56
   0   3   0    8.22    0.45
   0   3   0    8.10    0.63
   0   3   0    6.96    0.54
   0  -3   0    7.81    0.59
   0   3   1  464.20    2.64
   0  -3  -1  446.83    3.03
   0   3   1  463.87    7.77
   0   3   1  453.46    2.96
   0   3   2  263.81    1.13
   0   3   2  266.30    2.33
   0  -3  -2  268.16    2.42
   0   3   2  265.63    1.98
   0   3   3    5.34    0.48
   0  -3  -3    5.39    0.57
   0  -3  -4  455.85    3.81
   0   3   4  455.13    2.77
   0  -3  -5 1429.91    7.60
   0   3   5 1436.56   20.98
   0  -3  -5 1443.23   12.74
   0   3   6   64.02    1.32
   0  -3  -6   59.93    0.85
   0  -3  -6   58.78    1.89
   0   3   7  295.98    2.88
   0  -3  -7  296.01    4.26
   0  -3  -7  300.23    2.09
   0   3   7  304.28    4.22
   0  -3  -8   15.08    0.72
   0   3   8   20.26    1.14
   0  -3  -8   15.32    1.54
   0   3   8   17.68    1.64
   0  -3  -9    2.49    1.27
   0  -3  -9    2.82    0.64
   0   3   9    4.25    1.41
   0   3   9    4.76    0.99
   0  -3 -10  403.12    3.36
   0   3  10  382.61    6.14
   0  -3 -10  405.40    6.34
   0  -3 -11   33.32    2.55
   0   3  11   34.98    2.58
   0  -3 -11   35.98    1.37
   0  -3 -12   66.88    1.84
   0   3  12   70.33    3.42
   0  -3 -12   67.41    3.46
   0  -3 -13    7.68    2.24
   0  -3 -13    7.56    1.16
   0   3  13    7.40    2.32
   0  -3 -14   22.63    3.13
   0   3  14   23.70    2.94
   0   3  14   23.57    2.07
   0  -3 -15  322.49    7.89
   0   3  15  328.62    5.32
   0   3  16  210.32    4.75
   0   3  17    1.74    1.93
   0   4 -12   86.62    3.51
   0   4 -11   64.75    3.05
   0   4 -10    1.18    2.18
   0   4 -10   -0.41    1.70
   0   4  -9    4.04    2.11
   0   4  -9    5.25    1.70
   0   4  -8   17.00    1.77
   0   4  -8   17.48    2.41
   0   4  -7  152.25    4.30
   0   4  -7  156.15    3.16
   0   4  -6  592.78    7.35
   0   4  -6  597.78    5.44
   0  -4   5   59.24    2.49
   0   4  -5   64.98    1.91
   0   4  -5   60.57    2.51
   0  -4   4    1.88    1.03
   0   4  -4    0.81    0.93
   0   4  -4    1.17    1.05
   0   4  -4    1.59    0.88
   0   4  -3   13.11    0.98
   0   4  -3   11.72    1.07
   0   4  -3   13.14    1.26
   0  -4   2   89.14    2.24
   0   4  -2   87.75    1.76
   0   4  -2   88.06    1.63
   0   4  -2   92.81    2.26
   0  -4   1  299.42    3.51
   0   4  -1  308.38    2.59
   0   4  -1  301.10    3.46
   0   4  -1  301.65    2.83
   0   4   0  739.75    3.50
   0   4   0  720.27    4.83
   0   4   0  727.73    4.08
   0  -4   0  747.05    4.97
   0   4   1    1.27    0.47
   0  -4  -1    2.11    0.52
   0   4   1    1.59    0.34
   0   4   1    1.46    0.53
   0   4   2  594.10    3.91
   0   4   2  598.81    2.26
   0  -4  -2  598.49    4.08
   0   4   2  601.49    3.46
   0   4   3    2.91    0.20
   0  -4  -3    4.27    0.60
   0   4   3    3.81    0.55
   0   4   4   60.56    1.25
   0  -4  -4   65.75    1.61
   0   4   5  280.74    2.57
   0  -4  -5  284.86    3.48
   0  -4  -6  157.05    2.91
   0   4   6  152.96    2.02
   0   4   7  224.34    2.59
   0  -4  -7  224.59    3.78
   0  -4  -7  223.31    1.47
   0   4   8  362.78    3.50
   0  -4  -8  363.06    5.16
   0  -4  -8  366.67    2.23
   0  -4  -9    0.42    1.17
   0   4   9    1.70    0.88
   0  -4  -9    2.04    0.48
   0  -4 -10  336.24    5.76
   0  -4 -10  325.97    2.71
   0   4  10  329.19    3.86
   0  -4 -11  199.32    4.92
   0   4  11  199.22    3.28
   0  -4 -12   11.14    2.10
   0   4  12   10.65    1.46
   0   4  13  194.99    3.78
   0  -4 -13  203.25    5.64
   0  -4 -14  159.70    5.51
   0   4  14  157.38    3.69
   0  -4 -15    2.71    2.66
   0   4  15    3.34    1.77
   0   4  16   25.17    2.36
   0   4  17   18.29    2.37
   0   4  18   13.30    2.45
   0   5 -11   39.00    2.80
   0   5 -10   12.90    2.12
   0   5  -9    7.47    2.25
   0   5  -9    8.40    1.87
   0   5  -8  116.93    3.29
   0   5  -8  111.15    4.24
   0   5  -7   55.20    3.13
   0   5  -7   58.10    2.38
   0   5  -6   32.35    1.87
   0   5  -6   35.34    2.48
   0   5  -5   41.78    2.32
   0   5  -5   36.61    1.79
   0   5  -4   81.18    2.29
   0   5  -4   89.23    2.21
   0   5  -4   83.54    2.80
   0   5  -3  670.80    5.37
   0   5  -3  689.57    5.13
   0   5  -2  190.42    2.78
   0   5  -2  191.34    3.43
   0   5  -2  194.89    2.58
   0   5  -1  108.17    2.40
   0   5  -1  111.85    1.82
   0   5  -1  109.28    2.07
   0  -5   1  107.76    2.46
   0   5   0   25.80    1.27
   0   5   0   28.51    0.96
   0   5   0   27.89    1.18
   0  -5   0   27.06    1.30
   0   5   1   68.82    1.16
   0   5   1   69.07    1.53
   0   5   1   69.55    1.71
   0  -5  -1   68.49    1.73
   0  -5  -2  608.89    4.59
   0   5   2  607.78    2.73
   0   5   2  586.81    3.91
   0   5   3 1033.93   11.65
   0   5   3 1057.12    5.18
   0   5   4  201.28    2.34
   0  -5  -4  199.35    2.90
   0   5   5   42.26    1.26
   0  -5  -5   40.02    1.58
   0   5   6   14.96    0.98
   0  -5  -6   15.81    1.21
   0  -5  -7   40.39    1.83
   0   5   7   41.24    1.39
   0   5   8   98.71    2.05
   0  -5  -8   98.98    2.90
   0  -5  -9   80.80    2.85
   0   5   9   77.60    1.94
   0  -5 -10    9.41    1.64
   0   5  10   10.53    1.23
   0  -5 -11   55.47    2.90
   0   5  11   56.76    2.01
   0  -5 -12   23.89    2.44
   0   5  12   25.76    1.77
   0   5  13    0.63    1.45
   0  -5 -13   -1.27    1.84
   0  -5 -14  110.30    4.80
   0   5  14  107.72    3.22
   0   5  15   15.36    2.02
   0  -5 -15   13.15    2.87
   0   5  16   80.81    3.22
   0   5  17   34.83    2.71
   0   5  18   -0.66    1.98
   0   6 -10   26.17    2.54
   0   6  -9    1.90    1.83
   0   6  -8   84.60    3.24
   0   6  -7   21.04    2.01
   0   6  -7   23.18    2.37
   0   6  -6   10.45    1.60
   0   6  -6    9.97    1.92
   0   6  -5   28.37    1.83
   0   6  -5   25.99    2.25
   0   6  -4   43.47    1.90
   0   6  -4   44.70    2.39
   0   6  -4   42.47    2.10
   0   6  -3   24.23    1.43
   0   6  -3   21.36    1.71
   0   6  -3   25.23    1.73
   0   6  -2  277.82    4.36
   0   6  -2  270.12    3.65
   0   6  -2  280.04    3.34
   0   6  -1    0.63    0.78
   0   6  -1    1.11    0.99
   0   6  -1    0.24    1.05
   0   6   0  211.77    2.42
   0   6   0  204.45    2.91
   0   6   0  210.40    3.31
   0   6   1  191.23    2.72
   0   6   1  192.76    2.08
   0   6   1  189.58    2.98
   0   6   2  195.47    2.67
   0   6   2  203.11    2.99
   0   6   2  199.00    1.87
   0   6   3   26.59    0.66
   0   6   3   25.77    1.19
   0   6   4    3.06    0.84
   0  -6  -4    5.29    0.84
   0   6   5  398.41    3.65
   0  -6  -5  402.91    4.55
   0  -6  -6  698.84    6.27
   0   6   6  699.18    4.91
   0  -6  -7   52.16    2.10
   0   6   7   47.67    1.58
   0  -6  -8    2.18    1.19
   0   6   8    3.55    1.04
   0  -6  -9   41.93    2.26
   0   6   9   42.43    1.72
   0  -6 -10   18.19    1.97
   0   6  10   19.93    1.47
   0   6  11  241.94    3.74
   0  -6 -11  243.64    5.43
   0   6  12  217.86    3.76
   0  -6 -12  221.34    5.57
   0  -6 -13    6.35    2.14
   0   6  13   12.18    1.68
   0   6  14   36.08    2.26
   0   6  15   24.08    2.21
   0   6  16   14.42    2.18
   0   6  17   33.72    2.70
   0   6  18    8.60    2.22
   0   7  -8    5.29    1.86
   0   7  -7    6.15    1.81
   0   7  -6    7.50    1.69
   0   7  -5   15.51    1.75
   0   7  -4  137.80    3.49
   0   7  -4  148.58    3.24
   0   7  -4  147.27    3.92
   0   7  -3   14.73    1.42
   0   7  -3   13.60    1.63
   0   7  -3   15.19    1.74
   0   7  -2   88.67    2.62
   0   7  -2   83.40    2.17
   0   7  -2   84.83    2.73
   0   7  -1   36.74    1.49
   0   7  -1   40.05    1.91
   0   7  -1   35.66    1.93
   0   7   0   27.68    1.69
   0   7   0   28.13    1.63
   0   7   0   27.47    1.23
   0   7   1  164.92    2.91
   0   7   1  162.44    2.15
   0   7   1  166.79    3.08
   0   7   2   21.71    1.34
   0   7   2   24.54    1.48
   0   7   3  120.26    2.43
   0   7   3  122.03    2.54
   0   7   4  298.88    3.54
   0   7   5  151.23    2.63
   0   7   6   67.44    1.95
   0   7   7   84.56    2.13
   0   7   8   91.23    2.32
   0   7   9  278.00    3.81
   0   7  10  188.46    3.33
   0   7  11   19.46    1.72
   0   7  12   21.64    1.81
   0   7  13    8.69    1.71
   0   7  14   10.81    1.85
   0   7  15  159.60    4.06
   0   7  16   46.03    2.83
   0   7  17    2.35    1.94
   0   8  -7   79.49    3.22
   0   8  -6   39.47    2.47
   0   8  -5    0.13    1.49
   0   8  -4   24.29    1.94
   0   8  -3   27.77    1.85
   0   8  -3   30.47    2.28
   0   8  -2   10.42    1.80
   0   8  -2   10.75    1.35
   0   8  -1   51.60    2.37
   0   8   0  113.81    2.92
   0   8   1    0.92    1.34
   0   8   2  111.18    2.62
   0   8   2  114.15    2.72
   0   8   3   13.35    1.25
   0   8   3   15.25    1.52
   0   8   4   81.12    2.29
   0   8   4   77.66    2.29
   0   8   5   40.22    1.81
   0   8   6   33.08    1.73
   0   8   7  118.14    2.67
   0   8   8  218.11    3.53
   0   8   9    0.82    1.28
   0   8  10   56.09    2.27
   0   8  11    5.92    1.57
   0   8  12   92.96    2.93
   0   8  13   89.59    3.03
   0   8  14   62.34    2.91
   0   8  15   20.75    2.24
   0   8  16    8.98    2.09
   0   8  17   64.63    3.39
   0   9  -3   98.98    3.54
   0   9  -2   40.43    2.55
   0   9  -1    5.86    1.85
   0   9   0    0.85    1.66
   0   9   1    4.27    1.66
   0   9   2  137.77    3.30
   0   9   3  156.37    3.38
   0   9   4   -0.50    1.43
   0   9   5   44.52    2.16
   0   9   6   70.96    2.46
   0   9   7   36.03    2.03
   0   9   8  157.82    3.37
   0   9   9    1.15    1.48
   0   9  10   96.05    2.91
   0   9  11   58.49    2.53
   0   9  12   18.50    1.99
   0   9  13   51.27    2.64
   0   9  14   27.26    2.40
   0   9  15   -0.60    1.88
   0   9  16   69.29    3.43
   0  10  -2    6.92    2.22
   0  10  -1   45.69    2.90
   0  10   0  118.97    3.67
   0  10   1   70.91    2.98
   0  10   2    4.79    1.84
   0  10   3   19.97    2.12
   0  10   4    2.00    1.67
   0  10   5   42.71    2.34
   0  10   6  112.92    3.24
   0  10   7   41.98    2.39
   0  10   8   16.49    1.90
   0  10   9   22.06    2.02
   0  10  10    8.26    1.82
   0  10  11   74.71    2.91
   0  10  12  120.21    3.58
   0  10  13   22.03    2.28
   0  10  14   25.28    2.46
   0  10  15    0.43    1.89
   0  11   1   15.38    2.32
   0  11   2    4.30    2.12
   0  11   3   59.93    3.05
   0  11   4   82.95    3.28
   0  11   5   28.88    2.42
   0  11   6    6.73    1.95
   0  11   7    3.61    1.94
   0  11   8   93.20    3.30
   0  11   9  193.63    4.38
   0  11  10   14.49    2.15
   0  11  11    6.06    2.08
   0  11  12   59.56    3.02
   0  11  13    1.47    1.99
   0  11  14   52.12    3.13
   0  12   6   36.04    2.76
   0  12   7   77.52    3.49
   0  12   8   79.18    3.53
   0  12   9    1.41    2.06
   0  12  10    2.60    2.08
  -1  11  12   34.94    2.64
  -1  11  11    2.41    2.01
  -1  11  10   18.85    2.35
  -1  11   9   42.81    2.77
  -1  11   8    2.35    1.96
  -1  11   7   75.32    3.21
  -1  11   6   55.11    3.05
  -1  11   5    0.81    2.02
  -1  11   4   23.39    2.53
  -1  11   3    0.33    2.02
  -1  10  14    3.99    1.93
  -1  10  13   44.91    2.74
  -1  10  12  115.20    3.66
  -1  10  11   41.54    2.54
  -1  10  10    0.12    1.66
  -1  10   9   41.65    2.50
  -1  10   8   29.19    2.30
  -1  10   7    3.89    1.82
  -1  10   6   34.44    2.36
  -1  10   5    0.87    1.68
  -1  10   4   84.37    3.16
  -1  10   3   14.49    2.19
  -1  10   2    8.14    2.07
  -1  10   1   10.24    2.15
  -1  10   0   13.80    2.39
  -1  10  -1    4.51    2.19
  -1   9  16    3.12    1.92
  -1   9  15   51.89    2.81
  -1   9  14  189.68    4.51
  -1   9  13   32.31    2.42
  -1   9  12    3.71    1.71
  -1   9  11    0.60    1.62
  -1   9  10    1.20    1.58
  -1   9   9  148.78    3.43
  -1   9   8  155.01    3.48
  -1   9   7    1.60    1.52
  -1   9   6   28.26    2.03
  -1   9   5   32.77    2.10
  -1   9   4    4.27    1.63
  -1   9   3  218.42    4.12
  -1   9   2   79.52    2.94
  -1   9   1   27.53    2.25
  -1   9   0   84.26    3.19
  -1   9  -1   27.97    2.53
  -1   9  -2    8.58    2.17
  -1   8  17    2.60    1.89
  -1   8  16   99.58    3.65
  -1   8  15   31.71    2.49
  -1   8  14  141.18    3.78
  -1   8  13   55.66    2.62
  -1   8  12   21.29    1.92
  -1   8  11  138.44    3.29
  -1   8  10  268.06    4.17
  -1   8   9   22.87    1.77
  -1   8   8   28.72    1.79
  -1   8   7    3.25    1.37
  -1   8   6  241.68    3.71
  -1   8   5  306.09    4.19
  -1   8   4   51.57    2.14
  -1   8   3    3.98    1.41
  -1   8   2   11.33    1.59
  -1   8   1   62.07    2.50
  -1   8   0   83.69    2.83
  -1   8  -1   12.41    1.89
  -1   8  -2    0.00    1.77
  -1   8  -3   68.50    3.12
  -1   8  -4   32.95    2.21
  -1   8  -5    8.86    1.89
  -1   7  17    1.99    1.90
  -1   7  16   26.84    2.43
  -1   7  15   94.56    3.33
  -1   7  14    1.59    1.59
  -1   7  13   58.13    2.50
  -1   7  12   28.45    1.92
  -1   7  11   17.80    1.66
  -1   7  10  112.08    2.75
  -1   7   9   73.36    2.26
  -1   7   8  277.04    3.74
  -1   7   7  151.41    2.84
  -1   7   6   84.50    2.22
  -1   7   5  104.94    2.37
  -1   7   4   55.22    1.47
  -1   7   4   55.34    1.90
  -1   7   3  116.29    2.59
  -1   7   2  328.32    4.04
  -1   7   1  245.55    3.69
  -1   7   0    3.72    0.87
  -1   7   0    2.31    1.38
  -1   7  -1   21.76    1.81
  -1   7  -1   21.56    1.35
  -1   7  -2    5.47    1.61
  -1   7  -2    6.17    1.22
  -1   7  -3  190.42    4.00
  -1   7  -3  199.25    3.53
  -1   7  -4  162.95    3.54
  -1   7  -5    4.33    1.58
  -1   7  -6   11.30    1.89
  -1   7  -7   38.84    2.64
  -1   6  18   41.35    3.08
  -1   6  17   22.97    2.43
  -1   6  16    4.31    1.87
  -1   6  15   33.23    2.32
  -1   6  14   17.08    1.91
  -1   6  13  116.66    3.13
  -1   6  12  153.35    3.29
  -1   6  11   20.05    1.58
  -1   6  10  345.09    4.17
  -1   6   9  370.30    4.13
  -1   6   8   39.63    1.60
  -1   6   7   95.14    2.12
  -1   6   6  254.05    3.15
  -1   6   5   41.79    1.51
  -1   6   4  838.72    5.44
  -1   6   3    2.53    0.62
  -1   6   3    2.50    0.50
  -1   6   3    2.83    0.94
  -1   6   2  160.36    2.18
  -1   6   2  157.07    2.64
  -1   6   2  156.55    1.86
  -1   6   1    3.22    0.67
  -1   6   1    4.52    0.68
  -1   6   1    3.78    1.04
  -1   6   0   85.85    2.20
  -1   6   0   82.31    1.74
  -1   6   0   81.29    1.83
  -1   6  -1  322.81    3.46
  -1   6  -1  316.62    3.70
  -1   6  -1  315.28    3.97
  -1   6  -2  225.23    3.48
  -1   6  -2  221.16    3.59
  -1   6  -2  219.60    3.14
  -1   6  -3   34.55    1.96
  -1   6  -3   32.22    1.78
  -1   6  -3   33.57    1.71
  -1   6  -4    5.19    1.30
  -1   6  -4    3.91    1.62
  -1   6  -5    6.59    1.56
  -1   6  -6   55.15    2.49
  -1   6  -7   72.37    2.92
  -1   6  -8   24.53    2.27
  -1   6  -9   25.19    2.49
  -1   5  18    2.79    1.87
  -1   5  17    8.84    2.00
  -1   5  16    0.69    1.73
  -1   5  15   63.58    2.83
  -1   5  14  249.45    4.36
   1  -5 -13    4.62    1.99
  -1   5  13    6.37    1.47
   1  -5 -12   25.53    2.51
  -1   5  12   30.07    1.76
   1  -5 -11    7.55    1.68
  -1   5  11    7.59    1.24
   1  -5 -10   16.00    1.78
  -1   5  10   15.76    1.30
   1  -5  -9  643.69    7.17
  -1   5   9  641.02    5.13
   1  -5  -8   25.60    1.67
  -1   5   8   28.55    1.32
   1  -5  -7  218.12    3.62
  -1   5   7  214.27    2.77
  -1   5   6   62.85    1.62
   1  -5  -6   63.50    1.93
  -1   5   5   41.47    1.31
   1  -5  -5   38.96    1.43
  -1   5   4  197.94    2.46
  -1   5   4  192.76    1.44
   1  -5  -4  194.82    2.60
  -1   5   3  116.49    1.93
  -1   5   3  117.15    1.29
  -1   5   2   29.04    0.97
  -1   5   2   27.84    1.20
  -1   5   2   31.41    0.83
  -1   5   1  483.18    3.57
  -1   5   1  477.79    3.94
  -1   5   1  475.21    3.14
  -1   5   0  353.15    3.55
  -1   5   0  356.52    3.39
  -1   5   0  347.66    2.98
  -1   5  -1  182.30    2.43
  -1   5  -1  176.56    2.77
  -1   5  -1  184.71    2.74
  -1   5  -2  109.52    2.44
  -1   5  -2  107.40    2.38
  -1   5  -2  115.71    2.15
  -1   5  -3    6.77    1.34
  -1   5  -3    8.73    1.18
  -1   5  -3    8.05    1.08
  -1   5  -4   80.61    2.49
  -1   5  -4   79.94    2.21
  -1   5  -4   83.16    2.66
  -1   5  -5  279.91    4.01
  -1   5  -5  278.37    4.84
  -1   5  -6   42.92    2.16
  -1   5  -6   40.23    2.49
  -1   5  -7    7.91    1.76
  -1   5  -7    8.93    1.67
  -1   5  -8   13.49    2.15
  -1   5  -8   15.91    1.99
  -1   5  -9   16.51    2.17
  -1   5 -10  112.30    3.86
  -1   4  18    2.21    1.81
  -1   4  17   33.24    2.60
  -1   4  16   21.54    2.22
  -1   4  15    1.01    1.56
   1  -4 -15    0.83    2.23
  -1   4  14    8.93    1.72
   1  -4 -14    6.75    2.27
   1  -4 -13    2.73    1.89
  -1   4  13    1.59    1.38
   1  -4 -12  272.58    6.11
  -1   4  12  274.17    3.97
  -1   4  11  323.13    4.01
   1  -4 -11  325.85    6.12
   1  -4 -10  382.58    6.13
  -1   4  10  380.09    4.06
  -1   4   9    9.58    1.02
   1  -4  -9    7.74    0.61
   1  -4  -9    7.09    1.32
   1  -4  -8  162.65    3.52
  -1   4   8  163.58    2.38
  -1   4   7  108.77    1.90
   1  -4  -7  107.03    2.65
  -1   4   6  468.66    3.53
   1  -4  -6  469.62    4.72
  -1   4   5  614.54    3.88
   1  -4  -5  629.77    4.88
  -1   4   4  138.35    2.06
   1  -4  -4  141.02    2.12
  -1   4   4  138.63    1.85
  -1   4   4  135.20    1.09
  -1   4   3 1142.19   20.03
  -1   4   3 1127.66   13.31
  -1   4   3 1146.57    4.94
   1  -4  -3 1135.00    5.21
   1  -4  -2  114.50    1.60
  -1   4   2  112.49    1.23
  -1   4   2  113.77    1.68
  -1   4   1  104.64    1.73
   1  -4  -1   97.35    1.59
  -1   4   1  104.19    1.52
  -1   4   1  100.43    1.32
  -1   4   0 1123.76    5.33
   1  -4   0 1119.79    5.66
  -1   4   0 1121.98   18.67
  -1   4   0 1094.22    5.42
  -1   4  -1    0.46    0.76
  -1   4  -1    0.76    0.59
   1  -4   1    0.43    0.63
  -1   4  -1    1.10    0.62
  -1   4  -2  411.43    4.13
  -1   4  -2  395.32    3.72
   1  -4   2  402.62    4.35
  -1   4  -2  409.47    3.48
  -1   4  -3    3.99    1.02
  -1   4  -3    4.69    0.87
  -1   4  -3    4.76    1.01
  -1   4  -4   26.13    1.37
  -1   4  -4   23.01    1.61
  -1   4  -4   27.49    1.59
  -1   4  -5   22.87    1.78
  -1   4  -5   23.26    1.50
  -1   4  -6   22.55    2.00
  -1   4  -6   23.32    1.64
  -1   4  -7  182.71    4.52
  -1   4  -7  190.92    3.58
  -1   4  -8  110.34    3.08
  -1   4  -8  104.87    3.90
  -1   4  -9    9.04    1.81
  -1   4  -9    9.42    2.09
  -1   4 -10    0.60    2.09
  -1   4 -10    1.14    1.80
  -1   4 -11    7.03    2.07
  -1   4 -12    0.34    2.03
  -1   3  17   41.54    2.71
  -1   3  16  123.60    3.64
   1  -3 -15    1.24    2.70
  -1   3  15    5.28    1.73
  -1   3  15    7.06    2.54
  -1   3  14   25.11    2.02
   1  -3 -14   20.43    2.85
  -1   3  14   27.81    3.05
   1  -3 -13  160.81    5.25
   1  -3 -13  152.30    2.73
  -1   3  13  156.90    5.15
  -1   3  13  155.58    3.34
  -1   3  12   90.34    3.73
  -1   3  12   88.93    2.50
   1  -3 -12   88.42    2.03
   1  -3 -12   88.80    3.85
   1  -3 -11   61.19    1.62
   1  -3 -11   57.51    3.03
  -1   3  11   60.86    3.02
  -1   3  11   59.83    2.03
   1  -3 -10   13.61    1.80
  -1   3  10   16.25    1.88
  -1   3  10   14.93    1.23
   1  -3 -10   16.61    0.94
   1  -3  -9  227.96    4.49
  -1   3   9  223.41    2.91
   1  -3  -9  224.20    2.35
  -1   3   9  232.31    4.43
   1  -3  -8  817.39    7.54
  -1   3   8  828.19    7.48
  -1   3   8  810.23    4.97
   1  -3  -8  825.63    4.03
  -1   3   7  155.88    2.10
   1  -3  -7  158.36    3.16
  -1   3   7  151.73    3.02
   1  -3  -6   98.06    2.29
  -1   3   6  100.26    1.58
   1  -3  -5    1.75    0.62
  -1   3   5    3.17    0.53
  -1   3   4   42.39    0.97
   1  -3  -4   42.23    1.21
  -1   3   4   39.09    1.16
  -1   3   3 1043.03   16.95
  -1   3   3 1056.33    4.62
   1  -3  -3 1053.94    4.66
  -1   3   3 1049.75   11.36
   1  -3  -2  257.39    2.04
  -1   3   2  263.06    1.57
  -1   3   2  258.05    2.12
  -1   3   1  324.87    2.12
  -1   3   1  320.79    2.45
   1  -3  -1  340.14    2.30
  -1   3   1  331.54    2.01
   1  -3   0   27.70    0.85
  -1   3   0   26.94    0.79
  -1   3   0   25.85    0.88
  -1   3   0   25.90    0.74
  -1   3  -1  484.07    3.59
  -1   3  -1  473.79    3.38
   1  -3   1  492.10    3.73
  -1   3  -1  483.86    3.38
  -1   3  -1  484.44    3.07
  -1   3  -2  353.72    3.14
   1  -3   2  345.67    3.62
  -1   3  -2  351.90    2.90
  -1   3  -2  342.49    3.48
  -1   3  -3  457.46    3.64
  -1   3  -3  463.01    4.55
   1  -3   3  463.51    4.69
  -1   3  -3  457.68    3.88
  -1   3  -4    2.31    0.87
  -1   3  -4    1.48    0.90
  -1   3  -4    1.09    0.89
   1  -3   4    1.38    0.96
  -1   3  -5  107.59    2.23
   1  -3   5  104.77    2.90
  -1   3  -5  113.06    2.94
  -1   3  -6  406.12    4.38
  -1   3  -6  422.76    5.78
  -1   3  -7   51.28    2.62
  -1   3  -7   50.54    1.95
  -1   3  -8   10.10    1.88
  -1   3  -8   10.46    1.48
  -1   3  -9   63.11    2.54
  -1   3  -9   60.88    3.33
  -1   3 -10   14.79    1.92
  -1   3 -10   12.08    2.51
  -1   3 -11  102.55    3.36
  -1   3 -11   94.14    4.37
  -1   3 -12   33.19    2.62
  -1   3 -13    9.07    2.25
  -1   2  17    6.56    2.06
  -1   2  16   82.90    3.34
   1  -2 -15   19.21    1.74
  -1   2  15   17.92    2.94
   1  -2 -15   18.35    3.13
  -1   2  15   15.61    2.08
  -1   2  14    6.39    2.32
   1  -2 -14    5.63    1.37
   1  -2 -14    3.91    2.43
   1  -2 -13   20.49    2.86
   1  -2 -13   24.90    1.56
  -1   2  13   22.52    2.74
   1  -2 -12   92.63    2.24
   1  -2 -12   89.91    4.03
  -1   2  12   91.51    3.93
   1  -2 -11   11.62    2.00
   1  -2 -11   12.89    1.16
  -1   2  11   15.24    2.01
   1  -2 -10   48.99    2.65
  -1   2  10   52.77    2.75
   1  -2 -10   50.41    1.51
   1  -2  -9   12.38    0.89
  -1   2   9   13.50    1.63
   1  -2  -9   11.59    1.60
   1  -2  -8   18.77    0.88
   1  -2  -8   16.23    1.53
  -1   2   8   19.81    1.61
  -1   2   7   39.41    1.17
  -1   2   7   39.45    1.81
   1  -2  -7   36.38    1.77
  -1   2   6  110.38    2.44
  -1   2   6  109.96    1.58
   1  -2  -6  110.30    2.49
   1  -2  -5  313.48    3.59
  -1   2   5  324.78    2.37
  -1   2   5  319.00    3.50
  -1   2   4 2575.04   24.01
   1  -2  -4 2563.13   34.80
  -1   2   4 2565.02   33.70
   1  -2  -3  393.23    2.86
  -1   2   3  392.44    2.25
  -1   2   3  395.11    2.85
  -1   2   2  267.66    1.34
   1  -2  -2  277.82    1.88
  -1   2   2  282.52    1.84
  -1   2   1  191.08    1.28
   1  -2  -1  193.51    1.27
  -1   2   1  191.38    1.55
  -1   2   0   60.71    0.84
  -1   2   0   62.58    0.87
  -1   2   0   62.93    1.02
   1  -2   0   62.43    0.91
   1  -2   1 2082.93   25.78
  -1   2  -1 2059.67   21.69
  -1   2  -1 2033.75   23.58
  -1   2  -1 2030.30   24.24
  -1   2  -1 2005.71   24.52
  -1   2  -2 1304.79   20.86
   1  -2   2 1355.82    6.29
  -1   2  -2 1349.74    6.15
  -1   2  -2 1340.92   19.72
  -1   2  -2 1329.77    6.15
   1  -2   3   85.10    1.94
  -1   2  -3   84.59    1.90
  -1   2  -3   82.91    1.49
  -1   2  -3   84.87    1.59
  -1   2  -4  205.33    3.24
  -1   2  -4  200.65    2.42
   1  -2   4  199.45    3.27
  -1   2  -5    0.64    0.78
   1  -2   5    0.55    0.94
  -1   2  -5    0.10    0.98
  -1   2  -6  401.58    3.95
   1  -2   6  392.09    5.44
  -1   2  -6  397.29    5.37
   1  -2   7  115.41    3.46
  -1   2  -7  124.13    2.51
  -1   2  -7  122.06    3.45
  -1   2  -8    6.26    1.65
  -1   2  -8    6.01    1.29
   1  -2   8    6.97    1.63
  -1   2  -9   32.16    1.88
  -1   2  -9   35.07    2.63
  -1   2 -10   62.70    2.48
  -1   2 -10   61.26    3.42
  -1   2 -11   12.15    1.88
  -1   2 -11   10.71    2.32
  -1   2 -12   30.56    2.41
  -1   2 -12   24.18    3.14
  -1   2 -13    6.48    2.10
  -1   2 -14    7.40    2.13
   1  -1 -16    3.72    1.73
   1  -1 -15   75.31    2.77
   1  -1 -14   21.28    1.85
   1  -1 -14   22.68    3.11
  -1   1  14   17.91    2.93
   1  -1 -13    5.49    1.40
  -1   1  13    4.94    2.29
   1  -1 -13    3.54    2.29
  -1   1  12  104.69    4.24
   1  -1 -12  106.79    4.36
   1  -1 -12  100.37    2.50
   1  -1 -11    8.86    1.22
   1  -1 -11    9.12    2.01
  -1   1  11    9.61    2.03
  -1   1  10  320.48    5.97
   1  -1 -10  325.04    6.03
   1  -1 -10  321.53    3.52
  -1   1   9  268.32    5.12
   1  -1  -9  268.26    3.02
   1  -1  -9  267.88    5.08
  -1   1   8   16.55    1.70
   1  -1  -8   12.96    1.59
   1  -1  -8   13.18    0.92
   1  -1  -7 1031.00    8.27
   1  -1  -7 1037.10    4.92
  -1   1   6  263.02    3.84
   1  -1  -6  263.40    3.91
  -1   1   5  153.75    2.66
   1  -1  -5  139.51    2.57
   1  -1  -4  127.56    2.13
  -1   1   4  131.24    2.17
   1  -1  -3    3.38    0.50
  -1   1   3    3.99    0.50
   1  -1  -2  265.10    1.97
  -1   1   2  263.29    1.41
  -1   1   2  268.12    1.90
  -1   1   2  273.49    1.98
  -1   1   1  171.35    0.99
  -1   1   1  169.54    1.11
  -1   1   0  880.62   11.11
  -1   1   0  878.15   10.13
  -1   1  -1   29.82    0.68
  -1   1  -1   28.48    0.65
  -1   1  -1   28.74    0.62
  -1   1  -1   29.20    0.68
   1  -1   1   28.28    0.68
  -1   1  -2   43.97    0.86
  -1   1  -2   48.31    1.15
  -1   1  -2   44.59    0.93
   1  -1   2   47.33    1.13
  -1   1  -2   47.37    1.11
  -1   1  -3  441.78    3.80
  -1   1  -3  443.07    2.82
   1  -1   3  451.10    3.92
  -1   1  -4  419.26    3.09
  -1   1  -4  431.80    4.31
   1  -1   4  425.14    4.34
  -1   1  -5 1249.16    5.77
  -1   1  -5 1261.14    8.15
   1  -1   5 1273.68    8.29
  -1   1  -6  284.45    3.06
  -1   1  -6  302.37    4.48
   1  -1   6  293.94    4.55
   1  -1   7   42.03    2.17
  -1   1  -7   44.80    1.56
  -1   1  -7   47.08    2.25
   1  -1   8    3.52    1.44
  -1   1  -8    5.40    1.63
  -1   1  -8    8.21    1.14
  -1   1  -9   66.13    2.17
  -1   1  -9   62.95    3.03
   1  -1   9   64.61    3.10
  -1   1 -10  216.18    5.38
   1  -1  10  217.11    5.45
  -1   1 -10  230.06    3.77
  -1   1 -11   50.00    3.35
  -1   1 -11   50.76    2.32
  -1   1 -12  132.99    5.12
  -1   1 -12  145.29    3.51
  -1   1 -13   93.64    3.22
  -1   1 -14    2.07    1.85
  -1   1 -15   31.65    2.59
   1   0 -16   58.77    2.99
   1   0 -15    9.77    1.89
  -1   0  14   21.19    3.08
   1   0 -14   20.13    1.97
   1   0 -14   15.26    3.26
   1   0 -13   10.34    2.62
   1   0 -13   13.20    1.73
  -1   0  13   14.36    2.66
   1   0 -12  184.42    5.52
  -1   0  12  196.39    5.71
   1   0 -12  194.04    3.54
   1   0 -11  169.36    3.06
  -1   0  11  175.53    5.06
   1   0 -11  169.91    5.00
  -1   0  10    0.06    1.59
   1   0 -10    0.47    1.04
   1   0 -10    0.27    1.69
   1   0  -9    6.97    1.05
  -1   0   9    5.97    1.65
   1   0  -9    3.91    1.50
   1   0  -8  123.88    3.50
  -1   0   8  129.55    3.50
   1   0  -8  132.57    2.19
  -1   0   7    2.84    1.13
   1   0  -7    2.31    1.15
   1   0  -7    2.50    0.71
  -1   0   6  579.71    5.92
   1   0  -6  582.23    5.94
   1   0  -6  582.00    3.73
  -1   0   5    3.42    0.81
   1   0  -5    0.62    0.75
   1   0  -4  306.59    3.47
  -1   0   4  308.22    3.48
   1   0  -3    4.57    0.60
  -1   0   3    3.96    0.56
  -1   0   2    4.14    0.46
   1   0  -2    4.46    0.47
  -1   0   2    3.64    0.43
  -1   0   1  464.79    8.64
   1   0  -1  485.02    8.87
   1   0  -1  471.78    2.22
  -1   0   1  468.22    2.16
  -1   0   0 1504.85   10.63
  -1   0  -1   13.02    0.35
  -1   0  -1   12.49    0.42
  -1   0  -1   12.20    0.41
   1   0   1   12.86    0.43
   1   0   1   13.04    0.43
   1   0   2  858.95   16.20
  -1   0  -2  855.76   11.46
  -1   0  -2  863.96    4.07
  -1   0  -2  862.83    3.96
  -1   0  -3  814.74   13.06
  -1   0  -3  819.84    4.79
   1   0   3  826.02    4.93
  -1   0  -4  221.46    2.00
  -1   0  -4  221.16    2.96
   1   0   4  221.84    2.99
  -1   0  -5  152.00    1.86
   1   0   5  150.90    2.84
  -1   0  -5  146.91    2.78
   1   0   6   98.94    2.66
  -1   0  -6  100.25    1.71
  -1   0  -6   98.10    2.60
   1   0   7  835.18    7.87
  -1   0  -7  852.01    7.75
  -1   0  -7  840.88    5.13
  -1   0  -8  734.73    5.18
  -1   0  -8  719.63    7.78
  -1   0  -9   42.01    2.50
   1   0   9   35.57    2.31
  -1   0  -9   42.41    1.65
  -1   0 -10    5.65    1.89
  -1   0 -10    6.29    1.22
   1   0  10    7.29    1.76
  -1   0 -11   19.42    2.50
  -1   0 -11   23.64    1.72
   1   0  11   23.92    2.45
   1   0  12    8.33    2.24
  -1   0 -12   10.41    1.61
  -1   0 -12   10.40    2.46
  -1   0 -13  144.82    3.50
  -1   0 -13  129.56    5.19
  -1   0 -14   79.66    2.96
  -1   0 -15    1.28    1.80
   1   1 -15   15.16    2.20
   1   1 -14   58.96    2.82
   1   1 -13   83.80    4.57
  -1  -1  13   88.05    4.58
   1   1 -13   89.47    2.96
  -1  -1  12   22.05    2.90
   1   1 -12   18.64    2.89
   1   1 -12   24.71    1.93
   1   1 -11   70.36    3.78
  -1  -1  11   75.21    3.82
   1   1 -11   71.42    2.41
  -1  -1  10   11.06    2.03
   1   1 -10    8.86    1.34
   1   1 -10   10.40    2.17
   1   1  -9  373.58    4.10
   1   1  -9  381.00    6.42
  -1  -1   9  363.09    6.31
   1   1  -8  792.38    5.45
   1   1  -8  777.69    8.51
  -1  -1   8  779.50    8.38
  -1  -1   7  184.69    3.95
   1   1  -7  193.09    2.59
   1   1  -7  196.77    4.04
   1   1  -6  184.28    3.61
  -1  -1   6  183.59    3.58
   1   1  -6  184.04    2.33
   1   1  -5  232.28    3.67
  -1  -1   5  230.50    3.61
   1   1  -5  231.42    2.37
  -1  -1   4  154.07    2.69
   1   1  -4  153.40    1.77
   1   1  -4  152.99    2.69
   1   1  -3 1522.74    7.30
  -1  -1   3 1513.11   28.71
  -1  -1   2  217.36    1.29
  -1  -1   2  220.51    2.39
   1   1  -2  212.03    2.37
  -1  -1   1  629.76    8.34
  -1  -1   1  619.09   13.16
   1   1  -1  617.31    6.75
   1   1  -1  627.08    3.30
   1   1   0  679.72   11.32
  -1  -1   0  682.92   11.21
   1   1   1  502.47    2.46
  -1  -1  -1  501.44    9.85
  -1  -1  -1  487.52    5.21
  -1  -1  -2   16.96    0.64
  -1  -1  -2   17.67    0.36
  -1  -1  -3  597.24    9.21
  -1  -1  -3  605.83    3.93
   1   1   3  594.10    3.89
   1   1   4  156.87    2.41
  -1  -1  -4  161.13    2.41
  -1  -1  -4  160.30    1.46
  -1  -1  -5   80.58    1.99
  -1  -1  -5   77.24    1.20
   1   1   5   81.48    2.02
  -1  -1  -6  125.63    1.70
   1   1   6  128.54    2.78
  -1  -1  -6  123.35    2.73
  -1  -1  -7   18.52    1.53
  -1  -1  -7   20.97    0.96
   1   1   7   21.73    1.55
   1   1   8    1.93    1.20
  -1  -1  -8    2.96    1.29
  -1  -1  -8    2.94    0.75
  -1  -1  -9   86.07    3.11
  -1  -1  -9   83.20    1.94
   1   1   9   84.78    3.11
   1   1  10    9.54    1.79
  -1  -1 -10    6.67    1.75
  -1  -1 -10    6.97    1.08
   1   1  11  461.13    7.60
  -1  -1 -11  463.81    7.63
  -1  -1 -11  457.08    4.72
  -1  -1 -12  158.30    3.14
  -1  -1 -12  156.80    5.07
   1   1  12  158.61    5.06
   1   1  13    5.44    2.05
  -1  -1 -13    6.02    1.48
  -1  -1 -13    3.70    2.48
  -1  -1 -14   28.27    2.07
   1   1  14   21.69    3.02
  -1  -1 -14   26.71    3.47
  -1  -1 -15    8.07    1.80
  -1  -1 -16  129.24    3.64
   1   2 -15    7.94    2.20
   1   2 -14   15.66    2.26
   1   2 -13  109.35    3.50
   1   2 -12    4.82    2.56
   1   2 -12    7.51    1.83
  -1  -2  12    2.58    2.52
   1   2 -11  137.21    3.32
  -1  -2  11  137.02    4.99
   1   2 -11  135.97    4.92
   1   2 -10  190.48    3.49
  -1  -2  10  182.70    5.25
   1   2 -10  182.00    5.25
   1   2  -9  103.94    2.57
  -1  -2   9  100.78    3.82
   1   2  -9  102.66    3.83
  -1  -2   8    6.19    1.70
   1   2  -8    5.46    1.17
   1   2  -8    5.51    1.73
   1   2  -7   21.63    1.31
   1   2  -7   21.55    1.92
  -1  -2   7   23.01    1.87
   1   2  -6  221.67    4.21
   1   2  -6  223.05    2.77
  -1  -2   6  214.37    4.09
  -1  -2   5 1169.19    8.45
   1   2  -5 1185.39    8.61
   1   2  -5 1178.12    5.75
  -1  -2   4 1601.41    9.03
   1   2  -4 1552.22    9.08
  -1  -2   4 1607.34   15.24
   1   2  -4 1574.86   24.09
   1   2  -3    6.26    0.83
   1   2  -3    6.49    0.60
  -1  -2   3    4.75    0.81
  -1  -2   3    6.98    0.36
   1   2  -3    5.51    0.55
   1   2  -2 1736.95   20.55
   1   2  -2 1704.16   18.89
   1   2  -2 1696.98    7.44
  -1  -2   1   19.68    0.82
   1   2  -1   22.68    0.87
  -1  -2   0  388.81    2.77
   1   2   0  386.17    6.84
   1   2   1   70.33    0.76
  -1  -2  -1   71.99    1.19
  -1  -2  -2  347.02    2.71
   1   2   2  362.59    1.79
  -1  -2  -3   76.03    0.62
   1   2   3   77.97    1.00
  -1  -2  -3   78.42    1.50
  -1  -2  -4  845.79   10.48
  -1  -2  -4  871.34    5.40
   1   2   5  238.22    3.19
  -1  -2  -5  237.74    3.22
  -1  -2  -5  232.31    1.69
  -1  -2  -6 1692.32   20.72
  -1  -2  -6 1678.57    9.45
   1   2   6 1713.30    9.34
  -1  -2  -7   31.68    0.97
   1   2   7   36.56    1.81
  -1  -2  -7   32.53    1.75
  -1  -2  -8  195.58    4.00
   1   2   8  187.14    3.88
  -1  -2  -8  185.55    2.23
  -1  -2  -9  405.03    6.03
  -1  -2  -9  400.12    3.46
   1   2   9  380.40    5.85
   1   2  10  227.08    4.96
  -1  -2 -10  246.09    5.16
  -1  -2 -10  241.94    3.01
  -1  -2 -11   92.95    2.19
  -1  -2 -11   93.85    3.75
   1   2  11   97.75    3.71
  -1  -2 -12   61.60    2.03
  -1  -2 -12   58.78    3.37
   1   2  12   57.79    3.32
  -1  -2 -13    4.76    1.34
   1   2  13    4.76    2.23
  -1  -2 -13    3.79    2.28
  -1  -2 -14   29.73    1.89
   1   2  14   27.10    3.17
  -1  -2 -14   29.62    3.39
  -1  -2 -15   86.18    2.81
  -1  -2 -16    0.41    1.44
   1   3 -14   30.29    2.67
   1   3 -13    6.63    2.03
   1   3 -12   72.66    3.02
   1   3 -11    7.91    2.57
   1   3 -11    7.75    1.83
  -1  -3  10   37.61    3.02
   1   3 -10   38.05    3.15
   1   3 -10   38.67    2.18
   1   3  -9   43.45    2.08
  -1  -3   9   37.16    2.84
   1   3  -9   37.33    2.86
   1   3  -8    1.38    1.20
  -1  -3   8    1.39    1.54
   1   3  -8    1.98    1.76
   1   3  -7  679.59    5.55
   1   3  -7  700.37    8.14
  -1  -3   6  255.67    4.68
   1   3  -6  266.53    3.28
   1   3  -6  257.99    4.83
   1   3  -5  139.45    3.37
   1   3  -5  152.76    2.37
  -1  -3   5  149.97    3.41
  -1  -3   4  133.76    2.97
   1   3  -4  128.28    2.97
  -1  -3   4  133.21    1.28
   1   3  -4  134.47    2.06
   1   3  -4  131.34    2.00
   1   3  -3    8.21    0.69
   1   3  -3    7.78    0.69
  -1  -3   3    8.79    1.00
   1   3  -3    7.90    1.02
  -1  -3   2 1879.18    8.71
   1   3  -2 1910.13   24.20
   1   3  -2 1869.04   23.53
   1   3  -2 1887.15    8.75
  -1  -3   1 2857.76   38.87
   1   3  -1 2862.00   26.26
   1   3  -1 2843.67   26.32
   1   3  -1 2859.31   38.93
  -1  -3   0   28.42    1.00
   1   3   0   29.47    0.70
  -1  -3  -1 1040.29   20.33
   1   3   1 1019.90   14.08
   1   3   1 1059.84   10.91
   1   3   2   17.15    0.56
  -1  -3  -2   18.20    0.82
  -1  -3  -3 2786.43   36.25
   1   3   3 2651.74   24.09
   1   3   4 1721.41   20.95
  -1  -3  -4 1622.04   30.33
  -1  -3  -5  431.74    1.78
  -1  -3  -5  438.86    4.35
   1   3   5  438.52    2.96
  -1  -3  -6   63.20    0.89
   1   3   6   66.47    1.38
  -1  -3  -6   62.91    1.99
  -1  -3  -7  434.19    2.61
  -1  -3  -7  443.00    5.25
  -1  -3  -8    1.70    1.17
  -1  -3  -8    3.36    0.54
  -1  -3  -9   40.22    1.14
   1   3   9   37.46    2.16
  -1  -3  -9   38.61    2.24
  -1  -3 -10   63.81    1.55
   1   3  10   62.49    2.86
  -1  -3 -10   61.83    2.92
   1   3  11    2.40    1.71
  -1  -3 -11    4.93    0.89
  -1  -3 -11    5.33    1.90
  -1  -3 -12  115.66    2.34
  -1  -3 -12  125.38    4.42
  -1  -3 -13   28.68    1.57
  -1  -3 -13   27.24    2.93
  -1  -3 -14    0.45    2.27
  -1  -3 -14    1.28    1.15
  -1  -3 -15  137.52    5.67
   1   3  17   52.78    3.15
   1   4 -13    4.29    2.12
   1   4 -12  102.14    3.67
   1   4 -11    2.65    1.84
   1   4 -10   46.79    3.60
   1   4 -10   56.21    2.61
   1   4  -9    8.69    1.70
   1   4  -9    8.29    2.35
   1   4  -8    1.10    1.77
   1   4  -8    2.58    1.45
   1   4  -7  187.77    3.34
  -1  -4   7  188.38    4.75
   1   4  -7  180.28    4.60
  -1  -4   6  422.60    6.39
   1   4  -6  435.57    6.42
   1   4  -6  428.38    4.51
  -1  -4   5    0.57    1.17
   1   4  -5    0.57    0.91
   1   4  -5    0.96    1.24
   1   4  -4  272.24    3.14
   1   4  -4  269.02    3.09
  -1  -4   4  271.54    4.47
   1   4  -4  272.18    4.48
  -1  -4   4  265.92    1.98
   1   4  -3  780.92    4.76
   1   4  -3  789.57    6.83
  -1  -4   3  785.90    6.83
   1   4  -3  777.31    4.80
  -1  -4   2   43.81    1.67
   1   4  -2   43.86    1.16
   1   4  -2   43.59    1.23
   1   4  -2   45.74    1.72
   1   4  -1  465.96    3.19
  -1  -4   1  487.69    4.59
   1   4  -1  477.41    4.57
   1   4  -1  475.54    3.05
  -1  -4   0    5.24    0.71
   1   4   0    5.97    0.56
   1   4   0    5.61    0.47
   1   4   1  480.76    2.91
  -1  -4  -1  500.27    4.05
   1   4   1  498.54    2.31
  -1  -4  -2 2389.18   34.67
   1   4   2 2442.38   15.29
   1   4   2 2440.42   25.58
   1   4   3  428.70    2.81
  -1  -4  -3  429.69    3.92
  -1  -4  -4  261.06    3.25
   1   4   4  255.99    2.30
   1   4   5   15.89    0.78
  -1  -4  -5   16.36    1.08
  -1  -4  -6   25.70    0.42
   1   4   6   28.09    1.02
  -1  -4  -6   27.74    1.46
  -1  -4  -7 1713.05   10.31
  -1  -4  -7 1699.85   16.10
   1   4   7 1734.20   28.03
  -1  -4  -8  873.66    7.93
  -1  -4  -8  846.56    3.44
   1   4   8  862.42    5.38
   1   4   9  146.04    2.54
  -1  -4  -9  141.84    1.67
  -1  -4  -9  140.94    3.70
  -1  -4 -10  120.93    3.76
  -1  -4 -10  118.39    1.75
   1   4  10  119.83    2.52
   1   4  11   10.54    1.43
  -1  -4 -11   12.17    2.02
  -1  -4 -11   10.95    0.89
   1   4  12  175.65    3.48
  -1  -4 -12  182.44    5.13
  -1  -4 -13   88.77    4.12
   1   4  13   89.28    2.88
  -1  -4 -14    8.13    2.64
   1   4  14   11.50    1.92
  -1  -4 -15   82.68    4.50
   1   4  15   75.46    3.09
   1   4  16  139.91    4.03
   1   4  17   10.52    2.29
   1   5 -12    3.63    2.15
   1   5 -11   36.04    2.69
   1   5 -10    2.32    1.81
   1   5  -9  126.21    3.50
   1   5  -9  131.41    4.98
   1   5  -8  172.27    3.66
   1   5  -8  168.38    5.11
   1   5  -7    4.05    1.46
   1   5  -7    2.91    1.87
   1   5  -6   65.56    2.21
   1   5  -6   64.13    3.01
   1   5  -5    4.50    1.56
   1   5  -5    3.76    1.17
   1   5  -4    2.09    1.01
   1   5  -4    2.84    1.13
  -1  -5   4    2.23    1.28
   1   5  -4    4.55    1.38
  -1  -5   3  288.71    4.65
   1   5  -3  284.60    3.30
   1   5  -3  289.38    3.28
   1   5  -3  281.84    4.61
   1   5  -2  157.73    2.26
   1   5  -2  164.80    2.42
  -1  -5   2  155.30    3.21
   1   5  -2  158.52    3.23
   1   5  -1 1045.21    5.41
   1   5  -1 1029.37    5.01
  -1  -5   1 1044.63    7.43
   1   5  -1 1035.72    7.35
  -1  -5   0  393.29    4.33
   1   5   0  405.98    2.82
   1   5   0  401.63    4.37
   1   5   0  401.22    3.25
  -1  -5  -1   16.27    1.05
   1   5   1   16.62    0.94
   1   5   2  574.02    3.61
   1   5   2  568.19    2.34
  -1  -5  -2  583.36    4.83
   1   5   3 1467.89   22.83
  -1  -5  -3 1483.30    7.69
   1   5   4  557.82    3.67
  -1  -5  -4  567.70    5.11
   1   5   5 1477.08   24.54
  -1  -5  -5 1554.31    8.71
  -1  -5  -6  204.79    3.50
   1   5   6  201.90    2.46
  -1  -5  -7    3.82    1.14
   1   5   7    6.05    0.89
   1   5   8  126.58    2.26
  -1  -5  -8  133.27    3.35
   1   5   9  176.26    2.77
  -1  -5  -9  173.56    4.02
  -1  -5 -10  682.40    8.18
   1   5  10  651.85    5.50
  -1  -5 -11  516.59    7.59
   1   5  11  517.39    5.25
  -1  -5 -12   32.17    2.75
   1   5  12   29.75    1.87
   1   5  13   52.62    2.40
  -1  -5 -13   50.58    3.53
   1   5  14    2.30    1.68
  -1  -5 -14   -1.11    2.29
  -1  -5 -15    5.39    2.55
   1   5  15    3.50    1.91
   1   5  16   52.31    2.96
   1   5  17   14.74    2.34
   1   5  18    5.91    2.15
   1   6 -10   42.97    2.83
   1   6  -9   11.64    2.05
   1   6  -8   17.47    1.98
   1   6  -8   13.80    2.49
   1   6  -7    7.70    2.11
   1   6  -7    9.60    1.69
   1   6  -6  184.91    3.59
   1   6  -6  178.22    4.84
   1   6  -5  151.83    3.08
   1   6  -5  154.30    4.29
   1   6  -4    2.80    1.11
   1   6  -4    2.63    1.52
   1   6  -4    1.61    1.27
   1   6  -3   58.98    2.58
   1   6  -3   57.75    1.82
   1   6  -3   57.51    1.94
   1   6  -2  293.90    4.68
   1   6  -2  292.08    3.27
   1   6  -2  283.29    3.50
  -1  -6   1  112.73    2.84
   1   6  -1  113.73    1.94
   1   6  -1  110.49    2.17
   1   6  -1  112.21    2.88
  -1  -6   0  614.12    5.99
   1   6   0  605.00    4.55
   1   6   0  616.82    3.87
   1   6   0  611.74    5.87
   1   6   1   18.60    0.77
  -1  -6  -1   17.67    1.30
   1   6   1   17.71    1.08
   1   6   1   20.72    1.37
   1   6   2   17.57    0.63
   1   6   2   20.11    1.08
  -1  -6  -2   19.14    1.26
  -1  -6  -3  283.85    3.78
   1   6   3  271.61    2.89
   1   6   3  265.09    1.49
   1   6   4  183.18    2.40
  -1  -6  -4  187.38    3.17
  -1  -6  -5  289.06    4.11
   1   6   5  292.61    3.05
   1   6   6  250.47    2.91
  -1  -6  -6  249.88    4.01
  -1  -6  -7   11.79    1.45
   1   6   7   12.87    1.11
   1   6   8  600.05    4.84
  -1  -6  -8  606.74    6.87
  -1  -6  -9  486.81    6.62
   1   6   9  477.33    4.53
  -1  -6 -10    3.25    1.55
   1   6  10    6.05    1.20
   1   6  11   75.48    2.34
  -1  -6 -11   75.64    3.40
   1   6  12    6.01    1.48
  -1  -6 -12    5.18    1.95
  -1  -6 -13  283.06    6.71
   1   6  13  272.86    4.48
  -1  -6 -14  180.98    5.99
   1   6  14  183.07    4.01
  -1  -6 -15    5.71    2.65
   1   6  15    6.88    1.96
   1   6  16    2.80    1.99
   1   6  17   21.61    2.55
   1   6  18   27.78    2.80
   1   7  -9    0.24    1.83
   1   7  -8   78.66    3.13
   1   7  -7   95.70    3.23
   1   7  -7   78.27    4.25
   1   7  -6   16.57    2.43
   1   7  -6   15.93    1.81
   1   7  -5   21.06    1.73
   1   7  -5   19.60    2.33
   1   7  -4   12.12    1.43
   1   7  -4   12.46    1.72
   1   7  -4   13.18    1.92
   1   7  -3  155.10    2.94
   1   7  -3  151.96    4.03
   1   7  -3  149.98    3.18
   1   7  -2  216.34    4.43
   1   7  -2  209.83    3.10
   1   7  -2  211.63    3.42
   1   7  -1  228.42    2.92
   1   7  -1  229.93    4.22
   1   7  -1  225.68    3.37
   1   7   0   19.99    1.37
   1   7   0   20.26    1.58
   1   7   0   17.81    0.99
   1   7   1  175.84    2.08
   1   7   1  178.47    2.78
   1   7   1  180.14    3.44
   1   7   2    0.30    0.97
   1   7   2    0.26    0.95
   1   7   3  346.91    3.60
   1   7   4  192.55    2.74
   1   7   5  148.37    2.46
  -1  -7  -5  148.39    3.17
   1   7   6   89.49    2.05
  -1  -7  -6   91.56    2.76
   1   7   7   74.06    1.96
  -1  -7  -7   73.64    2.65
   1   7   8   59.99    1.90
  -1  -7  -8   61.62    2.65
   1   7   9  664.49    5.60
  -1  -7  -9  635.66    7.75
  -1  -7 -10    0.26    1.56
   1   7  10    0.84    1.27
   1   7  11  145.92    3.16
  -1  -7 -11  138.28    4.36
  -1  -7 -12  148.20    4.74
   1   7  12  151.96    3.41
   1   7  13   25.40    2.03
  -1  -7 -13   22.14    2.74
   1   7  14   79.32    2.94
   1   7  15    3.90    1.89
   1   7  16   24.44    2.40
   1   7  17   55.61    3.30
   1   8  -7   25.58    2.29
   1   8  -6    1.40    1.59
   1   8  -5  104.33    3.11
   1   8  -4  242.04    5.30
   1   8  -4  238.31    4.47
   1   8  -4  243.06    4.13
   1   8  -3   15.44    1.57
   1   8  -3   16.40    1.88
   1   8  -3   12.35    1.85
   1   8  -2    8.13    1.20
   1   8  -2    8.48    1.60
   1   8  -2    6.95    1.56
   1   8  -1    1.14    1.35
   1   8  -1    1.54    1.34
   1   8  -1    1.51    0.93
   1   8   0  114.87    2.74
   1   8   0  118.82    3.23
   1   8   1  338.82    4.96
   1   8   1  331.47    4.16
   1   8   2   90.06    2.70
   1   8   2   89.06    2.36
   1   8   3   13.21    1.36
   1   8   4   87.05    2.19
   1   8   5   18.72    1.40
   1   8   6   95.45    2.34
   1   8   7  181.86    3.08
   1   8   8  308.82    4.04
   1   8   9   70.45    2.30
   1   8  10  102.50    2.72
   1   8  11   14.17    1.67
   1   8  12    8.71    1.72
   1   8  13   33.73    2.27
   1   8  14   25.40    2.25
   1   8  15  138.81    3.95
   1   8  16    1.49    2.08
   1   8  17   26.17    2.72
   1   9  -3   21.29    2.23
   1   9  -2   10.97    1.94
   1   9  -1   98.19    3.02
   1   9   0   85.21    2.79
   1   9   1    2.50    1.35
   1   9   1    0.82    1.45
   1   9   2   12.96    1.66
   1   9   2   13.16    1.56
   1   9   3    7.96    1.45
   1   9   3    8.04    1.43
   1   9   4  266.85    3.93
   1   9   4  272.96    4.53
   1   9   5  327.24    4.27
   1   9   6    4.56    1.42
   1   9   7    3.24    1.37
   1   9   8   20.90    1.75
   1   9   9   79.54    2.58
   1   9  10  186.58    3.70
   1   9  11   39.30    2.27
   1   9  12   17.80    1.99
   1   9  13  142.07    3.75
   1   9  14    1.07    1.78
   1   9  15   96.39    3.53
   1   9  16   11.56    2.23
   1   9  17   -0.02    2.15
   1  10  -3   14.33    2.35
   1  10  -2    2.53    1.99
   1  10  -1   68.11    2.99
   1  10   0   19.10    2.17
   1  10   1   21.19    2.15
   1  10   2  133.89    3.42
   1  10   3   37.25    2.24
   1  10   4    1.84    1.53
   1  10   5   33.41    2.14
   1  10   6    0.74    1.52
   1  10   7  121.96    3.15
   1  10   8  144.32    3.39
   1  10   9   39.09    2.26
   1  10  10    5.87    1.75
   1  10  11    0.96    1.68
   1  10  12    5.75    1.83
   1  10  13  111.21    3.67
   1  10  14  117.58    3.94
   1  10  15    0.36    1.97
   1  10  16    3.54    2.21
   1  11  -1   -0.83    2.03
   1  11   0    3.55    2.04
   1  11   1   49.48    2.75
   1  11   2    0.43    1.95
   1  11   3  111.25    3.45
   1  11   4   15.27    2.09
   1  11   5   10.39    1.95
   1  11   6   16.10    2.01
   1  11   7    0.34    1.70
   1  11   8   37.60    2.44
   1  11   9   13.07    1.95
   1  11  10   34.72    2.46
   1  11  11  108.87    3.62
   1  11  12   85.26    3.28
   1  11  13    7.86    2.12
   1  11  14    5.91    2.06
   1  12   3    8.15    2.17
   1  12   4    3.69    2.02
   1  12   5   13.24    2.21
   1  12   6   45.81    2.71
   1  12   7   31.04    2.53
   1  12   8    4.72    2.09
   1  12   9   50.82    2.95
   1  12  10    1.07    1.92
   1  12  11   19.99    2.36
   1  12  12    8.92    2.19
  -2  11   8   46.67    2.99
  -2  10  13   21.90    2.32
  -2  10  12   40.05    2.60
  -2  10  11    6.78    1.86
  -2  10  10  107.94    3.59
  -2  10   9  176.45    4.32
  -2  10   8    6.53    1.88
  -2  10   7    0.20    1.87
  -2  10   6   16.36    2.21
  -2  10   5   20.09    2.23
  -2  10   4   74.97    3.19
  -2  10   3    3.14    1.99
  -2  10   2    9.43    2.24
  -2  10   1    2.15    2.05
  -2   9  15    9.81    1.95
  -2   9  14   23.65    2.32
  -2   9  13    8.02    1.95
  -2   9  12   50.35    2.61
  -2   9  11    2.49    1.73
  -2   9  10    7.42    1.74
  -2   9   9   23.04    2.03
  -2   9   8    4.29    1.68
  -2   9   7  129.38    3.39
  -2   9   6   58.72    2.57
  -2   9   5   46.28    2.45
  -2   9   4    1.49    1.66
  -2   9   3   36.18    2.42
  -2   9   2   37.84    2.58
  -2   9   1  145.64    3.91
  -2   9   0   76.00    3.22
  -2   9  -1    2.73    2.10
  -2   9  -2    2.93    2.16
  -2   8  16   11.49    2.06
  -2   8  15    8.24    1.92
  -2   8  14   34.11    2.37
  -2   8  13   73.31    2.83
  -2   8  12    7.44    1.71
  -2   8  11  132.31    3.30
  -2   8  10   33.71    2.07
  -2   8   9   37.10    2.07
  -2   8   8  169.35    3.42
  -2   8   7    4.01    1.43
  -2   8   6   57.44    2.27
  -2   8   5    4.85    1.47
  -2   8   4   10.43    1.68
  -2   8   3  227.35    4.04
  -2   8   2  104.96    3.06
  -2   8   1    0.26    1.63
  -2   8   0   10.62    1.91
  -2   8  -1    1.01    1.78
  -2   8  -2   89.10    3.39
  -2   7  17   -0.70    1.70
  -2   7  16   35.35    2.52
  -2   7  15    6.19    1.76
  -2   7  14   42.70    2.44
  -2   7  13   85.18    2.85
  -2   7  12   58.03    2.44
  -2   7  11   43.72    2.10
  -2   7  10    6.94    1.38
  -2   7   9   35.87    1.82
  -2   7   8   48.95    1.92
  -2   7   7   37.90    1.77
  -2   7   6    4.88    1.19
  -2   7   5  155.47    2.97
  -2   7   4  166.09    3.09
  -2   7   3   35.09    1.84
  -2   7   2   48.52    2.07
  -2   7   1   19.38    1.77
  -2   7   0   37.15    1.56
  -2   7   0   36.64    2.11
  -2   7  -1  126.27    3.27
  -2   7  -1  128.42    2.66
  -2   7  -2    0.36    1.23
  -2   7  -2    0.26    1.70
  -2   7  -3  124.79    3.63
  -2   7  -3  126.22    3.09
  -2   7  -4    1.94    1.51
  -2   7  -5   27.34    2.24
  -2   7  -6  107.86    3.71
  -2   6  17    0.18    1.74
  -2   6  16   88.28    3.21
  -2   6  15  107.44    3.29
  -2   6  14    9.29    1.68
  -2   6  13   15.06    1.73
  -2   6  12    2.16    1.35
  -2   6  11   54.45    2.14
  -2   6  10  435.50    4.76
  -2   6   9  150.05    2.82
  -2   6   8   21.19    1.43
  -2   6   7  138.48    2.57
  -2   6   6    5.17    1.06
  -2   6   5  195.12    2.91
  -2   6   4  262.47    3.39
  -2   6   3   10.90    1.20
  -2   6   3   10.47    0.75
  -2   6   2  267.85    2.70
  -2   6   2  269.36    3.53
  -2   6   1  155.44    2.27
  -2   6   1  162.69    2.97
  -2   6   0    0.33    0.90
  -2   6   0    0.63    1.27
  -2   6  -1  160.55    3.24
  -2   6  -1  158.04    2.66
  -2   6  -2   41.87    2.16
  -2   6  -2   44.05    1.81
  -2   6  -3  152.42    3.54
  -2   6  -3  156.06    3.13
  -2   6  -4   84.86    2.67
  -2   6  -5    2.01    1.47
  -2   6  -6   -0.60    1.63
  -2   6  -7    5.06    1.84
  -2   6  -8    7.89    2.05
  -2   5  17   54.35    2.72
  -2   5  16    1.87    1.74
  -2   5  15  133.48    3.53
  -2   5  14    0.70    1.38
  -2   5  13  211.31    3.80
  -2   5  12  208.53    3.55
  -2   5  11   27.36    1.62
  -2   5  10   45.59    1.75
  -2   5   9   37.97    1.55
  -2   5   8   22.01    1.26
  -2   5   7  673.48    4.86
  -2   5   6  571.02    4.35
  -2   5   5   22.07    1.16
  -2   5   4   23.86    1.16
  -2   5   4   22.97    0.74
  -2   5   3    2.61    0.51
  -2   5   3    2.72    0.87
  -2   5   2   90.50    2.02
  -2   5   2   91.46    1.51
  -2   5   1  402.31    3.20
  -2   5   1  400.65    3.93
  -2   5   0   28.08    1.17
  -2   5   0   28.54    1.45
  -2   5  -1  165.37    2.51
  -2   5  -1  158.61    2.84
  -2   5  -2  163.34    2.68
  -2   5  -2  163.87    3.02
  -2   5  -3    2.61    1.37
  -2   5  -3    2.49    1.05
  -2   5  -4   66.89    2.51
  -2   5  -4   66.46    2.19
  -2   5  -5   97.55    2.71
  -2   5  -6    4.12    1.57
  -2   5  -7  195.47    4.10
  -2   5  -8   27.75    2.30
  -2   5  -9   32.88    2.59
  -2   5 -10   21.00    2.46
  -2   4  17   55.50    2.75
  -2   4  16   12.19    1.85
  -2   4  15   69.83    2.73
  -2   4  14   36.63    2.10
  -2   4  13    0.74    1.23
   2  -4 -13   -0.46    1.87
   2  -4 -12   31.98    2.63
  -2   4  12   37.16    1.82
   2  -4 -11  162.98    4.46
  -2   4  11  165.96    2.94
   2  -4 -10   12.58    1.69
  -2   4  10   14.21    1.22
   2  -4  -9  309.30    5.07
  -2   4   9  314.46    3.50
   2  -4  -8  160.64    3.41
  -2   4   8  163.15    2.45
   2  -4  -7    5.66    1.00
  -2   4   7    4.74    0.82
  -2   4   6  256.00    2.74
   2  -4  -6  250.81    3.35
  -2   4   5  149.85    2.07
   2  -4  -5  145.14    2.28
  -2   4   4 1315.46   23.09
   2  -4  -4 1315.68    5.60
  -2   4   4 1347.32   17.00
  -2   4   3  729.12    3.30
  -2   4   3  653.65    2.17
  -2   4   3  739.01    4.34
   2  -4  -3  658.16    3.40
  -2   4   3  644.01    2.21
  -2   4   2  162.10    1.75
  -2   4   2  158.53    2.17
  -2   4   1   53.94    1.18
  -2   4   1   53.99    1.43
  -2   4   0  225.61    2.39
  -2   4   0  224.80    2.76
  -2   4  -1   59.35    1.47
  -2   4  -1   55.04    1.66
  -2   4  -1   54.05    1.07
  -2   4  -2  815.40    5.69
  -2   4  -2  829.27    5.21
  -2   4  -2  829.53    4.93
  -2   4  -3  213.23    2.97
  -2   4  -3  205.89    3.23
  -2   4  -3  211.87    3.03
  -2   4  -4   16.87    1.27
  -2   4  -4   16.09    1.33
  -2   4  -4   16.10    1.52
  -2   4  -5   66.47    2.35
  -2   4  -5   69.88    2.24
  -2   4  -6   -0.24    1.34
  -2   4  -6    0.94    1.22
  -2   4  -7  119.89    3.15
  -2   4  -7  109.87    3.48
  -2   4  -8   42.99    2.41
  -2   4  -8   45.51    2.72
  -2   4  -9    1.66    1.73
  -2   4 -10   42.71    2.71
  -2   4 -11   65.80    3.30
  -2   3  17    2.50    1.83
  -2   3  16   42.56    2.49
  -2   3  15   35.93    2.27
   2  -3 -15   28.46    3.55
   2  -3 -14  175.26    5.75
  -2   3  14  165.08    5.69
  -2   3  14  165.22    3.57
  -2   3  13   56.10    3.46
   2  -3 -13   56.84    3.56
  -2   3  13   55.40    2.24
   2  -3 -12   27.15    2.54
  -2   3  12   27.90    2.55
  -2   3  12   25.48    1.62
   2  -3 -12   25.72    1.33
  -2   3  11  537.04    7.62
   2  -3 -11  539.26    4.26
   2  -3 -11  537.89    7.80
  -2   3  11  535.64    4.91
   2  -3 -10   46.73    1.38
   2  -3 -10   43.72    2.54
  -2   3  10   43.13    1.59
  -2   3  10   42.98    2.46
   2  -3  -9  449.91    6.13
  -2   3   9  433.70    3.85
  -2   3   9  431.86    5.89
   2  -3  -8  261.29    4.40
  -2   3   8  267.78    4.27
  -2   3   8  267.22    2.87
  -2   3   7    0.30    0.89
   2  -3  -7    1.76    0.90
  -2   3   7    1.43    0.67
   2  -3  -6  510.74    4.88
  -2   3   6  504.52    3.44
   2  -3  -5  722.53    5.05
  -2   3   5  706.48    3.87
  -2   3   4   59.60    1.29
  -2   3   4   59.26    1.19
   2  -3  -4   59.62    1.32
  -2   3   3  945.83   13.71
   2  -3  -3  906.49    3.79
  -2   3   3  911.85   16.87
  -2   3   3  948.09    3.50
  -2   3   2    1.13    0.39
   2  -3  -2    1.22    0.19
  -2   3   2    1.47    0.53
  -2   3   1  780.11    3.56
  -2   3   1  788.86    4.20
   2  -3   0  280.21    2.00
  -2   3   0  296.53    2.44
  -2   3   0  289.27    2.71
  -2   3  -1  259.41    2.75
  -2   3  -1  252.37    2.02
  -2   3  -1  251.37    1.98
   2  -3   1  264.83    2.51
  -2   3  -1  259.51    2.49
  -2   3  -2   21.32    1.13
   2  -3   2   19.95    1.03
  -2   3  -2   22.34    0.95
  -2   3  -2   20.73    1.00
  -2   3  -3   41.78    1.55
  -2   3  -3   43.99    1.41
  -2   3  -3   44.10    1.50
  -2   3  -4   76.44    1.93
  -2   3  -4   76.43    2.15
  -2   3  -5  470.32    5.37
  -2   3  -5  453.50    4.52
  -2   3  -6  314.83    4.93
  -2   3  -6  333.32    4.15
  -2   3  -7    3.11    1.36
  -2   3  -7    2.68    1.48
  -2   3  -8   29.99    2.37
  -2   3  -8   34.88    2.09
  -2   3  -9   12.01    1.81
  -2   3  -9    9.25    1.96
  -2   3 -10   20.67    2.70
  -2   3 -10   30.40    2.34
  -2   3 -11  122.82    3.87
  -2   3 -12    1.80    2.06
  -2   2  16  239.23    4.56
   2  -2 -15   75.90    2.55
   2  -2 -15   69.33    4.74
  -2   2  15   72.80    2.74
  -2   2  15   77.59    4.52
  -2   2  14    4.91    2.49
   2  -2 -14    2.98    1.28
  -2   2  14    4.86    1.55
   2  -2 -14    2.05    2.19
  -2   2  13   38.23    3.17
   2  -2 -13   37.92    1.83
   2  -2 -13   36.33    3.14
  -2   2  13   38.69    2.00
   2  -2 -12   17.06    1.34
  -2   2  12   17.33    2.42
  -2   2  12   18.39    1.55
   2  -2 -12   19.86    2.37
  -2   2  11  119.74    2.51
  -2   2  11  126.37    4.14
   2  -2 -11  121.18    2.34
   2  -2 -11  133.66    4.20
  -2   2  10  213.23    4.77
  -2   2  10  202.29    2.92
   2  -2 -10  195.65    4.75
   2  -2 -10  209.30    2.76
   2  -2  -9    2.59    1.26
  -2   2   9    1.61    1.31
  -2   2   9    2.33    0.82
  -2   2   8  206.40    3.99
   2  -2  -8  201.27    4.04
  -2   2   8  200.19    2.45
   2  -2  -7  264.36    4.19
  -2   2   7  275.06    4.15
  -2   2   7  275.46    2.61
  -2   2   6  421.50    4.54
   2  -2  -6  416.12    4.65
  -2   2   6  429.27    2.93
  -2   2   5 1398.56    7.14
   2  -2  -5 1396.91    7.43
  -2   2   5 1385.87   19.51
   2  -2  -4   58.17    1.39
  -2   2   4   58.05    1.40
  -2   2   4   62.57    1.06
  -2   2   4   57.77    1.32
   2  -2  -3  465.91    2.92
  -2   2   3  446.07    2.54
  -2   2   3  447.97    2.26
  -2   2   2 1262.64   15.02
  -2   2   2 1263.11   16.94
   2  -2  -2 1234.81   12.78
  -2   2   1    3.27    0.52
  -2   2   1    3.68    0.45
   2  -2   0  471.64    1.85
  -2   2   0  489.32    3.01
  -2   2   0  492.30    2.76
  -2   2  -1  113.89    1.53
  -2   2  -1  106.01    1.20
   2  -2   1  113.51    1.46
  -2   2  -1  106.56    1.21
  -2   2  -2  210.52    2.22
   2  -2   2  214.74    2.51
  -2   2  -2  210.76    2.36
  -2   2  -2  208.56    2.27
  -2   2  -2  206.51    2.38
  -2   2  -3 1161.55   21.92
  -2   2  -3 1160.39    5.94
   2  -2   3 1166.03    6.69
  -2   2  -3 1188.29    6.32
   2  -2   4  282.93    3.83
  -2   2  -4  286.41    3.04
  -2   2  -4  278.41    3.61
   2  -2   5   78.19    2.39
  -2   2  -5   76.03    1.85
  -2   2  -5   77.81    2.33
  -2   2  -6  202.22    3.07
  -2   2  -6  216.32    3.97
  -2   2  -7    9.03    1.33
  -2   2  -7    6.27    1.52
  -2   2  -8  245.44    5.03
  -2   2  -8  244.10    3.81
  -2   2  -9  190.86    4.89
  -2   2  -9  201.05    3.74
  -2   2 -10  133.44    4.50
  -2   2 -10  127.18    3.33
  -2   2 -11    0.86    1.73
  -2   2 -11    1.10    2.16
  -2   2 -12    5.53    2.01
  -2   2 -13   38.73    2.78
  -2   1  16    1.60    1.68
   2  -1 -16    0.72    1.54
  -2   1  15   15.04    1.86
   2  -1 -15   14.23    1.81
   2  -1 -15    9.77    2.74
  -2   1  14   14.12    2.81
   2  -1 -14   12.67    1.70
   2  -1 -14   12.24    2.95
   2  -1 -13  231.49    3.78
   2  -1 -13  227.40    6.32
  -2   1  13  226.41    6.26
   2  -1 -12  261.69    3.73
   2  -1 -12  261.75    6.31
  -2   1  12  256.80    6.20
   2  -1 -11    5.07    1.81
   2  -1 -11    5.53    1.09
  -2   1  11    3.97    1.86
  -2   1  10   98.17    3.63
   2  -1 -10  100.42    3.63
   2  -1 -10   96.45    2.11
  -2   1   9   36.63    2.32
   2  -1  -9   35.96    1.36
   2  -1  -9   31.28    2.18
   2  -1  -8  183.14    3.98
  -2   1   8  174.98    3.89
  -2   1   7 1654.93   10.36
   2  -1  -7 1606.99   10.35
  -2   1   6  607.34    5.74
   2  -1  -6  596.66    5.84
  -2   1   6  611.46    3.42
  -2   1   5 1919.69   36.19
  -2   1   5 1887.43   21.17
   2  -1  -5 1936.62    9.21
   2  -1  -4  454.77    3.96
  -2   1   4  468.13    3.94
  -2   1   4  468.71    2.35
   2  -1  -3  151.39    1.95
  -2   1   3  147.47    1.87
  -2   1   3  148.92    1.88
  -2   1   3  151.47    1.25
  -2   1   2 1211.90   13.78
  -2   1   2 1226.81   15.58
   2  -1  -2 1236.52   16.79
  -2   1   2 1225.85   13.33
  -2   1   1  685.03   10.49
  -2   1   1  678.73   10.48
  -2   1   0 2176.16   20.67
  -2   1   0 2154.21   19.97
   2  -1   1 1688.59   18.81
  -2   1  -1 1703.15   20.68
  -2   1  -1 1641.40   16.92
  -2   1  -1 1680.77   19.48
  -2   1  -2   22.78    0.81
  -2   1  -2   22.21    0.75
   2  -1   2   22.53    0.83
  -2   1  -2   21.38    0.80
  -2   1  -2   21.98    0.83
  -2   1  -3  309.81    3.11
   2  -1   3  317.29    3.31
  -2   1  -3  310.33    2.63
  -2   1  -4  107.87    1.75
  -2   1  -4  104.34    2.21
   2  -1   4  108.33    2.30
   2  -1   5   26.27    1.46
  -2   1  -5   25.60    1.50
  -2   1  -5   28.05    1.16
   2  -1   6   91.93    2.66
  -2   1  -6   89.20    1.96
  -2   1  -6   88.89    2.57
  -2   1  -7  341.99    5.17
   2  -1   7  340.77    5.30
  -2   1  -7  344.55    3.81
  -2   1  -8    9.20    1.25
   2  -1   8    7.97    1.57
  -2   1  -8    7.36    1.61
  -2   1  -9   28.70    2.41
  -2   1  -9   28.72    1.80
  -2   1 -10   28.79    1.95
  -2   1 -10   28.46    2.66
  -2   1 -11   69.31    3.79
  -2   1 -11   70.52    2.69
  -2   1 -12  186.89    5.80
  -2   1 -12  199.19    4.18
  -2   1 -13   50.11    2.78
  -2   1 -14    0.75    1.86
   2   0 -16    3.41    1.86
   2   0 -15   91.18    3.23
   2   0 -14   12.12    2.97
   2   0 -14   12.81    1.81
  -2   0  14   12.64    2.85
   2   0 -13    6.31    2.64
  -2   0  13    6.10    2.53
   2   0 -13    4.68    1.48
   2   0 -12    9.19    2.48
   2   0 -12   13.17    1.51
  -2   0  12   10.56    2.55
   2   0 -11    1.46    1.17
  -2   0  11    2.38    1.91
   2   0 -11    1.41    1.96
  -2   0  10  569.01    8.07
   2   0 -10  566.56    8.07
   2   0 -10  548.23    4.85
  -2   0   9  430.41    6.60
   2   0  -9  437.15    4.09
   2   0  -9  445.09    6.74
  -2   0   8   57.61    2.53
   2   0  -8   60.87    1.61
   2   0  -8   58.80    2.62
   2   0  -7    7.67    1.30
  -2   0   7    8.96    1.37
  -2   0   6  266.08    4.06
   2   0  -6  254.42    4.05
   2   0  -5  375.44    4.37
  -2   0   5  387.25    4.45
  -2   0   4 1401.03    7.35
   2   0  -4 1354.12    7.44
  -2   0   3  376.64    1.67
   2   0  -3  376.26    3.41
  -2   0   3  366.55    3.33
  -2   0   2  304.03    2.47
  -2   0   2  311.09    2.58
  -2   0   2  309.03    1.23
   2   0  -2  316.82    2.60
  -2   0   1 1008.27   11.94
  -2   0   1 1014.91   14.43
   2   0  -1 1048.62   14.94
  -2   0   1 1010.71    8.55
  -2   0   0   15.15    0.39
  -2   0   0   14.51    0.44
  -2   0   0   15.47    0.43
  -2   0  -1 1539.93   17.94
  -2   0  -1 1478.18   16.97
  -2   0  -1 1488.92   16.33
  -2   0  -1 1489.95   15.86
  -2   0  -2  838.77    4.23
   2   0   2  839.50    4.16
  -2   0  -2  841.05   16.14
  -2   0  -2  822.79   13.23
  -2   0  -3   31.00    0.82
  -2   0  -3   29.28    1.03
   2   0   3   32.64    1.08
  -2   0  -4 1705.13    8.01
  -2   0  -4 1712.53   23.37
   2   0   4 1730.56    8.18
  -2   0  -5  158.64    2.90
  -2   0  -5  158.19    2.05
   2   0   5  159.72    2.90
  -2   0  -6  100.73    2.62
  -2   0  -6  104.06    1.86
   2   0   6  104.36    2.70
  -2   0  -7  341.65    3.46
   2   0   7  337.66    5.03
  -2   0  -7  331.44    4.96
  -2   0  -8   18.51    1.26
  -2   0  -8   18.04    1.78
   2   0   8   19.23    1.70
  -2   0  -9  295.16    3.77
   2   0   9  291.73    5.57
  -2   0  -9  292.94    5.56
  -2   0 -10  133.19    4.23
  -2   0 -10  131.13    2.83
   2   0  10  120.52    4.18
  -2   0 -11   21.43    2.64
  -2   0 -11   21.81    1.76
  -2   0 -12   23.67    2.87
  -2   0 -12   24.73    1.98
  -2   0 -13   42.40    3.66
  -2   0 -13   51.48    2.56
  -2   0 -14    8.54    1.92
  -2   0 -15   33.26    2.56
   2   1 -16    0.04    1.90
   2   1 -15   20.98    2.32
  -2  -1  14   42.34    4.10
   2   1 -14   48.66    2.67
  -2  -1  13    0.29    2.43
   2   1 -13   -0.39    1.56
   2   1 -13   -1.88    2.44
  -2  -1  12   46.20    3.52
   2   1 -12   45.03    2.20
   2   1 -12   49.04    3.60
  -2  -1  11  171.80    5.24
   2   1 -11  163.96    3.22
   2   1 -11  163.09    5.25
   2   1 -10    1.74    1.79
  -2  -1  10    3.49    1.82
   2   1 -10    2.41    1.19
  -2  -1   9  221.26    5.03
   2   1  -9  219.21    3.19
   2   1  -9  228.23    5.17
  -2  -1   8    7.83    1.62
   2   1  -8    8.40    1.60
   2   1  -8    7.89    1.04
  -2  -1   7   31.00    1.96
   2   1  -7   28.60    1.92
   2   1  -7   33.64    1.30
   2   1  -6  241.37    4.14
  -2  -1   6  246.42    4.14
  -2  -1   5  462.35    5.09
   2   1  -5  460.01    5.18
   2   1  -4   60.93    1.86
  -2  -1   4   61.01    1.81
  -2  -1   3   84.55    1.88
   2   1  -3   83.23    1.85
  -2  -1   2  462.75    3.61
  -2  -1   2  487.00   10.19
   2   1  -2  477.14    3.67
  -2  -1   1 9999.00   44.33
  -2  -1   0 3640.40   21.10
  -2  -1   0 3653.58   26.14
  -2  -1  -1  508.02    2.03
  -2  -1  -1  482.12    2.92
  -2  -1  -2   94.64    1.46
  -2  -1  -2   94.25    0.98
  -2  -1  -2  102.62    1.05
  -2  -1  -3  553.51    2.64
  -2  -1  -3  569.44    2.39
  -2  -1  -3  539.88    3.92
  -2  -1  -4  146.71    1.55
  -2  -1  -4  147.22    2.37
   2   1   4  146.49    2.43
  -2  -1  -4  147.68    1.20
   2   1   5 1225.29    7.50
  -2  -1  -5 1223.39    7.42
  -2  -1  -5 1183.42   12.67
  -2  -1  -5 1207.66   19.19
  -2  -1  -6   40.68    1.12
  -2  -1  -6   36.49    1.73
   2   1   6   38.70    1.71
  -2  -1  -6   35.76    0.55
   2   1   7  114.80    2.99
  -2  -1  -7  111.92    2.95
  -2  -1  -7  114.92    1.92
   2   1   8  122.33    3.41
  -2  -1  -8  132.02    3.47
  -2  -1  -8  125.59    2.17
  -2  -1  -9    6.29    1.03
   2   1   9    5.45    1.50
  -2  -1  -9    3.21    1.57
  -2  -1 -10  173.88    4.69
  -2  -1 -10  178.55    2.98
   2   1  10  186.35    4.71
   2   1  11   33.99    2.70
  -2  -1 -11   34.74    2.81
  -2  -1 -11   39.28    1.83
  -2  -1 -12   17.66    1.72
   2   1  12   19.62    2.48
  -2  -1 -12   14.18    2.56
  -2  -1 -13   66.93    4.01
  -2  -1 -13   66.66    2.54
  -2  -1 -14    9.78    1.77
  -2  -1 -15    1.74    1.76
  -2  -1 -16    5.54    1.92
   2   2 -15    0.30    1.85
   2   2 -14   34.18    2.50
  -2  -2  13   14.59    2.93
   2   2 -13   12.63    3.24
   2   2 -13   17.92    2.09
  -2  -2  12   55.63    3.80
   2   2 -12   57.83    2.53
   2   2 -12   51.16    3.88
   2   2 -11  136.32    3.23
   2   2 -11  131.57    5.02
  -2  -2  11  128.22    4.85
  -2  -2  10   31.80    2.75
   2   2 -10   33.28    1.85
   2   2 -10   31.14    2.80
   2   2  -9  119.30    4.10
  -2  -2   9  121.86    4.14
   2   2  -9  121.81    2.65
  -2  -2   8  100.18    3.47
   2   2  -8   99.97    3.53
   2   2  -8   98.12    2.26
  -2  -2   7   34.86    2.22
   2   2  -7   36.54    1.51
   2   2  -7   36.37    2.24
  -2  -2   6  224.81    4.20
   2   2  -6  228.06    4.30
   2   2  -6  230.92    2.88
   2   2  -5  156.96    2.18
   2   2  -5  143.96    3.24
  -2  -2   5  153.18    3.24
   2   2  -4  225.38    3.54
  -2  -2   4  236.17    3.63
  -2  -2   4  239.59    1.92
  -2  -2   3   62.68    1.80
   2   2  -3   58.48    1.74
  -2  -2   3   60.10    0.98
   2   2  -2  670.40    4.91
  -2  -2   2  642.96    4.76
   2   2  -2  664.20   10.09
  -2  -2   2  665.86   12.19
  -2  -2   1 1861.43   28.89
   2   2  -1 1898.18   13.71
  -2  -2   1 1882.87   20.00
   2   2   0  246.16    1.11
  -2  -2   0  255.92    2.47
  -2  -2  -1  188.52    2.09
   2   2   1  187.28    1.10
  -2  -2  -1  186.21    1.14
  -2  -2  -2  333.95    2.90
  -2  -2  -2  328.41    1.52
  -2  -2  -3  778.27    4.81
  -2  -2  -3  770.43   10.30
  -2  -2  -4 1434.34   16.27
  -2  -2  -4 1479.15    7.33
  -2  -2  -5  499.99    2.74
  -2  -2  -5  497.64    4.75
  -2  -2  -6   17.35    1.31
  -2  -2  -6   18.96    0.74
  -2  -2  -7  320.84    2.75
   2   2   7  330.40    4.67
  -2  -2  -7  322.69    4.64
   2   2   8  535.44    6.51
  -2  -2  -8  540.04    3.86
  -2  -2  -8  546.23    6.53
   2   2   9  573.10    7.19
  -2  -2  -9  584.21    7.28
  -2  -2  -9  584.36    4.34
   2   2  10   21.44    2.07
  -2  -2 -10   20.48    2.11
  -2  -2 -10   21.32    1.30
   2   2  11  138.65    4.42
  -2  -2 -11  136.81    4.43
  -2  -2 -11  133.85    2.64
  -2  -2 -12    1.25    1.14
  -2  -2 -12    2.19    2.06
  -2  -2 -13   66.41    3.88
  -2  -2 -13   62.25    2.31
  -2  -2 -14   47.50    2.25
  -2  -2 -14   50.97    3.95
  -2  -2 -15   14.39    1.84
  -2  -2 -16   57.45    2.77
   2   3 -14   15.24    2.29
   2   3 -13  208.19    4.59
   2   3 -12   42.06    2.53
   2   3 -12   42.64    3.81
   2   3 -11   18.40    3.01
   2   3 -11   15.93    1.92
  -2  -3  11   15.72    2.80
  -2  -3  10   12.41    2.35
   2   3 -10   17.46    2.71
   2   3 -10   14.13    1.76
  -2  -3   9    0.22    1.74
   2   3  -9    1.44    1.88
   2   3  -9    0.42    1.33
  -2  -3   8   82.85    3.45
   2   3  -8   82.14    3.47
   2   3  -8   81.34    2.30
   2   3  -7   43.59    1.69
  -2  -3   7   38.95    2.40
   2   3  -6    0.27    0.91
  -2  -3   6    1.27    1.23
   2   3  -6    0.18    1.30
   2   3  -5  268.82    3.06
  -2  -3   5  266.09    4.49
   2   3  -5  276.72    4.68
  -2  -3   5  267.33    2.10
   2   3  -4    1.69    1.05
  -2  -3   4    1.52    1.02
   2   3  -4    2.38    0.70
  -2  -3   4    2.29    0.44
  -2  -3   3  385.80    2.53
   2   3  -3  378.84    4.52
   2   3  -3  383.41    2.72
  -2  -3   3  374.42    4.46
   2   3  -2   24.34    1.28
   2   3  -2   24.52    0.72
  -2  -3   2   24.09    1.22
  -2  -3   1  608.46    4.73
   2   3  -1  612.66    2.70
   2   3   0  404.45    2.02
  -2  -3   0  402.08    3.58
  -2  -3  -1 1267.89    6.13
   2   3   1 1291.55   14.39
  -2  -3  -2  479.29    3.89
   2   3   2  498.80    2.35
  -2  -3  -3    8.65    0.78
   2   3   3    9.09    0.49
  -2  -3  -3    8.79    0.28
  -2  -3  -4    4.90    0.74
  -2  -3  -4    4.84    0.29
   2   3   4    7.01    0.53
  -2  -3  -5  245.28    1.61
  -2  -3  -5  245.63    3.42
  -2  -3  -6 1005.97    3.75
  -2  -3  -6 1040.03    7.49
  -2  -3  -7  572.62    3.20
  -2  -3  -7  587.22    6.16
  -2  -3  -8   90.15    1.51
  -2  -3  -8   91.14    2.87
  -2  -3  -9  283.43    2.78
  -2  -3  -9  277.84    5.05
  -2  -3 -10   32.54    2.36
  -2  -3 -10   32.41    1.25
  -2  -3 -11  476.86    7.50
  -2  -3 -11  456.24    4.14
  -2  -3 -12   78.43    3.80
  -2  -3 -12   74.95    2.08
  -2  -3 -13   53.38    3.57
  -2  -3 -13   55.33    1.95
  -2  -3 -14    4.44    1.25
  -2  -3 -14    1.44    2.59
   2   4 -13    1.14    1.93
   2   4 -12    1.38    1.96
   2   4 -11   62.08    2.82
   2   4 -11   56.07    4.18
   2   4 -10   99.63    3.10
   2   4 -10   99.18    4.61
   2   4  -9  144.13    3.31
   2   4  -9  135.12    4.83
  -2  -4   9  143.45    4.94
  -2  -4   8   42.11    2.92
   2   4  -8   45.05    2.09
   2   4  -8   47.43    3.05
   2   4  -7  228.92    3.49
   2   4  -7  218.18    5.13
  -2  -4   7  218.86    5.13
   2   4  -6   35.26    1.60
   2   4  -6   34.74    2.40
  -2  -4   6   35.33    2.32
   2   4  -5  266.03    3.27
  -2  -4   5  273.47    4.87
   2   4  -5  272.97    4.93
  -2  -4   5  264.07    2.21
   2   4  -4  353.91    3.46
  -2  -4   4  356.73    5.13
   2   4  -4  350.81    3.28
   2   4  -4  359.08    5.23
  -2  -4   4  351.19    2.59
   2   4  -3   -0.11    0.64
   2   4  -3    0.44    0.60
   2   4  -3    0.35    1.02
  -2  -4   3    0.03    0.45
  -2  -4   3   -0.16    0.93
   2   4  -2   12.12    1.21
   2   4  -2   13.03    0.78
  -2  -4   2   14.71    1.19
   2   4  -2   14.14    0.75
   2   4  -1    3.21    0.49
   2   4  -1    2.65    0.56
  -2  -4   1    1.59    0.83
   2   4  -1    1.89    0.82
  -2  -4   0    5.67    0.81
   2   4   0    5.30    0.48
  -2  -4  -1  182.00    2.66
   2   4   1  187.42    1.69
  -2  -4  -2   40.36    1.37
   2   4   2   43.30    0.89
   2   4   3    5.67    0.52
  -2  -4  -3    7.59    0.83
  -2  -4  -4  486.99    4.61
   2   4   4  487.03    3.00
  -2  -4  -5  347.94    4.19
   2   4   5  352.93    2.79
  -2  -4  -5  350.09    1.44
  -2  -4  -6   30.32    1.58
   2   4   6   31.40    1.08
  -2  -4  -6   29.35    0.58
   2   4   7   33.45    1.23
  -2  -4  -7   29.51    1.74
  -2  -4  -7   30.93    0.71
  -2  -4  -8  150.65    1.63
   2   4   8  155.40    2.49
  -2  -4  -8  157.40    3.66
  -2  -4  -9   83.45    1.42
  -2  -4  -9   84.03    3.00
  -2  -4 -10  506.32    3.60
  -2  -4 -10  507.20    7.17
  -2  -4 -11    1.47    1.75
  -2  -4 -11    0.69    0.75
  -2  -4 -12   14.52    1.08
  -2  -4 -12   15.02    2.30
  -2  -4 -13    1.44    2.16
  -2  -4 -14  155.04    5.52
  -2  -4 -15  444.42    9.26
   2   4  15  445.37    6.36
   2   4  16   21.74    2.52
   2   4  17   14.10    2.43
   2   5 -12   75.12    3.40
   2   5 -11   27.23    2.44
   2   5 -10    2.66    2.43
   2   5 -10    2.22    1.76
   2   5  -9   14.72    2.82
   2   5  -9   19.22    1.97
   2   5  -8    0.05    1.45
   2   5  -8    0.45    2.07
   2   5  -7  320.81    6.38
  -2  -5   7  314.00    6.31
   2   5  -7  320.62    4.43
  -2  -5   6  215.43    5.02
   2   5  -6  210.31    3.40
   2   5  -6  220.16    5.06
   2   5  -5   99.21    2.31
   2   5  -5  103.45    3.54
  -2  -5   5  100.12    3.42
   2   5  -4    7.99    1.02
   2   5  -4    8.69    1.00
  -2  -5   4    7.70    1.42
  -2  -5   4    8.59    0.68
   2   5  -4    7.38    1.56
   2   5  -3   94.49    1.92
  -2  -5   3   98.71    2.89
   2   5  -3   97.90    1.91
   2   5  -3   94.88    2.92
   2   5  -2  177.49    2.32
   2   5  -2  177.61    2.30
  -2  -5   2  179.87    3.51
   2   5  -2  174.96    3.54
  -2  -5   1  759.82    6.54
   2   5  -1  763.00    4.26
   2   5  -1  780.26    6.69
   2   5  -1  768.90    4.31
  -2  -5   0   61.05    1.93
   2   5   0   62.94    1.29
   2   5   0   62.69    1.19
  -2  -5  -1  148.06    2.70
   2   5   1  153.20    1.54
   2   5   1  148.54    1.80
  -2  -5  -2   98.30    2.23
   2   5   2   96.26    1.01
   2   5   2   99.21    1.48
   2   5   3   35.89    0.45
   2   5   3   38.54    1.03
  -2  -5  -3   36.10    1.51
   2   5   4   69.71    1.36
  -2  -5  -4   66.63    2.01
   2   5   5  464.54    3.43
  -2  -5  -5  487.10    5.16
  -2  -5  -6   70.78    2.31
   2   5   6   66.90    1.51
   2   5   7  168.09    2.39
  -2  -5  -7  168.80    3.58
   2   5   8    6.27    1.02
  -2  -5  -8    4.69    1.29
   2   5   9    0.68    0.98
  -2  -5  -9    1.25    1.40
   2   5  10  294.75    3.87
  -2  -5 -10  297.75    5.61
  -2  -5 -11   57.95    3.06
   2   5  11   58.07    2.17
   2   5  12  169.49    3.51
  -2  -5 -12  171.86    5.00
   2   5  13  196.41    4.01
  -2  -5 -13  186.16    5.57
  -2  -5 -14   62.80    4.11
   2   5  14   61.54    2.79
   2   5  15    1.75    1.84
  -2  -5 -15    4.00    2.47
   2   5  16    3.25    2.09
   2   5  17    4.73    2.19
   2   6 -11   24.46    2.62
   2   6 -10    0.23    1.89
   2   6  -9   36.97    2.48
   2   6  -8  170.41    3.83
   2   6  -8  166.65    5.49
   2   6  -7   11.07    1.67
   2   6  -7   12.19    2.30
   2   6  -6   68.73    2.38
   2   6  -6   64.71    3.41
   2   6  -5    2.21    1.22
   2   6  -5    2.48    1.62
   2   6  -4  202.57    4.69
  -2  -6   4  199.78    4.65
   2   6  -4  195.40    3.17
   2   6  -4  197.43    3.14
   2   6  -3  386.44    3.97
  -2  -6   3  406.55    6.01
   2   6  -3  400.12    4.05
   2   6  -3  406.37    6.01
  -2  -6   2   54.12    2.34
   2   6  -2   53.65    1.61
   2   6  -2   55.99    1.58
   2   6  -2   53.34    2.38
   2   6  -1   24.19    1.05
   2   6  -1   25.11    1.21
   2   6  -1   26.66    1.79
  -2  -6   1   30.35    1.76
   2   6   0   12.98    1.36
   2   6   0   12.43    0.77
   2   6   0   11.79    0.97
   2   6   1   91.37    1.35
  -2  -6  -1   90.32    2.46
   2   6   1   88.98    1.69
   2   6   2  916.40    3.44
  -2  -6  -2  927.74    7.08
   2   6   2  906.98    4.84
   2   6   3  624.65    4.03
  -2  -6  -3  616.55    5.86
   2   6   4   12.50    0.88
  -2  -6  -4   11.85    1.20
   2   6   5  153.30    2.21
  -2  -6  -5  146.29    3.17
   2   6   6   24.77    1.18
  -2  -6  -6   25.71    1.70
   2   6   7   81.43    1.86
  -2  -6  -7   83.09    2.72
  -2  -6  -8   70.92    2.70
   2   6   8   70.11    1.85
  -2  -6  -9   61.39    2.76
   2   6   9   59.84    1.89
  -2  -6 -10    7.55    1.72
   2   6  10    9.13    1.28
   2   6  11  153.26    3.14
  -2  -6 -11  159.68    4.66
  -2  -6 -12   27.29    2.67
   2   6  12   28.89    1.92
  -2  -6 -13   54.93    3.60
   2   6  13   57.05    2.54
   2   6  14   92.04    3.22
  -2  -6 -14   85.77    4.57
   2   6  15   13.18    2.13
  -2  -6 -15   11.84    2.79
   2   6  16   93.14    3.58
   2   6  17    8.50    2.32
   2   7 -10    1.31    2.01
   2   7  -9    7.24    2.05
   2   7  -8   21.99    2.23
   2   7  -7   20.88    2.02
   2   7  -7   21.07    2.80
   2   7  -6    7.98    1.62
   2   7  -6    7.56    2.21
   2   7  -5  108.42    2.86
   2   7  -5  107.86    4.10
   2   7  -4   16.00    1.50
   2   7  -4   15.31    2.08
   2   7  -4   15.27    1.60
   2   7  -3  117.98    2.58
   2   7  -3  114.83    2.65
   2   7  -3  119.42    3.77
   2   7  -2  115.89    2.33
   2   7  -2  117.04    2.49
   2   7  -2  116.61    3.48
   2   7  -1   10.79    1.00
   2   7  -1    8.91    1.20
   2   7  -1   10.51    1.52
   2   7   0  346.20    5.07
   2   7   0  358.14    3.20
  -2  -7   0  351.82    5.18
   2   7   0  348.17    3.69
   2   7   1  870.15    4.36
  -2  -7  -1  849.05    7.65
   2   7   1  855.84    5.47
   2   7   2   83.68    1.83
  -2  -7  -2   84.05    2.56
  -2  -7  -3   85.31    2.52
   2   7   3   86.88    1.84
  -2  -7  -4   83.69    2.59
   2   7   4   86.13    1.84
   2   7   5  525.84    4.24
  -2  -7  -5  524.37    5.99
   2   7   6  350.61    3.63
  -2  -7  -6  356.26    5.18
   2   7   7   66.20    1.86
  -2  -7  -7   64.43    2.62
  -2  -7  -8  115.99    3.48
   2   7   8  113.55    2.40
  -2  -7  -9  138.18    3.96
   2   7   9  132.55    2.71
  -2  -7 -10  166.07    4.51
   2   7  10  165.23    3.15
   2   7  11  269.16    4.05
  -2  -7 -11  263.33    5.86
  -2  -7 -12   17.09    2.37
   2   7  12   22.46    1.83
   2   7  13   -1.17    1.58
  -2  -7 -13    2.76    2.15
  -2  -7 -14   51.42    3.66
   2   7  14   49.25    2.66
   2   7  15    7.45    1.96
  -2  -7 -15   11.04    2.55
   2   7  16   38.00    2.77
   2   7  17   17.76    2.63
   2   8  -8    6.27    1.88
   2   8  -7   25.16    2.28
   2   8  -6    0.29    2.04
   2   8  -6    1.32    1.57
   2   8  -5   83.41    2.84
   2   8  -5   82.80    4.00
   2   8  -4   87.74    2.66
   2   8  -4   89.79    2.89
   2   8  -4   80.44    3.81
   2   8  -3    4.00    1.85
   2   8  -3    4.05    1.47
   2   8  -3    5.23    1.22
   2   8  -2   91.14    2.31
   2   8  -2   93.45    2.61
   2   8  -2   93.97    3.49
   2   8  -1    7.11    1.68
   2   8  -1    4.97    1.00
   2   8  -1    7.06    1.35
   2   8   0   39.05    1.80
   2   8   0   38.00    2.33
   2   8   1   76.86    2.83
   2   8   1   83.38    2.17
   2   8   2    1.52    1.37
   2   8   2    0.98    1.04
   2   8   3  362.50    3.92
   2   8   4  513.14    4.57
   2   8   5    2.17    1.15
  -2  -8  -6  157.34    3.81
   2   8   6  164.03    2.79
  -2  -8  -7    0.49    1.31
   2   8   7    1.21    1.10
   2   8   8  168.40    3.04
  -2  -8  -8  175.62    4.33
   2   8   9  411.51    4.69
  -2  -8  -9  428.22    6.84
   2   8  10  154.75    3.21
  -2  -8 -10  160.14    4.63
   2   8  11    4.46    1.49
  -2  -8 -11    6.80    1.97
   2   8  12    0.69    1.54
  -2  -8 -12    1.05    1.91
   2   8  13   -0.19    1.62
   2   8  14  124.85    3.67
   2   8  15  170.75    4.52
   2   8  16    2.17    2.12
   2   8  17   31.88    2.96
   2   9  -6    0.87    1.63
   2   9  -4   38.63    2.56
   2   9  -3   19.49    2.04
   2   9  -3   17.77    2.40
   2   9  -2   77.19    2.77
   2   9  -2   69.47    3.39
   2   9  -1  171.64    3.54
   2   9  -1  170.17    4.50
   2   9   0   11.38    1.63
   2   9   0   14.78    1.96
   2   9   1   45.55    2.53
   2   9   1   54.83    2.15
   2   9   2   28.53    1.72
   2   9   2   28.97    2.09
   2   9   3    3.10    1.28
   2   9   3    3.24    1.41
   2   9   4  105.38    2.55
   2   9   5  196.74    3.29
   2   9   6   71.34    2.24
   2   9   7  472.56    4.97
   2   9   8   32.17    1.86
   2   9   9   39.13    2.03
   2   9  10   27.57    1.95
   2   9  11   53.63    2.39
   2   9  12  242.63    4.42
   2   9  13  115.89    3.47
   2   9  14    1.88    1.84
   2   9  15   25.34    2.44
   2   9  16   27.88    2.67
   2   9  17   54.89    3.44
   2  10  -3   81.47    3.38
   2  10  -2    1.04    1.73
   2  10  -1    5.96    1.81
   2  10   0    0.62    1.60
   2  10   1   47.34    2.35
   2  10   1   41.98    2.57
   2  10   2  216.69    3.90
   2  10   2  212.47    4.74
   2  10   3   15.81    1.95
   2  10   3   17.43    1.78
   2  10   4   30.81    2.36
   2  10   4   34.31    2.01
   2  10   5   77.83    2.55
   2  10   6    4.35    1.50
   2  10   7  156.08    3.32
   2  10   8   29.38    2.01
   2  10   9   45.90    2.30
   2  10  10   70.69    2.68
   2  10  11    9.01    1.83
   2  10  12   30.60    2.33
   2  10  13   70.73    3.17
   2  10  14   10.89    2.16
   2  10  15   84.51    3.56
   2  10  16  124.01    4.23
   2  11  -2    9.05    2.20
   2  11  -1  102.26    3.47
   2  11   0   67.26    2.99
   2  11   1   35.36    2.48
   2  11   2   20.97    2.17
   2  11   3   13.74    1.97
   2  11   4   53.01    2.52
   2  11   5   47.32    2.41
   2  11   6   75.78    2.81
   2  11   7    3.40    1.68
   2  11   8  107.57    3.20
   2  11   9   33.40    2.33
   2  11  10   58.61    2.77
   2  11  11  168.28    4.09
   2  11  12   -0.39    1.84
   2  11  13   27.95    2.54
   2  11  14   13.01    2.27
   2  11  15    0.47    1.95
   2  12   1    5.97    2.04
   2  12   2   20.12    2.46
   2  12   3  135.34    3.85
   2  12   4   33.21    2.55
   2  12   5    3.29    1.90
   2  12   6   -0.03    1.86
   2  12   7   20.03    2.29
   2  12   8  160.01    4.02
   2  12   9   30.84    2.46
   2  12  10    0.71    1.90
   2  12  11   18.40    2.33
   2  12  12   14.63    2.34
   2  12  13   23.43    2.60
  -3  10  11    1.76    1.74
  -3  10  10   48.22    2.85
  -3  10   9    3.88    2.01
  -3  10   8   48.88    2.89
  -3  10   7   57.03    2.97
  -3  10   6    1.02    1.97
  -3  10   5    9.62    2.13
  -3  10   4    5.56    2.11
  -3   9  14    4.76    1.85
  -3   9  13   87.04    3.17
  -3   9  12   19.72    2.10
  -3   9  11    2.62    1.69
  -3   9  10   11.25    1.97
  -3   9   9   78.81    2.97
  -3   9   8    0.16    1.63
  -3   9   7   33.15    2.38
  -3   9   6    2.02    1.74
  -3   9   5   25.07    2.27
  -3   9   4    9.15    1.96
  -3   9   3    3.10    1.87
  -3   9   2    2.39    1.96
  -3   9   1   28.14    2.56
  -3   9   0   -0.61    2.07
  -3   8  15   77.64    3.38
  -3   8  14  110.32    3.37
  -3   8  13   11.23    1.81
  -3   8  12    2.39    1.62
  -3   8  11    1.30    1.49
  -3   8  10   51.54    2.44
  -3   8   9  128.76    3.23
  -3   8   8   10.74    1.71
  -3   8   7   11.88    1.75
  -3   8   6   47.17    2.29
  -3   8   5    0.67    1.49
  -3   8   4  137.17    3.46
  -3   8   3   96.40    3.09
  -3   8   2    9.60    1.85
  -3   8   1   51.92    2.79
  -3   8   0   44.24    2.69
  -3   8  -1    4.06    1.99
  -3   8  -2    7.19    2.20
  -3   7  15    9.47    1.93
  -3   7  14   55.80    2.70
  -3   7  13    0.51    1.49
  -3   7  12   57.12    2.38
  -3   7  11  241.14    4.04
  -3   7  10   96.02    2.75
  -3   7   9   17.72    1.62
  -3   7   8    1.91    1.26
  -3   7   7   78.99    2.41
  -3   7   6  177.25    3.30
  -3   7   5  149.76    3.10
  -3   7   4    2.53    1.39
  -3   7   3   10.85    1.57
  -3   7   2   24.10    1.91
  -3   7   1   24.21    2.02
  -3   7   0    6.73    1.79
  -3   7  -1   17.20    2.05
  -3   7  -2   30.91    1.96
  -3   7  -2   28.55    2.44
  -3   7  -3  102.19    2.97
  -3   7  -4    2.67    1.46
  -3   7  -5   19.34    2.16
  -3   6  15   64.44    2.83
  -3   6  14   23.56    2.00
  -3   6  13   35.96    2.14
  -3   6  12    0.60    1.33
  -3   6  11    2.06    1.26
  -3   6  10    3.40    1.28
  -3   6   9   69.81    2.15
  -3   6   8  198.83    3.18
  -3   6   7  149.35    2.76
  -3   6   6    0.84    1.08
  -3   6   5   93.15    2.31
  -3   6   4    8.17    1.23
  -3   6   3  253.39    3.60
  -3   6   2  336.69    3.34
  -3   6   2  344.14    4.25
  -3   6   1   34.00    1.44
  -3   6   1   36.21    1.88
  -3   6   0   15.01    1.28
  -3   6   0   15.28    1.67
  -3   6  -1    2.70    1.16
  -3   6  -1    1.18    1.48
  -3   6  -2   55.91    2.09
  -3   6  -2   59.73    2.59
  -3   6  -3  126.78    3.01
  -3   6  -3  116.08    3.44
  -3   6  -4   29.78    2.03
  -3   6  -5    2.30    1.63
  -3   6  -6   34.80    2.45
  -3   6  -7   19.70    2.27
  -3   5  15   47.16    2.45
  -3   5  14   13.16    1.71
  -3   5  13  123.52    2.96
  -3   5  12    7.11    1.32
  -3   5  11   23.41    1.59
  -3   5  10  269.22    3.64
  -3   5   9   76.61    2.07
  -3   5   8   44.96    1.61
  -3   5   7  197.51    2.83
  -3   5   6   37.66    1.45
  -3   5   5  366.58    3.66
  -3   5   4   90.66    1.53
  -3   5   4   93.98    2.05
  -3   5   3    8.91    1.08
  -3   5   3   11.13    0.81
  -3   5   2    3.26    0.74
  -3   5   2    3.77    1.08
  -3   5   1    0.95    1.05
  -3   5   1    1.84    0.83
  -3   5   0  160.32    2.91
  -3   5   0  161.11    2.53
  -3   5  -1  343.95    4.33
  -3   5  -1  356.81    3.82
  -3   5  -2   91.26    2.64
  -3   5  -2   96.59    2.30
  -3   5  -3   12.95    1.43
  -3   5  -3   14.38    1.79
  -3   5  -4    1.08    1.33
  -3   5  -5    4.11    1.55
  -3   5  -6   45.44    2.44
  -3   5  -7   53.95    2.74
  -3   5  -8    1.67    1.84
  -3   5  -9   17.04    2.38
  -3   4  15  102.09    3.03
  -3   4  14   59.37    2.40
  -3   4  13    3.51    1.27
  -3   4  12    9.92    1.30
  -3   4  11   13.49    1.34
  -3   4  10  102.19    2.25
  -3   4   9  157.94    2.55
  -3   4   8   17.41    1.16
  -3   4   7    2.52    0.77
  -3   4   6  219.32    2.64
  -3   4   5   84.58    1.74
  -3   4   4  466.83    3.03
  -3   4   4  452.53    3.64
  -3   4   3   34.17    1.01
  -3   4   3   37.32    1.31
  -3   4   2  151.75    1.96
  -3   4   2  147.54    2.30
  -3   4   1  424.03    3.36
  -3   4   1  417.87    3.85
  -3   4   0   53.45    1.43
  -3   4   0   50.82    1.64
  -3   4  -1  127.89    2.48
  -3   4  -1  128.65    2.22
  -3   4  -2   19.64    1.47
  -3   4  -2   19.97    1.30
  -3   4  -3   18.16    1.58
  -3   4  -3   22.41    1.45
  -3   4  -4  232.96    3.60
  -3   4  -5  176.82    3.42
  -3   4  -6    1.62    1.42
  -3   4  -7   20.74    1.98
  -3   4  -8    0.32    1.69
  -3   4  -9   81.75    3.35
  -3   4 -10   75.81    3.48
  -3   3  15   -0.16    2.35
  -3   3  15    0.52    1.41
  -3   3  14    0.19    2.18
  -3   3  14    1.75    1.34
  -3   3  13   46.08    2.02
  -3   3  13   47.45    3.26
  -3   3  12  240.12    5.67
   3  -3 -12  240.04    5.90
   3  -3 -12  223.53    3.21
  -3   3  12  232.43    3.46
  -3   3  11  357.49    6.30
   3  -3 -11  344.94    6.36
  -3   3  11  349.37    3.91
   3  -3 -10  117.08    3.66
  -3   3  10  118.14    3.61
  -3   3  10  120.47    2.29
   3  -3  -9  140.51    3.63
  -3   3   9  149.82    3.57
  -3   3   9  151.34    2.38
  -3   3   8    0.60    0.72
  -3   3   8    0.69    1.02
   3  -3  -8    0.19    1.13
  -3   3   7  141.01    2.79
   3  -3  -7  148.74    3.03
  -3   3   7  144.63    2.07
   3  -3  -6   86.06    2.11
  -3   3   6   90.85    1.62
  -3   3   5  256.81    2.50
   3  -3  -5  251.85    2.92
  -3   3   4  366.61    2.55
  -3   3   4  352.82    2.21
  -3   3   4  362.59    2.89
   3  -3  -4  346.84    2.69
  -3   3   3  667.29    3.49
  -3   3   3  677.85    3.95
  -3   3   2    0.90    0.53
  -3   3   2    1.73    0.71
  -3   3   1  234.96    2.32
  -3   3   1  235.03    2.58
  -3   3   0  388.23    3.46
  -3   3   0  386.53    3.10
  -3   3  -1    5.55    0.78
  -3   3  -1    5.74    0.92
  -3   3  -2  158.13    2.59
  -3   3  -2  158.01    2.38
  -3   3  -3  175.95    2.24
  -3   3  -3  176.44    2.95
  -3   3  -3  183.63    2.72
  -3   3  -4    4.43    1.10
  -3   3  -4    4.87    0.84
  -3   3  -5  103.82    2.56
  -3   3  -5  108.16    2.53
  -3   3  -6   25.37    1.75
  -3   3  -6   27.51    1.76
  -3   3  -7   90.81    3.00
  -3   3  -7  106.63    2.95
  -3   3  -8   48.14    2.38
  -3   3  -8   38.54    2.44
  -3   3  -9   26.94    2.21
  -3   3 -10   14.24    2.14
  -3   3 -11    9.80    2.19
   3  -2 -15    3.79    2.68
  -3   2  14  110.73    4.82
   3  -2 -14  103.65    2.76
   3  -2 -14   97.40    4.96
  -3   2  14  107.26    2.90
  -3   2  13  237.27    6.21
   3  -2 -13  234.32    6.31
  -3   2  13  226.79    3.70
   3  -2 -13  240.49    3.61
   3  -2 -12    7.26    2.03
  -3   2  12    7.52    1.22
  -3   2  12    7.83    2.16
   3  -2 -12    8.60    1.22
  -3   2  11   22.65    2.31
   3  -2 -11   23.48    1.40
   3  -2 -11   21.72    2.31
  -3   2  11   23.22    1.35
  -3   2  10   48.42    2.67
   3  -2 -10   47.74    2.68
  -3   2  10   48.95    1.58
  -3   2   9  253.30    4.80
   3  -2  -9  247.18    4.85
  -3   2   9  262.72    2.92
  -3   2   8  532.97    6.26
   3  -2  -8  530.34    6.39
  -3   2   8  519.76    3.73
  -3   2   7  109.99    2.73
   3  -2  -7  113.37    2.85
  -3   2   7  113.23    1.73
   3  -2  -6   25.22    1.40
  -3   2   6   25.73    1.36
  -3   2   6   28.91    0.92
  -3   2   5   89.90    1.88
  -3   2   5   85.57    1.35
   3  -2  -5   85.78    1.96
   3  -2  -4    5.96    0.62
  -3   2   4    6.01    0.59
  -3   2   4    5.92    0.55
  -3   2   4    6.10    0.56
   3  -2  -3  478.66    2.78
  -3   2   3  463.53    2.82
  -3   2   3  464.75    2.74
  -3   2   2  733.57    3.47
  -3   2   2  728.33    3.63
  -3   2   1  443.50    2.87
  -3   2   1  446.87    2.99
  -3   2   0  589.38    3.46
  -3   2   0  577.77    3.65
  -3   2  -1   97.64    1.61
  -3   2  -1   99.33    1.73
  -3   2  -2  414.20    2.69
  -3   2  -2  432.55    3.48
  -3   2  -2  426.63    3.67
  -3   2  -2  424.10    2.88
  -3   2  -3   39.16    1.22
  -3   2  -3   37.32    1.31
  -3   2  -3   37.89    1.46
  -3   2  -4   14.38    1.14
  -3   2  -4   11.99    0.99
  -3   2  -5  273.91    3.88
  -3   2  -5  287.89    3.53
  -3   2  -6  557.18    6.08
  -3   2  -6  571.69    5.22
  -3   2  -7    2.50    1.33
  -3   2  -7   -0.06    1.24
  -3   2  -8  119.18    3.66
  -3   2  -8  129.34    3.11
  -3   2  -9   74.11    3.28
  -3   2  -9   72.13    2.71
  -3   2 -10   29.76    2.78
  -3   2 -10   37.67    2.39
  -3   2 -11  102.39    3.57
  -3   2 -12    1.56    1.91
   3  -1 -16   67.22    2.75
   3  -1 -15    3.38    2.70
   3  -1 -15    3.94    1.59
  -3   1  14    1.82    2.32
   3  -1 -14    2.32    1.39
  -3   1  14    2.68    1.37
   3  -1 -14    1.57    2.34
   3  -1 -13  128.76    5.22
  -3   1  13  122.68    4.88
  -3   1  13  134.33    2.97
   3  -1 -13  134.72    3.02
  -3   1  12   45.21    3.21
   3  -1 -12   41.65    1.85
   3  -1 -12   37.15    2.99
  -3   1  12   38.98    1.79
  -3   1  11  109.16    4.05
   3  -1 -11  108.14    2.44
   3  -1 -11  110.41    4.13
  -3   1  11  102.71    2.30
   3  -1 -10   91.30    3.54
  -3   1  10   96.27    3.57
  -3   1  10   89.14    1.97
  -3   1   9   43.89    1.38
  -3   1   9   44.77    2.46
   3  -1  -9   46.86    2.57
  -3   1   8   99.48    3.05
  -3   1   8   99.86    1.71
   3  -1  -8  102.34    3.14
  -3   1   7   51.30    2.12
   3  -1  -7   48.09    2.08
  -3   1   7   51.27    1.18
  -3   1   6  464.23    5.11
   3  -1  -6  479.88    5.25
  -3   1   6  475.74    2.90
  -3   1   5 1512.27   18.81
   3  -1  -5 1508.04    8.29
   3  -1  -4  635.42    4.77
  -3   1   4  648.54    2.86
  -3   1   4  645.15    4.65
  -3   1   3   45.97    1.10
   3  -1  -3   44.67    1.15
  -3   1   3   45.28    0.78
  -3   1   2   10.03    0.42
  -3   1   2   10.02    0.46
  -3   1   2   10.91    0.54
   3  -1  -2   11.05    0.52
  -3   1   1    2.97    0.44
  -3   1   1    2.71    0.40
   3  -1  -1    2.59    0.20
  -3   1   0  592.86    3.17
  -3   1   0  590.51    3.13
  -3   1  -1 2956.84   29.65
  -3   1  -1 2883.43   23.15
  -3   1  -1 2921.85   30.53
  -3   1  -2    0.16    0.56
  -3   1  -2    0.22    0.40
  -3   1  -2   -0.63    0.31
  -3   1  -2   -0.29    0.59
   3  -1   3  239.86    2.84
  -3   1  -3  240.46    2.54
  -3   1  -3  236.88    2.67
  -3   1  -3  227.04    2.82
  -3   1  -4   63.10    1.54
  -3   1  -4   62.41    1.73
   3  -1   4   60.56    1.79
   3  -1   5    2.06    0.86
  -3   1  -5    2.96    0.88
  -3   1  -5    1.75    0.91
  -3   1  -6  393.75    4.04
  -3   1  -6  390.05    5.04
  -3   1  -7   75.37    2.77
  -3   1  -7   78.77    2.18
  -3   1  -8   52.22    2.58
  -3   1  -8   52.92    2.06
  -3   1  -9   94.67    3.52
  -3   1  -9   93.02    2.70
  -3   1 -10   21.20    2.49
  -3   1 -10   23.64    1.94
  -3   1 -11   23.00    2.85
  -3   1 -11   30.65    2.22
  -3   1 -12   21.13    2.19
  -3   1 -13    2.38    1.89
   3   0 -16   46.87    2.71
   3   0 -15   51.37    2.60
   3   0 -14    3.89    2.61
  -3   0  14    1.36    2.45
   3   0 -14    0.75    1.59
   3   0 -13   17.10    1.79
  -3   0  13   17.86    2.92
   3   0 -13   15.08    2.81
  -3   0  12   80.77    4.16
   3   0 -12   72.00    2.38
   3   0 -12   71.26    3.91
  -3   0  11  107.45    4.21
   3   0 -11  104.77    2.50
   3   0 -11  102.67    4.14
  -3   0  10  465.85    7.35
   3   0 -10  457.62    4.52
   3   0 -10  469.85    7.49
  -3   0   9   80.44    3.15
   3   0  -9   81.26    3.28
  -3   0   8  371.87    5.71
   3   0  -8  340.64    5.59
  -3   0   7  822.28    7.75
   3   0  -7  796.98    7.72
  -3   0   6   32.70    1.84
   3   0  -6   27.97    1.70
  -3   0   6   32.51    0.88
  -3   0   5   15.55    1.26
   3   0  -5   13.13    1.17
  -3   0   5   15.05    0.57
  -3   0   4  352.48    3.85
   3   0  -4  370.39    4.05
  -3   0   4  351.42    1.81
   3   0  -3   55.90    1.46
  -3   0   3   55.81    1.44
  -3   0   3   56.53    0.67
  -3   0   2  890.20   18.19
   3   0  -2  902.21    4.68
  -3   0   1  440.23    2.71
  -3   0   1  434.49    1.87
  -3   0   1  438.41    2.43
  -3   0   0  145.28    1.45
  -3   0   0  144.07    1.43
  -3   0   0  148.13    1.32
  -3   0  -1   51.83    0.98
  -3   0  -1   53.49    0.97
  -3   0  -1   52.54    0.97
  -3   0  -1   51.62    0.95
  -3   0  -2   12.61    0.70
  -3   0  -2   14.28    0.66
  -3   0  -2   12.68    0.68
  -3   0  -3  552.47    3.44
  -3   0  -3  540.33    4.02
  -3   0  -4 1173.21    6.72
  -3   0  -4 1130.93   21.09
  -3   0  -5  875.60    5.04
   3   0   5  876.76    6.70
  -3   0  -5  877.48    6.48
  -3   0  -6    9.48    0.98
   3   0   6    7.67    1.12
  -3   0  -6    9.05    1.25
   3   0   7  119.60    3.18
  -3   0  -7  115.86    3.17
  -3   0  -7  121.27    2.34
   3   0   8   15.14    1.69
  -3   0  -8   15.23    1.79
  -3   0  -8   15.12    1.36
  -3   0  -9  172.84    3.15
  -3   0  -9  174.33    4.42
  -3   0 -10  204.55    3.63
  -3   0 -10  214.74    5.20
  -3   0 -11   43.40    2.22
  -3   0 -11   42.30    3.20
  -3   0 -12  253.28    6.47
  -3   0 -12  248.95    4.48
  -3   0 -13    5.89    1.90
  -3   0 -14   22.96    2.38
   3   1 -16    0.21    1.87
   3   1 -15   28.54    2.41
   3   1 -14    1.16    1.70
   3   1 -13   17.94    1.93
  -3  -1  13   21.88    3.09
   3   1 -13   17.47    2.89
  -3  -1  12  179.64    5.84
   3   1 -12  192.17    3.66
   3   1 -12  184.97    5.95
   3   1 -11  146.14    3.12
   3   1 -11  146.94    5.10
   3   1 -10   13.92    2.26
   3   1 -10   15.41    1.44
  -3  -1  10   15.88    2.25
  -3  -1   9  272.15    5.59
   3   1  -9  271.39    3.54
   3   1  -9  260.81    5.53
  -3  -1   8  122.22    3.64
   3   1  -8  125.56    3.76
  -3  -1   7  573.69    6.80
   3   1  -7  578.27    6.94
  -3  -1   6  340.96    4.90
   3   1  -6  323.98    4.93
  -3  -1   5  152.53    3.12
   3   1  -5  160.64    3.28
  -3  -1   4  415.31    4.54
   3   1  -4  412.69    4.54
   3   1  -3  348.89    3.80
  -3  -1   3  340.14    3.73
   3   1  -2 1073.36    5.84
  -3  -1   2 1073.06    5.75
  -3  -1   1 2265.34   25.76
  -3  -1   1 2169.53   29.49
  -3  -1   0    1.14    0.42
  -3  -1   0    1.63    0.37
  -3  -1   0    0.64    0.40
  -3  -1  -1  894.25    4.38
  -3  -1  -1  912.57   13.57
  -3  -1  -2 1457.39   18.32
  -3  -1  -2 1447.89   24.13
  -3  -1  -2 1493.96   19.17
  -3  -1  -3  213.45    1.92
  -3  -1  -3  205.71    2.59
  -3  -1  -3  218.21    1.79
  -3  -1  -4  167.22    1.87
  -3  -1  -4  168.45    1.50
  -3  -1  -4  161.99    2.57
  -3  -1  -5  103.07    2.39
  -3  -1  -5  105.21    1.65
  -3  -1  -5  104.42    1.11
  -3  -1  -6  534.12    5.67
  -3  -1  -6  555.35    3.97
  -3  -1  -7  798.21    7.41
  -3  -1  -7  818.18    5.13
   3   1   8   94.85    3.04
  -3  -1  -8   96.97    2.10
  -3  -1  -8   98.01    3.17
  -3  -1  -9   34.76    1.58
  -3  -1  -9   32.70    2.31
  -3  -1 -10   52.11    2.94
  -3  -1 -10   54.61    2.04
  -3  -1 -11   42.21    3.04
  -3  -1 -11   43.59    2.06
  -3  -1 -12  150.14    5.16
  -3  -1 -12  155.97    3.43
  -3  -1 -13  154.82    3.63
  -3  -1 -13  141.27    5.57
  -3  -1 -14   13.19    1.97
  -3  -1 -15   -1.87    1.82
   3   2 -15   29.16    2.56
   3   2 -14   93.42    3.32
  -3  -2  13   54.74    4.23
   3   2 -13   60.97    2.76
   3   2 -13   55.52    4.15
  -3  -2  12   26.69    3.16
   3   2 -12   29.90    2.16
   3   2 -12   27.94    3.43
  -3  -2  11   57.51    3.59
   3   2 -11   52.70    2.33
   3   2 -11   59.05    3.79
  -3  -2  10  138.48    4.71
   3   2 -10  134.36    2.94
   3   2 -10  137.24    4.75
  -3  -2   9  394.29    6.85
   3   2  -9  392.72    6.94
   3   2  -9  390.87    4.43
   3   2  -8  387.50    6.45
  -3  -2   8  395.16    6.43
   3   2  -8  381.95    4.18
  -3  -2   7    1.84    1.33
   3   2  -7    1.49    1.37
  -3  -2   6  746.71    7.60
   3   2  -6  761.76    7.90
   3   2  -5    1.36    1.05
  -3  -2   5    1.93    1.09
  -3  -2   4  920.50    7.17
   3   2  -4  893.62    7.24
   3   2  -3  831.30    6.33
  -3  -2   3  832.03    6.23
  -3  -2   3  852.04    4.15
   3   2  -2    3.53    0.71
  -3  -2   2    3.76    0.71
  -3  -2   2    3.91    0.47
  -3  -2   1 1316.45   19.83
  -3  -2   1 1255.61   25.86
  -3  -2   0 1497.11   26.47
  -3  -2   0 1544.87   21.10
  -3  -2  -1   58.23    1.36
  -3  -2  -1   58.51    0.87
  -3  -2  -1   59.23    1.08
  -3  -2  -2 1593.24   20.83
  -3  -2  -2 1577.60   17.13
  -3  -2  -2 1566.50   27.64
  -3  -2  -3   70.39    1.02
  -3  -2  -3   65.48    1.65
  -3  -2  -3   69.47    1.14
  -3  -2  -4  114.42    1.42
  -3  -2  -4  111.14    2.21
  -3  -2  -4  110.61    1.37
  -3  -2  -5  258.01    2.23
  -3  -2  -5  263.02    2.10
  -3  -2  -5  267.83    3.65
  -3  -2  -6  174.22    2.04
  -3  -2  -6  178.93    3.33
  -3  -2  -6  177.42    1.70
  -3  -2  -7   27.01    1.75
  -3  -2  -7   26.56    1.07
  -3  -2  -7   26.85    0.72
  -3  -2  -8   99.05    1.91
  -3  -2  -8  107.28    3.18
  -3  -2  -9    0.71    0.85
  -3  -2  -9   -0.15    1.42
  -3  -2 -10  318.40    5.97
  -3  -2 -10  320.47    3.76
  -3  -2 -11  344.95    6.62
  -3  -2 -11  337.68    4.14
  -3  -2 -12    2.21    1.25
  -3  -2 -12    2.99    2.19
  -3  -2 -13   24.55    1.88
  -3  -2 -13   24.42    3.03
  -3  -2 -14    1.02    1.48
  -3  -2 -15   72.91    2.82
   3   3 -14   51.87    2.99
   3   3 -13   22.96    2.32
  -3  -3  12   44.65    3.79
   3   3 -12   47.99    2.58
   3   3 -12   44.97    3.95
   3   3 -11  165.89    3.69
  -3  -3  11  177.33    5.84
   3   3 -11  181.05    6.02
   3   3 -10  108.54    2.95
   3   3 -10  109.42    4.56
  -3  -3  10  108.78    4.54
   3   3  -9   49.47    2.10
  -3  -3   9   48.04    3.04
   3   3  -9   46.43    3.10
   3   3  -8   11.14    1.34
  -3  -3   8    8.66    1.85
   3   3  -8    7.76    1.80
  -3  -3   7    5.43    1.58
   3   3  -7    4.26    1.66
   3   3  -7    6.34    1.12
   3   3  -6  799.78    5.50
  -3  -3   6  817.39    8.39
   3   3  -6  823.33    8.59
  -3  -3   5 1460.65    5.66
  -3  -3   5 1433.48   10.41
  -3  -3   4   23.72    0.88
  -3  -3   4   26.77    1.65
   3   3  -4   23.87    1.63
  -3  -3   3  795.38    6.60
  -3  -3   3  793.49    4.12
   3   3  -3  798.27    6.74
  -3  -3   2  422.48    2.98
   3   3  -2  416.17    4.54
   3   3  -2  432.06    2.22
  -3  -3   2  408.97    4.45
   3   3  -1  140.81    1.13
  -3  -3   1  142.90    2.51
  -3  -3   1  142.12    1.74
  -3  -3   0  934.52    5.83
   3   3   0  936.14   10.58
  -3  -3  -1  645.76    4.74
   3   3   1  678.11    9.63
  -3  -3  -2  700.13    2.67
  -3  -3  -2  701.71    4.99
   3   3   2  691.95   10.96
  -3  -3  -3 1240.65   14.44
  -3  -3  -3 1228.49    6.89
  -3  -3  -4  314.29    1.99
  -3  -3  -4  316.47    3.78
  -3  -3  -5 1491.59    8.58
  -3  -3  -5 1472.10   18.46
  -3  -3  -6  197.34    3.52
  -3  -3  -6  197.12    1.91
  -3  -3  -7  229.70    2.27
  -3  -3  -7  239.77    4.16
  -3  -3  -8  552.65    3.79
  -3  -3  -8  560.27    6.66
  -3  -3  -9  191.64    4.36
  -3  -3  -9  189.44    2.47
  -3  -3 -10   26.45    2.26
  -3  -3 -10   24.55    1.28
  -3  -3 -11   67.93    1.94
  -3  -3 -11   69.39    3.38
  -3  -3 -12    0.05    1.01
  -3  -3 -12    1.48    2.06
  -3  -3 -13   10.10    1.37
  -3  -3 -13   10.26    2.57
  -3  -3 -14  116.24    5.09
  -3  -3 -14  117.06    2.94
   3   4 -13   57.07    3.05
   3   4 -12    1.80    1.94
   3   4 -11   34.56    2.37
  -3  -4  11   28.91    3.22
   3   4 -11   31.44    3.53
   3   4 -10   26.63    2.06
  -3  -4  10   24.09    2.83
   3   4 -10   27.65    3.19
  -3  -4   9    1.66    1.98
   3   4  -9    3.60    1.54
   3   4  -9    5.11    2.29
   3   4  -8  286.61    4.07
  -3  -4   8  279.53    6.04
   3   4  -8  288.37    6.26
   3   4  -7  284.63    5.94
   3   4  -7  288.10    3.88
  -3  -4   7  282.17    5.75
  -3  -4   6    3.72    1.50
   3   4  -6    4.89    1.12
   3   4  -6    6.05    1.75
   3   4  -5   38.06    1.50
  -3  -4   5   35.92    2.17
  -3  -4   5   37.73    1.06
   3   4  -5   33.10    2.18
   3   4  -4    1.59    0.81
   3   4  -4    2.12    1.25
  -3  -4   4    2.82    1.19
  -3  -4   4    1.76    0.55
   3   4  -3  410.05    2.97
  -3  -4   3  412.24    5.21
   3   4  -3  402.37    5.24
  -3  -4   3  412.06    3.12
  -3  -4   2 2180.72   11.17
   3   4  -2 2235.10   24.45
   3   4  -2 2257.80   11.33
  -3  -4   2 2216.63   28.34
   3   4  -1  132.84    1.43
  -3  -4   1  128.45    2.65
  -3  -4   0  533.55    4.91
   3   4   0  531.14    2.58
  -3  -4  -1   34.11    1.36
   3   4   1   33.09    0.72
  -3  -4  -2  363.53    3.92
   3   4   2  365.50    2.25
  -3  -4  -3 2008.27   37.65
   3   4   3 1949.40   21.92
   3   4   4 1069.96   17.74
  -3  -4  -4 1082.51    7.22
  -3  -4  -4 1067.15   12.67
   3   4   5   50.31    1.19
  -3  -4  -5   50.44    0.81
  -3  -4  -5   46.07    1.83
  -3  -4  -6  723.10    3.11
  -3  -4  -6  752.47    6.73
  -3  -4  -7   50.05    1.02
  -3  -4  -7   54.25    2.24
  -3  -4  -8   62.47    2.56
  -3  -4  -8   58.22    1.22
  -3  -4  -9   72.58    1.47
  -3  -4  -9   69.06    2.87
  -3  -4 -10   12.87    0.90
  -3  -4 -10   12.38    1.95
  -3  -4 -11  146.33    2.37
  -3  -4 -11  138.65    4.43
  -3  -4 -12   70.81    3.69
  -3  -4 -12   69.02    1.91
  -3  -4 -13    2.84    2.36
  -3  -4 -14   60.28    3.99
   3   4  17   48.49    3.30
   3   5 -12   18.18    2.42
   3   5 -11   17.16    2.23
   3   5 -10   11.26    2.77
   3   5 -10   10.91    1.93
  -3  -5   9    0.05    2.03
   3   5  -9    1.61    1.58
   3   5  -9   -0.66    2.50
   3   5  -8   34.95    2.10
  -3  -5   8   36.06    2.93
   3   5  -8   36.29    3.09
  -3  -5   7  247.16    5.73
   3   5  -7  266.66    6.14
   3   5  -7  263.56    4.00
  -3  -5   6    6.38    1.83
   3   5  -6    4.75    1.25
   3   5  -6    3.55    1.83
   3   5  -5  139.26    2.66
  -3  -5   5  136.44    3.93
   3   5  -5  131.76    3.95
  -3  -5   4  259.24    2.64
  -3  -5   4  271.61    4.98
   3   5  -4  256.83    2.98
   3   5  -4  260.61    3.27
   3   5  -4  259.50    4.90
   3   5  -3  289.45    3.16
   3   5  -3  296.17    2.90
   3   5  -3  294.33    4.91
  -3  -5   3  298.12    2.83
  -3  -5   3  297.58    4.85
   3   5  -2   88.37    1.74
  -3  -5   2   90.48    2.69
   3   5  -2   94.39    1.60
   3   5  -2   94.38    2.83
   3   5  -1  101.80    2.72
   3   5  -1  100.45    1.55
  -3  -5   1   95.97    2.60
   3   5   0  381.02    2.68
  -3  -5   0  375.57    4.60
  -3  -5  -1  658.35    5.83
   3   5   1  679.74    3.45
  -3  -5  -2  842.93    6.52
   3   5   2  838.16    3.91
  -3  -5  -3   69.68    2.06
   3   5   3   72.98    1.29
   3   5   4  273.26    2.44
  -3  -5  -4  275.79    3.98
   3   5   5   13.37    0.81
  -3  -5  -5   11.22    1.23
  -3  -5  -6 1286.65    9.26
   3   5   6 1300.04   23.69
   3   5   7 1152.81    6.08
  -3  -5  -7 1128.69    3.63
  -3  -5  -7 1151.54    9.11
   3   5   8   59.58    1.74
  -3  -5  -8   60.44    1.01
  -3  -5  -8   60.97    2.54
  -3  -5  -9  117.91    1.54
  -3  -5  -9  128.17    3.70
   3   5   9  127.89    2.52
   3   5  10    6.28    1.25
  -3  -5 -10    6.01    1.80
   3   5  11   57.11    2.21
  -3  -5 -11   55.30    3.09
  -3  -5 -12  218.38    5.78
   3   5  12  205.59    3.91
  -3  -5 -13    8.32    2.57
   3   5  13    9.53    1.81
   3   5  14   38.22    2.49
  -3  -5 -14   29.78    3.40
  -3  -5 -15  110.82    5.42
   3   5  15  102.51    3.67
   3   5  16    6.05    2.10
   3   5  17   19.87    2.64
   3   6 -11    4.96    2.15
   3   6 -10   97.03    3.38
   3   6  -9   88.01    3.14
   3   6  -9   94.02    4.81
   3   6  -8   25.10    2.04
   3   6  -8   25.14    3.04
   3   6  -7   11.72    1.68
   3   6  -7    8.95    2.29
   3   6  -6   31.04    1.83
  -3  -6   6   29.38    2.64
   3   6  -6   34.96    2.86
   3   6  -5   11.71    1.37
   3   6  -5   13.14    2.05
  -3  -6   5   11.59    1.97
   3   6  -4   52.66    1.82
  -3  -6   4   52.30    2.74
   3   6  -4   52.89    1.80
   3   6  -4   55.31    2.81
  -3  -6   4   50.28    1.39
   3   6  -3   39.80    1.50
  -3  -6   3   41.21    2.35
   3   6  -3   39.46    1.48
   3   6  -3   45.59    2.50
  -3  -6   3   40.04    1.27
   3   6  -2  149.67    2.36
  -3  -6   2  159.78    3.73
   3   6  -2  148.95    2.28
   3   6  -2  161.66    3.79
   3   6  -1  311.18    4.87
   3   6  -1  308.72    3.02
   3   6  -1  313.24    2.98
  -3  -6   1  316.90    4.91
   3   6   0    2.36    0.63
   3   6   0    3.21    0.63
  -3  -6   0    4.19    1.12
   3   6   1   89.77    1.42
  -3  -6  -1   90.50    2.53
   3   6   1   89.18    1.57
   3   6   2  424.47    2.58
  -3  -6  -2  430.27    5.08
   3   6   2  423.11    3.21
   3   6   3   11.73    0.49
  -3  -6  -3   11.99    1.27
   3   6   3   13.30    0.81
   3   6   4  847.97    4.65
  -3  -6  -4  842.27    7.17
   3   6   5  249.18    2.70
  -3  -6  -5  237.04    4.14
   3   6   6  186.65    2.45
  -3  -6  -6  183.87    3.78
  -3  -6  -7    9.73    1.52
   3   6   7    9.50    1.01
  -3  -6  -8    9.30    1.63
   3   6   8    9.76    1.09
   3   6   9  466.33    4.53
  -3  -6  -9  473.01    6.80
  -3  -6 -10  641.06    8.26
   3   6  10  599.94    5.52
   3   6  11  151.02    3.18
  -3  -6 -11  145.98    4.52
  -3  -6 -12   19.28    2.49
   3   6  12   20.55    1.84
   3   6  13   37.26    2.32
  -3  -6 -13   35.56    3.29
   3   6  14    2.08    1.78
  -3  -6 -14   -1.11    2.43
   3   6  15   26.31    2.49
  -3  -6 -15   25.76    3.42
   3   6  16   75.78    3.39
   3   6  17    1.57    2.10
   3   7 -10    0.27    1.89
   3   7  -9    4.13    1.94
   3   7  -8    1.75    1.73
   3   7  -7   35.41    2.23
   3   7  -7   29.58    3.10
   3   7  -6  134.99    3.24
   3   7  -6  132.69    4.84
   3   7  -5   12.87    1.58
   3   7  -5   10.07    2.25
   3   7  -4   33.72    1.74
   3   7  -4   36.96    1.84
   3   7  -4   34.63    2.65
   3   7  -3   75.02    2.07
   3   7  -3   79.04    2.12
  -3  -7   3   76.17    1.79
  -3  -7   3   77.78    3.28
   3   7  -3   81.50    3.30
   3   7  -2    0.96    0.90
  -3  -7   2    1.47    1.35
   3   7  -2    0.22    1.57
   3   7  -2    0.56    0.93
   3   7  -1  247.86    2.96
   3   7  -1  260.12    4.88
   3   7  -1  249.73    3.06
  -3  -7   1  257.20    4.85
   3   7   0   39.16    2.20
   3   7   0   40.13    1.26
   3   7   0   40.37    1.41
  -3  -7   0   37.61    2.11
   3   7   1   40.12    1.10
  -3  -7  -1   44.72    2.15
   3   7   1   39.56    1.37
   3   7   2    3.02    0.50
   3   7   2    3.75    0.81
  -3  -7  -3  344.77    5.00
   3   7   3  343.60    3.23
   3   7   4   38.44    1.33
  -3  -7  -4   38.56    1.98
   3   7   5   86.31    1.84
  -3  -7  -5   81.62    2.70
  -3  -7  -6   10.90    1.49
   3   7   6   12.72    1.06
   3   7   7   18.53    1.28
  -3  -7  -7   18.74    1.85
   3   7   8  820.11    5.86
  -3  -7  -8  856.95    8.90
  -3  -7  -9  119.45    3.79
   3   7   9  120.95    2.61
   3   7  10   62.41    2.14
  -3  -7 -10   61.30    3.15
   3   7  11    4.83    1.43
  -3  -7 -11    7.47    2.01
  -3  -7 -12   44.58    3.20
   3   7  12   53.70    2.39
   3   7  13  170.78    3.89
  -3  -7 -13  167.85    5.46
   3   7  14   72.97    3.02
  -3  -7 -14   69.58    4.40
   3   7  15    2.51    1.92
  -3  -7 -15    1.49    2.57
   3   7  16   34.06    2.71
   3   7  17    4.49    2.31
   3   8  -9   17.94    2.34
   3   8  -8   93.00    3.41
   3   8  -7   36.11    2.40
   3   8  -6    2.73    1.52
   3   8  -6    0.41    2.13
   3   8  -5    1.54    1.38
   3   8  -5    0.80    2.11
   3   8  -4   28.82    1.79
   3   8  -4   27.91    1.91
   3   8  -4   29.89    2.82
   3   8  -3   75.01    2.26
   3   8  -3   74.97    2.37
   3   8  -3   71.44    3.48
   3   8  -2  285.49    3.67
   3   8  -2  278.88    3.84
   3   8  -2  287.74    5.73
   3   8  -1   -0.13    1.56
   3   8  -1    1.19    0.88
   3   8  -1    2.34    1.10
   3   8   0  181.84    4.35
   3   8   0  175.23    2.50
   3   8   0  180.72    2.93
   3   8   1    6.89    1.52
   3   8   1    7.80    1.10
  -3  -8  -1    7.25    1.47
  -3  -8  -2   43.76    2.33
   3   8   2   47.67    1.62
  -3  -8  -3   84.33    2.90
   3   8   3   83.50    1.93
  -3  -8  -4    2.44    1.31
   3   8   4    1.18    0.94
   3   8   5   71.78    1.88
  -3  -8  -5   71.45    2.78
  -3  -8  -6    4.03    1.40
   3   8   6    4.76    1.08
  -3  -8  -7    7.14    1.58
   3   8   7    7.44    1.19
   3   8   8  141.02    2.79
  -3  -8  -8  146.89    4.18
   3   8   9  105.60    2.58
  -3  -8  -9  103.21    3.78
   3   8  10   37.60    2.00
  -3  -8 -10   41.99    2.90
   3   8  11   86.53    2.72
  -3  -8 -11   84.89    3.90
  -3  -8 -12  142.55    5.07
   3   8  12  135.81    3.39
   3   8  13    4.51    1.73
  -3  -8 -13   -0.19    2.42
   3   8  14   37.45    2.50
  -3  -8 -14   36.92    3.65
   3   8  15    2.31    1.96
  -3  -8 -15    2.14    2.75
   3   8  16   33.33    2.71
   3   8  17  109.39    4.21
   3   9  -7    0.37    1.66
   3   9  -6   27.19    2.21
   3   9  -5  121.20    3.34
   3   9  -4   73.85    2.67
   3   9  -4   77.55    2.82
   3   9  -4   76.89    3.99
   3   9  -3    8.18    1.65
   3   9  -3    5.94    2.20
   3   9  -2    1.41    1.80
   3   9  -2    0.76    1.38
   3   9  -1    2.76    1.68
   3   9  -1    3.60    1.39
   3   9   0  167.66    3.17
   3   9   0  169.34    4.50
   3   9   1   92.40    3.40
   3   9   1  101.01    2.52
   3   9   2    2.92    1.53
   3   9   2    1.64    1.15
   3   9   3    5.05    1.20
   3   9   4   28.67    1.55
   3   9   5   21.62    1.47
   3   9   6  160.61    2.93
   3   9   7  249.16    3.62
   3   9   8    6.33    1.37
   3   9   9  126.05    2.92
   3   9  10    5.22    1.53
   3   9  11    2.62    1.56
   3   9  12   32.56    2.22
   3   9  13   17.21    2.14
   3   9  14  135.99    3.98
   3   9  15   25.39    2.49
   3   9  16    4.54    2.24
   3   9  17   23.74    2.79
   3  10  -3    0.51    1.71
   3  10  -2   50.87    2.50
   3  10  -2   48.85    3.30
   3  10  -1  119.52    3.25
   3  10  -1  106.07    4.17
   3  10   0   60.05    2.45
   3  10   0   57.19    3.30
   3  10   1   10.62    2.04
   3  10   1   15.04    1.67
   3  10   2   15.63    1.65
   3  10   2   13.94    2.21
   3  10   3  110.93    3.81
   3  10   3  115.97    2.80
   3  10   4  342.79    4.43
   3  10   5   43.70    1.99
   3  10   6    3.06    1.36
   3  10   7   22.00    1.77
   3  10   8    2.42    1.42
   3  10   9  114.94    3.04
   3  10  10   97.67    2.95
   3  10  11   16.70    1.97
   3  10  12   45.52    2.58
   3  10  13   38.65    2.57
   3  10  14   14.66    2.20
   3  10  15   35.77    2.83
   3  10  16    4.25    2.27
   3  11  -3    4.14    1.88
   3  11  -2   11.15    2.15
   3  11  -1    5.45    1.92
   3  11   0    0.10    1.68
   3  11   1   13.95    1.95
   3  11   2  113.10    3.18
   3  11   2   93.44    4.05
   3  11   3   33.38    2.67
   3  11   3   36.71    2.21
   3  11   4   10.92    2.06
   3  11   4   13.74    1.75
   3  11   5   18.45    1.88
   3  11   6   34.12    2.09
   3  11   7  117.74    3.17
   3  11   8  153.94    3.55
   3  11   9   44.39    2.39
   3  11  10   15.01    1.97
   3  11  11    0.54    1.75
   3  11  12   56.72    2.89
   3  11  13  109.61    3.79
   3  11  14   39.58    2.80
   3  11  15    3.74    2.25
   3  12   0   51.19    2.92
   3  12   1   20.51    2.25
   3  12   2   63.77    3.01
   3  12   3   68.45    3.00
   3  12   4    2.39    1.72
   3  12   5   23.69    2.21
   3  12   6   39.48    2.49
   3  12   7    7.33    1.87
   3  12   8   36.14    2.41
   3  12   9    4.92    1.86
   3  12  10   93.04    3.32
   3  12  11  141.85    3.99
   3  12  12   46.39    2.85
   3  12  13    2.24    2.09
   3  12  14    0.14    2.11
   3  13   4    0.60    1.95
   3  13   5   11.73    2.17
   3  13   6   61.42    3.09
   3  13   7    8.83    2.09
   3  13   8   51.34    2.87
   3  13   9   16.28    2.33
   3  13  10    0.14    1.87
   3  13  11    5.06    2.03
  -4   9  11   57.53    2.92
  -4   9  10  131.94    3.68
  -4   9   9   88.11    3.16
  -4   9   8   -0.46    1.74
  -4   9   7    0.47    1.72
  -4   9   6    3.45    1.84
  -4   9   5   30.15    2.57
  -4   9   4   36.32    2.60
  -4   9   3    1.09    1.90
  -4   8  12   32.01    2.26
  -4   8  11   15.62    1.93
  -4   8  10    3.09    1.52
  -4   8   9   25.39    2.11
  -4   8   8   33.33    2.18
  -4   8   7   93.69    3.02
  -4   8   6   83.96    2.89
  -4   8   5   17.11    2.00
  -4   8   4   86.96    3.08
  -4   8   3    1.69    1.77
  -4   8   2  175.90    4.18
  -4   8   1   78.50    3.21
  -4   8   0   28.26    2.58
  -4   8  -1    3.25    2.07
  -4   7  13    2.27    1.44
  -4   7  12  109.88    3.01
  -4   7  11   44.88    2.22
  -4   7  10    8.28    1.50
  -4   7   9  117.28    2.95
  -4   7   8   21.03    1.76
  -4   7   7   38.96    2.04
  -4   7   6    4.74    1.47
  -4   7   5    1.86    1.42
  -4   7   4  102.81    2.98
  -4   7   3  291.81    4.60
  -4   7   2    2.59    1.63
  -4   7   1    8.22    1.84
  -4   7   0    0.87    1.78
  -4   7  -1   20.20    2.31
  -4   6  13   47.46    2.25
  -4   6  12    6.91    1.46
  -4   6  11   15.76    1.62
  -4   6  10    3.08    1.30
  -4   6   9    7.21    1.29
  -4   6   8  104.77    2.50
  -4   6   7   -0.52    1.23
  -4   6   6  170.42    3.11
  -4   6   5   95.94    2.55
  -4   6   4    6.72    1.35
  -4   6   3   45.46    2.03
  -4   6   2    5.66    1.46
  -4   6   1   36.08    1.63
  -4   6   1   34.93    2.04
  -4   6   0  127.13    2.76
  -4   6   0  124.98    3.28
  -4   6  -1   23.83    1.74
  -4   6  -1   21.64    2.07
  -4   6  -2  100.37    2.83
  -4   6  -2  103.30    3.31
  -4   6  -3   24.30    1.98
  -4   6  -4   23.52    2.09
  -4   6  -5   92.13    3.39
  -4   6  -6  129.52    4.04
  -4   5  13    2.48    1.33
  -4   5  12    2.31    1.30
  -4   5  11  333.90    4.19
  -4   5  10  171.28    2.99
  -4   5   9   11.09    1.28
  -4   5   8   85.10    2.11
  -4   5   7   11.06    1.20
  -4   5   6  135.43    2.54
  -4   5   5  142.59    2.59
  -4   5   4   12.61    0.95
  -4   5   4   11.81    1.24
  -4   5   3   96.22    2.32
  -4   5   3   97.08    1.92
  -4   5   2  192.39    2.65
  -4   5   2  191.99    3.20
  -4   5   1    5.53    1.05
  -4   5   1    4.82    1.28
  -4   5   0   71.15    2.04
  -4   5   0   71.14    2.33
  -4   5  -1   85.53    2.33
  -4   5  -1   82.18    2.62
  -4   5  -2   40.07    1.91
  -4   5  -2   36.44    2.23
  -4   5  -3  105.06    2.79
  -4   5  -4    5.97    1.61
  -4   5  -5   11.71    1.81
  -4   5  -6    5.80    1.82
  -4   5  -7    5.59    1.90
  -4   4  12   96.47    2.44
  -4   4  11    0.63    1.04
  -4   4  10  139.85    2.57
  -4   4   9   12.68    1.12
  -4   4   8  360.39    3.63
  -4   4   7  421.04    3.80
  -4   4   6  100.77    1.99
  -4   4   5    6.20    0.95
  -4   4   4    1.49    0.66
  -4   4   4    1.64    0.84
  -4   4   3   31.11    1.18
  -4   4   3   30.28    1.32
  -4   4   2  238.41    2.70
  -4   4   2  249.19    3.14
  -4   4   1   13.30    1.27
  -4   4   1   12.65    1.03
  -4   4   0   34.81    1.44
  -4   4   0   34.87    1.63
  -4   4  -1   86.01    2.09
  -4   4  -1   83.94    2.33
  -4   4  -2   83.56    2.16
  -4   4  -2   84.39    2.52
  -4   4  -3   39.53    1.87
  -4   4  -4  115.12    2.83
  -4   4  -5    1.41    1.49
  -4   4  -6  100.28    3.10
  -4   4  -7   63.86    2.84
  -4   4  -8    5.06    1.99
  -4   4  -9   25.62    2.45
  -4   3  14    9.17    2.43
  -4   3  13    0.88    1.94
  -4   3  12   93.25    3.77
  -4   3  12   94.29    2.35
  -4   3  11   59.37    2.97
  -4   3  11   54.06    1.78
  -4   3  10  208.76    4.49
  -4   3  10  210.78    2.91
  -4   3   9  256.87    4.49
  -4   3   9  272.44    3.11
  -4   3   8    3.80    1.07
  -4   3   8    4.40    0.82
  -4   3   7   61.66    1.49
  -4   3   6   16.10    0.93
  -4   3   5  731.53    4.35
  -4   3   4  665.66    3.95
  -4   3   4  671.34    4.18
  -4   3   3  204.84    2.43
  -4   3   3  200.66    2.26
  -4   3   2   23.33    0.99
  -4   3   2   25.08    1.12
  -4   3   1  169.84    2.43
  -4   3   1  163.77    2.23
  -4   3   0   33.58    1.27
  -4   3   0   32.69    1.36
  -4   3  -1  350.01    3.53
  -4   3  -1  362.10    3.86
  -4   3  -2  178.59    2.76
  -4   3  -2  175.86    3.00
  -4   3  -3    0.35    1.01
  -4   3  -4   23.73    1.56
  -4   3  -5    2.59    1.36
  -4   3  -6   17.65    1.81
  -4   3  -7   30.63    2.16
  -4   3  -8    5.21    1.84
  -4   3  -9   13.98    2.14
  -4   3 -10   84.43    3.53
  -4   2  14   52.94    3.84
  -4   2  13    2.97    2.15
   4  -2 -13    2.97    1.30
  -4   2  12  129.76    4.58
  -4   2  12  125.04    2.55
   4  -2 -12  131.26    2.73
  -4   2  11   79.52    3.46
  -4   2  11   86.17    2.02
  -4   2  10   58.46    2.82
   4  -2 -10   52.79    2.85
  -4   2  10   57.00    1.61
  -4   2   9  100.60    3.21
   4  -2  -9  103.46    3.36
  -4   2   9  109.46    1.96
  -4   2   8   76.96    2.59
   4  -2  -8   73.64    2.67
  -4   2   8   77.98    1.58
  -4   2   7   37.30    1.75
   4  -2  -7   37.48    1.87
  -4   2   7   37.93    1.13
  -4   2   6  899.75    6.34
   4  -2  -6  911.11    6.86
  -4   2   6  919.02    4.41
  -4   2   5   16.64    0.92
   4  -2  -5   17.11    1.07
  -4   2   5   16.92    0.79
  -4   2   4  354.97    2.65
  -4   2   3    1.14    0.62
  -4   2   3    1.74    0.56
  -4   2   2  115.41    1.70
  -4   2   2  118.70    1.70
  -4   2   1  220.00    2.36
  -4   2   1  217.92    2.33
  -4   2   0  447.11    3.46
  -4   2   0  442.84    3.52
  -4   2  -1   56.69    1.50
  -4   2  -1   58.68    1.58
  -4   2  -2   19.75    1.13
  -4   2  -2   18.02    1.19
  -4   2  -3   43.39    1.53
  -4   2  -3   40.36    1.01
  -4   2  -4  200.98    3.07
  -4   2  -4  198.24    2.62
  -4   2  -5  240.06    3.40
  -4   2  -5  252.92    3.60
  -4   2  -6   84.57    2.50
  -4   2  -6   72.88    2.35
  -4   2  -7   16.81    1.63
  -4   2  -7   20.24    1.82
  -4   2  -8   24.39    1.97
  -4   2  -8   18.80    1.95
  -4   2  -9    5.46    1.80
  -4   2 -10   42.92    2.69
  -4   2 -11   13.92    2.26
   4  -1 -15    1.51    1.50
   4  -1 -14   13.45    2.80
  -4   1  14   16.95    2.98
   4  -1 -14   16.93    1.84
  -4   1  13   27.78    3.12
   4  -1 -13   24.59    1.82
   4  -1 -13   19.97    2.81
   4  -1 -12    1.98    2.05
   4  -1 -12    1.34    1.27
  -4   1  12    1.75    1.99
  -4   1  11  110.84    4.15
   4  -1 -11  113.66    4.21
  -4   1  11  108.45    2.24
  -4   1  10   40.06    2.65
   4  -1 -10   41.02    2.69
  -4   1  10   38.15    1.37
  -4   1   9   16.57    1.93
   4  -1  -9   15.10    1.81
  -4   1   9   15.04    0.93
  -4   1   8   60.30    2.55
   4  -1  -8   56.63    2.52
  -4   1   8   61.89    1.34
   4  -1  -7   30.22    1.82
  -4   1   7   36.69    1.93
  -4   1   7   34.75    1.02
  -4   1   6  385.14    4.70
   4  -1  -6  374.49    4.78
  -4   1   6  388.26    2.61
  -4   1   5  442.51    4.48
   4  -1  -5  435.06    4.63
  -4   1   5  438.86    2.59
  -4   1   4   46.94    1.41
   4  -1  -4   51.08    1.51
  -4   1   4   46.76    0.90
  -4   1   3  523.35    3.25
   4  -1  -3  517.53    3.80
  -4   1   3  524.85    2.73
  -4   1   3  507.76    3.36
  -4   1   2  260.76    1.57
  -4   1   2  272.53    2.36
  -4   1   2  279.26    2.10
   4  -1  -2  269.53    2.23
  -4   1   1   44.30    1.02
   4  -1  -1   38.62    0.68
  -4   1   1   40.47    1.08
  -4   1   0  165.31    2.02
  -4   1   0  166.87    1.93
  -4   1  -1   10.92    0.85
  -4   1  -1    7.14    0.76
  -4   1  -2  684.38    3.71
  -4   1  -2  691.50    3.48
  -4   1  -3  422.89    3.65
  -4   1  -3  416.34    3.39
  -4   1  -4    7.03    0.99
  -4   1  -4    8.01    0.86
  -4   1  -5   42.42    1.70
  -4   1  -5   41.10    1.60
  -4   1  -6    4.78    1.20
  -4   1  -6    5.11    1.14
  -4   1  -7   90.56    2.52
  -4   1  -7   89.41    2.83
  -4   1  -8  216.18    3.74
  -4   1  -8  209.61    4.50
  -4   1  -9  134.95    3.27
  -4   1  -9  128.32    3.91
  -4   1 -10   22.96    2.13
  -4   1 -10   19.28    2.44
  -4   1 -11    5.49    1.87
  -4   1 -11    2.00    2.08
  -4   1 -12    1.86    1.88
  -4   1 -13   14.44    2.37
   4   0 -16   17.40    2.13
   4   0 -15    1.09    1.64
  -4   0  14  106.20    5.14
   4   0 -14   99.85    5.22
   4   0 -14  108.59    3.16
  -4   0  13   75.74    4.32
   4   0 -13   81.22    2.73
   4   0 -13   79.51    4.60
  -4   0  12   21.45    2.84
   4   0 -12   22.47    1.73
   4   0 -12   22.20    2.84
   4   0 -11    5.47    2.19
   4   0 -11    5.41    1.31
  -4   0  11    6.07    2.13
  -4   0  11    6.27    1.00
  -4   0  10    4.96    0.88
   4   0 -10    4.72    1.85
  -4   0  10    3.60    1.86
  -4   0   9   65.02    3.01
   4   0  -9   60.63    2.91
  -4   0   9   62.87    1.51
  -4   0   8  322.18    5.43
   4   0  -8  311.39    5.44
  -4   0   8  302.24    2.69
  -4   0   7  461.65    5.96
   4   0  -7  455.24    6.10
  -4   0   7  447.56    2.89
  -4   0   6   17.93    1.45
   4   0  -6   16.51    1.43
  -4   0   5  287.47    3.98
   4   0  -5  285.71    4.14
  -4   0   5  287.75    1.84
  -4   0   4   37.39    1.48
  -4   0   4   36.45    0.63
   4   0  -4   36.54    1.50
  -4   0   3    4.12    0.70
  -4   0   3    3.96    0.30
   4   0  -3    5.29    0.71
  -4   0   2  673.46    3.54
  -4   0   2  654.45    4.17
  -4   0   2  656.92    2.47
   4   0  -2  672.33    4.38
  -4   0   1   45.49    1.05
  -4   0   1   44.32    1.04
  -4   0   1   46.11    0.79
  -4   0   0  666.18    3.59
  -4   0   0  680.63    3.21
  -4   0   0  670.31    3.45
  -4   0  -1   51.63    1.17
  -4   0  -1   51.65    1.07
  -4   0  -2   87.57    1.54
  -4   0  -2   87.57    1.60
  -4   0  -2   88.78    1.54
  -4   0  -3  167.42    2.36
  -4   0  -3  163.53    2.15
  -4   0  -4  403.67    3.50
  -4   0  -4  396.41    4.00
  -4   0  -5   22.09    1.19
  -4   0  -5   21.16    1.35
  -4   0  -6  379.28    3.88
  -4   0  -6  379.09    4.88
  -4   0  -7   38.50    1.67
  -4   0  -7   37.05    2.07
  -4   0  -8    5.40    1.27
  -4   0  -8    5.30    1.49
  -4   0  -9   22.31    1.73
  -4   0  -9   22.34    2.12
  -4   0 -10   10.98    1.70
  -4   0 -10   11.78    2.17
  -4   0 -11  116.37    4.53
  -4   0 -11  127.07    3.42
  -4   0 -12  152.55    3.93
  -4   0 -13   -0.44    1.88
  -4   0 -14   14.17    2.19
   4   1 -16   29.19    2.59
   4   1 -15   34.79    2.52
   4   1 -14    0.85    1.73
   4   1 -13    0.98    2.59
   4   1 -13    0.82    1.54
  -4  -1  13    0.43    2.53
   4   1 -12    3.07    2.38
   4   1 -12    5.11    1.63
  -4  -1  12    3.50    2.40
  -4  -1  11   99.57    4.25
   4   1 -11   96.48    4.34
   4   1 -11   97.41    2.71
  -4  -1  10  387.22    7.08
   4   1 -10  380.50    4.46
   4   1 -10  388.49    7.19
  -4  -1   9  106.86    3.76
   4   1  -9  106.66    3.87
  -4  -1   8   73.78    3.06
   4   1  -8   75.23    3.12
  -4  -1   7    9.21    1.57
   4   1  -7    9.81    1.59
  -4  -1   6   31.39    1.87
   4   1  -6   30.36    1.91
  -4  -1   5  303.08    4.39
   4   1  -5  299.64    4.46
  -4  -1   5  298.41    1.77
  -4  -1   4  294.64    4.01
  -4  -1   4  289.03    1.36
   4   1  -4  299.17    4.07
   4   1  -3  761.49    5.86
  -4  -1   3  780.79    5.77
   4   1  -2    2.56    0.63
  -4  -1   2    5.33    0.76
  -4  -1   1 1077.13   17.30
  -4  -1   0  133.65    1.59
  -4  -1   0  133.93    1.92
  -4  -1  -1  466.39    2.91
  -4  -1  -1  472.84    3.59
  -4  -1  -2  168.18    1.92
  -4  -1  -2  168.48    2.31
  -4  -1  -3   97.70    1.55
  -4  -1  -3   96.36    1.95
  -4  -1  -4  687.90    4.16
  -4  -1  -4  676.76    5.34
  -4  -1  -5   23.78    1.38
  -4  -1  -5   22.87    1.08
  -4  -1  -6  212.11    3.75
  -4  -1  -6  206.36    2.70
  -4  -1  -7  149.72    2.52
  -4  -1  -7  149.13    3.46
  -4  -1  -8   60.11    2.61
  -4  -1  -8   60.65    1.91
  -4  -1  -9  181.11    3.14
  -4  -1  -9  178.01    4.48
  -4  -1 -10   94.91    2.57
  -4  -1 -10   90.70    3.72
  -4  -1 -11    1.15    1.41
  -4  -1 -11    2.01    1.90
  -4  -1 -12   79.89    2.87
  -4  -1 -12   80.39    4.28
  -4  -1 -13   -0.03    1.58
  -4  -1 -14   23.66    2.29
   4   2 -15   28.70    2.55
   4   2 -14   26.35    2.39
   4   2 -13    8.37    3.17
  -4  -2  13   11.50    3.11
   4   2 -13   12.06    1.98
  -4  -2  12  142.67    5.49
   4   2 -12  144.39    3.53
   4   2 -12  144.28    5.73
  -4  -2  11   42.29    3.35
   4   2 -11   49.23    2.27
   4   2 -11   43.58    3.42
  -4  -2  10   76.40    3.78
   4   2 -10   76.99    2.45
   4   2 -10   71.71    3.75
  -4  -2   9    6.63    2.02
   4   2  -9    8.99    1.38
   4   2  -9    7.72    2.03
  -4  -2   8    3.93    1.69
   4   2  -8    2.77    1.65
  -4  -2   7   27.52    2.12
   4   2  -7   23.37    2.09
  -4  -2   6  743.12    7.68
   4   2  -6  756.83    7.98
  -4  -2   5   28.38    1.82
   4   2  -5   28.52    1.80
  -4  -2   4   67.35    2.20
   4   2  -4   64.23    2.22
  -4  -2   3  422.75    4.66
  -4  -2   3  422.37    3.39
   4   2  -3  406.62    4.67
   4   2  -2  676.77    5.55
  -4  -2   2  651.25    4.12
  -4  -2   2  658.67    5.38
  -4  -2   1 1646.50   25.25
  -4  -2   1 1641.05   31.18
  -4  -2   0  705.51    3.45
  -4  -2   0  738.92    4.22
  -4  -2   0  732.05    4.97
  -4  -2  -1   21.13    0.72
  -4  -2  -1   19.62    1.04
  -4  -2  -2  263.30    2.12
  -4  -2  -2  259.74    3.05
  -4  -2  -2  270.40    2.53
  -4  -2  -3  388.71    2.76
  -4  -2  -3  385.42    3.90
  -4  -2  -3  405.29    3.03
  -4  -2  -4  319.56    2.62
  -4  -2  -4  327.56    2.68
  -4  -2  -4  323.71    3.85
  -4  -2  -5  284.00    2.65
  -4  -2  -5  282.86    2.42
  -4  -2  -5  295.60    3.96
  -4  -2  -6   19.04    1.52
  -4  -2  -6   18.54    0.98
  -4  -2  -6   18.65    0.74
  -4  -2  -7  142.89    3.40
  -4  -2  -7  147.56    2.28
  -4  -2  -8  269.10    4.84
  -4  -2  -8  263.43    3.20
  -4  -2  -9   82.26    3.21
  -4  -2  -9   81.58    2.09
  -4  -2 -10  133.70    2.72
  -4  -2 -10  136.08    4.20
  -4  -2 -11    2.56    1.27
  -4  -2 -11    2.41    2.00
  -4  -2 -12   25.90    2.93
  -4  -2 -12   26.92    1.87
  -4  -2 -13   78.53    2.73
  -4  -2 -13   74.05    4.27
  -4  -2 -14   15.25    1.97
  -4  -2 -15    6.66    1.83
   4   3 -14   36.59    2.72
   4   3 -13    1.08    1.84
  -4  -3  12   66.69    4.42
   4   3 -12   63.50    2.78
   4   3 -12   60.21    4.38
  -4  -3  11   92.11    4.51
   4   3 -11   86.68    2.88
   4   3 -11   86.08    4.62
   4   3 -10    1.03    1.47
  -4  -3  10    2.33    2.13
   4   3 -10    0.70    2.17
  -4  -3   9  129.44    4.54
   4   3  -9  139.22    3.03
   4   3  -9  140.78    4.71
   4   3  -8    5.95    1.34
  -4  -3   8    6.25    1.83
   4   3  -8    5.92    1.89
  -4  -3   7   23.79    2.20
   4   3  -7   21.25    2.23
  -4  -3   6  119.38    3.53
   4   3  -6  124.79    3.68
  -4  -3   5   58.71    2.49
   4   3  -5   52.05    2.42
  -4  -3   4  213.79    3.93
  -4  -3   4  222.30    2.55
   4   3  -4  213.87    4.02
   4   3  -3  575.01    5.96
  -4  -3   3  581.47    3.97
  -4  -3   3  554.68    5.78
   4   3  -2 1343.64    8.51
  -4  -3   2 1321.61    8.25
  -4  -3   2 1309.05   23.35
  -4  -3   1   45.89    1.21
   4   3  -1   44.55    0.48
  -4  -3   1   45.74    1.65
  -4  -3   0  215.36    3.05
   4   3   0  212.58    1.07
  -4  -3   0  219.02    2.38
  -4  -3  -1   70.71    1.40
  -4  -3  -1   65.38    1.77
   4   3   1   65.45    0.77
  -4  -3  -2  236.64    1.92
  -4  -3  -2  225.24    3.11
  -4  -3  -2  233.44    2.42
  -4  -3  -3 1472.17   19.27
  -4  -3  -3 1492.54    8.23
  -4  -3  -3 1503.39   23.99
  -4  -3  -4   84.56    1.32
  -4  -3  -4   82.51    1.50
  -4  -3  -4   82.39    2.16
  -4  -3  -5  286.54    2.66
  -4  -3  -5  284.33    2.41
  -4  -3  -5  283.85    4.04
  -4  -3  -6   13.53    0.78
  -4  -3  -6   15.35    1.43
  -4  -3  -6   13.23    0.72
  -4  -3  -7  115.00    3.13
  -4  -3  -7  112.34    1.82
  -4  -3  -7  115.96    1.69
  -4  -3  -8  826.70    5.04
  -4  -3  -8  859.63    8.45
  -4  -3  -9  146.47    3.99
  -4  -3  -9  144.72    2.38
  -4  -3 -10  249.03    5.38
  -4  -3 -10  229.40    3.14
  -4  -3 -11   55.86    3.27
  -4  -3 -11   50.85    1.89
  -4  -3 -12    5.07    1.23
  -4  -3 -12    0.25    2.30
  -4  -3 -13   46.84    2.17
  -4  -3 -13   48.82    3.69
  -4  -3 -14    4.76    1.52
   4   4 -13  118.22    3.78
   4   4 -12    0.03    1.89
   4   4 -11   23.83    2.18
   4   4 -11   17.59    3.17
  -4  -4  11   16.58    3.13
   4   4 -10   69.72    2.70
  -4  -4  10   70.73    4.10
   4   4 -10   66.11    4.06
  -4  -4   9   10.21    2.33
   4   4  -9    9.35    1.61
   4   4  -9    8.88    2.35
   4   4  -8  248.88    3.86
  -4  -4   8  254.76    5.92
   4   4  -8  243.42    5.96
   4   4  -7   21.23    1.57
  -4  -4   7   23.04    2.34
   4   4  -7   22.24    2.40
  -4  -4   6   94.23    3.45
   4   4  -6   92.21    3.47
  -4  -4   5  202.13    4.40
  -4  -4   5  200.47    2.51
   4   4  -5  196.68    4.46
  -4  -4   4   14.74    0.93
  -4  -4   4   16.54    1.61
   4   4  -4   15.46    1.64
   4   4  -3  236.63    2.05
  -4  -4   3  244.03    4.20
   4   4  -3  234.20    4.25
  -4  -4   3  241.03    2.68
   4   4  -2  408.56    5.15
  -4  -4   2  404.91    3.40
   4   4  -2  402.46    2.35
  -4  -4   2  410.50    5.07
  -4  -4   1   54.96    1.35
  -4  -4   1   55.17    1.95
   4   4  -1   54.11    0.83
  -4  -4   0 1396.23   24.41
  -4  -4   0 1379.23    8.40
   4   4   0 1427.53   14.87
  -4  -4  -1   41.94    1.64
   4   4   1   37.66    0.71
  -4  -4  -2    0.64    0.81
   4   4   2    4.98    0.42
  -4  -4  -3   43.83    0.88
  -4  -4  -3   43.50    1.69
   4   4   3   44.12    0.94
   4   4   4  178.95    1.93
  -4  -4  -4  175.51    3.21
  -4  -4  -4  174.64    1.65
  -4  -4  -5  828.41    3.68
  -4  -4  -5  805.39    7.00
  -4  -4  -6 1164.47    4.68
  -4  -4  -6 1171.77    8.81
  -4  -4  -7  149.17    1.85
  -4  -4  -7  145.97    3.48
  -4  -4  -8    5.84    0.70
  -4  -4  -8    7.02    1.52
  -4  -4  -9   85.34    3.22
  -4  -4  -9   76.34    1.64
  -4  -4 -10  109.23    3.79
  -4  -4 -10   96.53    1.99
  -4  -4 -11  253.62    5.82
  -4  -4 -11  248.79    3.23
  -4  -4 -12  158.93    5.16
  -4  -4 -12  148.12    2.75
  -4  -4 -13    3.11    1.28
  -4  -4 -13    4.46    2.27
  -4  -4 -14   98.69    4.99
   4   5 -12    1.09    1.88
   4   5 -11   52.82    2.81
   4   5 -10  100.14    3.23
   4   5 -10   97.32    4.86
  -4  -5  10   96.58    4.92
  -4  -5   9   10.50    2.46
   4   5  -9   11.62    1.81
   4   5  -9   10.57    2.78
   4   5  -8  171.75    3.51
   4   5  -8  166.66    5.38
  -4  -5   8  167.92    5.26
   4   5  -7   42.63    2.00
  -4  -5   7   36.75    2.85
   4   5  -7   38.09    2.92
   4   5  -6   74.98    2.23
  -4  -5   6   79.72    3.41
   4   5  -6   70.20    3.42
   4   5  -5  322.30    3.87
  -4  -5   5  332.34    5.92
   4   5  -5  335.67    6.00
  -4  -5   5  327.24    3.21
  -4  -5   4  256.24    4.92
   4   5  -4  261.82    5.06
  -4  -5   4  261.32    2.93
   4   5  -3    9.03    1.59
   4   5  -3   10.42    0.75
  -4  -5   3    9.33    1.47
  -4  -5   3   11.11    0.90
  -4  -5   2  140.15    3.39
   4   5  -2  149.31    1.78
   4   5  -2  141.72    3.48
  -4  -5   2  147.49    2.23
  -4  -5   1  205.87    3.79
   4   5  -1  211.40    1.95
  -4  -5   1  207.96    2.56
  -4  -5   0  291.30    4.26
   4   5   0  286.64    2.14
  -4  -5  -1  663.79    6.13
   4   5   1  678.57    3.24
  -4  -5  -2   66.59    2.14
   4   5   2   65.58    1.13
  -4  -5  -3  321.35    4.32
   4   5   3  322.60    2.48
  -4  -5  -4  665.61    6.43
   4   5   4  659.62    3.71
  -4  -5  -5   19.81    0.64
  -4  -5  -5   18.62    1.53
   4   5   5   20.51    0.94
  -4  -5  -6  240.26    1.92
   4   5   6  255.10    2.76
  -4  -5  -6  250.88    4.34
  -4  -5  -7   59.10    1.12
   4   5   7   59.45    1.65
  -4  -5  -7   57.57    2.51
   4   5   8    4.54    1.02
  -4  -5  -8    1.77    0.57
  -4  -5  -8    2.42    1.45
  -4  -5  -9  462.72    3.32
  -4  -5  -9  474.39    6.86
   4   5   9  455.76    4.62
  -4  -5 -10  198.52    2.39
  -4  -5 -10  206.30    5.02
  -4  -5 -11   24.65    2.53
  -4  -5 -12    5.29    2.24
  -4  -5 -13   49.51    3.69
  -4  -5 -14  334.10    8.04
   4   5  14  312.65    5.45
   4   5  15  112.56    3.96
   4   5  16    1.58    2.12
   4   6 -11    3.44    2.02
   4   6 -10   10.19    2.00
   4   6  -9   19.03    2.06
   4   6  -9   18.98    2.98
   4   6  -8   39.87    2.28
  -4  -6   8   37.50    3.31
   4   6  -8   34.58    3.38
   4   6  -7  327.91    4.63
  -4  -6   7  330.48    7.06
   4   6  -7  340.43    7.28
   4   6  -6  230.07    3.70
  -4  -6   6  213.20    5.53
   4   6  -6  228.34    5.76
   4   6  -5    7.61    2.06
   4   6  -5   11.12    1.36
  -4  -6   5    7.24    1.91
   4   6  -4  241.89    3.36
  -4  -6   4  236.55    5.10
   4   6  -4  235.49    3.00
   4   6  -4  250.01    5.33
  -4  -6   4  230.84    2.89
  -4  -6   3    4.86    0.88
   4   6  -3    5.72    1.61
   4   6  -3    5.38    0.83
   4   6  -3    5.80    1.05
  -4  -6   3    5.74    1.50
   4   6  -2  644.62    7.44
   4   6  -2  654.41    4.75
  -4  -6   2  671.63    7.51
   4   6  -2  660.14    4.21
  -4  -6   2  663.01    4.76
   4   6  -1  289.64    4.89
  -4  -6   1  269.40    4.71
   4   6  -1  276.05    2.62
   4   6   0    0.39    0.57
  -4  -6   0    1.01    1.11
  -4  -6  -1  576.00    6.28
   4   6   1  602.46    3.54
  -4  -6  -2  246.01    4.10
   4   6   2  247.93    2.32
  -4  -6  -3  203.58    3.76
   4   6   3  218.47    2.26
  -4  -6  -4  465.14    5.61
   4   6   4  467.48    3.39
   4   6   5    1.09    0.73
  -4  -6  -5    0.37    1.12
   4   6   6  221.82    2.66
  -4  -6  -6  214.86    4.28
   4   6   7   24.92    1.25
  -4  -6  -7   24.46    1.92
   4   6   8    7.54    1.09
  -4  -6  -8    7.75    1.69
  -4  -6  -9  162.29    4.36
   4   6   9  159.01    2.89
  -4  -6 -10  202.64    5.08
   4   6  10  205.11    3.44
   4   6  11  131.79    3.10
  -4  -6 -11  135.84    4.59
  -4  -6 -12  169.35    5.29
   4   6  12  170.94    3.72
   4   6  13  114.84    3.34
  -4  -6 -13  118.08    4.87
   4   6  14   52.39    2.84
  -4  -6 -14   52.91    4.03
   4   6  15   27.53    2.55
   4   6  16    6.33    2.20
   4   6  17   27.31    2.94
   4   7 -10   17.30    2.33
   4   7  -9  110.43    3.59
   4   7  -8   67.95    2.84
   4   7  -8   64.22    4.15
   4   7  -7   30.54    2.18
   4   7  -7   30.61    3.22
  -4  -7   6    3.55    1.99
   4   7  -6    4.72    1.47
   4   7  -6    2.77    2.27
   4   7  -5   73.70    2.42
  -4  -7   5   65.20    3.52
   4   7  -5   66.69    3.58
   4   7  -4  191.78    3.24
  -4  -7   4  192.76    5.09
   4   7  -4  195.21    3.07
   4   7  -4  196.19    5.19
   4   7  -3  262.86    3.53
  -4  -7   3  261.96    5.51
   4   7  -3  261.80    3.27
  -4  -7   3  256.96    3.21
   4   7  -3  257.83    5.49
   4   7  -2    1.68    1.62
  -4  -7   2    0.70    0.87
   4   7  -2    2.00    0.87
  -4  -7   2    0.85    1.45
   4   7  -2    0.46    0.88
   4   7  -1   72.44    2.95
   4   7  -1   74.11    1.76
  -4  -7   1   76.22    2.96
   4   7  -1   72.50    1.72
   4   7   0    2.21    0.73
   4   7   0    2.45    0.71
  -4  -7   0    1.70    1.26
  -4  -7  -1  391.57    5.70
   4   7   1  392.93    3.31
   4   7   1  386.48    3.17
  -4  -7  -2 1117.89    9.09
   4   7   2 1092.94    5.37
  -4  -7  -3   88.29    2.84
   4   7   3   89.46    1.69
  -4  -7  -4  304.23    4.99
   4   7   4  305.49    3.02
   4   7   5  217.70    2.68
  -4  -7  -5  211.16    4.22
   4   7   6   58.59    1.63
  -4  -7  -6   58.60    2.59
   4   7   7  168.28    2.65
  -4  -7  -7  174.17    4.21
   4   7   8  116.95    2.41
  -4  -7  -8  123.29    3.82
   4   7   9    1.02    1.14
  -4  -7  -9   -0.21    1.66
   4   7  10  298.63    4.07
  -4  -7 -10  304.12    6.25
   4   7  11   58.41    2.27
  -4  -7 -11   52.17    3.37
  -4  -7 -12   61.75    3.67
   4   7  12   56.89    2.47
  -4  -7 -13   52.10    3.72
   4   7  13   48.10    2.52
   4   7  14    1.11    1.82
  -4  -7 -14   -0.44    2.53
   4   7  15   79.98    3.34
   4   7  16   41.94    3.01
   4   7  17    5.63    2.33
   4   8  -9   10.31    2.19
   4   8  -8   42.15    2.63
   4   8  -7    1.25    1.61
   4   8  -6  101.01    3.05
   4   8  -6   97.45    4.62
   4   8  -5   17.98    1.76
   4   8  -5   21.13    2.78
   4   8  -4   13.21    2.46
   4   8  -4   14.38    1.56
   4   8  -4   12.84    1.50
   4   8  -3  114.45    2.64
   4   8  -3  114.61    2.60
   4   8  -3  109.65    4.18
   4   8  -2   14.10    1.22
  -4  -8   2   15.40    2.04
   4   8  -2   12.87    1.36
   4   8  -2   13.83    2.14
  -4  -8   2   14.59    1.26
   4   8  -1  332.05    3.67
  -4  -8   1  328.13    6.03
   4   8  -1  335.91    3.77
   4   8  -1  344.54    6.17
   4   8   0  704.71    8.38
   4   8   0  697.63    4.83
  -4  -8   0  723.15    8.46
   4   8   0  725.36    5.15
  -4  -8  -1  180.43    4.28
   4   8   1  180.29    2.67
  -4  -8  -2   18.30    1.83
   4   8   2   18.26    1.13
   4   8   3    2.68    0.95
  -4  -8  -3    2.58    1.35
  -4  -8  -4  187.04    4.21
   4   8   4  176.04    2.58
   4   8   5  560.53    4.50
  -4  -8  -5  551.48    7.07
   4   8   6  189.24    2.83
  -4  -8  -6  182.78    4.39
   4   8   7  162.34    2.78
  -4  -8  -7  167.87    4.38
   4   8   8  176.28    3.01
  -4  -8  -8  181.92    4.77
   4   8   9   60.07    2.15
  -4  -8  -9   58.09    3.21
   4   8  10  222.07    3.70
  -4  -8 -10  227.73    5.67
  -4  -8 -11   62.66    3.61
   4   8  11   66.63    2.48
   4   8  12    1.41    1.58
  -4  -8 -12    0.06    2.23
  -4  -8 -13   47.35    3.74
   4   8  13   40.61    2.45
   4   8  14   35.85    2.51
  -4  -8 -14   37.01    3.80
   4   8  15   18.22    2.38
   4   8  16   30.84    2.75
   4   8  17   -1.37    2.31
   4   9  -7   -1.07    1.65
   4   9  -6   54.52    2.63
   4   9  -5   59.11    2.54
   4   9  -4   -0.71    2.30
   4   9  -4    0.27    1.35
   4   9  -4    0.53    1.41
   4   9  -3   36.70    1.91
   4   9  -3   32.71    1.94
   4   9  -3   29.77    3.07
   4   9  -2   19.53    1.63
   4   9  -2   18.36    2.51
   4   9  -1    5.37    2.03
   4   9  -1    4.92    1.27
   4   9   0   22.41    2.41
   4   9   0   22.72    1.53
   4   9   1    7.98    1.23
   4   9   1    7.61    1.93
  -4  -9  -2  113.24    3.81
   4   9   2  125.85    2.51
  -4  -9  -3  461.92    6.90
   4   9   3  452.04    4.37
  -4  -9  -4   60.22    2.89
   4   9   4   60.33    1.84
  -4  -9  -5   46.82    2.68
   4   9   5   47.18    1.76
   4   9   6   41.21    1.76
  -4  -9  -6   44.14    2.72
   4   9   7   27.79    1.67
  -4  -9  -7   27.45    2.33
   4   9   8  355.67    4.35
  -4  -9  -8  381.04    6.84
   4   9   9  329.33    4.36
  -4  -9  -9  356.10    6.87
   4   9  10   25.85    1.88
  -4  -9 -10   28.41    2.80
   4   9  11    9.99    1.69
  -4  -9 -11    9.20    2.37
  -4  -9 -12   11.78    2.61
   4   9  12    5.92    1.78
   4   9  13   68.96    2.93
  -4  -9 -13   58.04    4.10
   4   9  14  235.49    5.08
  -4  -9 -14  220.30    7.04
   4   9  15    4.44    2.05
   4   9  16   55.65    3.32
   4  10  -3   40.17    2.31
   4  10  -2  133.93    3.28
   4  10  -2  127.84    5.00
   4  10  -1    5.11    2.02
   4  10  -1    5.52    1.49
   4  10   0    6.23    2.08
   4  10   0    5.60    1.44
   4  10   1   19.41    2.46
   4  10   1   18.40    1.63
   4  10   2   18.11    2.31
   4  10   2   16.11    1.58
   4  10   3   63.40    2.17
   4  10   4  160.25    3.05
   4  10   5   13.32    1.52
   4  10   6  238.87    3.68
   4  10   7  109.04    2.75
   4  10   8    0.71    1.36
   4  10   9   42.77    2.15
   4  10  10    5.40    1.62
   4  10  11  222.07    4.21
   4  10  12  130.49    3.58
   4  10  13   11.36    2.05
   4  10  14    4.05    1.99
   4  10  15   -0.37    2.12
   4  10  16   38.78    2.95
   4  11  -2    6.47    1.85
   4  11  -1    1.95    1.59
   4  11   0   17.43    2.53
   4  11   0   16.53    1.90
   4  11   1   84.28    3.89
   4  11   1   76.72    2.75
   4  11   2   37.03    3.00
   4  11   2   43.35    2.17
   4  11   3   10.99    1.66
   4  11   3    8.91    2.08
   4  11   4   32.62    2.01
   4  11   5   12.14    1.63
   4  11   6   19.90    1.79
   4  11   7   29.73    1.99
   4  11   8    0.04    1.51
   4  11   9   20.06    1.93
   4  11  10   38.97    2.35
   4  11  11    0.03    1.70
   4  11  12   52.99    2.84
   4  11  13   36.92    2.69
   4  11  14   16.27    2.43
   4  11  15  198.77    4.88
   4  12   0   28.71    2.40
   4  12   1   -0.70    1.71
   4  12   2   17.48    2.11
   4  12   3   10.51    1.88
   4  12   4   13.66    1.94
   4  12   5   32.97    3.06
   4  12   5   40.93    2.34
   4  12   6   42.34    2.43
   4  12   7   77.36    2.90
   4  12   8   53.39    2.63
   4  12   9   34.58    2.38
   4  12  10   63.05    2.97
   4  12  11   21.65    2.34
   4  12  12    1.06    1.97
   4  12  13   20.00    2.40
   4  12  14   13.38    2.42
   4  13   2   65.49    3.12
   4  13   3   57.14    2.99
   4  13   4    1.79    1.73
   4  13   5    4.46    1.89
   4  13   6    2.46    1.74
   4  13   7   36.88    2.59
   4  13   8   51.23    2.84
   4  13   9    1.15    1.80
   4  13  10    1.87    1.80
   4  13  11   10.32    2.12
  -5   8   9   11.96    1.83
  -5   8   8   13.14    1.89
  -5   8   7    0.02    1.60
  -5   8   6    0.82    1.64
  -5   8   5    1.88    1.76
  -5   8   4   25.32    2.37
  -5   8   3    0.74    1.87
  -5   8   2   20.73    2.42
  -5   7   9   64.10    2.45
  -5   7   8    0.56    1.45
  -5   7   7   57.12    2.42
  -5   7   6    9.55    1.68
  -5   7   5   41.42    2.30
  -5   7   4   85.26    2.93
  -5   7   3    3.00    1.64
  -5   7   2   24.43    2.30
  -5   7   1   52.12    2.81
  -5   7   0   23.55    2.46
  -5   6   9    5.84    1.38
  -5   6   8    0.69    1.23
  -5   6   7   77.16    2.41
  -5   6   6  202.19    3.55
  -5   6   5   47.72    2.14
  -5   6   4    4.73    1.44
  -5   6   3    2.25    1.42
  -5   6   2    1.09    1.53
  -5   6   1    5.16    1.69
  -5   6   0   48.53    2.13
  -5   6   0   49.47    2.57
  -5   6  -1   11.27    2.05
  -5   6  -1    9.67    1.64
  -5   6  -2  131.72    3.34
  -5   6  -3    2.16    1.59
  -5   6  -4    8.26    1.98
  -5   5   9  131.24    2.69
  -5   5   8  189.99    3.08
  -5   5   7   46.91    1.82
  -5   5   6   32.04    1.63
  -5   5   5   53.74    1.96
  -5   5   4  111.58    2.18
  -5   5   4  113.41    2.58
  -5   5   3  416.04    4.68
  -5   5   3  411.42    4.05
  -5   5   2   97.48    2.23
  -5   5   2  102.68    2.66
  -5   5   1    1.56    1.35
  -5   5   1    1.61    1.11
  -5   5   0    5.09    1.52
  -5   5   0    5.18    1.34
  -5   5  -1    1.57    1.26
  -5   5  -1    1.74    1.55
  -5   5  -2   75.34    2.59
  -5   5  -3   88.25    2.90
  -5   5  -4   -0.77    1.65
  -5   5  -5   24.58    2.37
  -5   5  -6   44.77    2.85
  -5   4   9    4.84    1.03
  -5   4   8  138.06    2.41
  -5   4   7   44.15    1.53
  -5   4   6    8.02    1.01
  -5   4   5  202.17    2.89
  -5   4   4  110.83    2.07
  -5   4   4  108.93    2.23
  -5   4   3    1.61    0.85
  -5   4   3    1.22    0.96
  -5   4   2   35.85    1.47
  -5   4   2   36.41    1.64
  -5   4   1   22.40    1.41
  -5   4   1   22.36    1.51
  -5   4   0  332.02    3.88
  -5   4   0  327.86    4.20
  -5   4  -1  250.46    3.69
  -5   4  -1  244.61    3.88
  -5   4  -2   71.05    2.35
  -5   4  -3   16.73    1.69
  -5   4  -4   11.87    1.72
  -5   4  -5   38.98    2.38
  -5   4  -6   59.00    2.86
  -5   4  -7    4.76    1.87
  -5   4  -8   11.17    2.19
  -5   3  14    3.69    2.14
  -5   3  13   36.84    2.95
  -5   3  12   13.50    2.09
  -5   3  11    1.34    1.54
  -5   3  10  100.13    3.24
  -5   3   9   24.87    1.22
  -5   3   9   23.75    1.66
  -5   3   8    1.50    0.80
  -5   3   7   95.92    1.82
  -5   3   6  242.42    2.70
  -5   3   5  195.28    2.48
  -5   3   4  232.02    2.70
  -5   3   4  231.64    2.75
  -5   3   3   59.71    1.60
  -5   3   3   60.55    1.58
  -5   3   2  240.14    2.91
  -5   3   2  239.96    2.97
  -5   3   1  294.29    3.27
  -5   3   1  295.82    3.42
  -5   3   0   11.12    1.15
  -5   3   0   10.60    1.23
  -5   3  -1  114.11    2.42
  -5   3  -1  107.19    2.49
  -5   3  -2    2.11    1.16
  -5   3  -2    0.78    1.19
  -5   3  -3  126.10    2.82
  -5   3  -4  303.01    4.28
  -5   3  -5   29.56    1.98
  -5   3  -6   33.52    2.15
  -5   3  -7   12.44    1.91
  -5   3  -8   40.66    2.67
  -5   3  -9  115.31    3.89
  -5   2  14    2.54    2.28
  -5   2  13  159.56    5.26
   5  -2 -13  152.33    3.24
  -5   2  12  330.22    6.75
  -5   2  11   80.90    3.52
  -5   2  10   44.92    2.60
  -5   2   9   42.78    2.34
  -5   2   8   68.64    2.47
  -5   2   8   70.30    1.51
  -5   2   7   54.05    1.96
  -5   2   7   52.83    1.27
  -5   2   6  159.51    2.61
  -5   2   6  161.26    1.98
  -5   2   5   31.01    1.01
  -5   2   5   34.09    1.05
  -5   2   4  712.89    4.04
  -5   2   3    1.07    0.75
  -5   2   3    0.89    0.58
  -5   2   2   29.66    1.17
  -5   2   2   30.37    1.13
  -5   2   1  215.62    2.66
  -5   2   1  220.09    2.62
  -5   2   0  223.37    2.81
  -5   2   0  222.41    2.80
  -5   2  -1  249.40    3.09
  -5   2  -1  244.42    3.13
  -5   2  -2  290.12    3.50
  -5   2  -3   23.70    1.49
  -5   2  -4   29.30    1.72
  -5   2  -5   19.61    1.63
  -5   2  -6   35.69    2.10
  -5   2  -7  121.08    3.17
  -5   2  -8   84.10    3.00
  -5   2  -9    5.78    1.98
  -5   2 -10   27.55    2.58
   5  -1 -15   58.52    2.67
  -5   1  14  178.49    6.20
   5  -1 -14  182.30    3.79
  -5   1  13   25.48    2.94
   5  -1 -13   21.40    1.86
  -5   1  12   25.46    2.81
  -5   1  11   -0.36    1.95
  -5   1  10   92.87    3.62
  -5   1   9  501.75    7.01
  -5   1   8  179.87    4.06
  -5   1   7    2.19    1.08
  -5   1   7    2.99    0.55
  -5   1   6   28.97    1.60
  -5   1   6   27.53    0.84
  -5   1   5   86.77    2.12
  -5   1   5   83.01    1.22
  -5   1   4  352.65    3.37
  -5   1   4  348.71    2.40
  -5   1   3  712.41    4.30
  -5   1   3  711.96    3.61
  -5   1   3  717.31    3.51
  -5   1   2   56.83    1.38
  -5   1   2   56.58    1.17
  -5   1   1   64.12    1.49
  -5   1   1   65.89    1.32
  -5   1   0  204.60    2.37
  -5   1   0  201.47    2.48
  -5   1  -1   92.19    1.88
  -5   1  -1   90.03    1.80
  -5   1  -2   99.93    2.02
  -5   1  -3    5.39    1.02
  -5   1  -3    4.72    0.53
  -5   1  -4   52.71    1.80
  -5   1  -4   49.49    1.46
  -5   1  -5  626.94    5.39
  -5   1  -5  592.05    5.14
  -5   1  -6   42.84    2.00
  -5   1  -6   40.05    1.86
  -5   1  -7  134.42    3.26
  -5   1  -7  138.14    3.16
  -5   1  -8   77.93    2.71
  -5   1  -9    0.64    1.64
  -5   1 -10   97.36    3.35
  -5   1 -11   18.32    2.29
  -5   1 -12    0.12    1.96
   5   0 -16   23.01    2.41
   5   0 -15    0.84    1.67
   5   0 -14   32.45    2.25
  -5   0  13   94.36    4.89
   5   0 -13  102.21    3.01
   5   0 -12   11.01    2.57
  -5   0  12   13.45    2.58
   5   0 -12   13.79    1.70
  -5   0  11  183.67    5.43
   5   0 -11  176.58    5.54
  -5   0  10   95.09    3.83
   5   0 -10   94.84    3.90
  -5   0   9   29.15    2.33
   5   0  -9   25.10    2.25
  -5   0   8  182.91    4.25
   5   0  -8  181.93    4.37
  -5   0   7  310.00    5.05
   5   0  -7  306.89    5.18
  -5   0   6  924.86    7.87
   5   0  -6  906.98    8.08
  -5   0   6  885.33    3.41
  -5   0   5  273.77    3.97
   5   0  -5  281.35    4.26
  -5   0   5  273.11    1.73
  -5   0   4   16.84    1.20
  -5   0   4   14.01    0.48
   5   0  -4   13.73    1.13
  -5   0   3   73.52    1.77
  -5   0   3   70.02    0.91
   5   0  -3   71.30    1.85
  -5   0   2    7.40    0.75
  -5   0   2    7.01    0.71
  -5   0   2    6.63    0.46
   5   0  -2    6.97    0.77
  -5   0   1  501.03    3.53
  -5   0   1  508.69    3.44
  -5   0   1  507.08    2.84
   5   0  -1  517.93    3.85
  -5   0   0 1157.00    5.36
  -5   0   0 1186.28    4.77
  -5   0   0 1182.14    4.86
  -5   0  -1   37.93    1.22
  -5   0  -1   36.61    0.98
  -5   0  -2  186.45    2.44
  -5   0  -2  196.13    2.29
  -5   0  -3   15.02    1.07
  -5   0  -3   15.39    0.94
  -5   0  -4   66.84    1.78
  -5   0  -4   66.80    1.82
  -5   0  -5  100.66    2.25
  -5   0  -5  104.53    2.51
  -5   0  -6  223.74    3.34
  -5   0  -6  220.37    3.80
  -5   0  -7   29.45    1.75
  -5   0  -7   29.29    1.88
  -5   0  -8   36.97    1.99
  -5   0  -8   33.51    2.24
  -5   0  -9   61.20    2.98
  -5   0  -9   62.24    2.50
  -5   0 -10    2.53    1.67
  -5   0 -10    3.16    1.68
  -5   0 -11   89.08    3.20
  -5   0 -12    2.64    1.84
  -5   0 -13   42.28    2.82
   5   1 -16   43.06    2.85
   5   1 -15    1.92    1.83
   5   1 -14    1.19    1.73
  -5  -1  13   30.79    3.52
   5   1 -13   30.46    2.24
   5   1 -13   30.22    3.47
   5   1 -12   -0.55    2.37
  -5  -1  12   -0.62    2.31
   5   1 -12    0.43    1.49
  -5  -1  11  282.61    6.68
   5   1 -11  258.22    6.57
  -5  -1  10   61.88    3.44
   5   1 -10   53.74    3.38
  -5  -1   9   41.17    2.80
   5   1  -9   40.07    2.73
  -5  -1   8  369.34    6.17
   5   1  -8  365.72    6.27
  -5  -1   7  297.96    5.18
   5   1  -7  300.27    5.41
  -5  -1   6   15.51    1.66
   5   1  -6   13.40    1.62
  -5  -1   5  233.26    4.04
   5   1  -5  230.62    4.13
  -5  -1   4   63.50    2.11
   5   1  -4   58.42    2.12
  -5  -1   3  524.28    4.99
   5   1  -3  517.55    5.14
   5   1  -2  593.42    5.11
  -5  -1   2  586.05    4.88
  -5  -1   1   71.50    1.40
  -5  -1   1   72.52    1.71
  -5  -1   0   20.55    0.95
  -5  -1   0   20.79    1.02
  -5  -1  -1   70.30    1.59
  -5  -1  -1   72.41    1.44
  -5  -1  -2  538.42    3.76
  -5  -1  -2  564.84    4.33
  -5  -1  -3  768.53    4.64
  -5  -1  -3  763.06    5.44
  -5  -1  -4  289.52    3.11
  -5  -1  -4  289.20    3.70
  -5  -1  -5   70.98    1.75
  -5  -1  -5   69.82    2.15
  -5  -1  -6  113.77    2.88
  -5  -1  -6  112.24    2.31
  -5  -1  -7    1.06    1.11
  -5  -1  -7    1.28    1.16
  -5  -1  -8  105.87    3.32
  -5  -1  -8  103.62    2.54
  -5  -1  -9   88.17    2.55
  -5  -1  -9   93.31    3.45
  -5  -1 -10    0.64    1.47
  -5  -1 -10   -0.39    1.75
  -5  -1 -11  164.26    5.08
  -5  -1 -11  175.13    3.75
  -5  -1 -12   34.00    2.36
  -5  -1 -13    8.17    2.01
  -5  -1 -14    9.66    2.01
   5   2 -15    1.87    1.87
   5   2 -14    1.35    1.96
   5   2 -13   33.97    2.37
   5   2 -13   33.13    3.90
  -5  -2  12  217.63    6.74
   5   2 -12  205.60    4.05
   5   2 -12  201.48    6.61
  -5  -2  11   -0.35    2.30
   5   2 -11    3.21    2.16
   5   2 -11    0.38    1.54
  -5  -2  10  145.95    4.89
   5   2 -10  134.37    4.79
  -5  -2   9   89.68    3.77
   5   2  -9   79.59    3.72
  -5  -2   8   11.11    1.92
   5   2  -8   14.04    2.11
  -5  -2   7  339.58    5.81
   5   2  -7  336.72    6.00
   5   2  -6    2.06    1.35
  -5  -2   6    3.31    1.41
  -5  -2   5  238.55    4.36
   5   2  -5  242.05    4.45
  -5  -2   4  255.50    4.19
   5   2  -4  250.82    4.23
   5   2  -3  139.40    3.02
  -5  -2   3  141.82    2.93
   5   2  -2 1014.22    7.31
  -5  -2   2 1033.18    7.11
  -5  -2   1   13.25    1.04
  -5  -2   1   14.56    0.94
  -5  -2   0  282.79    2.50
  -5  -2   0  288.07    3.45
  -5  -2   0  292.11    3.09
  -5  -2  -1 1134.00    6.62
  -5  -2  -1 1114.52    5.83
  -5  -2  -2  330.33    2.74
  -5  -2  -2  325.51    3.66
  -5  -2  -2  334.48    3.16
  -5  -2  -3  183.21    2.18
  -5  -2  -3  180.42    2.90
  -5  -2  -3  182.53    2.32
  -5  -2  -4    1.53    0.88
  -5  -2  -4    1.42    0.73
  -5  -2  -4    3.74    0.61
  -5  -2  -5  344.33    3.25
  -5  -2  -5  348.84    4.51
  -5  -2  -5  349.46    2.94
  -5  -2  -6  329.87    3.35
  -5  -2  -6  337.74    4.83
  -5  -2  -7  147.95    2.50
  -5  -2  -7  153.23    3.61
  -5  -2  -8   54.92    1.86
  -5  -2  -8   55.67    2.56
  -5  -2  -9    6.90    1.29
  -5  -2  -9    5.68    1.66
  -5  -2 -10   77.67    3.47
  -5  -2 -10   78.34    2.38
  -5  -2 -11   29.10    2.81
  -5  -2 -11   29.01    1.91
  -5  -2 -12  143.14    5.08
  -5  -2 -12  144.26    3.44
  -5  -2 -13   28.66    2.24
  -5  -2 -14    6.23    1.79
   5   3 -14   33.13    2.67
   5   3 -13    2.14    1.89
   5   3 -12   13.65    3.18
   5   3 -12   14.44    2.06
  -5  -3  12   15.10    2.95
   5   3 -11   16.91    1.96
  -5  -3  11   17.83    2.83
   5   3 -11   15.82    3.01
  -5  -3  10  114.38    4.73
   5   3 -10  118.57    3.13
   5   3 -10  111.26    4.78
  -5  -3   9  106.93    4.22
   5   3  -9  110.11    4.49
  -5  -3   8   50.24    3.04
   5   3  -8   45.39    3.05
  -5  -3   7  125.14    3.96
   5   3  -7  122.95    4.11
  -5  -3   6   61.28    2.83
   5   3  -6   54.98    2.79
  -5  -3   5  123.55    3.46
   5   3  -5  114.04    3.45
  -5  -3   4  154.21    3.53
  -5  -3   4  159.21    2.43
   5   3  -4  161.15    3.69
   5   3  -3  250.68    4.23
  -5  -3   3  251.11    4.11
  -5  -3   3  248.92    2.96
   5   3  -2  130.72    3.03
  -5  -3   2  128.52    2.15
  -5  -3   2  130.28    2.88
  -5  -3   1  928.92    6.91
  -5  -3   1  909.12    5.37
  -5  -3   0   23.63    1.07
  -5  -3   0   23.10    1.36
  -5  -3  -1  324.85    2.60
   5   3   1  321.61    1.68
  -5  -3  -1  326.70    3.98
  -5  -3  -1  321.67    3.20
  -5  -3  -2  273.40    2.40
  -5  -3  -2  264.50    3.60
  -5  -3  -2  271.03    2.92
  -5  -3  -3    1.75    0.62
  -5  -3  -3    1.76    0.89
  -5  -3  -3    2.13    0.56
  -5  -3  -4  300.95    2.68
  -5  -3  -4  301.59    4.15
  -5  -3  -4  292.73    3.02
  -5  -3  -5  317.57    2.92
  -5  -3  -5  313.87    3.03
  -5  -3  -5  327.95    4.50
  -5  -3  -6    0.08    1.14
  -5  -3  -6    0.39    0.68
  -5  -3  -6    0.91    0.53
  -5  -3  -7   85.13    1.82
  -5  -3  -7   82.11    1.55
  -5  -3  -7   88.29    2.88
  -5  -3  -8    1.35    0.88
  -5  -3  -8    1.04    1.41
  -5  -3  -9  131.91    2.51
  -5  -3  -9  133.72    3.99
  -5  -3 -10  244.29    3.52
  -5  -3 -10  243.22    5.60
  -5  -3 -11   41.84    1.90
  -5  -3 -11   42.88    3.12
  -5  -3 -12    4.33    1.38
  -5  -3 -12    5.81    2.26
  -5  -3 -13    1.61    1.44
  -5  -3 -13    0.37    2.23
  -5  -3 -14   28.71    2.15
   5   4 -13    5.15    2.13
   5   4 -12   63.12    2.95
  -5  -4  11   96.40    4.99
   5   4 -11  100.44    3.26
   5   4 -11   99.50    5.27
   5   4 -10   77.94    2.80
  -5  -4  10   70.39    4.16
   5   4 -10   72.06    4.34
  -5  -4   9    6.93    2.32
   5   4  -9    7.56    1.64
   5   4  -9    9.79    2.35
   5   4  -8   13.77    1.64
  -5  -4   8   10.96    2.21
   5   4  -8   11.98    2.32
  -5  -4   7  139.67    4.42
   5   4  -7  132.43    4.43
  -5  -4   6  617.93    8.16
   5   4  -6  626.04    8.29
  -5  -4   5   44.35    2.52
   5   4  -5   45.46    2.62
  -5  -4   4   11.38    1.57
  -5  -4   4    9.14    0.95
   5   4  -4    9.20    1.64
   5   4  -3  123.75    3.32
  -5  -4   3  125.61    3.27
  -5  -4   3  125.61    2.21
   5   4  -2  180.15    3.69
  -5  -4   2  176.90    3.60
  -5  -4   2  167.21    2.48
   5   4  -1  232.66    1.25
  -5  -4   1  242.95    2.93
  -5  -4   0  535.70    4.23
  -5  -4   0  537.63    5.59
   5   4   0  534.36    1.95
  -5  -4  -1    2.61    0.75
  -5  -4  -1    3.95    1.03
   5   4   1    2.80    0.34
  -5  -4  -2  340.07    3.33
  -5  -4  -2  338.42    4.34
   5   4   2  342.12    2.11
  -5  -4  -3   10.42    0.70
   5   4   3   11.63    0.64
  -5  -4  -3   12.04    1.30
  -5  -4  -3   12.20    0.91
  -5  -4  -4  262.53    2.36
  -5  -4  -4  263.37    4.06
  -5  -4  -4  255.35    2.91
  -5  -4  -5  354.21    2.81
  -5  -4  -5  372.50    5.02
  -5  -4  -5  350.22    3.41
  -5  -4  -6    7.12    0.72
  -5  -4  -6    6.46    1.37
  -5  -4  -6    6.57    0.80
  -5  -4  -7  459.56    3.60
  -5  -4  -7  477.70    6.26
  -5  -4  -7  461.54    3.81
  -5  -4  -8  138.39    2.17
  -5  -4  -8  142.10    3.88
  -5  -4  -8  137.28    2.13
  -5  -4  -9    3.83    0.94
  -5  -4  -9    4.57    1.69
  -5  -4 -10    7.03    1.07
  -5  -4 -10    8.69    1.99
  -5  -4 -11   31.73    1.57
  -5  -4 -11   35.75    2.95
  -5  -4 -12    0.66    1.21
  -5  -4 -12   -1.49    2.13
  -5  -4 -13  102.29    2.71
  -5  -4 -13  103.33    4.78
   5   5 -13   21.01    2.51
   5   5 -12    3.19    2.04
   5   5 -11   16.73    2.22
  -5  -5  10    0.19    2.40
   5   5 -10    1.60    1.74
   5   5 -10    2.22    2.71
   5   5  -9   67.44    2.71
  -5  -5   9   66.90    4.06
   5   5  -9   63.78    4.19
   5   5  -8  125.16    3.13
  -5  -5   8  129.30    4.84
   5   5  -8  123.95    4.93
   5   5  -7   51.95    2.18
  -5  -5   7   52.96    3.18
   5   5  -7   49.82    3.39
   5   5  -6    3.04    1.87
  -5  -5   6    3.97    1.78
  -5  -5   5    1.25    0.83
   5   5  -5    0.14    1.75
  -5  -5   5    1.51    1.60
  -5  -5   4   47.26    1.54
  -5  -5   4   51.91    2.63
   5   5  -4   49.32    2.69
   5   5  -3  360.47    5.75
  -5  -5   3  368.57    5.68
  -5  -5   3  355.71    3.67
   5   5  -2  242.70    4.58
   5   5  -2  233.55    1.93
  -5  -5   2  245.55    4.50
  -5  -5   2  239.58    3.02
   5   5  -1    8.07    0.50
  -5  -5   1    7.97    0.95
  -5  -5   1    8.69    1.34
  -5  -5   0    4.08    0.84
   5   5   0    3.85    0.40
  -5  -5   0    4.50    1.17
   5   5   1    9.65    0.51
  -5  -5  -1    9.66    0.96
  -5  -5  -1    8.37    1.27
  -5  -5  -2  182.21    3.55
   5   5   2  192.71    1.74
  -5  -5  -3  975.61    7.83
   5   5   3 1000.56    4.19
  -5  -5  -4  145.71    1.71
  -5  -5  -4  141.86    3.25
   5   5   4  145.57    1.84
  -5  -5  -5  155.63    1.81
  -5  -5  -5  157.09    3.53
   5   5   5  148.64    2.05
  -5  -5  -6  402.37    5.73
   5   5   6  397.21    3.52
  -5  -5  -6  377.55    2.85
  -5  -5  -7   33.40    1.07
   5   5   7   36.54    1.42
  -5  -5  -7   35.96    2.19
  -5  -5  -8   72.49    1.54
  -5  -5  -8   78.81    3.08
  -5  -5  -9  106.67    1.91
  -5  -5  -9  106.48    3.73
  -5  -5 -10   20.59    1.17
  -5  -5 -10   22.38    2.37
  -5  -5 -11  147.40    2.53
  -5  -5 -11  147.70    4.81
  -5  -5 -12    1.56    2.26
  -5  -5 -13   26.72    3.15
   5   5  16   53.33    3.39
   5   6 -12    4.25    2.13
   5   6 -11    7.45    2.16
   5   6 -10    2.83    1.81
   5   6  -9    0.09    1.69
  -5  -6   9    0.47    2.21
   5   6  -9   -1.50    2.58
   5   6  -8   57.25    2.53
  -5  -6   8   53.92    3.90
   5   6  -8   54.07    3.91
   5   6  -7   54.17    2.34
  -5  -6   7   55.48    3.58
   5   6  -7   52.62    3.71
   5   6  -6   18.29    2.59
   5   6  -6   19.28    1.65
  -5  -6   6   19.43    2.57
   5   6  -5  159.84    3.03
  -5  -6   5  153.11    4.64
  -5  -6   5  155.31    2.60
   5   6  -5  156.95    4.73
  -5  -6   4  263.55    5.47
   5   6  -4  257.74    5.53
  -5  -6   4  250.23    3.22
  -5  -6   3   13.74    1.80
   5   6  -3   13.13    0.88
  -5  -6   3   13.89    1.12
   5   6  -3   14.89    2.02
   5   6  -2   29.63    2.21
  -5  -6   2   34.57    2.26
   5   6  -2   33.40    1.04
  -5  -6   2   30.47    1.38
   5   6  -1   37.85    1.02
  -5  -6   1   35.59    1.44
  -5  -6   0   81.66    2.77
   5   6   0   83.58    1.34
  -5  -6   0   85.11    1.96
  -5  -6  -1  467.94    5.90
   5   6   1  460.21    2.90
  -5  -6  -2  768.29    7.39
   5   6   2  787.71    3.86
  -5  -6  -3   31.19    1.92
   5   6   3   32.67    1.01
  -5  -6  -4  129.20    3.29
   5   6   4  137.87    1.89
  -5  -6  -5  236.81    4.44
   5   6   5  232.05    2.56
  -5  -6  -6  439.44    2.85
  -5  -6  -6  455.93    6.32
   5   6   6  450.19    3.75
  -5  -6  -7   64.84    1.22
  -5  -6  -7   68.90    2.87
   5   6   7   68.88    1.81
   5   6   8    1.26    1.03
  -5  -6  -8    0.27    1.48
   5   6   9   74.25    2.15
  -5  -6  -9   70.48    3.22
   5   6  10   18.35    1.61
  -5  -6 -10   20.23    2.44
   5   6  11  151.99    3.39
  -5  -6 -11  168.17    5.19
  -5  -6 -12   64.85    3.94
   5   6  12   63.81    2.65
   5   6  13    3.79    1.78
  -5  -6 -13    1.14    2.35
  -5  -6 -14   43.35    3.89
   5   6  14   40.04    2.76
   5   6  15   74.92    3.40
   5   6  16    1.09    2.23
   5   7 -10   54.78    2.98
   5   7  -9   55.92    2.88
   5   7  -8    9.50    1.87
  -5  -7   8    6.07    2.87
   5   7  -8    7.38    2.86
   5   7  -7   58.55    2.55
  -5  -7   7   55.42    3.85
   5   7  -7   59.76    3.95
   5   7  -6    6.78    2.51
   5   7  -6   12.40    1.62
  -5  -7   6   10.35    2.41
   5   7  -5    9.40    2.32
   5   7  -5   12.12    1.51
  -5  -7   5   11.98    2.15
   5   7  -4   14.41    1.48
   5   7  -4   13.40    2.27
  -5  -7   4   14.76    2.20
  -5  -7   4   12.77    1.17
   5   7  -3    2.22    1.78
   5   7  -3    2.73    1.08
  -5  -7   3    2.11    0.93
  -5  -7   3    2.38    1.77
   5   7  -3    2.27    0.90
   5   7  -2  146.94    4.31
  -5  -7   2  141.45    4.10
   5   7  -2  147.11    2.22
  -5  -7   2  147.81    2.68
   5   7  -1   66.25    3.00
  -5  -7   1   66.58    2.92
   5   7  -1   63.39    1.48
  -5  -7   1   64.15    1.87
  -5  -7   0   27.41    2.09
   5   7   0   26.17    1.06
  -5  -7  -1   19.50    1.82
   5   7   1   20.54    0.97
  -5  -7  -2    8.10    1.52
   5   7   2    9.89    0.82
  -5  -7  -3   47.85    2.34
   5   7   3   45.17    1.26
  -5  -7  -4  291.84    5.08
   5   7   4  289.78    2.89
  -5  -7  -5  473.79    6.45
   5   7   5  485.24    3.85
  -5  -7  -6  107.58    3.44
   5   7   6  111.49    2.11
  -5  -7  -7   56.68    2.83
   5   7   7   57.20    1.75
   5   7   8   23.38    1.40
  -5  -7  -8   26.05    2.38
   5   7   9  367.72    4.27
  -5  -7  -9  378.16    6.74
   5   7  10  330.94    4.36
  -5  -7 -10  348.94    6.81
  -5  -7 -11   24.66    2.92
   5   7  11   26.87    1.92
  -5  -7 -12   76.75    4.04
   5   7  12   71.81    2.73
   5   7  13   57.34    2.75
  -5  -7 -13   55.89    3.89
   5   7  14    1.22    1.88
  -5  -7 -14    1.21    2.85
   5   7  15  113.88    3.81
   5   7  16   23.77    2.63
   5   8  -9    2.02    1.86
   5   8  -8    2.25    1.76
   5   8  -7   46.87    2.56
   5   8  -6   73.14    2.69
   5   8  -6   64.79    4.23
   5   8  -5    3.29    2.47
   5   8  -5    4.16    1.44
  -5  -8   5    2.31    2.06
   5   8  -4   32.03    1.87
  -5  -8   4   30.37    2.81
   5   8  -4   29.32    3.10
   5   8  -3   54.95    2.01
  -5  -8   3   56.54    3.27
   5   8  -3   52.72    1.82
   5   8  -3   58.42    3.40
  -5  -8   3   51.19    1.89
  -5  -8   2    8.32    1.15
   5   8  -2    8.90    2.19
   5   8  -2   10.96    1.24
   5   8  -2    8.77    1.13
  -5  -8   2    8.95    1.96
   5   8  -1  251.05    5.47
   5   8  -1  243.24    3.22
  -5  -8   1  256.28    5.56
   5   8  -1  245.51    3.07
  -5  -8   1  243.84    3.52
   5   8   0   91.35    3.56
   5   8   0   80.48    1.89
   5   8   0   85.63    1.88
   5   8   1    0.61    0.82
   5   8   1    0.99    0.70
  -5  -8  -1    1.06    1.48
  -5  -8  -2  168.08    4.21
   5   8   2  167.07    2.32
  -5  -8  -3   55.20    2.70
   5   8   3   58.25    1.55
  -5  -8  -4   37.33    2.35
   5   8   4   37.56    1.35
  -5  -8  -5   31.57    2.31
   5   8   5   30.01    1.34
   5   8   6    4.28    0.99
  -5  -8  -6    4.24    1.61
  -5  -8  -7  446.86    6.97
   5   8   7  432.43    4.26
   5   8   8  399.54    4.35
  -5  -8  -8  412.89    7.01
   5   8   9    2.19    1.21
  -5  -8  -9    2.50    1.81
   5   8  10    1.09    1.33
  -5  -8 -10   -0.20    1.96
   5   8  11    1.09    1.45
  -5  -8 -11    0.16    1.95
   5   8  12   24.63    2.08
  -5  -8 -12   26.46    3.01
  -5  -8 -13  195.96    6.27
   5   8  13  194.17    4.16
   5   8  14   41.61    2.63
  -5  -8 -14   41.01    3.78
   5   8  15   16.18    2.32
   5   8  16    3.96    2.13
   5   9  -8   51.44    2.84
   5   9  -7   11.69    1.98
   5   9  -6    2.87    1.71
   5   9  -5    7.27    1.64
   5   9  -4   17.25    1.78
   5   9  -4   21.76    3.12
   5   9  -3  241.37    3.88
   5   9  -3  242.58    6.36
   5   9  -2   83.29    3.94
   5   9  -2   82.14    2.33
   5   9  -2   82.84    2.32
  -5  -9   2   79.38    2.34
   5   9  -1  117.18    4.39
  -5  -9   1  115.39    4.20
   5   9  -1  115.95    2.50
  -5  -9   1  112.41    2.67
   5   9   0   27.98    2.64
  -5  -9   0   23.86    2.39
   5   9   0   25.48    1.44
   5   9   1    6.62    1.12
  -5  -9  -1    6.85    1.77
   5   9   1    5.94    1.94
  -5  -9  -2   33.61    2.55
   5   9   2   31.86    1.49
  -5  -9  -3  104.81    3.71
   5   9   3   99.99    2.12
  -5  -9  -4   25.45    2.27
   5   9   4   23.95    1.38
  -5  -9  -5   27.46    2.38
   5   9   5   31.26    1.47
  -5  -9  -6    7.00    1.88
   5   9   6    7.84    1.14
   5   9   7    0.39    1.09
  -5  -9  -7    2.11    1.80
   5   9   8  175.75    3.16
  -5  -9  -8  171.03    4.95
   5   9   9    3.50    1.33
  -5  -9  -9    4.84    2.07
   5   9  10   90.82    2.73
  -5  -9 -10   96.32    4.32
   5   9  11  110.01    3.10
  -5  -9 -11  108.88    4.65
   5   9  12   45.67    2.47
  -5  -9 -12   44.14    3.57
  -5  -9 -13   21.96    3.16
   5   9  13   18.82    2.15
   5   9  14   12.32    2.08
   5   9  15    7.14    2.21
   5   9  16  110.31    4.03
   5  10  -2   12.60    2.74
   5  10  -1   22.67    2.84
   5  10  -1   20.41    1.60
  -5 -10   1   19.81    1.65
   5  10   0  130.13    4.69
   5  10   0  131.92    2.86
   5  10   1   50.81    3.24
   5  10   1   53.38    2.04
   5  10   2    4.16    1.18
   5  10   2    1.74    1.99
   5  10   3  138.41    2.75
   5  10   4   12.59    1.36
  -5 -10  -4   12.93    2.20
  -5 -10  -5  275.26    6.06
   5  10   5  282.58    3.76
  -5 -10  -6  184.77    5.21
   5  10   6  176.95    3.16
  -5 -10  -7   38.76    2.90
   5  10   7   41.77    1.93
   5  10   8   54.37    2.17
  -5 -10  -8   47.47    3.33
   5  10   9  126.34    3.06
  -5 -10  -9  132.77    4.80
   5  10  10    0.85    1.51
  -5 -10 -10   -0.45    2.19
   5  10  11   25.64    2.09
  -5 -10 -11   22.51    3.06
  -5 -10 -12   20.11    3.01
   5  10  12   23.74    2.19
  -5 -10 -13   24.98    3.63
   5  10  13   34.54    2.49
   5  10  14   51.93    2.98
   5  10  15   -0.11    1.97
   5  10  16    3.20    2.31
   5  11   0    2.85    2.34
   5  11   0    2.27    1.43
   5  11   1   51.22    3.52
   5  11   1   54.74    2.34
   5  11   2   19.98    2.78
   5  11   2   22.37    1.78
   5  11   3  210.88    5.77
   5  11   3  201.98    3.59
   5  11   4  166.09    3.31
   5  11   5   21.73    1.66
   5  11   6    1.86    1.34
   5  11   7    8.11    1.55
   5  11   8   28.73    1.98
   5  11   9  163.55    3.56
   5  11  10    1.55    1.65
   5  11  11   50.73    2.58
   5  11  12   30.60    2.44
   5  11  13    3.46    1.99
   5  11  14   46.40    2.94
   5  11  15   23.68    2.71
   5  12   1   84.88    2.90
   5  12   2   82.78    2.99
   5  12   3    0.83    1.53
   5  12   4   14.91    1.85
   5  12   5    0.18    1.53
   5  12   6   77.55    2.73
   5  12   7  228.06    4.12
   5  12   8   91.86    3.05
   5  12   9   22.60    2.10
   5  12  10   14.53    2.05
   5  12  11   27.58    2.33
   5  12  12   70.53    3.23
   5  12  13  100.22    3.73
   5  12  14    1.55    2.15
   5  13   3   10.42    1.92
   5  13   4    8.17    1.86
   5  13   5   39.83    2.48
   5  13   6    1.53    1.72
   5  13   7   16.21    2.01
   5  13   8    1.14    1.72
   5  13   9   34.06    2.48
   5  13  10  161.09    4.02
   5  13  11   82.24    3.46
   5  13  12   -0.01    1.98
  -6   7   5   16.59    2.00
  -6   7   4    5.20    1.69
  -6   7   3   72.67    2.94
  -6   7   2   58.70    3.01
  -6   7   1   37.26    2.70
  -6   6   6    2.33    1.37
  -6   6   5   11.10    1.66
  -6   6   4  193.70    3.86
  -6   6   3   38.11    2.20
  -6   6   2    1.54    1.59
  -6   6   1    1.81    1.72
  -6   6   0   -1.02    1.81
  -6   5   6   33.81    1.77
  -6   5   5   41.43    1.92
  -6   5   4    0.40    1.29
  -6   5   3   51.20    1.98
  -6   5   3   50.36    2.15
  -6   5   2   14.94    1.50
  -6   5   2   17.70    1.71
  -6   5   1   52.03    2.18
  -6   5   1   54.61    2.40
  -6   5   0   19.00    1.72
  -6   5   0   21.35    2.03
  -6   5  -1    2.23    1.46
  -6   5  -2   31.16    2.18
  -6   5  -3    4.76    1.73
  -6   5  -4   53.83    2.92
  -6   4   6   60.62    1.88
  -6   4   5    7.46    1.11
  -6   4   4    1.66    1.01
  -6   4   4    1.57    1.06
  -6   4   3  136.07    2.64
  -6   4   3  136.14    2.76
  -6   4   2   41.69    1.75
  -6   4   2   39.13    1.82
  -6   4   1   26.88    1.70
  -6   4   1   27.70    1.75
  -6   4   0   25.12    1.71
  -6   4   0   26.51    1.91
  -6   4  -1    1.91    1.37
  -6   4  -2   26.78    1.95
  -6   4  -3   35.60    2.23
  -6   4  -4   40.71    2.43
  -6   4  -5    2.89    1.85
  -6   4  -6   19.25    2.33
  -6   3   5   28.91    1.27
  -6   3   4   -0.16    0.99
  -6   3   4    0.74    0.86
  -6   3   3   43.67    1.63
  -6   3   3   44.70    1.55
  -6   3   2   37.13    1.53
  -6   3   2   35.96    1.61
  -6   3   1    1.59    1.12
  -6   3   1    1.42    1.13
  -6   3   0   32.75    1.66
  -6   3   0   34.12    1.72
  -6   3  -1  143.65    2.98
  -6   3  -2    1.52    1.37
  -6   3  -3   93.99    2.77
  -6   3  -4    0.17    1.54
  -6   3  -5   18.19    2.02
  -6   3  -6   42.57    2.61
  -6   3  -7   16.11    2.22
  -6   3  -8   12.76    2.38
  -6   2  13   12.22    2.30
  -6   2  12   88.40    3.97
  -6   2  11    6.37    1.74
  -6   2  10  232.70    4.97
  -6   2   9   57.41    2.51
  -6   2   8   10.89    1.34
  -6   2   7    0.84    0.84
  -6   2   4  322.71    2.97
  -6   2   3    5.68    1.02
  -6   2   3    5.49    0.81
  -6   2   2   80.84    1.92
  -6   2   2   87.20    1.81
  -6   2   1   14.16    1.24
  -6   2   1   13.26    1.05
  -6   2   0   71.87    1.99
  -6   2   0   71.45    1.92
  -6   2  -1  182.87    3.01
  -6   2  -2   53.85    1.99
  -6   2  -3    8.35    1.42
  -6   2  -4    9.14    1.56
  -6   2  -5    2.43    1.54
  -6   2  -6    2.83    1.64
  -6   2  -7   42.04    2.50
  -6   2  -8    0.85    1.87
  -6   2  -9   76.00    3.40
   6  -1 -14    0.17    1.58
  -6   1  13   12.42    2.58
  -6   1  12   16.49    2.71
  -6   1  11   22.41    2.49
  -6   1  10   22.60    2.39
  -6   1   9  115.17    3.68
  -6   1   8    4.39    1.38
  -6   1   7  280.88    4.52
  -6   1   6  291.36    4.08
  -6   1   5    0.10    0.74
  -6   1   4   10.02    0.72
  -6   1   3   34.35    1.35
  -6   1   3   35.03    1.01
  -6   1   2   29.52    1.29
  -6   1   2   30.83    1.04
  -6   1   1  732.75    4.99
  -6   1   1  730.18    4.43
  -6   1   0  263.08    3.19
  -6   1   0  266.61    2.96
  -6   1  -1    4.32    1.06
  -6   1  -2    4.98    1.15
  -6   1  -3   35.71    1.71
  -6   1  -4  259.30    3.77
  -6   1  -5  189.54    3.49
  -6   1  -6    2.16    1.43
  -6   1  -7   43.01    2.29
  -6   1  -8    1.63    1.70
  -6   1  -9    6.35    1.88
  -6   1 -10   12.97    2.15
   6   0 -15   13.11    1.99
   6   0 -14   34.70    2.41
  -6   0  13   13.21    2.86
   6   0 -13   13.75    1.90
  -6   0  12   15.05    2.80
  -6   0  11  111.39    4.52
  -6   0  10    3.43    2.00
  -6   0   9   30.33    2.45
  -6   0   8   72.46    3.00
  -6   0   7    5.94    1.43
  -6   0   6  367.41    5.18
  -6   0   5   36.48    1.79
  -6   0   4  108.37    2.42
  -6   0   3  353.55    3.71
  -6   0   2  192.76    2.57
  -6   0   2  189.27    2.43
  -6   0   2  195.24    1.82
  -6   0   1  111.75    2.03
  -6   0   1  112.84    1.65
  -6   0   0  122.57    2.17
  -6   0   0  113.88    1.49
  -6   0  -1  194.73    2.66
  -6   0  -1  189.30    1.93
  -6   0  -2  453.84    4.14
  -6   0  -2  430.54    3.19
  -6   0  -3   96.86    2.22
  -6   0  -3   91.66    1.78
  -6   0  -4    0.42    0.72
  -6   0  -4    0.33    1.12
  -6   0  -5   56.22    2.03
  -6   0  -5   54.66    1.87
  -6   0  -6    0.92    1.03
  -6   0  -6   -0.21    1.30
  -6   0  -7  221.83    3.85
  -6   0  -7  210.87    4.00
  -6   0  -8  168.39    3.58
  -6   0  -9   56.01    2.58
  -6   0 -10    1.54    1.78
  -6   0 -11   22.28    2.32
  -6   0 -12    2.68    1.90
   6   1 -15   25.60    2.42
   6   1 -14   44.86    2.70
   6   1 -13   40.67    2.50
  -6  -1  12    2.93    2.40
  -6  -1  11   38.98    3.25
   6   1 -11   35.37    3.28
  -6  -1  10    7.81    2.24
   6   1 -10    9.30    2.22
  -6  -1   9  135.86    4.39
   6   1  -9  119.05    4.26
  -6  -1   8  148.64    4.18
   6   1  -8  141.02    4.33
  -6  -1   7  106.24    3.41
   6   1  -7  119.34    3.72
  -6  -1   6   86.14    2.91
   6   1  -6   88.03    3.09
  -6  -1   5  254.71    4.33
   6   1  -5  251.05    4.47
   6   1  -4    0.23    0.97
  -6  -1   4    0.55    1.04
  -6  -1   3  110.61    2.57
   6   1  -3  106.86    2.62
   6   1  -2   91.64    2.27
  -6  -1   2   92.91    2.17
  -6  -1   1   16.40    1.03
  -6  -1   1   16.68    1.07
  -6  -1   0  271.16    3.21
  -6  -1   0  271.55    2.89
  -6  -1  -1  484.62    3.86
  -6  -1  -1  497.55    4.18
  -6  -1  -2   34.86    1.35
  -6  -1  -2   36.00    1.37
  -6  -1  -3  747.01    5.09
  -6  -1  -3  732.98    5.51
  -6  -1  -4   25.34    1.38
  -6  -1  -4   23.93    1.39
  -6  -1  -5  282.52    3.54
  -6  -1  -5  284.69    4.11
  -6  -1  -6  262.42    3.60
  -6  -1  -6  251.54    4.19
  -6  -1  -7   15.99    1.51
  -6  -1  -7   16.46    1.73
  -6  -1  -8    0.71    1.48
  -6  -1  -8    0.79    1.32
  -6  -1  -9   -0.51    1.53
  -6  -1  -9    1.05    1.44
  -6  -1 -10   63.91    2.61
  -6  -1 -10   57.36    3.39
  -6  -1 -11  219.07    4.36
  -6  -1 -12   13.55    2.10
  -6  -1 -13   11.23    2.09
   6   2 -15   22.80    2.53
   6   2 -14   -1.16    1.94
   6   2 -13   13.88    2.06
   6   2 -12    1.66    2.37
  -6  -2  12    3.76    2.42
   6   2 -12    3.09    1.78
  -6  -2  11  247.11    6.70
   6   2 -11  236.52    6.74
  -6  -2  10  215.56    5.95
   6   2 -10  213.27    6.09
  -6  -2   9   34.32    2.80
   6   2  -9   33.39    2.83
  -6  -2   8    1.89    1.74
   6   2  -8    1.94    1.71
  -6  -2   7   89.83    3.36
   6   2  -7   85.96    3.44
  -6  -2   6   34.26    2.25
   6   2  -6   34.09    2.26
  -6  -2   5  536.02    6.57
   6   2  -5  529.23    6.76
  -6  -2   4  294.47    4.65
   6   2  -4  296.63    4.80
   6   2  -3    1.07    0.95
  -6  -2   3    0.37    1.00
   6   2  -2  493.58    5.46
  -6  -2   2  481.71    5.19
  -6  -2   1   27.21    1.47
  -6  -2   0  234.42    2.59
  -6  -2   0  239.88    3.44
  -6  -2  -1  173.34    2.29
  -6  -2  -1  166.80    2.83
  -6  -2  -2   49.07    1.41
  -6  -2  -2   47.31    1.67
  -6  -2  -3  374.98    3.44
  -6  -2  -3  382.49    4.38
  -6  -2  -4  259.18    3.05
  -6  -2  -4  270.95    3.95
  -6  -2  -5   50.18    1.63
  -6  -2  -5   52.26    2.11
  -6  -2  -6  153.41    2.65
  -6  -2  -6  158.83    3.53
  -6  -2  -7    9.49    1.29
  -6  -2  -7    9.63    1.59
  -6  -2  -8  128.32    2.76
  -6  -2  -8  130.35    3.75
  -6  -2  -9  216.43    3.60
  -6  -2  -9  225.20    5.11
  -6  -2 -10   35.72    2.03
  -6  -2 -10   32.61    2.79
  -6  -2 -11   48.43    3.34
  -6  -2 -11   53.73    2.48
  -6  -2 -12   23.00    2.14
  -6  -2 -13    8.29    1.87
   6   3 -14   -0.97    1.98
   6   3 -13   91.61    3.38
  -6  -3  12   75.03    4.62
   6   3 -12   78.08    3.17
   6   3 -12   76.36    4.77
  -6  -3  11    1.60    2.34
   6   3 -11   -1.30    2.50
   6   3 -11    1.51    1.72
  -6  -3  10   44.67    3.54
   6   3 -10   42.34    3.50
  -6  -3   9    8.19    2.23
   6   3  -9    9.00    2.23
  -6  -3   8   27.27    2.62
   6   3  -8   32.92    2.82
  -6  -3   7  518.95    7.70
   6   3  -7  525.29    7.96
  -6  -3   6  128.73    3.92
   6   3  -6  118.35    3.87
  -6  -3   5  116.41    3.49
   6   3  -5  111.52    3.58
  -6  -3   4   98.67    3.04
   6   3  -4   86.99    3.01
   6   3  -3  231.64    4.34
  -6  -3   3  235.39    4.22
   6   3  -2  576.86    6.33
  -6  -3   2  560.66    6.09
  -6  -3   2  548.61    4.77
  -6  -3   1  908.16    7.38
  -6  -3   1  915.09    6.04
  -6  -3   0   17.65    1.32
  -6  -3   0   17.44    1.14
  -6  -3  -1  132.58    1.97
  -6  -3  -1  135.30    2.80
  -6  -3  -1  138.18    2.41
  -6  -3  -2  155.85    2.13
  -6  -3  -2  158.01    3.07
  -6  -3  -2  154.99    2.51
  -6  -3  -3    7.94    0.88
  -6  -3  -3    9.11    0.92
  -6  -3  -3    8.68    1.21
  -6  -3  -4  526.01    3.94
  -6  -3  -4  514.33    5.66
  -6  -3  -4  512.71    4.26
  -6  -3  -5  143.44    2.27
  -6  -3  -5  147.56    2.31
  -6  -3  -5  152.51    3.37
  -6  -3  -6  114.70    2.21
  -6  -3  -6  113.70    3.16
  -6  -3  -6  110.72    1.98
  -6  -3  -7  340.98    3.74
  -6  -3  -7  347.42    5.54
  -6  -3  -8    0.34    1.51
  -6  -3  -8    0.40    1.04
  -6  -3  -9  118.06    2.61
  -6  -3  -9  120.14    3.94
  -6  -3 -10   41.31    2.98
  -6  -3 -10   44.57    1.97
  -6  -3 -11   -0.62    1.36
  -6  -3 -11   -0.31    1.99
  -6  -3 -12  127.86    3.35
  -6  -3 -12  134.76    5.01
  -6  -3 -13   58.77    2.67
  -6  -3 -14    8.27    1.86
   6   4 -13   12.39    2.26
   6   4 -12   75.17    3.19
   6   4 -11   20.96    2.24
  -6  -4  11   21.76    3.18
   6   4 -11   17.96    3.55
  -6  -4  10   46.00    3.75
   6   4 -10   50.73    2.55
   6   4 -10   43.41    3.71
  -6  -4   9   64.89    3.91
   6   4  -9   58.57    3.83
  -6  -4   8    0.55    2.08
   6   4  -8    2.23    2.02
  -6  -4   7   74.83    3.53
   6   4  -7   67.15    3.60
  -6  -4   6  176.64    4.69
   6   4  -6  171.85    4.79
  -6  -4   5  120.89    3.80
   6   4  -5  112.92    3.81
   6   4  -4  813.82    8.72
  -6  -4   4  807.14    8.47
  -6  -4   4  804.44    5.86
  -6  -4   3  577.41    6.84
   6   4  -3  566.31    6.99
  -6  -4   3  559.82    4.85
   6   4  -2   67.16    2.63
  -6  -4   2   62.58    2.46
  -6  -4   2   64.93    1.81
  -6  -4   1  315.87    4.81
  -6  -4   1  328.51    3.67
  -6  -4   0   13.15    1.42
  -6  -4   0   13.46    1.12
  -6  -4  -1  635.87    6.22
   6   4   1  608.23    2.32
  -6  -4  -1  618.37    4.93
  -6  -4  -2  292.88    2.76
  -6  -4  -2  295.31    4.30
   6   4   2  280.08    1.98
  -6  -4  -2  282.70    3.38
  -6  -4  -3  129.69    1.91
  -6  -4  -3  128.54    3.07
  -6  -4  -3  128.32    2.37
  -6  -4  -4   59.61    1.46
  -6  -4  -4   60.38    2.29
  -6  -4  -4   55.66    1.67
  -6  -4  -5   20.52    1.01
  -6  -4  -5   22.54    1.73
  -6  -4  -5   21.94    1.17
  -6  -4  -6   83.59    1.76
  -6  -4  -6   79.84    2.91
  -6  -4  -6   81.62    1.88
  -6  -4  -7  352.09    3.53
  -6  -4  -7  344.15    5.66
  -6  -4  -7  353.23    3.54
  -6  -4  -8  247.03    3.18
  -6  -4  -8  252.04    5.16
  -6  -4  -9   57.57    1.85
  -6  -4  -9   58.55    3.15
  -6  -4 -10   90.47    2.36
  -6  -4 -10   95.86    3.97
  -6  -4 -11    6.07    1.34
  -6  -4 -11    3.98    2.10
  -6  -4 -12    5.97    1.39
  -6  -4 -12    4.39    2.36
  -6  -4 -13   27.79    1.99
   6   5 -12   17.35    2.37
   6   5 -11   61.03    2.96
  -6  -5  10   -0.79    2.71
   6   5 -10    1.27    1.78
   6   5 -10    4.40    2.61
   6   5  -9  146.60    3.60
  -6  -5   9  158.44    5.62
   6   5  -9  151.56    5.66
   6   5  -8   54.83    2.47
  -6  -5   8   57.72    3.70
   6   5  -8   58.43    3.90
   6   5  -7    8.54    2.50
  -6  -5   7    9.95    2.42
  -6  -5   6  123.27    4.37
   6   5  -6  128.21    4.46
  -6  -5   5   67.63    3.25
   6   5  -5   66.65    3.31
  -6  -5   5   67.39    1.98
  -6  -5   4  228.58    4.99
  -6  -5   4  226.38    3.24
   6   5  -4  229.96    5.16
   6   5  -3  253.90    5.10
  -6  -5   3  244.17    4.93
  -6  -5   3  243.85    3.32
   6   5  -2   33.43    2.20
  -6  -5   2   33.26    2.16
  -6  -5   2   32.86    1.47
  -6  -5   1  592.87    6.82
  -6  -5   1  569.04    4.87
  -6  -5   0  137.56    3.37
  -6  -5   0  132.80    2.50
  -6  -5  -1   30.65    1.88
   6   5   1   30.71    0.67
  -6  -5  -1   29.66    1.40
  -6  -5  -2    1.64    0.86
  -6  -5  -2    2.12    1.18
   6   5   2    3.23    0.45
  -6  -5  -3   29.85    1.89
   6   5   3   30.36    0.89
  -6  -5  -3   30.45    1.39
  -6  -5  -4  356.32    3.00
  -6  -5  -4  345.53    5.07
   6   5   4  347.98    2.82
  -6  -5  -4  345.42    3.81
  -6  -5  -5 1052.94    5.17
  -6  -5  -5 1021.58    8.95
   6   5   5 1050.64    5.32
  -6  -5  -5 1038.10    6.49
  -6  -5  -6   51.91    1.39
  -6  -5  -6   53.94    2.59
   6   5   6   53.01    1.54
  -6  -5  -6   55.76    1.72
  -6  -5  -7   21.29    1.10
  -6  -5  -7   19.59    2.02
  -6  -5  -7   20.70    1.24
  -6  -5  -8   17.76    1.12
  -6  -5  -8   15.81    2.05
  -6  -5  -8   15.87    1.09
  -6  -5  -9    2.94    1.81
  -6  -5  -9    2.54    0.94
  -6  -5 -10  248.74    3.29
  -6  -5 -10  261.19    5.91
  -6  -5 -11  137.79    2.71
  -6  -5 -11  138.10    4.88
  -6  -5 -12   13.66    2.71
   6   6 -11   34.90    2.70
   6   6 -10   12.18    2.11
   6   6  -9   21.74    2.21
  -6  -6   9   20.85    3.24
   6   6  -9   25.95    3.32
   6   6  -8   54.86    2.56
  -6  -6   8   51.46    3.92
   6   6  -8   50.19    4.07
   6   6  -7   10.75    2.68
   6   6  -7    9.38    1.68
  -6  -6   7   11.04    2.53
  -6  -6   6   84.60    3.98
   6   6  -6   76.70    3.92
  -6  -6   5  230.28    5.64
   6   6  -5  235.25    5.78
  -6  -6   5  226.62    3.32
  -6  -6   4   35.92    2.67
   6   6  -4   35.28    2.74
  -6  -6   4   38.17    1.62
   6   6  -3  158.50    4.48
  -6  -6   3  166.31    4.41
  -6  -6   3  156.82    2.80
   6   6  -2  194.58    4.65
  -6  -6   2  190.83    4.50
  -6  -6   2  188.40    3.06
  -6  -6   1   43.96    2.42
  -6  -6   1   41.27    1.63
  -6  -6   0  635.95    7.33
  -6  -6   0  618.61    5.26
  -6  -6  -1    0.31    0.96
   6   6   1    1.66    0.47
  -6  -6  -2  346.35    5.33
   6   6   2  361.59    2.53
  -6  -6  -2  355.25    3.99
  -6  -6  -3  360.70    5.44
   6   6   3  369.05    2.75
  -6  -6  -3  362.96    4.04
  -6  -6  -4   94.01    3.08
   6   6   4   99.10    1.64
  -6  -6  -5  248.96    4.72
   6   6   5  246.03    2.67
  -6  -6  -6   35.07    1.13
  -6  -6  -6   36.14    2.34
   6   6   6   36.00    1.36
  -6  -6  -7   28.13    1.09
  -6  -6  -7   30.28    2.31
   6   6   7   29.85    1.44
  -6  -6  -8  117.35    1.95
   6   6   8  127.07    2.54
  -6  -6  -8  130.37    4.09
  -6  -6  -9  351.89    6.55
   6   6   9  343.66    4.22
  -6  -6  -9  331.06    3.94
   6   6  10    2.66    1.36
  -6  -6 -10    0.81    1.97
   6   6  11    8.51    1.65
  -6  -6 -11    7.50    2.40
  -6  -6 -12   88.89    4.35
   6   6  12   74.21    2.92
  -6  -6 -13   86.32    4.73
   6   6  13   90.57    3.28
   6   6  14  100.12    3.62
   6   6  15   14.97    2.43
   6   7 -10    2.36    1.97
   6   7  -9    0.23    1.84
   6   7  -8  147.39    3.76
  -6  -7   8  140.33    5.84
   6   7  -8  137.86    5.91
   6   7  -7  199.27    4.02
  -6  -7   7  199.10    6.25
   6   7  -7  208.15    6.56
   6   7  -6    4.25    2.39
   6   7  -6    4.27    1.54
  -6  -7   6    3.67    2.17
   6   7  -5   28.41    1.89
  -6  -7   5   28.80    2.91
   6   7  -5   22.68    2.89
  -6  -7   5   27.94    1.53
  -6  -7   4    4.73    2.07
   6   7  -4    3.83    2.03
  -6  -7   4    4.39    1.09
  -6  -7   3  127.34    4.26
  -6  -7   3  122.15    2.63
   6   7  -3  118.42    4.29
   6   7  -2  182.94    4.86
  -6  -7   2  171.59    3.03
  -6  -7   2  184.40    4.78
   6   7  -1   57.43    3.00
  -6  -7   1   55.70    2.88
  -6  -7   1   51.69    1.87
  -6  -7   0  173.94    4.31
  -6  -7   0  164.98    2.93
  -6  -7  -1  331.52    5.66
   6   7   1  332.59    2.69
  -6  -7  -1  337.02    4.10
  -6  -7  -2   59.35    2.73
   6   7   2   56.44    1.26
  -6  -7  -3  151.72    3.93
   6   7   3  146.08    1.95
  -6  -7  -4   41.48    2.43
   6   7   4   40.41    1.24
  -6  -7  -5   17.75    1.94
   6   7   5   20.19    1.10
  -6  -7  -6  139.91    3.99
   6   7   6  135.39    2.26
   6   7   7    2.01    0.99
  -6  -7  -7    2.10    1.68
  -6  -7  -8   66.84    3.36
   6   7   8   65.00    1.98
  -6  -7  -9  105.85    4.11
   6   7   9  108.52    2.58
  -6  -7 -10   29.43    2.74
   6   7  10   24.33    1.76
   6   7  11  180.87    3.67
  -6  -7 -11  171.07    5.47
  -6  -7 -12   98.35    4.65
   6   7  12   93.82    3.09
  -6  -7 -13  126.51    5.32
   6   7  13  119.55    3.56
   6   7  14    3.31    1.98
   6   7  15   32.97    2.83
   6   7  16   19.68    2.73
   6   8  -9   46.95    2.81
   6   8  -8    0.91    1.80
   6   8  -7    5.13    1.77
   6   8  -6   39.03    2.30
  -6  -8   6   39.42    3.50
   6   8  -6   44.65    3.85
   6   8  -5   38.51    2.12
  -6  -8   5   39.54    3.26
   6   8  -5   38.93    3.43
   6   8  -4   83.87    2.57
  -6  -8   4   77.43    4.13
   6   8  -4   85.96    4.20
  -6  -8   4   83.48    2.36
   6   8  -3   66.26    2.24
  -6  -8   3   63.81    3.48
   6   8  -3   63.77    3.73
  -6  -8   3   69.56    2.22
  -6  -8   2    5.52    1.23
   6   8  -2    5.33    1.22
   6   8  -2    6.12    2.10
  -6  -8   2    5.02    2.06
  -6  -8   1    6.87    1.26
   6   8  -1    7.75    1.93
  -6  -8   1    5.18    1.89
  -6  -8   0   27.83    2.49
  -6  -8   0   29.38    1.66
  -6  -8  -1  447.45    6.99
   6   8   1  430.93    3.50
  -6  -8  -2  208.18    4.88
   6   8   2  207.69    2.46
  -6  -8  -3   54.73    2.81
   6   8   3   54.51    1.46
  -6  -8  -4  130.36    3.96
   6   8   4  131.16    2.15
  -6  -8  -5   15.17    2.00
   6   8   5   17.25    1.13
  -6  -8  -6   74.09    3.30
   6   8   6   78.79    1.91
  -6  -8  -7  201.50    5.03
   6   8   7  206.31    3.06
  -6  -8  -8   17.95    2.39
   6   8   8   18.09    1.47
  -6  -8  -9  181.03    5.21
   6   8   9  177.05    3.17
  -6  -8 -10  140.26    4.95
   6   8  10  137.68    3.08
   6   8  11   24.61    1.95
  -6  -8 -11   24.68    3.00
   6   8  12   36.21    2.25
  -6  -8 -12   37.18    3.47
   6   8  13    1.72    1.77
  -6  -8 -13    2.45    2.60
   6   8  14   19.11    2.32
   6   8  15   46.17    3.03
   6   8  16   -0.76    2.14
   6   9  -8    1.45    1.93
   6   9  -7   40.44    2.67
   6   9  -6   14.24    1.94
   6   9  -5    0.08    1.45
   6   9  -4   15.70    1.72
   6   9  -4   18.63    2.97
  -6  -9   4   16.13    2.92
   6   9  -3   23.07    1.76
  -6  -9   3   22.15    2.72
   6   9  -3   21.54    3.01
  -6  -9   3   22.70    1.69
   6   9  -2  110.62    2.66
  -6  -9   2  113.07    4.61
  -6  -9   2  117.20    2.85
   6   9  -2  111.43    4.66
   6   9  -1  291.65    6.58
   6   9  -1  286.27    3.79
  -6  -9   1  293.64    6.55
  -6  -9   1  293.00    4.21
   6   9   0  160.36    4.91
  -6  -9   0  159.97    4.88
  -6  -9   0  152.62    3.20
  -6  -9  -1   81.30    3.59
   6   9   1   78.32    1.91
   6   9   2    5.80    0.99
  -6  -9  -2    5.93    1.91
   6   9   3    1.11    0.90
  -6  -9  -3   -0.47    1.77
  -6  -9  -4  232.59    5.40
   6   9   4  217.77    2.92
  -6  -9  -5  148.26    4.51
   6   9   5  155.99    2.62
  -6  -9  -6    9.58    2.02
   6   9   6    9.08    1.22
  -6  -9  -7   41.92    2.99
   6   9   7   48.35    1.83
   6   9   8    1.71    1.19
  -6  -9  -8    1.47    1.91
  -6  -9  -9   19.52    2.79
   6   9   9   19.86    1.68
  -6  -9 -10  112.31    4.75
   6   9  10  114.50    3.01
   6   9  11   36.09    2.16
  -6  -9 -11   36.42    3.37
   6   9  12   27.80    2.17
  -6  -9 -12   25.88    3.35
   6   9  13   42.56    2.53
  -6  -9 -13   40.23    3.82
   6   9  14    2.23    1.84
   6   9  15   17.06    2.49
   6   9  16    7.17    2.34
   6  10  -2    7.12    2.39
  -6 -10   1   -0.10    1.32
   6  10  -1    0.41    2.51
  -6 -10   0    3.04    1.42
  -6 -10   0    2.41    2.08
   6  10   0    2.54    2.25
   6  10   1   10.85    2.51
  -6 -10  -1   13.86    2.50
  -6 -10  -2  122.13    4.50
   6  10   2  116.71    2.49
  -6 -10  -3  146.44    4.89
   6  10   3  146.71    2.71
   6  10   4    2.60    1.05
  -6 -10  -4    4.79    1.95
  -6 -10  -5    9.71    2.17
   6  10   5   11.27    1.28
   6  10   6    2.34    1.16
  -6 -10  -6    2.87    2.03
  -6 -10  -7   59.23    3.46
   6  10   7   55.93    2.06
  -6 -10  -8  298.90    6.82
   6  10   8  284.45    4.09
  -6 -10  -9  185.11    5.78
   6  10   9  180.49    3.55
   6  10  10    0.96    1.42
  -6 -10 -10   -0.57    2.44
   6  10  11   50.12    2.43
  -6 -10 -11   45.27    3.68
   6  10  12    7.78    1.82
  -6 -10 -12    5.23    2.68
   6  10  13  160.24    4.29
   6  10  14   29.01    2.64
   6  10  15   23.51    2.53
  -6 -11   0    7.91    1.61
   6  11   0    9.09    2.72
   6  11   1   36.56    3.30
   6  11   2    4.64    2.33
   6  11   3   74.48    2.32
   6  11   4    1.05    1.26
   6  11   5   46.06    1.97
  -6 -11  -6   94.66    4.33
   6  11   6  104.13    2.67
  -6 -11  -7   61.03    3.85
   6  11   7   63.66    2.33
   6  11   8    4.13    1.47
  -6 -11  -8    4.69    2.13
   6  11   9    1.40    1.47
  -6 -11  -9   -1.01    2.39
   6  11  10   63.26    2.65
  -6 -11 -10   48.28    3.91
   6  11  11   61.08    2.80
  -6 -11 -11   47.09    4.23
   6  11  12   73.14    3.11
   6  11  13   22.60    2.35
   6  11  14   15.82    2.41
   6  11  15   -0.09    2.11
  -6 -12  -1   49.14    2.48
   6  12   4   14.52    1.67
   6  12   5    2.01    1.43
   6  12   6    5.99    1.55
   6  12   7   15.57    1.78
   6  12   8   -0.68    1.52
   6  12   9   38.20    2.29
   6  12  10   15.34    1.95
   6  12  11    4.72    1.85
   6  12  12   29.38    2.49
   6  12  13    1.96    1.93
   6  12  14  110.97    3.99
  -6 -13  -2    6.76    1.84
   6  13   5   47.02    2.46
   6  13   6   25.17    2.17
   6  13   7   64.74    2.75
   6  13   8    7.51    1.75
   6  13   9   28.45    2.26
   6  13  10   32.86    2.49
   6  13  11   13.30    2.09
   6  13  12    8.80    2.11
  -7   5   1   41.96    2.22
  -7   5   1   41.74    2.36
  -7   5   0    3.12    1.59
  -7   5  -1   77.70    2.92
  -7   5  -2   16.22    2.12
  -7   4   3  102.86    2.63
  -7   4   2    3.31    1.39
  -7   4   1    3.72    1.47
  -7   4   1    4.73    1.51
  -7   4   0    7.88    1.63
  -7   4  -1   15.76    1.83
  -7   4  -2   92.31    3.01
  -7   4  -3    6.17    1.84
  -7   4  -4   17.43    2.19
  -7   3   3    8.82    1.34
  -7   3   2    5.02    1.33
  -7   3   1   92.99    2.52
  -7   3   1   82.96    2.39
  -7   3   0  251.92    3.89
  -7   3  -1  147.38    3.22
  -7   3  -2    9.45    1.66
  -7   3  -3   32.72    2.24
  -7   3  -4   14.84    2.01
  -7   3  -5   27.89    2.36
  -7   3  -6   12.71    2.23
  -7   2  12    2.64    2.03
  -7   2  11   11.36    2.03
  -7   2   3  121.40    2.54
  -7   2   2  102.72    2.41
  -7   2   1   20.72    1.56
  -7   2   1   20.79    1.34
  -7   2   0   21.20    1.59
  -7   2  -1    2.03    1.32
  -7   2  -2   29.97    1.92
  -7   2  -3  162.46    3.47
  -7   2  -4   80.88    2.80
  -7   2  -5    5.41    1.75
  -7   2  -6   16.65    2.09
  -7   2  -7    4.44    1.99
  -7   2  -8   73.41    3.39
  -7   1  12   43.72    3.27
  -7   1  11   -1.65    1.77
  -7   1  10   31.00    2.56
  -7   1   9    0.16    1.44
  -7   1   8   54.38    2.47
  -7   1   7   23.70    1.71
  -7   1   6    0.25    0.79
  -7   1   3    5.71    1.10
  -7   1   2   30.81    1.56
  -7   1   1  197.11    3.02
  -7   1   0   40.31    1.78
  -7   1  -1  185.99    3.16
  -7   1  -2   21.95    1.64
  -7   1  -3   18.24    1.63
  -7   1  -4   24.05    1.94
  -7   1  -5    5.02    1.59
  -7   1  -6  103.64    3.16
  -7   1  -7  112.06    3.42
  -7   1  -8    1.68    1.93
  -7   1  -9   10.54    2.19
   7   0 -15   56.62    3.09
   7   0 -14   60.68    2.89
  -7   0  12    0.64    2.51
  -7   0  11    7.95    2.14
  -7   0  10  144.38    4.66
  -7   0   9  191.93    4.92
  -7   0   8    5.29    1.64
  -7   0   7   13.87    1.64
  -7   0   6   75.62    2.62
  -7   0   5   27.40    1.63
  -7   0   4  510.88    4.92
  -7   0   3   25.41    1.16
  -7   0   2    4.18    1.04
  -7   0   1   23.03    1.38
  -7   0   0    7.94    1.16
  -7   0  -1   55.92    1.87
  -7   0  -2    2.01    1.13
  -7   0  -3   11.04    1.38
  -7   0  -4  133.36    2.93
  -7   0  -5  135.13    3.08
  -7   0  -6   28.03    2.03
  -7   0  -7   48.31    2.44
  -7   0  -8    2.83    1.81
  -7   0  -9   10.95    2.03
  -7   0 -10   32.50    2.65
   7   1 -15    3.29    1.95
   7   1 -14   30.30    2.49
   7   1 -13   15.60    2.11
  -7  -1  12   85.98    4.82
  -7  -1  11  114.87    4.78
  -7  -1  10    1.44    2.03
  -7  -1   9   31.63    2.69
  -7  -1   8   23.64    2.32
  -7  -1   7  201.85    4.61
  -7  -1   6  153.74    3.85
  -7  -1   5  222.92    4.22
  -7  -1   4    9.77    1.25
  -7  -1   3   18.89    1.41
  -7  -1   2  230.95    3.44
  -7  -1   1  253.52    3.11
  -7  -1   1  247.29    3.30
  -7  -1   0  133.10    2.41
  -7  -1   0  137.74    2.43
  -7  -1  -1    7.76    1.14
  -7  -1  -1    9.00    0.90
  -7  -1  -2   63.41    1.86
  -7  -1  -2   57.65    1.66
  -7  -1  -3   31.61    1.57
  -7  -1  -3   31.77    1.44
  -7  -1  -4    0.89    0.90
  -7  -1  -4    1.52    1.23
  -7  -1  -5  111.94    2.65
  -7  -1  -5  109.43    2.67
  -7  -1  -6    7.53    1.32
  -7  -1  -6    6.38    1.46
  -7  -1  -7    6.24    1.61
  -7  -1  -8   43.48    2.33
  -7  -1  -9   61.06    2.69
  -7  -1 -10   53.31    2.78
  -7  -1 -11   23.51    2.39
   7   2 -14    0.25    1.95
   7   2 -13   12.94    2.19
  -7  -2  11   35.49    3.51
  -7  -2  10    1.06    2.27
  -7  -2   9   22.28    2.62
  -7  -2   8  281.31    6.01
   7   2  -8  264.36    6.22
  -7  -2   7   77.52    3.35
   7   2  -7   77.51    3.46
  -7  -2   6   35.91    2.38
   7   2  -6   32.66    2.42
  -7  -2   5   92.83    3.14
   7   2  -5   83.54    3.08
  -7  -2   4    5.80    1.48
   7   2  -4    5.09    1.38
  -7  -2   3  448.21    5.56
   7   2  -3  441.59    5.75
  -7  -2   2  329.58    4.55
  -7  -2   1   17.31    1.38
  -7  -2   0   51.94    1.62
  -7  -2   0   54.39    1.93
  -7  -2  -1   35.10    1.43
  -7  -2  -1   33.76    1.62
  -7  -2  -2  411.72    3.93
  -7  -2  -2  403.94    4.56
  -7  -2  -3  201.64    2.89
  -7  -2  -3  199.61    3.38
  -7  -2  -4  128.65    2.50
  -7  -2  -4  124.40    2.88
  -7  -2  -5   13.13    1.34
  -7  -2  -5   13.32    1.45
  -7  -2  -6   48.06    1.96
  -7  -2  -6   50.93    2.34
  -7  -2  -7   44.87    2.03
  -7  -2  -7   44.52    2.44
  -7  -2  -8   19.17    1.75
  -7  -2  -8   17.93    2.08
  -7  -2  -9    3.79    1.76
  -7  -2  -9    3.27    1.52
  -7  -2 -10   16.44    1.93
  -7  -2 -10   15.64    2.39
  -7  -2 -11   57.64    2.77
  -7  -2 -12   -0.23    1.76
   7   3 -14    3.55    2.08
   7   3 -13   89.27    3.49
   7   3 -12   35.28    2.59
  -7  -3  11   51.89    3.93
   7   3 -11   44.36    4.04
  -7  -3  10   42.66    3.57
   7   3 -10   41.64    3.56
  -7  -3   9   27.80    2.93
   7   3  -9   26.98    3.00
  -7  -3   8   34.97    2.95
   7   3  -8   38.73    3.16
  -7  -3   7  125.04    4.19
   7   3  -7  122.68    4.40
  -7  -3   6   25.01    2.29
   7   3  -6   23.11    2.29
  -7  -3   5   34.87    2.36
   7   3  -5   31.45    2.34
  -7  -3   4   15.39    1.77
   7   3  -4   16.78    1.78
   7   3  -3    5.63    1.41
  -7  -3   3    6.31    1.44
   7   3  -2  162.41    3.77
  -7  -3   2  160.22    3.55
  -7  -3   1   11.88    1.38
  -7  -3   0  445.90    5.38
  -7  -3  -1  697.89    4.79
  -7  -3  -1  711.16    6.54
  -7  -3  -1  694.93    5.70
  -7  -3  -2    1.05    1.02
  -7  -3  -2    0.93    0.87
  -7  -3  -2    2.13    0.89
  -7  -3  -3    0.58    1.03
  -7  -3  -3    1.28    0.92
  -7  -3  -3    2.20    0.89
  -7  -3  -4   52.05    1.69
  -7  -3  -4   49.53    2.19
  -7  -3  -5   30.92    1.49
  -7  -3  -5   32.47    1.93
  -7  -3  -6  268.06    3.53
  -7  -3  -6  285.40    4.96
  -7  -3  -7  136.07    2.73
  -7  -3  -7  137.48    3.82
  -7  -3  -8    5.92    1.69
  -7  -3  -8    5.67    1.32
  -7  -3  -9   41.07    2.06
  -7  -3  -9   38.92    2.73
  -7  -3 -10    4.35    1.99
  -7  -3 -10    5.39    1.59
  -7  -3 -11   81.97    2.83
  -7  -3 -11   71.04    3.94
  -7  -3 -12   80.95    3.03
  -7  -3 -13    9.25    1.96
   7   4 -13    1.11    2.05
   7   4 -12    3.29    2.06
   7   4 -11   15.86    2.18
   7   4 -11   12.08    3.23
  -7  -4  10   45.17    3.90
   7   4 -10   44.20    3.81
  -7  -4   9   34.84    3.27
   7   4  -9   30.87    3.33
  -7  -4   8    0.04    2.18
   7   4  -8    1.38    2.11
  -7  -4   7   58.96    3.41
   7   4  -7   57.77    3.53
   7   4  -6    4.32    1.89
  -7  -4   6    4.84    1.87
  -7  -4   5   22.69    2.27
   7   4  -5   20.91    2.17
  -7  -4   4  150.63    4.08
   7   4  -4  146.45    4.17
   7   4  -3  104.66    3.42
  -7  -4   3  101.23    3.29
  -7  -4   3   94.09    2.36
   7   4  -2  218.87    4.55
  -7  -4   2  209.96    4.35
  -7  -4   2  208.10    3.31
  -7  -4   1  323.22    5.04
  -7  -4   1  298.81    3.88
  -7  -4   0   11.62    1.44
  -7  -4   0   11.77    1.19
  -7  -4  -1  180.43    3.68
  -7  -4  -1  180.13    3.01
  -7  -4  -2  247.54    2.95
  -7  -4  -2  245.26    4.22
  -7  -4  -2  243.35    3.43
  -7  -4  -3   98.24    2.28
  -7  -4  -3   91.79    1.90
  -7  -4  -3   91.37    2.77
  -7  -4  -4  483.35    4.13
  -7  -4  -4  503.06    6.07
  -7  -4  -4  486.10    4.67
  -7  -4  -5  121.49    2.23
  -7  -4  -5  118.84    3.33
  -7  -4  -5  119.64    2.39
  -7  -4  -6   30.89    1.42
  -7  -4  -6   30.51    2.17
  -7  -4  -6   29.37    1.38
  -7  -4  -7   44.18    1.69
  -7  -4  -7   45.01    2.74
  -7  -4  -8   30.74    1.60
  -7  -4  -8   31.07    2.53
  -7  -4  -9  164.67    3.11
  -7  -4  -9  173.99    4.86
  -7  -4 -10  122.53    2.88
  -7  -4 -10  126.88    4.52
  -7  -4 -11    6.22    2.41
  -7  -4 -11    4.93    1.43
  -7  -4 -12    0.41    1.51
  -7  -4 -13   12.61    1.82
   7   5 -12   97.69    3.71
   7   5 -11  115.82    3.73
  -7  -5  10    1.74    2.87
   7   5 -10    3.41    1.90
   7   5 -10    1.13    2.48
  -7  -5   9   10.70    2.67
   7   5  -9   11.21    2.88
  -7  -5   8   10.05    2.77
   7   5  -8    7.47    2.61
  -7  -5   7  186.14    5.51
   7   5  -7  191.78    5.79
  -7  -5   6  124.94    4.51
   7   5  -6  113.96    4.44
  -7  -5   5    6.34    1.97
   7   5  -5    7.47    2.08
  -7  -5   4   23.86    2.29
  -7  -5   4   20.87    1.51
   7   5  -4   22.15    2.34
   7   5  -3  251.43    5.41
  -7  -5   3  259.56    5.27
  -7  -5   3  240.90    3.60
   7   5  -2    2.04    1.54
  -7  -5   2    3.60    1.54
  -7  -5   2    1.79    1.05
  -7  -5   1  321.03    5.41
  -7  -5   1  314.25    3.98
  -7  -5   0   89.47    3.00
  -7  -5   0   90.95    2.30
  -7  -5  -1    1.50    1.27
  -7  -5  -1    1.75    1.03
  -7  -5  -2  171.53    3.80
  -7  -5  -2  150.74    2.83
  -7  -5  -3   32.45    2.12
  -7  -5  -3   37.29    1.66
  -7  -5  -4  217.12    2.72
  -7  -5  -4  220.34    4.39
  -7  -5  -4  211.95    3.32
   7   5   4  212.14    2.31
  -7  -5  -5   69.19    1.70
  -7  -5  -5   64.50    2.76
   7   5   5   67.21    1.59
  -7  -5  -5   67.16    2.05
  -7  -5  -6   73.05    1.83
  -7  -5  -6   72.60    2.94
  -7  -5  -6   71.20    2.01
  -7  -5  -7  121.24    2.30
  -7  -5  -7  127.85    3.94
  -7  -5  -7  122.93    2.52
  -7  -5  -8  135.72    2.53
  -7  -5  -8  138.05    2.60
  -7  -5  -9    9.79    1.23
  -7  -5  -9    9.42    2.16
  -7  -5 -10  129.99    2.70
  -7  -5 -10  137.04    4.73
  -7  -5 -11   15.10    1.54
  -7  -5 -11   17.63    2.62
  -7  -5 -12  119.50    5.16
   7   6 -11    1.90    2.10
   7   6 -10   13.04    2.27
   7   6  -9   64.04    2.88
  -7  -6   9   63.77    4.30
   7   6  -9   65.89    4.36
   7   6  -8  129.40    3.50
  -7  -6   8  130.85    5.53
   7   6  -8  138.93    5.80
   7   6  -7   17.92    3.10
  -7  -6   7   15.78    2.82
  -7  -6   6   20.09    2.66
   7   6  -6   22.21    2.97
  -7  -6   5    2.17    2.07
   7   6  -5    4.49    2.22
  -7  -6   5    2.89    1.18
  -7  -6   4   97.30    3.89
  -7  -6   4  100.03    2.53
   7   6  -4   94.07    3.98
   7   6  -3  153.89    4.63
  -7  -6   3  155.99    3.02
  -7  -6   3  163.04    4.58
   7   6  -2  125.02    4.08
  -7  -6   2  127.41    4.01
  -7  -6   2  122.46    2.70
  -7  -6   1    1.50    1.07
  -7  -6   0   28.78    2.21
  -7  -6   0   26.90    1.59
  -7  -6  -1    2.54    1.14
  -7  -6  -1    5.13    1.59
  -7  -6  -2  296.70    5.19
  -7  -6  -2  302.61    3.99
  -7  -6  -3  476.40    6.47
  -7  -6  -3  451.32    4.80
  -7  -6  -4    0.01    1.01
   7   6   4    0.35    0.63
  -7  -6  -4   -0.67    1.48
  -7  -6  -5  435.00    3.66
  -7  -6  -5  430.25    6.42
   7   6   5  428.01    3.51
  -7  -6  -5  426.37    4.73
  -7  -6  -6  254.18    2.93
  -7  -6  -6  249.29    5.13
   7   6   6  257.60    3.04
  -7  -6  -6  249.18    3.68
  -7  -6  -7    9.50    0.98
  -7  -6  -7    9.87    1.99
   7   6   7    9.89    1.18
  -7  -6  -7    8.99    1.18
   7   6   8  171.84    2.97
  -7  -6  -8  178.16    2.67
  -7  -6  -8  171.67    3.07
  -7  -6  -8  184.36    4.94
  -7  -6  -9   21.30    1.30
  -7  -6  -9   21.67    2.66
   7   6   9   22.36    1.68
  -7  -6  -9   21.09    1.42
  -7  -6 -10  105.00    4.50
   7   6  10  101.69    2.86
  -7  -6 -11   57.12    3.81
   7   6  11   61.24    2.60
   7   6  12    4.84    1.79
  -7  -6 -12    3.87    2.59
   7   6  13   47.89    2.81
   7   6  14   19.33    2.31
   7   6  15   19.31    2.55
   7   7 -10    6.25    2.14
   7   7  -9    3.00    1.98
   7   7  -8   85.78    3.17
  -7  -7   8   84.21    4.91
   7   7  -7    5.53    2.70
   7   7  -7    5.65    1.76
  -7  -7   7    5.85    3.00
   7   7  -6  172.23    3.66
  -7  -7   6  165.33    5.77
   7   7  -6  160.78    5.75
  -7  -7   5  234.51    6.28
   7   7  -5  238.28    6.55
  -7  -7   5  229.90    3.72
  -7  -7   4   30.61    2.91
  -7  -7   4   26.53    1.65
   7   7  -4   27.21    2.99
   7   7  -3   12.43    2.27
  -7  -7   3   10.81    2.15
  -7  -7   3   12.58    1.40
   7   7  -2    7.63    2.00
  -7  -7   2   10.12    2.05
  -7  -7   2    8.30    1.32
   7   7  -1   44.59    2.90
  -7  -7   1   42.45    2.80
  -7  -7   1   42.97    1.94
  -7  -7   0  417.55    6.74
  -7  -7   0  403.97    4.75
  -7  -7  -1  470.23    6.98
  -7  -7  -1  464.80    5.05
  -7  -7  -2    1.71    1.17
  -7  -7  -2    1.05    1.59
  -7  -7  -3   64.85    2.98
  -7  -7  -3   67.16    2.16
  -7  -7  -4   14.96    1.99
   7   7   4   14.77    0.92
  -7  -7  -4   15.86    1.45
  -7  -7  -5   90.77    3.48
   7   7   5   94.16    1.84
  -7  -7  -5   90.36    2.47
  -7  -7  -6  136.74    4.13
   7   7   6  126.28    2.22
  -7  -7  -6  126.43    2.82
  -7  -7  -7   43.96    2.87
   7   7   7   42.54    1.59
  -7  -7  -7   43.26    1.91
  -7  -7  -8   44.14    3.03
   7   7   8   48.69    1.84
  -7  -7  -8   47.57    1.97
  -7  -7  -9   86.85    4.07
   7   7   9   89.97    2.50
  -7  -7  -9   87.95    2.48
  -7  -7 -10   11.49    2.59
  -7  -7 -10   11.78    1.36
   7   7  10   13.75    1.67
  -7  -7 -11   92.75    4.59
   7   7  11   91.91    2.90
  -7  -7 -12   20.97    3.12
   7   7  12   23.71    2.17
   7   7  13    6.40    1.96
   7   7  14  127.83    3.99
   7   7  15   12.38    2.37
   7   8  -9   32.18    2.64
   7   8  -8   23.75    2.39
   7   8  -7   67.80    2.89
   7   8  -6   -2.11    2.58
   7   8  -6   -0.07    1.66
  -7  -8   6    1.00    2.52
   7   8  -5   22.62    1.98
  -7  -8   5   21.40    3.13
   7   8  -5   25.63    3.20
   7   8  -4   24.32    1.87
  -7  -8   4   25.61    3.03
   7   8  -4   22.28    3.01
  -7  -8   4   26.45    1.73
  -7  -8   3   47.42    3.25
  -7  -8   3   40.41    1.99
   7   8  -3   47.48    3.52
   7   8  -2  177.37    5.36
  -7  -8   2  183.02    5.32
  -7  -8   2  179.82    3.45
  -7  -8   1    1.52    1.23
   7   8  -1    1.95    2.02
  -7  -8   1    1.60    1.83
  -7  -8   0   17.91    2.36
  -7  -8   0   19.27    1.62
  -7  -8  -1    7.62    1.41
  -7  -8  -1    6.05    1.88
  -7  -8  -2   -0.14    1.23
  -7  -8  -2    1.22    1.83
  -7  -8  -3  282.25    5.72
  -7  -8  -3  285.25    4.20
  -7  -8  -4  437.56    7.06
   7   8   4  427.80    3.58
  -7  -8  -4  436.53    5.12
  -7  -8  -5   80.52    3.48
   7   8   5   77.65    1.78
  -7  -8  -6   12.67    2.16
   7   8   6   14.11    1.15
   7   8   7    0.97    1.03
  -7  -8  -7    1.55    2.01
  -7  -8  -8  141.22    4.69
   7   8   8  141.83    2.78
  -7  -8  -9  249.80    6.29
   7   8   9  253.18    3.75
  -7  -8 -10   93.92    4.48
   7   8  10   89.35    2.67
  -7  -8 -10   86.30    2.64
  -7  -8 -11   20.29    3.18
   7   8  11   20.57    1.91
  -7  -8 -11   21.82    1.69
  -7  -8 -12  104.83    4.94
   7   8  12   99.05    3.15
   7   8  13   12.78    2.09
   7   8  14   48.29    2.98
   7   8  15   76.48    3.51
   7   9  -8    4.47    1.97
   7   9  -7   53.82    2.81
   7   9  -6    3.37    1.69
   7   9  -5   12.95    1.85
  -7  -9   5   11.07    2.94
   7   9  -4   68.33    2.62
  -7  -9   4   73.47    4.40
   7   9  -4   66.63    4.37
   7   9  -3   14.34    1.64
  -7  -9   3   12.87    2.85
   7   9  -3   13.24    2.90
  -7  -9   3   12.48    1.60
   7   9  -2  241.34    3.85
  -7  -9   2  246.23    6.44
  -7  -9   2  243.97    4.11
   7   9  -2  249.55    6.60
  -7  -9   1  177.28    5.42
  -7  -9   1  169.37    3.49
  -7  -9   0    5.58    1.42
   7   9   0    7.06    2.44
  -7  -9   0    7.70    2.24
  -7  -9  -1   83.98    3.84
  -7  -9  -1   75.31    2.57
  -7  -9  -2  129.88    4.40
  -7  -9  -2  127.67    3.12
  -7  -9  -3    5.53    1.93
  -7  -9  -4  103.94    3.97
  -7  -9  -5    7.82    2.06
   7   9   5    5.37    1.00
  -7  -9  -6  257.43    6.06
   7   9   6  242.89    3.27
  -7  -9  -7  251.34    6.15
   7   9   7  245.23    3.43
  -7  -9  -8   15.36    2.61
   7   9   8   17.31    1.50
   7   9   9    2.93    1.36
  -7  -9  -9    1.91    2.10
   7   9  10    3.07    1.42
  -7  -9 -10    4.40    2.50
   7   9  11    0.81    1.45
  -7  -9 -11   -0.06    2.28
  -7  -9 -12  118.40    5.53
   7   9  12  116.16    3.45
   7   9  13   55.55    2.82
   7   9  14    0.58    1.91
   7   9  15    4.48    2.10
   7  10  -6   18.84    2.13
   7  10  -5    1.49    1.62
  -7 -10   2   11.10    1.70
  -7 -10   2    8.05    2.63
   7  10  -2   14.30    2.87
   7  10  -1   65.61    4.16
  -7 -10   1   68.05    4.08
  -7 -10   1   66.77    2.57
  -7 -10   0    0.38    1.44
   7  10   0    0.17    2.24
  -7 -10   0    0.04    2.11
   7  10   1   13.34    2.82
  -7 -10  -1   14.18    2.57
  -7 -10  -1   14.29    1.76
  -7 -10  -2   92.76    4.14
  -7 -10  -2   87.16    2.91
  -7 -10  -3    7.19    2.24
  -7 -10  -4   75.17    3.82
   7  10   5   21.02    1.43
  -7 -10  -5   17.23    2.59
  -7 -10  -6    1.97    2.19
   7  10   6    1.24    1.11
  -7 -10  -7   82.60    4.12
   7  10   7   86.64    2.33
  -7 -10  -8   39.78    3.53
   7  10   8   40.33    1.98
  -7 -10  -9  101.45    4.78
   7  10   9  100.64    2.78
  -7 -10 -10   82.88    4.65
   7  10  10   77.50    2.65
  -7 -10 -11   31.53    3.45
   7  10  11   33.57    2.19
   7  10  12    0.84    1.68
   7  10  13   20.08    2.33
   7  10  14    0.41    1.88
   7  10  15   61.61    3.40
  -7 -11   1   42.37    2.35
  -7 -11   0   74.19    2.82
  -7 -11  -1    6.49    1.67
   7  11   1    6.41    2.73
   7  11   2   69.15    4.18
  -7 -11  -2   72.25    2.89
  -7 -11  -3   50.69    3.69
  -7 -11  -4  127.66    5.00
  -7 -11  -5  150.52    5.47
  -7 -11  -6   36.52    3.37
   7  11   6   37.95    1.89
  -7 -11  -7    5.11    2.27
   7  11   7    2.24    1.30
  -7 -11  -8  222.93    6.62
   7  11   8  207.34    3.69
   7  11   9    2.37    1.53
  -7 -11  -9    1.65    2.46
  -7 -11 -10   48.22    4.02
   7  11  10   49.96    2.48
   7  11  11    0.75    1.63
   7  11  12    0.62    1.69
   7  11  13   26.15    2.43
   7  11  14   11.58    2.17
  -7 -12   0   15.48    2.04
  -7 -12  -1    2.87    1.72
  -7 -12  -2   43.80    2.59
   7  12   7    0.96    1.33
   7  12   8   59.61    2.51
   7  12   9   20.26    1.93
   7  12  10   37.37    2.35
   7  12  11   24.81    2.26
   7  12  12   11.72    2.11
   7  12  13   10.05    2.22
  -7 -13  -2    4.47    1.85
  -7 -13  -3    0.37    1.81
   7  13   9   19.39    2.06
   7  13  10    0.03    1.64
   7  13  11   26.22    2.46
  -8   4   3    0.68    1.45
  -8   4   2   34.13    2.12
  -8   4   1    8.83    1.72
  -8   4   0   11.06    1.79
  -8   4  -1    7.92    1.90
  -8   4  -2    2.45    1.77
  -8   3   3  102.74    2.83
  -8   3   2    8.21    1.59
  -8   3   1   15.65    1.78
  -8   3   0   16.12    1.86
  -8   3  -1    1.26    1.60
  -8   3  -2   84.85    3.03
  -8   3  -3   56.33    2.77
  -8   3  -4    5.22    1.95
  -8   2   2   51.44    2.14
  -8   2   1   33.66    1.99
  -8   2   0  139.11    3.17
  -8   2  -1    7.38    1.71
  -8   2  -2   49.93    2.41
  -8   2  -3    4.94    1.77
  -8   2  -4    5.00    1.88
  -8   2  -5   14.79    2.20
  -8   2  -6   43.16    2.82
  -8   1   2   87.14    2.43
  -8   1   1    0.14    1.31
  -8   1   0  153.96    3.17
  -8   1  -1  101.94    2.80
  -8   1  -2    0.52    1.41
  -8   1  -3   24.00    1.93
  -8   1  -4   20.03    2.03
  -8   1  -5    0.69    1.76
  -8   1  -6   54.25    2.88
  -8   1  -7    7.77    2.16
  -8   0  11    1.25    2.05
  -8   0  10  100.98    4.13
  -8   0   9   -0.15    1.73
  -8   0   8   63.89    2.95
  -8   0   7  157.72    3.83
  -8   0   6   79.48    2.62
  -8   0   2  325.20    4.03
  -8   0   1  379.06    4.32
  -8   0   0   10.46    1.41
  -8   0  -1   36.67    1.89
  -8   0  -2    0.66    1.33
  -8   0  -3  178.77    3.42
  -8   0  -4  188.14    3.70
  -8   0  -5    0.18    1.55
  -8   0  -6   31.71    2.27
  -8   0  -7   15.22    2.13
  -8   0  -8    0.92    1.89
  -8   0  -9    9.90    2.15
   8   1 -14   16.23    2.27
  -8  -1  11   24.41    3.05
  -8  -1  10   32.69    2.99
  -8  -1   9   34.92    2.88
  -8  -1   8    1.58    1.68
  -8  -1   7   67.73    3.09
  -8  -1   6   73.41    2.94
  -8  -1   5   28.15    1.98
  -8  -1   4  184.14    3.67
  -8  -1   3  113.35    2.71
  -8  -1   2    0.73    0.87
  -8  -1   1   52.01    1.89
  -8  -1   0   17.08    1.46
  -8  -1  -1  179.90    3.10
  -8  -1  -2  178.66    3.17
  -8  -1  -3   39.75    1.96
  -8  -1  -4   35.30    1.96
  -8  -1  -5   12.52    1.70
  -8  -1  -6  101.83    2.99
  -8  -1  -7  162.46    3.73
  -8  -1  -8   79.33    3.00
  -8  -1  -9    1.78    1.85
  -8  -1 -10   44.00    2.79
   8   2 -14   28.22    2.62
   8   2 -13    6.05    2.09
  -8  -2  11    1.00    2.41
  -8  -2  10   43.26    3.38
  -8  -2   9   78.65    3.97
  -8  -2   8   69.53    3.52
  -8  -2   7   14.04    2.09
  -8  -2   6  181.56    4.54
  -8  -2   5    0.76    1.45
  -8  -2   4   30.47    2.02
  -8  -2   3    4.92    1.30
  -8  -2   2   17.16    1.58
  -8  -2   1  108.68    2.80
  -8  -2   0  353.88    3.93
  -8  -2   0  350.30    4.57
  -8  -2  -1    2.45    1.16
  -8  -2  -1    3.81    1.05
  -8  -2  -2  276.53    3.65
  -8  -2  -2  278.17    3.97
  -8  -2  -3   56.76    2.03
  -8  -2  -3   55.26    2.05
  -8  -2  -4   53.43    2.05
  -8  -2  -4   44.83    2.00
  -8  -2  -5  235.71    3.68
  -8  -2  -5  240.28    4.14
  -8  -2  -6   93.47    2.72
  -8  -2  -6   89.26    2.89
  -8  -2  -7    0.99    1.48
  -8  -2  -8   -0.86    1.60
  -8  -2  -9   19.88    2.11
  -8  -2 -10  114.75    3.53
  -8  -2 -11   50.19    2.88
   8   3 -13    0.76    2.04
  -8  -3  10   38.84    3.67
  -8  -3   9    0.19    2.15
  -8  -3   8   42.95    3.27
  -8  -3   7    0.22    1.92
  -8  -3   6  310.27    6.13
  -8  -3   5  155.64    4.30
  -8  -3   4   18.22    1.92
  -8  -3   3   68.46    2.81
  -8  -3   2   29.78    1.97
  -8  -3   1   32.68    2.02
  -8  -3  -1    8.95    1.18
  -8  -3  -1    9.43    1.38
  -8  -3  -2   40.40    1.69
  -8  -3  -2   39.79    2.02
  -8  -3  -3   72.38    2.09
  -8  -3  -3   71.33    2.52
  -8  -3  -4    2.37    1.22
  -8  -3  -4    2.60    1.14
  -8  -3  -5   17.34    1.48
  -8  -3  -5   16.37    1.76
  -8  -3  -6   31.55    1.75
  -8  -3  -6   32.10    2.19
  -8  -3  -7   22.27    1.72
  -8  -3  -7   21.09    2.13
  -8  -3  -8  158.37    3.37
  -8  -3  -8  152.60    4.25
  -8  -3  -9   57.88    2.48
  -8  -3  -9   53.68    3.12
  -8  -3 -10   -0.09    1.58
  -8  -3 -11   33.38    2.37
  -8  -3 -12    3.63    1.79
   8   4 -13   32.98    2.81
   8   4 -12   16.44    2.42
  -8  -4  10   26.89    3.59
   8   4 -10   16.77    3.33
  -8  -4   9   15.14    2.80
   8   4  -9    8.30    2.79
  -8  -4   8  139.24    5.12
   8   4  -8  119.60    5.12
  -8  -4   7  137.70    4.88
   8   4  -7  131.61    5.13
   8   4  -6    0.25    1.90
  -8  -4   6    0.29    1.89
  -8  -4   5    3.56    1.83
   8   4  -5    2.91    1.78
  -8  -4   4   96.82    3.56
   8   4  -4   86.26    3.60
   8   4  -3  190.87    4.75
  -8  -4   3  193.83    4.52
   8   4  -2  350.22    6.05
  -8  -4   2  350.24    5.76
  -8  -4   1    1.82    1.45
  -8  -4   0   81.68    2.39
  -8  -4   0   81.68    2.85
  -8  -4  -1   21.08    1.83
  -8  -4  -1   21.49    1.55
  -8  -4  -2   32.06    1.50
  -8  -4  -2   32.26    2.07
  -8  -4  -2   33.42    1.71
  -8  -4  -3  130.30    2.49
  -8  -4  -3  135.62    3.55
  -8  -4  -3  127.43    2.81
  -8  -4  -4  161.88    2.76
  -8  -4  -4  156.59    3.77
  -8  -4  -4  154.93    3.01
  -8  -4  -5   42.09    1.71
  -8  -4  -5   42.00    2.40
  -8  -4  -5   42.04    1.76
  -8  -4  -6   96.53    2.38
  -8  -4  -6   93.86    3.35
  -8  -4  -7   13.27    1.42
  -8  -4  -7   16.29    2.01
  -8  -4  -8    6.39    1.82
  -8  -4  -8    7.75    1.41
  -8  -4  -9   36.35    2.01
  -8  -4  -9   34.28    2.85
  -8  -4 -10   21.96    1.86
  -8  -4 -10   20.05    2.77
  -8  -4 -11   43.23    2.37
  -8  -4 -12   88.06    3.04
   8   5 -12   24.72    2.75
   8   5 -11    0.17    2.06
  -8  -5   9    2.93    2.60
   8   5  -9    3.69    2.55
  -8  -5   8    0.64    2.48
   8   5  -8   -0.20    2.61
  -8  -5   7   47.97    3.55
   8   5  -7   47.29    3.64
   8   5  -6   -0.13    2.10
  -8  -5   6    1.10    2.06
  -8  -5   5  377.36    7.06
   8   5  -5  350.84    7.23
  -8  -5   4  426.41    7.15
   8   5  -4  432.60    7.55
   8   5  -3  100.99    3.92
  -8  -5   3  102.33    3.74
  -8  -5   3  100.31    2.70
   8   5  -2   65.26    3.13
  -8  -5   2   69.20    3.08
  -8  -5   2   66.41    2.27
  -8  -5   1   17.06    1.93
  -8  -5   1   17.10    1.56
  -8  -5   0  326.60    5.51
  -8  -5   0  302.59    4.25
  -8  -5  -1   89.09    3.09
  -8  -5  -1   83.13    2.43
  -8  -5  -2   51.29    2.51
  -8  -5  -2   48.28    1.96
  -8  -5  -3   15.29    1.86
  -8  -5  -3   18.79    1.49
  -8  -5  -4   48.88    1.73
  -8  -5  -4   52.31    2.58
  -8  -5  -4   47.94    1.94
  -8  -5  -5   31.60    1.49
  -8  -5  -5   31.74    2.34
  -8  -5  -5   33.44    1.68
  -8  -5  -6  141.95    2.63
  -8  -5  -6  145.59    4.09
  -8  -5  -6  140.46    2.83
  -8  -5  -7   56.59    1.96
  -8  -5  -7   55.75    3.06
  -8  -5  -7   54.00    1.93
  -8  -5  -8    3.49    1.98
  -8  -5  -8    2.38    1.14
  -8  -5  -9   24.69    1.65
  -8  -5  -9   28.17    2.65
  -8  -5 -10   21.47    1.71
  -8  -5 -10   21.69    2.87
  -8  -5 -11    4.68    1.40
   8   6 -11    3.34    2.18
   8   6 -10   14.07    2.32
   8   6  -9   31.93    2.56
  -8  -6   8    6.25    2.73
   8   6  -8    8.57    2.97
   8   6  -7    8.21    2.68
  -8  -6   7    9.29    2.79
  -8  -6   6   89.80    4.38
   8   6  -6   82.69    4.38
  -8  -6   5    3.78    2.16
   8   6  -5    6.21    2.19
  -8  -6   4   55.35    3.28
  -8  -6   4   56.69    2.24
   8   6  -4   60.49    3.56
   8   6  -3    1.18    1.85
  -8  -6   3    0.68    1.85
  -8  -6   3    0.12    1.18
   8   6  -2   19.08    2.32
  -8  -6   2   21.31    2.22
  -8  -6   2   19.23    1.60
  -8  -6   1  196.87    4.83
  -8  -6   1  185.28    3.47
  -8  -6   0   52.03    2.84
  -8  -6   0   53.85    2.09
  -8  -6  -1    6.97    1.78
  -8  -6  -1    7.89    1.35
  -8  -6  -2    1.76    1.61
  -8  -6  -2    2.84    1.22
  -8  -6  -3   33.60    2.41
  -8  -6  -3   36.06    1.82
  -8  -6  -4  454.80    6.81
  -8  -6  -4  449.62    5.14
  -8  -6  -5  179.69    2.76
  -8  -6  -5  181.76    4.57
  -8  -6  -5  178.42    3.41
  -8  -6  -6   16.95    1.28
  -8  -6  -6   15.88    2.19
  -8  -6  -6   19.17    1.52
   8   6   7    1.73    1.05
  -8  -6  -7    1.16    1.75
  -8  -6  -7    1.28    1.04
  -8  -6  -7    1.60    1.11
  -8  -6  -8   21.48    1.38
  -8  -6  -8   21.26    2.53
   8   6   8   19.04    1.54
  -8  -6  -8   18.96    1.45
  -8  -6  -9   70.69    2.16
  -8  -6  -9   77.58    3.87
   8   6   9   69.87    2.36
  -8  -6 -10  111.09    4.60
   8   6  10  105.30    2.98
   8   6  11    7.17    1.76
  -8  -6 -11    8.83    2.75
   8   6  12    2.63    1.75
   8   6  13   62.36    3.15
   8   6  14    8.28    2.09
   8   7 -10    0.74    2.07
   8   7  -9    7.66    2.15
   8   7  -8    2.69    1.89
   8   7  -7    3.86    2.71
  -8  -7   7    6.39    2.69
  -8  -7   6   65.06    4.19
   8   7  -6   55.36    4.14
  -8  -7   5  107.44    4.77
   8   7  -5  100.86    4.74
  -8  -7   5  104.66    2.88
  -8  -7   4    3.33    2.39
   8   7  -4    3.70    2.31
  -8  -7   4    6.06    1.41
   8   7  -3   90.27    4.25
  -8  -7   3   95.53    2.74
   8   7  -2   22.84    2.55
  -8  -7   2   21.24    2.46
  -8  -7   2   21.85    1.70
   8   7  -1   77.72    3.80
  -8  -7   1   78.01    3.61
  -8  -7   1   73.10    2.46
  -8  -7   0   98.44    3.79
  -8  -7   0   97.34    2.77
  -8  -7  -1   53.71    2.94
  -8  -7  -1   48.98    2.12
  -8  -7  -2  177.62    4.62
  -8  -7  -2  173.17    3.44
  -8  -7  -3  162.37    4.45
  -8  -7  -3  176.64    3.48
  -8  -7  -4    0.41    1.21
  -8  -7  -4    0.56    1.74
  -8  -7  -5   91.15    3.65
  -8  -7  -5   86.11    2.63
  -8  -7  -6    0.62    1.23
  -8  -7  -6    0.53    1.89
  -8  -7  -7   44.07    1.59
  -8  -7  -7   47.33    3.09
   8   7   7   44.38    1.70
  -8  -7  -7   45.72    2.06
  -8  -7  -8  255.63    6.05
   8   7   8  251.28    3.56
  -8  -7  -8  242.14    3.96
  -8  -7  -9   40.93    3.30
   8   7   9   38.86    1.97
  -8  -7  -9   35.31    1.87
   8   7  10    9.77    1.60
  -8  -7 -10   11.40    2.65
  -8  -7 -11   61.18    3.97
   8   7  11   57.15    2.57
   8   7  12   23.87    2.23
   8   7  13   18.51    2.24
   8   7  14   51.05    3.06
   8   8  -9   20.10    2.42
   8   8  -8  121.62    3.90
   8   8  -7   11.55    2.10
   8   8  -6   -1.51    2.99
   8   8  -6   -0.14    1.72
  -8  -8   6   -0.10    2.79
   8   8  -5    1.39    2.41
  -8  -8   5    3.76    2.62
  -8  -8   5    1.58    1.34
  -8  -8   4    2.00    2.28
   8   8  -4    1.39    2.45
  -8  -8   4    3.58    1.37
  -8  -8   3   42.24    3.31
  -8  -8   3   36.63    2.07
   8   8  -3   40.59    3.54
   8   8  -2   71.72    4.07
  -8  -8   2   77.85    4.03
  -8  -8   2   75.43    2.59
  -8  -8   1    0.98    2.10
   8   8  -1   -0.17    2.04
  -8  -8   1    0.46    1.35
  -8  -8   0  108.52    4.19
  -8  -8   0  105.52    2.95
  -8  -8  -1   28.91    2.62
  -8  -8  -1   28.64    1.90
  -8  -8  -2    0.89    1.35
  -8  -8  -2    0.57    1.74
  -8  -8  -3   51.08    3.07
  -8  -8  -3   47.10    2.20
  -8  -8  -4   92.19    3.81
  -8  -8  -4   94.36    2.80
  -8  -8  -5   53.20    3.20
  -8  -8  -5   51.82    2.29
  -8  -8  -6   55.75    3.35
  -8  -8  -6   56.06    2.33
  -8  -8  -7    3.44    1.43
  -8  -8  -7    2.47    2.09
  -8  -8  -8   14.19    2.65
   8   8   8   15.85    1.42
  -8  -8  -8   15.62    1.68
  -8  -8  -9   22.12    2.87
   8   8   9   20.19    1.65
  -8  -8  -9   22.11    1.83
  -8  -8 -10   67.08    4.20
   8   8  10   67.63    2.47
  -8  -8 -10   58.83    2.48
  -8  -8 -11  195.30    6.54
   8   8  11  187.02    3.85
   8   8  12   86.03    3.16
   8   8  13    2.07    1.86
   8   8  14   31.76    2.63
   8   9  -8    0.93    1.93
   8   9  -7    2.59    1.89
   8   9  -6   22.71    2.24
   8   9  -5   16.49    1.97
   8   9  -4  109.52    3.16
  -8  -9   4  100.18    5.13
   8   9  -4  108.53    5.31
  -8  -9   4  101.64    2.98
   8   9  -3   11.41    3.10
  -8  -9   3   10.93    2.72
  -8  -9   3   13.55    1.76
   8   9  -2   16.32    2.99
  -8  -9   2   17.19    2.85
  -8  -9   2   16.21    1.83
  -8  -9   1   -0.11    1.49
   8   9  -1    1.40    2.27
  -8  -9   1   -1.03    2.20
   8   9   0   56.80    3.75
  -8  -9   0   60.95    3.68
  -8  -9   0   55.67    2.46
  -8  -9  -1  141.21    4.90
  -8  -9  -1  150.59    3.51
  -8  -9  -2   11.81    1.74
  -8  -9  -2   13.17    2.41
  -8  -9  -3   25.37    2.71
  -8  -9  -3   21.88    1.95
  -8  -9  -4   99.15    4.14
  -8  -9  -4   93.54    2.92
  -8  -9  -5    4.28    1.58
  -8  -9  -5    4.11    2.02
  -8  -9  -6  182.67    5.41
  -8  -9  -6  181.88    3.85
  -8  -9  -7   86.32    4.17
  -8  -9  -7   91.38    2.94
  -8  -9  -8   15.11    2.69
  -8  -9  -8   14.69    1.81
  -8  -9  -9  173.14    5.68
   8   9   9  159.98    3.23
  -8  -9  -9  166.14    3.77
  -8  -9 -10   25.75    3.18
   8   9  10   24.45    1.85
  -8  -9 -10   24.29    2.00
   8   9  11   32.72    2.13
  -8  -9 -11   31.83    2.12
   8   9  12   11.15    1.83
   8   9  13    1.88    1.78
   8   9  14   22.33    2.40
   8  10  -6    5.27    1.81
   8  10  -5    0.99    1.63
   8  10  -4   13.28    1.86
  -8 -10   3    8.82    2.96
  -8 -10   3    9.44    1.65
  -8 -10   2  138.32    5.69
  -8 -10   2  133.99    3.55
   8  10  -2  129.66    5.70
   8  10  -1  132.29    5.45
  -8 -10   1  125.56    5.19
  -8 -10   1  126.88    3.46
   8  10   0  134.07    5.47
  -8 -10   0  128.64    5.08
  -8 -10   0  134.45    3.51
   8  10   1    0.70    2.34
  -8 -10  -1    0.10    1.63
  -8 -10  -2   31.30    3.23
  -8 -10  -2   33.47    2.23
  -8 -10  -3   42.18    3.43
  -8 -10  -3   40.64    2.34
  -8 -10  -4   59.19    3.74
  -8 -10  -4   60.71    2.67
  -8 -10  -5   14.83    1.94
  -8 -10  -5   13.65    2.62
  -8 -10  -6    4.55    1.68
  -8 -10  -6    3.67    2.30
  -8 -10  -7   28.50    3.10
  -8 -10  -7   29.88    2.27
  -8 -10  -8   25.58    3.06
  -8 -10  -9   47.92    3.88
   8  10   9   43.64    2.14
  -8 -10  -9   48.76    2.60
  -8 -10 -10  114.06    5.16
   8  10  10  108.50    3.10
  -8 -10 -10  119.34    3.47
  -8 -10 -11    0.50    1.57
   8  10  11   -0.61    1.61
   8  10  12   42.76    2.50
   8  10  13   29.64    2.47
   8  10  14    0.44    1.99
  -8 -11   2    4.47    1.64
  -8 -11   1    1.76    1.62
  -8 -11   0    1.29    1.62
  -8 -11   0   -0.93    2.73
   8  11   1   27.31    3.40
  -8 -11  -1   22.92    3.13
  -8 -11  -1   27.42    2.31
   8  11   2  164.09    6.03
  -8 -11  -2  159.55    5.70
  -8 -11  -2  154.84    3.92
  -8 -11  -3   28.78    3.32
  -8 -11  -3   24.86    2.27
  -8 -11  -4    6.63    1.91
  -8 -11  -4    7.56    2.60
  -8 -11  -5    3.78    1.72
  -8 -11  -5    2.01    2.17
  -8 -11  -6    0.51    2.24
  -8 -11  -7  124.53    5.38
  -8 -11  -8  264.93    7.24
  -8 -11  -9   10.20    2.92
   8  11  11    2.92    1.63
   8  11  12   34.15    2.38
  -8 -11 -12   36.37    2.60
   8  11  13   42.64    2.75
  -8 -12   0   39.50    2.56
  -8 -12  -1    0.13    1.71
  -8 -12  -2   36.37    2.57
  -8 -12  -3   19.85    2.32
  -8 -12  -4   13.80    2.27
  -8 -12  -5   92.77    3.44
  -8 -13  -1   18.12    2.36
  -8 -13  -2    0.69    1.91
  -8 -13  -3   31.78    2.62
  -8 -13  -4   13.10    2.33
  -8 -13  -5    4.57    2.19
  -9   3   2    0.88    1.59
  -9   3   1    8.46    1.84
  -9   3   0    3.67    1.75
  -9   3  -1   28.76    2.44
  -9   3  -2   22.73    2.42
  -9   2   2    5.79    1.68
  -9   2   1  106.58    3.16
  -9   2   0  156.59    3.70
  -9   2  -1    0.49    1.73
  -9   2  -2   20.39    2.24
  -9   2  -3    0.67    1.85
  -9   2  -4    1.34    1.94
  -9   1   2   35.10    2.06
  -9   1   1   10.61    1.69
  -9   1   0    3.58    1.62
  -9   1  -1    0.37    1.59
  -9   1  -2   45.72    2.48
  -9   1  -3   71.47    3.02
  -9   1  -4    6.73    1.95
  -9   1  -5    2.55    1.88
  -9   1  -6    2.71    2.00
  -9   0   1    1.74    1.43
  -9   0   0   70.09    2.50
  -9   0  -1   53.53    2.37
  -9   0  -2   41.18    2.23
  -9   0  -3    5.03    1.75
  -9   0  -4   35.91    2.38
  -9   0  -5   27.32    2.33
  -9   0  -6   73.70    3.21
  -9   0  -7   20.66    2.48
  -9  -1  10   89.68    4.39
  -9  -1   9   59.52    3.45
  -9  -1   8    2.81    1.68
  -9  -1   7   61.70    3.00
  -9  -1   6   13.32    1.74
  -9  -1   0    0.26    1.36
  -9  -1  -1   14.25    1.69
  -9  -1  -2    4.88    1.55
  -9  -1  -3   19.09    1.84
  -9  -1  -4  105.74    3.05
  -9  -1  -5    3.42    1.67
  -9  -1  -6   27.08    2.26
  -9  -1  -7    6.98    1.95
  -9  -1  -8    0.67    1.95
  -9  -2  10    2.11    2.22
  -9  -2   9   -0.26    2.10
  -9  -2   8    3.72    1.96
  -9  -2   7   69.12    3.43
  -9  -2   6  246.12    5.33
  -9  -2   5   29.97    2.30
  -9  -2   4   39.76    2.32
  -9  -2   3   10.82    1.57
  -9  -2   2   46.21    2.13
  -9  -2   1  159.10    3.34
  -9  -2   0   59.87    2.17
  -9  -2  -1  138.27    2.98
  -9  -2  -2   69.31    2.35
  -9  -2  -3    6.27    1.54
  -9  -2  -4   18.75    1.82
  -9  -2  -5   93.64    2.87
  -9  -2  -6   -0.27    1.57
  -9  -2  -7   59.88    2.67
  -9  -2  -8   41.14    2.47
  -9  -2  -9    6.60    1.96
  -9  -2 -10   28.12    2.53
  -9  -3   9   90.87    4.66
  -9  -3   8  146.49    5.07
  -9  -3   7    0.77    2.01
  -9  -3   6   44.58    2.99
  -9  -3   5   31.56    2.57
  -9  -3   4  125.56    3.92
  -9  -3   3  412.02    6.23
  -9  -3   2   85.01    3.02
  -9  -3   1    7.59    1.52
  -9  -3   0   37.64    2.14
  -9  -3  -1   91.24    2.46
  -9  -3  -2  287.90    3.94
  -9  -3  -2  277.91    4.61
  -9  -3  -3  112.35    2.74
  -9  -3  -3  102.99    3.03
  -9  -3  -4    1.74    1.38
  -9  -3  -4    2.06    1.30
  -9  -3  -5   89.96    2.66
  -9  -3  -5   85.05    2.93
  -9  -3  -6    0.78    1.51
  -9  -3  -7   31.44    2.12
  -9  -3  -8    4.50    1.70
  -9  -3  -9   -0.63    1.65
  -9  -3 -10   27.40    2.40
  -9  -3 -11   19.47    2.25
   9   4 -12    5.81    2.29
  -9  -4   9    0.82    2.42
  -9  -4   8   67.39    4.05
  -9  -4   7    2.74    2.37
  -9  -4   6    5.67    2.26
  -9  -4   5   14.21    2.30
  -9  -4   4   48.93    3.07
  -9  -4   3   76.87    3.36
  -9  -4   2   73.76    3.13
  -9  -4   1  140.20    3.90
  -9  -4   0  400.36    6.06
  -9  -4  -1  144.04    3.82
  -9  -4  -2    9.58    1.41
  -9  -4  -2   11.52    1.63
  -9  -4  -3    1.51    1.29
  -9  -4  -3    0.71    1.46
  -9  -4  -4    1.38    1.48
  -9  -4  -4    2.04    1.30
  -9  -4  -5  193.77    3.43
  -9  -4  -5  208.37    4.58
  -9  -4  -6  252.75    3.99
  -9  -4  -6  256.18    5.24
  -9  -4  -7    2.71    1.72
  -9  -4  -7    3.10    1.43
  -9  -4  -8   41.74    2.18
  -9  -4  -8   30.15    2.83
  -9  -4  -9   28.97    2.09
  -9  -4  -9   22.20    2.67
  -9  -4 -10   14.58    1.93
  -9  -4 -11  125.69    3.68
   9   5 -11   36.57    2.85
  -9  -5   8   22.83    3.18
  -9  -5   7   39.73    3.61
  -9  -5   6   19.55    2.81
  -9  -5   5   68.52    3.75
  -9  -5   4   47.28    3.16
  -9  -5   3   12.66    2.14
  -9  -5   2  232.36    5.32
  -9  -5   1   53.12    2.89
  -9  -5   0   37.61    2.08
  -9  -5  -1  163.10    4.35
  -9  -5  -1  165.14    3.50
  -9  -5  -2    0.12    1.53
  -9  -5  -2    1.38    1.26
  -9  -5  -3  294.79    5.41
  -9  -5  -3  277.99    4.39
  -9  -5  -4  207.98    3.31
  -9  -5  -4  197.02    4.67
  -9  -5  -4  203.26    3.74
  -9  -5  -5    1.19    1.65
  -9  -5  -5    1.87    1.22
  -9  -5  -5    0.87    1.12
  -9  -5  -6   71.69    2.31
  -9  -5  -6   74.25    3.32
  -9  -5  -6   68.72    2.31
  -9  -5  -7    0.16    1.78
  -9  -5  -7    0.56    1.26
  -9  -5  -8   82.75    2.57
  -9  -5  -8   76.42    3.86
  -9  -5  -9  119.76    3.04
  -9  -5  -9  122.69    4.54
  -9  -5 -10   48.54    2.33
  -9  -5 -11    2.39    1.52
   9   6 -10   11.34    2.40
   9   6  -8   25.79    3.99
  -9  -6   7  118.13    5.41
   9   6  -7  124.73    5.66
   9   6  -6    8.31    2.59
  -9  -6   6   10.45    2.69
  -9  -6   5   46.07    3.55
   9   6  -5   44.41    3.62
  -9  -6   4   55.04    3.48
   9   6  -4   53.96    3.58
   9   6  -3    7.85    2.28
  -9  -6   3    4.21    2.05
  -9  -6   3    5.23    1.49
   9   6  -2   78.21    3.85
  -9  -6   2   85.84    3.77
  -9  -6   2   82.02    2.73
   9   6  -1   84.56    3.88
  -9  -6   1   92.06    3.79
  -9  -6   1   88.57    2.78
  -9  -6   0    5.64    1.87
  -9  -6   0    3.34    1.44
  -9  -6  -1   48.25    2.82
  -9  -6  -1   41.06    2.13
  -9  -6  -2   56.02    2.97
  -9  -6  -2   54.39    2.32
  -9  -6  -3   34.00    2.55
  -9  -6  -3   32.23    1.94
  -9  -6  -4   30.41    2.53
  -9  -6  -4   30.86    1.94
  -9  -6  -5    0.39    1.15
  -9  -6  -5    1.17    1.80
  -9  -6  -5    2.15    1.28
  -9  -6  -6   19.62    1.51
  -9  -6  -6   19.28    2.39
  -9  -6  -6   20.68    1.66
  -9  -6  -7  190.54    3.29
  -9  -6  -7  204.64    5.36
  -9  -6  -7  190.57    3.57
  -9  -6  -8   57.16    2.10
  -9  -6  -8   59.64    3.59
  -9  -6  -9   82.72    2.54
  -9  -6  -9   86.06    4.26
   9   7  -9   95.08    3.71
   9   7  -7   16.47    3.36
   9   7  -6    5.30    2.82
  -9  -7   6    6.63    2.89
  -9  -7   5   46.02    3.68
   9   7  -5   45.67    3.84
  -9  -7   4   65.21    3.97
  -9  -7   4   64.99    2.67
   9   7  -4   63.82    4.08
  -9  -7   3   65.43    3.92
  -9  -7   3   71.69    2.65
   9   7  -3   69.52    4.03
  -9  -7   2    1.98    2.14
   9   7  -2    2.39    2.10
  -9  -7   2    1.47    1.46
   9   7  -1   29.46    2.88
  -9  -7   1   29.20    2.85
  -9  -7   1   28.92    2.00
  -9  -7   0    6.09    2.11
  -9  -7   0    4.76    1.56
  -9  -7  -1  104.67    4.07
  -9  -7  -1   96.74    2.90
  -9  -7  -2  191.68    5.02
  -9  -7  -2  178.57    3.72
  -9  -7  -3    8.23    2.08
  -9  -7  -3    9.21    1.63
  -9  -7  -4  208.51    5.28
  -9  -7  -4  203.43    3.94
  -9  -7  -5  146.55    4.61
  -9  -7  -5  138.85    3.37
  -9  -7  -6    2.89    2.06
  -9  -7  -6    2.65    1.39
  -9  -7  -7   34.66    1.69
  -9  -7  -7   36.61    3.11
  -9  -7  -7   37.41    2.10
  -9  -7  -8   53.17    3.46
  -9  -7  -8   51.98    2.24
  -9  -7  -9    6.37    2.36
   9   8  -8   18.40    2.38
   9   8  -7   57.02    3.03
  -9  -8   5   29.67    3.50
   9   8  -5   32.61    3.47
  -9  -8   4   -2.13    2.37
   9   8  -4    0.86    2.62
  -9  -8   4    0.20    1.48
   9   8  -3   16.20    3.10
  -9  -8   3   21.16    2.85
  -9  -8   3   18.76    1.93
  -9  -8   2    8.42    2.53
   9   8  -2    6.96    2.63
  -9  -8   2    7.82    1.66
   9   8  -1  313.88    7.30
  -9  -8   1  304.35    7.02
  -9  -8   1  292.70    4.79
  -9  -8   0  192.99    5.63
  -9  -8   0  188.39    3.94
  -9  -8  -1    0.59    2.05
  -9  -8  -1    0.44    1.51
  -9  -8  -2    3.16    1.64
  -9  -8  -2    2.72    2.05
  -9  -8  -3    1.05    1.46
  -9  -8  -3    0.85    2.00
  -9  -8  -4   17.68    1.81
  -9  -8  -4   13.94    2.34
  -9  -8  -5   54.89    3.40
  -9  -8  -5   52.34    2.50
  -9  -8  -6   10.99    1.71
  -9  -8  -6    8.87    2.23
  -9  -8  -7    1.95    1.49
  -9  -8  -7    2.64    2.26
  -9  -8  -8   20.83    2.91
  -9  -8  -8   20.30    1.86
  -9  -8  -9    7.84    1.57
  -9  -8  -9    5.85    2.54
   9   9  -7    8.01    2.02
   9   9  -6    6.43    1.97
   9   9  -5   13.29    2.04
  -9  -9   4    0.44    1.55
  -9  -9   3   58.53    4.17
  -9  -9   3   66.26    2.72
   9   9  -3   61.79    4.56
   9   9  -2   14.81    2.89
  -9  -9   2   20.12    3.07
  -9  -9   2   15.37    1.90
   9   9  -1    4.24    2.36
  -9  -9   1    5.11    2.46
  -9  -9   1    2.44    1.61
   9   9   0    3.98    2.49
  -9  -9   0    3.68    2.43
  -9  -9   0    3.55    1.63
  -9  -9  -1    1.34    1.64
  -9  -9  -1    0.68    2.12
  -9  -9  -2  106.84    4.64
  -9  -9  -2  101.51    3.25
  -9  -9  -3  310.11    7.02
  -9  -9  -3  299.88    5.00
  -9  -9  -4   50.18    3.54
  -9  -9  -4   55.31    2.57
  -9  -9  -5    4.65    1.64
  -9  -9  -5    3.20    2.32
  -9  -9  -6    0.73    1.61
  -9  -9  -6    0.12    2.17
  -9  -9  -7   41.77    3.46
  -9  -9  -7   48.00    2.61
  -9  -9  -8   92.24    4.52
  -9  -9  -8   93.54    3.13
  -9  -9  -9   54.57    3.93
  -9  -9  -9   47.84    2.54
  -9  -9 -10    0.01    1.46
   9  10  -5   18.82    2.18
   9  10  -4   18.52    2.06
   9  10  -3   37.94    2.36
  -9 -10   3   41.53    2.52
  -9 -10   2  116.07    3.42
  -9 -10   1   -0.24    2.41
   9  10  -1   -0.86    2.57
  -9 -10   1    0.14    1.64
  -9 -10   0   11.84    2.02
   9  10   0   10.37    3.03
  -9 -10   0    7.07    2.83
   9  10   1   83.43    4.59
  -9 -10  -1   88.37    4.74
  -9 -10  -1   80.33    3.08
  -9 -10  -2   21.70    2.97
  -9 -10  -2   18.26    2.12
  -9 -10  -3   65.53    4.12
  -9 -10  -3   61.11    2.79
  -9 -10  -4    1.25    1.80
  -9 -10  -4    1.80    2.56
  -9 -10  -5  119.52    5.03
  -9 -10  -5  115.22    3.56
  -9 -10  -6   94.74    4.57
  -9 -10  -6   93.09    3.26
  -9 -10  -7   59.92    4.17
  -9 -10  -7   63.38    2.91
  -9 -10  -8    7.60    1.91
  -9 -10  -8    8.34    2.65
  -9 -10  -9    5.30    1.82
  -9 -10 -10   -0.91    1.72
  -9 -10 -11   29.03    2.29
  -9 -11   2    5.81    1.81
  -9 -11   1    6.00    1.77
  -9 -11   0    0.25    1.73
  -9 -11  -1    5.34    1.90
  -9 -11  -2   50.55    2.79
  -9 -11  -3    1.30    1.85
  -9 -11  -3    0.23    2.56
  -9 -11  -4   48.27    3.81
  -9 -11  -4   54.86    2.84
  -9 -11  -5   12.68    2.08
  -9 -11  -5   13.20    2.96
  -9 -11  -6   10.67    2.01
  -9 -11  -6    8.47    2.78
  -9 -11  -7   46.39    2.89
  -9 -11  -8   11.78    2.09
  -9 -11  -9   78.50    3.29
  -9 -11 -10   22.21    2.30
  -9 -11 -11    5.39    1.89
  -9 -12   1   25.86    2.44
  -9 -12   0    5.80    2.02
  -9 -12  -1    2.39    2.01
  -9 -12  -2   12.47    2.19
  -9 -12  -3    2.17    2.00
  -9 -12  -4   50.57    3.00
  -9 -12  -5   52.26    3.05
  -9 -12  -6    8.83    2.10
  -9 -12  -7   79.96    3.45
  -9 -12  -8   48.19    3.03
  -9 -12  -9   15.71    2.35
  -9 -12 -10    1.23    1.94
  -9 -12 -11    4.51    2.09
  -9 -13  -2   15.78    2.46
  -9 -13  -3   86.52    3.73
  -9 -13  -4   20.71    2.46
  -9 -13  -5    1.97    2.13
  -9 -13  -6   15.13    2.28
  -9 -13  -7    1.80    2.01
  -9 -13  -8   41.00    3.03
  -9 -13  -9    2.07    2.01
 -10   2   1   15.82    2.10
 -10   2   0    7.46    2.04
 -10   2  -1   50.11    2.96
 -10   1   1   60.91    2.79
 -10   1   0   11.09    2.02
 -10   1  -1    1.96    1.90
 -10   1  -2    9.67    2.05
 -10   1  -3    0.90    1.86
 -10   0   0   53.10    2.59
 -10   0  -1   13.03    2.03
 -10   0  -2    5.62    1.92
 -10   0  -3   42.36    2.62
 -10   0  -4    4.58    1.99
 -10   0  -5   25.44    2.52
 -10  -1   0    7.56    1.71
 -10  -1  -1    2.77    1.66
 -10  -1  -2   39.93    2.36
 -10  -1  -3   68.22    2.91
 -10  -1  -4   11.52    2.00
 -10  -1  -5    0.45    1.88
 -10  -1  -6   20.99    2.40
 -10  -2   8    5.29    2.05
 -10  -2   7   23.45    2.40
 -10  -2   6   -0.32    1.66
 -10  -2  -1  103.53    2.97
 -10  -2  -2   58.22    2.53
 -10  -2  -3    0.47    1.65
 -10  -2  -4    7.37    1.82
 -10  -2  -5    3.09    1.80
 -10  -2  -6   58.75    2.84
 -10  -2  -7   90.10    3.38
 -10  -2  -8    7.23    2.12
 -10  -3   8   -0.55    2.32
 -10  -3   7   39.15    3.25
 -10  -3   6   14.65    2.35
 -10  -3   5    2.16    1.78
 -10  -3   4    2.68    1.72
 -10  -3   3   14.14    2.02
 -10  -3   2    8.87    1.64
 -10  -3   1  145.06    3.73
 -10  -3  -2   22.79    1.94
 -10  -3  -3    0.35    1.50
 -10  -3  -4   69.89    2.68
 -10  -3  -5  129.93    3.39
 -10  -3  -6   19.62    2.08
 -10  -3  -7    2.54    1.82
 -10  -3  -8    1.46    1.84
 -10  -3  -9   12.72    2.21
 -10  -4   7   39.12    3.38
 -10  -4   6  106.09    4.47
 -10  -4   5    2.31    2.03
 -10  -4   4   13.66    2.34
 -10  -4   3   26.01    2.47
 -10  -4   2    3.39    1.61
 -10  -4   1   32.79    2.42
 -10  -4   0   16.75    1.94
 -10  -4  -1    0.28    1.42
 -10  -4  -2    4.15    1.52
 -10  -4  -3   29.17    2.00
 -10  -4  -3   24.10    2.21
 -10  -4  -4    4.94    1.56
 -10  -4  -4    2.65    1.47
 -10  -4  -5   22.47    1.92
 -10  -4  -5   23.66    2.12
 -10  -4  -6    0.16    1.57
 -10  -4  -7   48.77    2.54
 -10  -4  -8   32.12    2.37
 -10  -4  -9   21.03    2.18
 -10  -4 -10    4.45    1.82
 -10  -5   7   87.37    4.64
 -10  -5   6    3.18    2.28
 -10  -5   5    0.10    2.19
 -10  -5   4   30.89    2.99
 -10  -5   3   97.53    4.08
 -10  -5   2   75.98    3.57
 -10  -5   1    3.59    1.90
 -10  -5   0   70.55    3.39
 -10  -5  -1   40.00    2.65
 -10  -5  -2   29.29    2.32
 -10  -5  -3  108.50    3.85
 -10  -5  -4    0.12    1.37
 -10  -5  -4    0.53    1.59
 -10  -5  -5   38.93    2.07
 -10  -5  -5   34.17    2.51
 -10  -5  -6   20.52    1.88
 -10  -5  -6   20.39    2.42
 -10  -5  -7    0.53    1.89
 -10  -5  -7    5.62    1.63
 -10  -5  -8   12.02    1.81
 -10  -5  -9   27.83    2.19
 -10  -5 -10    1.60    1.60
 -10  -6   6   46.07    4.00
 -10  -6   5  299.39    7.28
 -10  -6   4  131.90    5.01
 -10  -6   3    1.77    2.19
 -10  -6   2   30.44    2.99
 -10  -6   1    1.23    1.97
 -10  -6   0   52.27    3.19
 -10  -6   0   48.53    2.44
 -10  -6  -1   88.16    3.81
 -10  -6  -1   83.43    2.95
 -10  -6  -2   71.61    3.48
 -10  -6  -2   64.90    2.71
 -10  -6  -3   29.86    2.68
 -10  -6  -3   27.16    2.04
 -10  -6  -4    9.40    2.04
 -10  -6  -4    7.71    1.61
 -10  -6  -5   51.89    3.15
 -10  -6  -5   57.01    2.48
 -10  -6  -6   26.76    1.87
 -10  -6  -6   30.04    2.81
 -10  -6  -6   28.70    1.97
 -10  -6  -7   19.21    1.75
 -10  -6  -7   19.47    2.65
 -10  -6  -8    1.75    2.06
 -10  -6  -8    0.38    1.47
 -10  -6  -9   38.51    2.20
  10   7  -5   -2.01    2.61
 -10  -7   5    1.02    2.66
 -10  -7   4    2.74    2.58
  10   7  -4    3.57    2.47
  10   7  -3   12.26    2.67
 -10  -7   3   15.99    2.72
  10   7  -2   41.84    3.53
 -10  -7   2   47.32    3.51
 -10  -7   2   47.93    2.59
 -10  -7   1  224.01    6.02
 -10  -7   1  215.10    4.40
 -10  -7   0    0.13    2.14
 -10  -7   0    3.07    1.67
 -10  -7  -1    4.01    2.09
 -10  -7  -1    4.34    1.64
 -10  -7  -2    3.36    2.01
 -10  -7  -2    2.31    1.56
 -10  -7  -3   60.34    3.50
 -10  -7  -3   61.85    2.68
 -10  -7  -4  362.80    7.07
 -10  -7  -4  359.92    5.44
 -10  -7  -5   68.02    3.69
 -10  -7  -5   74.81    2.77
 -10  -7  -6    2.25    2.17
 -10  -7  -6    6.50    1.52
 -10  -7  -7   21.13    2.80
 -10  -7  -7   22.98    1.94
 -10  -7  -8   -1.43    2.23
  10   8  -8    0.05    2.04
  10   8  -4   30.47    3.78
 -10  -8   3   43.84    4.03
 -10  -8   3   50.02    2.69
  10   8  -3   41.56    3.95
  10   8  -2    0.07    2.49
 -10  -8   2    0.24    2.27
 -10  -8   2    0.57    1.70
  10   8  -1   88.99    4.54
 -10  -8   1   92.16    4.45
 -10  -8   1   81.59    3.06
 -10  -8   0    1.44    2.28
  10   8   0    1.17    2.24
 -10  -8   0    2.28    1.66
 -10  -8  -1   58.86    3.86
 -10  -8  -1   59.95    2.80
 -10  -8  -2  110.10    4.56
 -10  -8  -2  103.53    3.26
 -10  -8  -3  104.37    4.49
 -10  -8  -3  102.57    3.24
 -10  -8  -4   30.74    3.08
 -10  -8  -4   30.80    2.24
 -10  -8  -5   70.25    3.82
 -10  -8  -5   68.14    2.83
 -10  -8  -6   23.35    2.92
 -10  -8  -6   24.61    2.07
 -10  -8  -7  152.48    5.38
 -10  -8  -7  147.20    3.71
 -10  -8  -8  103.70    3.18
  10   9  -7    0.48    1.95
  10   9  -6    2.03    2.01
 -10  -9   3   50.04    2.74
  10   9  -2    4.62    2.65
 -10  -9   2    6.25    2.65
 -10  -9   2    7.20    1.85
 -10  -9   1   12.27    2.91
 -10  -9   1   18.23    2.08
  10   9  -1   15.76    3.06
  10   9   0   59.02    4.24
 -10  -9   0   60.90    4.06
 -10  -9   0   56.10    2.85
 -10  -9  -1   14.72    2.04
 -10  -9  -2   21.83    3.08
 -10  -9  -2   18.32    2.14
 -10  -9  -3  117.52    5.06
 -10  -9  -3  106.37    3.51
 -10  -9  -4    0.55    2.39
 -10  -9  -4    0.89    1.76
 -10  -9  -5   71.99    4.15
 -10  -9  -5   71.65    2.98
 -10  -9  -6   12.31    1.99
 -10  -9  -6   13.02    2.76
 -10  -9  -7   -1.18    2.37
 -10  -9  -7    1.61    1.68
 -10  -9  -8   42.65    2.60
 -10  -9  -9   -0.87    1.63
  10  10  -5   51.75    2.95
  10  10  -4   17.66    2.21
 -10 -10   4   16.60    2.24
 -10 -10   3   21.16    2.28
 -10 -10   2    3.68    1.85
 -10 -10   1   14.74    2.15
  10  10   0   45.91    4.14
 -10 -10   0   50.40    2.81
  10  10   1   28.98    3.57
 -10 -10  -1   29.66    3.41
 -10 -10  -1   29.24    2.49
 -10 -10  -2    5.90    2.62
 -10 -10  -2    5.34    1.93
 -10 -10  -3   53.52    4.00
 -10 -10  -3   54.16    2.81
 -10 -10  -4   11.80    2.06
 -10 -10  -4   12.52    2.87
 -10 -10  -5   49.22    3.88
 -10 -10  -5   52.16    2.83
 -10 -10  -6   73.38    3.27
 -10 -10  -7    1.82    1.83
 -10 -10  -8   53.32    2.94
 -10 -10  -9  108.87    3.65
 -10 -10 -10    3.59    1.70
 -10 -11   2  110.94    3.92
 -10 -11   1   58.07    3.07
 -10 -11   0    1.20    1.81
 -10 -11  -1   20.99    2.44
 -10 -11  -2    6.37    2.00
 -10 -11  -3   27.25    2.58
 -10 -11  -4    9.74    2.05
 -10 -11  -5   12.60    2.19
 -10 -11  -6   11.64    2.17
 -10 -11  -7   33.66    2.65
 -10 -11  -8    3.76    1.99
 -10 -11  -9   63.71    3.13
 -10 -11 -10   13.49    2.24
 -10 -12   1    0.35    1.75
 -10 -12   0   12.48    2.23
 -10 -12  -1   74.29    3.29
 -10 -12  -2   35.19    2.85
 -10 -12  -3    6.08    2.18
 -10 -12  -4    3.69    2.02
 -10 -12  -5    1.77    2.04
 -10 -12  -6   39.89    3.02
 -10 -12  -7  139.66    4.31
 -10 -12  -8   11.73    2.26
 -10 -12  -9    7.25    2.14
 -10 -12 -10    0.62    2.05
 -10 -13  -4   64.98    3.35
 -10 -13  -5   29.11    2.87
 -10 -13  -6    8.48    2.30
 -11   0  -1   10.12    2.18
 -11   0  -2   42.09    2.81
 -11  -1  -1   32.56    2.42
 -11  -1  -2    5.68    2.03
 -11  -1  -3   18.49    2.29
 -11  -1  -4    3.53    2.01
 -11  -2  -2   11.05    2.02
 -11  -2  -3   39.87    2.57
 -11  -2  -4   15.47    2.21
 -11  -2  -5    7.82    2.11
 -11  -3  -3    0.59    1.73
 -11  -3  -4   95.09    3.37
 -11  -3  -5    8.37    2.07
 -11  -3  -6   67.64    3.16
 -11  -3  -7   13.12    2.24
 -11  -4   6    8.69    2.52
 -11  -4   5   16.61    2.46
 -11  -4   4  156.03    4.94
 -11  -4   3   74.05    3.54
 -11  -4   2    1.02    1.77
 -11  -4   1   12.80    1.94
 -11  -4  -4   15.19    1.94
 -11  -4  -5   35.10    2.36
 -11  -4  -6    9.97    2.05
 -11  -4  -7    5.66    1.91
 -11  -4  -8    1.07    1.80
 -11  -5   5   15.90    2.93
 -11  -5   4    4.76    2.21
 -11  -5   3   22.09    2.69
 -11  -5   2   29.04    2.90
 -11  -5   1   79.48    3.67
 -11  -5   0  108.63    4.12
 -11  -5  -1   52.09    3.08
 -11  -5  -2    0.57    1.75
 -11  -5  -3    3.42    1.74
 -11  -5  -4   20.27    2.41
 -11  -5  -5  137.03    3.47
 -11  -5  -6    9.14    1.87
 -11  -5  -7   20.61    2.18
 -11  -5  -8   26.43    2.33
 -11  -5  -9   -0.15    1.69
 -11  -6   4   -1.51    2.41
 -11  -6   3   50.29    3.68
 -11  -6   2   37.41    3.20
 -11  -6   1    5.81    2.14
 -11  -6   0   19.78    2.50
 -11  -6  -1    0.78    1.92
 -11  -6  -2   52.02    3.27
 -11  -6  -3   76.13    3.72
 -11  -6  -4   18.72    2.53
 -11  -6  -5    2.27    1.86
 -11  -6  -7    5.55    1.71
 -11  -6  -8   43.77    2.55
 -11  -6  -9   63.95    2.96
 -11  -7   3    2.36    2.40
 -11  -7   2   67.33    4.07
 -11  -7   1    4.73    2.40
 -11  -7   0   12.06    2.54
 -11  -7  -1    7.49    2.30
 -11  -7  -1    5.02    1.92
 -11  -7  -2   -1.08    2.21
 -11  -7  -2    1.15    1.71
 -11  -7  -3    1.40    2.12
 -11  -7  -3    1.37    1.70
 -11  -7  -4    4.48    2.26
 -11  -7  -4    3.91    1.69
 -11  -7  -5   -0.06    1.56
 -11  -7  -5    0.93    2.17
 -11  -7  -6   66.77    2.88
 -11  -8   1    3.52    2.44
 -11  -8   1    2.45    1.90
 -11  -8   0   38.72    3.59
 -11  -8   0   34.88    2.58
 -11  -8  -1   48.33    3.72
 -11  -8  -1   46.05    2.81
 -11  -8  -2    7.85    2.63
 -11  -8  -2   10.66    2.01
 -11  -8  -3   45.21    3.56
 -11  -8  -3   39.63    2.66
 -11  -8  -4   67.38    4.04
 -11  -8  -4   73.76    3.07
 -11  -8  -5    4.13    1.77
 -11  -8  -6    1.61    1.60
 -11  -8  -7   13.94    1.99
 -11  -9   2   58.09    3.06
 -11  -9   1  108.07    3.66
 -11  -9   0   23.66    2.39
 -11  -9  -1    2.98    1.82
 -11  -9  -2   11.58    2.10
 -11  -9  -3    6.10    1.95
 -11  -9  -4   26.16    2.42
 -11  -9  -5    7.01    1.88
 -11  -9  -6   -0.35    1.72
 -11  -9  -7    0.87    1.73
 -11  -9  -8   25.43    2.26
 -11 -10   3   20.68    2.45
 -11 -10   2   18.40    2.39
 -11 -10   1   -0.16    1.93
 -11 -10   0    8.03    2.06
 -11 -10  -1    4.39    1.97
 -11 -10  -2  146.96    4.25
 -11 -10  -3  108.91    3.72
 -11 -10  -4   -0.08    1.83
 -11 -10  -5    4.14    2.05
 -11 -10  -6    8.89    2.03
 -11 -10  -7   22.67    2.40
 -11 -10  -8   29.42    2.64
 -11 -10  -9    4.10    1.87
 -11 -11   2   20.75    2.39
 -11 -11   1   -1.07    1.90
 -11 -11   0   30.04    2.69
 -11 -11  -1   57.53    3.23
 -11 -11  -2   -0.56    2.09
 -11 -11  -3    2.76    1.94
 -11 -11  -4    6.70    2.15
 -11 -11  -5   35.09    2.76
 -11 -11  -6  105.51    4.02
 -11 -11  -7   27.60    2.70
 -11 -11  -8    8.42    2.27
 -11 -11  -9    3.52    1.87
 -11 -12  -1   27.89    2.81
 -11 -12  -2   19.77    2.63
 -11 -12  -3   25.89    2.69
 -11 -12  -4   42.20    3.17
 -11 -12  -5    1.94    2.20
 -11 -12  -6   18.20    2.72
 -11 -12  -7    7.18    2.27
 -12  -3  -4    6.03    2.10
 -12  -4  -5   36.22    2.66
 -12  -5  -6   13.93    2.20
 -12  -9   0   13.50    2.36
 -12  -9  -1   21.59    2.52
 -12  -9  -2   76.88    3.45
 -12  -9  -3    1.70    1.93
 -12  -9  -4   51.55    3.13
 -12  -9  -5    0.13    1.90
 -12  -9  -6   42.99    2.84
 -12  -9  -7   42.66    2.95
 -12 -10   1   22.69    2.51
 -12 -10   0    7.88    2.19
 -12 -10  -1    3.25    2.11
 -12 -10  -2   21.79    2.56
 -12 -10  -3   11.40    2.24
 -12 -10  -4    8.00    2.17
 -12 -10  -5   23.16    2.49
 -12 -10  -6    3.12    2.00
 -12 -10  -7    3.66    1.84
 -12 -11  -1   -1.82    2.15
 -12 -11  -2    9.16    2.23
 -12 -11  -3    2.32    2.07
 -12 -11  -4    5.64    2.20
 -12 -11  -5   17.44    2.47
 -12 -11  -6    5.33    2.10
   0   0   0    0.00    0.00
_computing_structure_solution     'SHELXT 2014/5 (Sheldrick, 2014)'
;
_shelx_hkl_checksum              99049
_shelx_res_file
;
    mys3891a.res created by SHELXL-2014/7
TITL mys3891a_a.res in P-1
REM Old TITL mys3891a in P-1 #2
REM SHELXT solution in P-1
REM R1 0.052, Rweak 0.008, Alpha 0.036, Orientation as input
REM Formula found by SHELXT: C6 B N3 F4 S Cu
CELL 0.71073 7.754 7.965 10.372 67.57 89.99 61.07
ZERR 2 0.003 0.003 0.004 0.03 0.03 0.03
LATT 1
SFAC C H B Cu F N S
UNIT 12 18 2 2 8 6 2
EQIV $1 +X,-1+Y,+Z
EQIV $2 2-X,-Y,1-Z
EQIV $3 +X,-1+Y,1+Z
EQIV $4 2-X,1-Y,1-Z
EQIV $5 1-X,1-Y,-Z
L.S. 12 0 0
PLAN  20
TEMP -173
HTAB N2 F2_$1
HTAB N2 F3_$1
HTAB C6 F1_$2
HTAB C6 F4_$3
HTAB C6 F3_$4
HTAB C7 F4_$5
HTAB C8 F1
HTAB
BOND $H
LIST 6
MORE -1
CONF
fmap 2 53
acta 52
OMIT 4 2 1
OMIT 2 -1 2
OMIT 1 1 2
OMIT 1 0 1
OMIT -1 3 0
REM <olex2.extras>
REM <HklSrc "%.\\mys3891a.hkl">
REM </olex2.extras>
WGHT    0.037000    0.007000
FVAR       0.64955
CU1   4    0.400196    0.604304    0.317777    11.00000    0.01465    0.01181 =
         0.00981   -0.00534    0.00179   -0.00615
S1    7    0.818238   -0.104897    0.521161    11.00000    0.01564    0.01145 =
         0.01421   -0.00664    0.00329   -0.00626
N2    6    0.527798    0.174016    0.278699    11.00000    0.01825    0.01563 =
         0.01509   -0.00964    0.00178   -0.00701
H2    2    0.574194    0.070762    0.253279    11.00000   -1.20000
N3    6    0.560819    0.291890    0.449138    11.00000    0.01454    0.01298 =
         0.01103   -0.00644    0.00300   -0.00678
N4    6    0.677734    0.209452    0.584914    11.00000    0.01410    0.01234 =
         0.01088   -0.00521    0.00271   -0.00682
C2    1    0.615344    0.143284    0.403139    11.00000    0.01396    0.01356 =
         0.01356   -0.00725    0.00433   -0.00767
C5    1    0.815663    0.007248    0.635422    11.00000    0.01468    0.01305 =
         0.01243   -0.00605    0.00374   -0.00736
C6    1    0.961877   -0.123104    0.777234    11.00000    0.01918    0.01339 =
         0.01519   -0.00534   -0.00052   -0.00570
AFIX 137
H6A   2    1.065340   -0.261534    0.782522    11.00000   -1.50000
H6B   2    0.889782   -0.144873    0.853708    11.00000   -1.50000
H6C   2    1.026610   -0.048581    0.788678    11.00000   -1.50000
AFIX   0
C7    1    0.356740    0.379556    0.177349    11.00000    0.01703    0.01750 =
         0.01346   -0.00752    0.00123   -0.00945
AFIX  23
H7A   2    0.237033    0.416127    0.220120    11.00000   -1.20000
H7B   2    0.323396    0.369559    0.089433    11.00000   -1.20000
AFIX   0
C8    1    0.404231    0.552863    0.138811    11.00000    0.01657    0.01804 =
         0.01109   -0.00746    0.00349   -0.00948
AFIX  43
H8    2    0.541113    0.514705    0.140777    11.00000   -1.20000
AFIX   0
C9    1    0.261285    0.762353    0.101094    11.00000    0.02069    0.01702 =
         0.01159   -0.00534    0.00045   -0.00920
AFIX  93
H9A   2    0.123189    0.805231    0.098190    11.00000   -1.20000
H9B   2    0.300299    0.864680    0.077854    11.00000   -1.20000
AFIX   0
F1    5    0.772745    0.534036    0.313784    11.00000    0.02942    0.02168 =
         0.02700   -0.00626    0.00539   -0.01691
F2    5    0.580693    0.889160    0.166854    11.00000    0.02185    0.01973 =
         0.03368   -0.01630    0.00389   -0.00662
F3    5    0.903633    0.746580    0.277777    11.00000    0.03032    0.03629 =
         0.02940   -0.01832    0.00687   -0.02464
F4    5    0.842744    0.669011    0.098932    11.00000    0.02997    0.03230 =
         0.02341   -0.01905    0.01065   -0.01397
B1    3    0.777005    0.707887    0.214567    11.00000    0.01834    0.01706 =
         0.01829   -0.01060    0.00541   -0.01054
HKLF 4
REM  mys3891a_a.res in P-1
REM R1 =  0.0223 for    4163 Fo > 4sig(Fo)  and  0.0269 for all    4784 data
REM    149 parameters refined using      0 restraints
END
WGHT      0.0371      0.0072
REM Instructions for potential hydrogen bonds
HTAB N2 F2_$1
HTAB N2 F3_$1
HTAB C6 F1_$2
HTAB C6 F4_$3
HTAB C6 F3_$4
HTAB C7 F4_$5
HTAB C8 F1
REM Highest difference peak  0.558,  deepest hole -0.508,  1-sigma level  0.076
Q1    1   0.5929  0.2190  0.4244  11.00000  0.05    0.56
Q2    1   0.3535  0.6821  0.3280  11.00000  0.05    0.53
Q3    1   0.3265  0.6649  0.1027  11.00000  0.05    0.52
Q4    1   0.7394  0.0987  0.6146  11.00000  0.05    0.48
Q5    1   0.8779 -0.0460  0.6992  11.00000  0.05    0.45
Q6    1   0.5589  0.1752  0.3367  11.00000  0.05    0.44
Q7    1   0.3816  0.4617  0.1587  11.00000  0.05    0.43
Q8    1   0.2844  0.8635  0.0392  11.00000  0.05    0.42
Q9    1   0.7169  0.0206  0.4493  11.00000  0.05    0.38
Q10   1   0.4333  0.5374  0.3849  11.00000  0.05    0.38
Q11   1   0.8045 -0.0164  0.5673  11.00000  0.05    0.37
Q12   1   0.9821  0.6410  0.3035  11.00000  0.05    0.36
Q13   1   0.4425  0.2882  0.2214  11.00000  0.05    0.33
Q14   1   0.6662  0.9063  0.1675  11.00000  0.05    0.33
Q15   1   0.8315 -0.0681  0.5952  11.00000  0.05    0.33
Q16   1   0.4656  0.3613  0.4193  11.00000  0.05    0.33
Q17   1   0.6451  0.2488  0.5279  11.00000  0.05    0.32
Q18   1   0.5150  0.3725  0.3802  11.00000  0.05    0.32
Q19   1   0.3392  0.6963  0.2400  11.00000  0.05    0.32
Q20   1   0.6558  0.2757  0.6158  11.00000  0.05    0.32
;
_shelx_res_checksum              55902
loop_
_space_group_symop_operation_xyz
'x, y, z'
'-x, -y, -z'
loop_
_atom_site_type_symbol
_atom_site_label
_atom_site_fract_x
_atom_site_fract_y
_atom_site_fract_z
_atom_site_U_iso_or_equiv
_atom_site_adp_type
_atom_site_calc_flag
_atom_site_occupancy
Cu Cu1 0.40020(2) 0.60430(2) 0.31778(2) 0.01224(4) Uani d 1
S S1 0.81824(4) -0.10490(3) 0.52116(2) 0.01379(5) Uani d 1
N N2 0.52780(14) 0.17402(13) 0.27870(9) 0.01616(15) Uani d 1
H H2 0.574(2) 0.071(2) 0.2533(17) 0.019 Uiso d 1
N N3 0.56082(13) 0.29189(12) 0.44914(8) 0.01262(13) Uani d 1
N N4 0.67773(12) 0.20945(12) 0.58491(8) 0.01243(13) Uani d 1
C C2 0.61534(15) 0.14328(14) 0.40314(10) 0.01299(15) Uani d 1
C C5 0.81566(15) 0.00725(14) 0.63542(10) 0.01316(15) Uani d 1
C C6 0.96188(16) -0.12310(15) 0.77723(10) 0.01759(18) Uani d 1
H H6A 1.0653 -0.2615 0.7825 0.026 Uiso calc 1
H H6B 0.8898 -0.1449 0.8537 0.026 Uiso calc 1
H H6C 1.0266 -0.0486 0.7887 0.026 Uiso calc 1
C C7 0.35674(15) 0.37956(15) 0.17735(10) 0.01552(16) Uani d 1
H H7A 0.2370 0.4161 0.2201 0.019 Uiso calc 1
H H7B 0.3234 0.3696 0.0894 0.019 Uiso calc 1
C C8 0.40423(15) 0.55286(15) 0.13881(10) 0.01463(16) Uani d 1
H H8 0.5411 0.5147 0.1408 0.018 Uiso calc 1
C C9 0.26128(16) 0.76235(15) 0.10109(10) 0.01708(17) Uani d 1
H H9A 0.1232 0.8052 0.0982 0.020 Uiso calc 1
H H9B 0.3003 0.8647 0.0779 0.020 Uiso calc 1
F F1 0.77274(12) 0.53404(11) 0.31378(8) 0.02589(15) Uani d 1
F F2 0.58069(11) 0.88916(10) 0.16685(8) 0.02546(15) Uani d 1
F F3 0.90363(12) 0.74658(12) 0.27778(8) 0.02710(15) Uani d 1
F F4 0.84274(12) 0.66901(12) 0.09893(8) 0.02720(15) Uani d 1
B B1 0.77701(18) 0.70789(18) 0.21457(12) 0.01625(19) Uani d 1
loop_
_atom_site_aniso_label
_atom_site_aniso_U_11
_atom_site_aniso_U_22
_atom_site_aniso_U_33
_atom_site_aniso_U_12
_atom_site_aniso_U_13
_atom_site_aniso_U_23
Cu1 0.01465(6) 0.01181(5) 0.00981(5) -0.00615(4) 0.00179(4) -0.00534(4)
S1 0.01564(11) 0.01145(9) 0.01421(9) -0.00626(8) 0.00329(8) -0.00664(7)
N2 0.0183(4) 0.0156(3) 0.0151(3) -0.0070(3) 0.0018(3) -0.0096(3)
N3 0.0145(3) 0.0130(3) 0.0110(3) -0.0068(3) 0.0030(3) -0.0064(2)
N4 0.0141(3) 0.0123(3) 0.0109(3) -0.0068(3) 0.0027(3) -0.0052(2)
C2 0.0140(4) 0.0136(3) 0.0136(3) -0.0077(3) 0.0043(3) -0.0072(3)
C5 0.0147(4) 0.0131(3) 0.0124(3) -0.0074(3) 0.0037(3) -0.0060(3)
C6 0.0192(5) 0.0134(4) 0.0152(4) -0.0057(3) -0.0005(3) -0.0053(3)
C7 0.0170(4) 0.0175(4) 0.0135(3) -0.0095(3) 0.0012(3) -0.0075(3)
C8 0.0166(4) 0.0180(4) 0.0111(3) -0.0095(3) 0.0035(3) -0.0075(3)
C9 0.0207(5) 0.0170(4) 0.0116(3) -0.0092(3) 0.0004(3) -0.0053(3)
F1 0.0294(4) 0.0217(3) 0.0270(3) -0.0169(3) 0.0054(3) -0.0063(3)
F2 0.0218(3) 0.0197(3) 0.0337(4) -0.0066(3) 0.0039(3) -0.0163(3)
F3 0.0303(4) 0.0363(4) 0.0294(4) -0.0246(3) 0.0069(3) -0.0183(3)
F4 0.0300(4) 0.0323(4) 0.0234(3) -0.0140(3) 0.0106(3) -0.0191(3)
B1 0.0183(5) 0.0171(4) 0.0183(4) -0.0105(4) 0.0054(4) -0.0106(4)
loop_
_atom_type_symbol
_atom_type_description
_atom_type_scat_dispersion_real
_atom_type_scat_dispersion_imag
_atom_type_scat_source
C C 0.0033 0.0016 'International Tables Vol C Tables 4.2.6.8 and 6.1.1.4'
H H 0.0000 0.0000 'International Tables Vol C Tables 4.2.6.8 and 6.1.1.4'
B B 0.0013 0.0007 'International Tables Vol C Tables 4.2.6.8 and 6.1.1.4'
Cu Cu 0.3201 1.2651 'International Tables Vol C Tables 4.2.6.8 and 6.1.1.4'
F F 0.0171 0.0103 'International Tables Vol C Tables 4.2.6.8 and 6.1.1.4'
N N 0.0061 0.0033 'International Tables Vol C Tables 4.2.6.8 and 6.1.1.4'
S S 0.1246 0.1234 'International Tables Vol C Tables 4.2.6.8 and 6.1.1.4'
loop_
_exptl_crystal_face_index_h
_exptl_crystal_face_index_k
_exptl_crystal_face_index_l
_exptl_crystal_face_perp_dist
0 0 -1 0.0880
0 0 1 0.0880
11 8 2 0.1166
-11 -8 -2 0.1166
1 10 4 0.1867
-1 -10 -4 0.1867
-9 -2 9 0.1498
-11 -4 -2 0.1526
-4 2 14 0.1240
-4 -4 10 0.0811
8 3 8 0.1140
9 1 -8 0.1304
8 5 -8 0.1108
-5 -9 -12 0.1646
5 9 12 0.1646
-8 -10 -2 0.1135
loop_
_geom_angle_atom_site_label_1
_geom_angle_atom_site_label_2
_geom_angle_atom_site_label_3
_geom_angle_site_symmetry_1
_geom_angle_site_symmetry_3
_geom_angle
N3 Cu1 C8 . . 92.88(5)
N3 Cu1 C9 . . 130.27(5)
N4 Cu1 N3 2_666 . 114.54(5)
N4 Cu1 C8 2_666 . 152.58(4)
N4 Cu1 C9 2_666 . 114.25(5)
C8 Cu1 C9 . . 38.80(5)
C5 S1 C2 . . 87.64(6)
C2 N2 H2 . . 120.4(10)
C2 N2 C7 . . 122.90(9)
C7 N2 H2 . . 116.6(10)
N4 N3 Cu1 . . 122.78(7)
C2 N3 Cu1 . . 122.80(7)
C2 N3 N4 . . 111.58(9)
N3 N4 Cu1 . 2_666 117.92(7)
C5 N4 Cu1 . 2_666 128.40(7)
C5 N4 N3 . . 113.33(9)
N2 C2 S1 . . 121.34(8)
N3 C2 S1 . . 113.61(8)
N3 C2 N2 . . 125.05(9)
N4 C5 S1 . . 113.80(8)
N4 C5 C6 . . 125.29(9)
C6 C5 S1 . . 120.91(8)
C5 C6 H6A . . 109.5
C5 C6 H6B . . 109.5
C5 C6 H6C . . 109.5
H6A C6 H6B . . 109.5
H6A C6 H6C . . 109.5
H6B C6 H6C . . 109.5
N2 C7 H7A . . 109.4
N2 C7 H7B . . 109.4
N2 C7 C8 . . 111.16(9)
H7A C7 H7B . . 108.0
C8 C7 H7A . . 109.4
C8 C7 H7B . . 109.4
Cu1 C8 H8 . . 93.4
C7 C8 Cu1 . . 104.65(7)
C7 C8 H8 . . 118.1
C9 C8 Cu1 . . 71.97(7)
C9 C8 C7 . . 123.77(10)
C9 C8 H8 . . 118.1
Cu1 C9 H9A . . 105.1
Cu1 C9 H9B . . 95.4
C8 C9 Cu1 . . 69.23(7)
C8 C9 H9A . . 120.0
C8 C9 H9B . . 120.0
H9A C9 H9B . . 120.0
F1 B1 F2 . . 108.91(10)
F1 B1 F3 . . 110.33(10)
F3 B1 F2 . . 108.25(9)
F4 B1 F1 . . 109.58(9)
F4 B1 F2 . . 109.39(10)
F4 B1 F3 . . 110.34(10)
loop_
_geom_bond_atom_site_label_1
_geom_bond_atom_site_label_2
_geom_bond_site_symmetry_2
_geom_bond_distance
Cu1 N3 . 2.0036(15)
Cu1 N4 2_666 1.9646(11)
Cu1 C8 . 2.0451(12)
Cu1 C9 . 2.0799(15)
S1 C2 . 1.7397(16)
S1 C5 . 1.7301(11)
N2 H2 . 0.869(15)
N2 C2 . 1.3361(13)
N2 C7 . 1.4597(16)
N3 N4 . 1.3983(13)
N3 C2 . 1.3244(13)
N4 Cu1 2_666 1.9645(11)
N4 C5 . 1.3046(14)
C5 C6 . 1.4910(16)
C6 H6A . 0.9800
C6 H6B . 0.9800
C6 H6C . 0.9800
C7 H7A . 0.9900
C7 H7B . 0.9900
C7 C8 . 1.5072(15)
C8 H8 . 0.9500
C8 C9 . 1.3706(16)
C9 H9A . 0.9500
C9 H9B . 0.9500
F1 B1 . 1.3908(15)
F2 B1 . 1.4055(16)
F3 B1 . 1.3914(14)
F4 B1 . 1.3873(14)
loop_
_geom_hbond_atom_site_label_D
_geom_hbond_atom_site_label_H
_geom_hbond_atom_site_label_A
_geom_hbond_site_symmetry_A
_geom_hbond_distance_DH
_geom_hbond_distance_HA
_geom_hbond_distance_DA
_geom_hbond_angle_DHA
_geom_hbond_publ_flag
N2 H2 F2 1_545 0.869(15) 1.954(15) 2.7874(14) 160.4(14) yes
N2 H2 F3 1_545 0.869(15) 2.525(15) 3.242(2) 140.4(13) yes
C6 H6A F1 2_756 0.98 2.51 3.4175(19) 153.8 no
C6 H6B F4 1_546 0.98 2.54 3.4628(19) 157.1 no
C6 H6C F3 2_766 0.98 2.56 3.4824(18) 157.1 no
C7 H7B F4 2_665 0.99 2.53 3.4900(17) 162.7 yes
C8 H8 F1 . 0.95 2.64 3.2956(18) 126.9 no
loop_
_geom_torsion_atom_site_label_1
_geom_torsion_atom_site_label_2
_geom_torsion_atom_site_label_3
_geom_torsion_atom_site_label_4
_geom_torsion_site_symmetry_1
_geom_torsion_site_symmetry_4
_geom_torsion
Cu1 N3 N4 Cu1 . 2_666 25.80(10)
Cu1 N3 N4 C5 . . -160.39(7)
Cu1 N3 C2 S1 . . 159.58(5)
Cu1 N3 C2 N2 . . -20.20(14)
Cu1 N4 C5 S1 2_666 . 173.28(5)
Cu1 N4 C5 C6 2_666 . -6.89(15)
N2 C7 C8 Cu1 . . -72.62(9)
N2 C7 C8 C9 . . -150.50(9)
N3 N4 C5 S1 . . 0.26(11)
N3 N4 C5 C6 . . -179.91(9)
N4 N3 C2 S1 . . -1.80(10)
N4 N3 C2 N2 . . 178.42(9)
C2 S1 C5 N4 . . -1.04(8)
C2 S1 C5 C6 . . 179.13(9)
C2 N2 C7 C8 . . 54.40(13)
C2 N3 N4 Cu1 . 2_666 -172.82(7)
C2 N3 N4 C5 . . 1.00(11)
C5 S1 C2 N2 . . -178.59(9)
C5 S1 C2 N3 . . 1.63(8)
C7 N2 C2 S1 . . 179.68(8)
C7 N2 C2 N3 . . -0.55(16)
C7 C8 C9 Cu1 . . 95.87(9)
