#------------------------------------------------------------------------------
#$Date: 2018-01-17 08:23:55 +0200 (Wed, 17 Jan 2018) $
#$Revision: 205305 $
#$URL: file:///home/coder/svn-repositories/cod/cif/2/02/09/2020900.cif $
#------------------------------------------------------------------------------
#
# This file is available in the Crystallography Open Database (COD),
# http://www.crystallography.net/. The original data for this entry
# were provided by IUCr Journals, http://journals.iucr.org/.
#
# The file may be used within the scientific community so long as
# proper attribution is given to the journal article from which the
# data were obtained.
#
data_2020900
loop_
_publ_author_name
'Schroeder, Zachary W.'
'Hiscock, L. K.'
'Dawe, Louise Nicole'
_publ_section_title
;
 Copper(II)- and gold(III)-mediated cyclization of a thiourea to a
 substituted 2-aminobenzothiazole
;
_journal_coeditor_code           YF3126
_journal_issue                   11
_journal_name_full               'Acta Crystallographica Section C'
_journal_page_first              905
_journal_page_last               910
_journal_paper_doi               10.1107/S205322961701381X
_journal_volume                  73
_journal_year                    2017
_chemical_formula_iupac          'C13 H13 N3 O S'
_chemical_formula_moiety         'C13 H13 N3 O S'
_chemical_formula_sum            'C13 H13 N3 O S'
_chemical_formula_weight         259.32
_chemical_name_systematic
;
<i>N</i>-(3-Methoxyphenyl)-<i>N</i>'-(pyridin-2-yl)thiourea
;
_space_group_crystal_system      triclinic
_space_group_IT_number           2
_space_group_name_Hall           '-P 1'
_space_group_name_H-M_alt        'P -1'
_symmetry_space_group_name_Hall  '-P 1'
_symmetry_space_group_name_H-M   'P -1'
_atom_sites_solution_hydrogens   mixed
_atom_sites_solution_primary     dual
_audit_creation_method
;
<i>OLEX2</i> 1.2
(compiled 2017.03.28 svn.r3405 for OlexSys, GUI svn.r5337)
;
_cell_angle_alpha                91.249(2)
_cell_angle_beta                 113.506(2)
_cell_angle_gamma                110.292(2)
_cell_formula_units_Z            2
_cell_length_a                   8.4341(2)
_cell_length_b                   8.6991(2)
_cell_length_c                   10.1083(2)
_cell_measurement_reflns_used    11716
_cell_measurement_temperature    173(2)
_cell_measurement_theta_max      65.5700
_cell_measurement_theta_min      4.8370
_cell_volume                     626.74(3)
_computing_cell_refinement
;
CrysAlis PRO (Rigaku OD, 2015)
;
_computing_data_collection
;
CrysAlis PRO (Rigaku OD, 2015)
;
_computing_data_reduction
;
CrysAlis PRO (Rigaku OD, 2015)
;
_computing_molecular_graphics
;
<i>OLEX2</i> (Dolomanov <i>et al.</i>,  2009)
;
_computing_publication_material
;
<i>OLEX2</i> (Dolomanov <i>et al.</i>,  2009)
;
_computing_structure_refinement
;
SHELXL2016 (Sheldrick, 2015b)
;
_computing_structure_solution
;
SHELXT (Sheldrick, 2015a)
;
_diffrn_ambient_temperature      173.15
_diffrn_measured_fraction_theta_full 0.984
_diffrn_measured_fraction_theta_max 0.984
_diffrn_measurement_device       'abstract diffractometer'
_diffrn_measurement_device_type  'Bruker APEXII CCD'
_diffrn_measurement_method       '\w and \f scans'
_diffrn_radiation_monochromator  graphite
_diffrn_radiation_type           CuK\a
_diffrn_radiation_wavelength     1.54184
_diffrn_reflns_av_R_equivalents  0.0261
_diffrn_reflns_limit_h_max       9
_diffrn_reflns_limit_h_min       -9
_diffrn_reflns_limit_k_max       9
_diffrn_reflns_limit_k_min       -10
_diffrn_reflns_limit_l_max       11
_diffrn_reflns_limit_l_min       -11
_diffrn_reflns_number            12480
_diffrn_reflns_theta_full        65.615
_diffrn_reflns_theta_max         65.615
_diffrn_reflns_theta_min         4.856
_exptl_absorpt_coefficient_mu    2.224
_exptl_absorpt_correction_T_max  1.00000
_exptl_absorpt_correction_T_min  0.66803
_exptl_absorpt_correction_type   multi-scan
_exptl_absorpt_process_details
;
(CrysAlis PRO; Rigaku OD, 2015)
;
_exptl_crystal_colour            colorless
_exptl_crystal_density_diffrn    1.374
_exptl_crystal_description       prism
_exptl_crystal_F_000             272
_exptl_crystal_size_max          0.500
_exptl_crystal_size_mid          0.316
_exptl_crystal_size_min          0.107
_refine_diff_density_max         0.252
_refine_diff_density_min         -0.257
_refine_ls_extinction_method     none
_refine_ls_goodness_of_fit_ref   1.109
_refine_ls_hydrogen_treatment    mixed
_refine_ls_matrix_type           full
_refine_ls_number_parameters     172
_refine_ls_number_reflns         2125
_refine_ls_number_restraints     1
_refine_ls_restrained_S_all      1.108
_refine_ls_R_factor_all          0.0337
_refine_ls_R_factor_gt           0.0330
_refine_ls_shift/su_max          0.000
_refine_ls_shift/su_mean         0.000
_refine_ls_structure_factor_coef Fsqd
_refine_ls_weighting_details
'w=1/[\s^2^(Fo^2^)+(0.0415P)^2^+0.2867P] where P=(Fo^2^+2Fc^2^)/3'
_refine_ls_weighting_scheme      calc
_refine_ls_wR_factor_gt          0.0835
_refine_ls_wR_factor_ref         0.0838
_reflns_number_gt                2096
_reflns_number_total             2125
_reflns_threshold_expression     'I > 2\s(I)'
_cod_data_source_file            yf3126sup1.cif
_cod_data_source_block           n17037
_cod_original_cell_volume        626.73(3)
_cod_database_code               2020900
_shelx_space_group_comment
;
The symmetry employed for this shelxl refinement is uniquely defined
by the following loop, which should always be used as a source of
symmetry information in preference to the above space-group names.
They are only intended as comments.
;
_shelx_hkl_file
;
   0   0   1    5.61    0.19
   0   0  -1    5.78    0.21
   0   0   1    5.79    0.20
   0   0   1    5.69    0.15
   0   0  -1    5.72    0.21
   0   0   1    5.47    0.20
   0   0  -1    5.47    0.15
   0   0  -1    5.72    0.20
   0   0   2  568.96    2.68
   0   0  -2  550.23    2.72
   0   0   2  541.02    2.68
   0   0  -2  567.03    2.61
   0   0  -2  556.13    2.54
   0   0   3  172.59    1.92
   0   0   3  173.78    1.88
   0   0  -3  173.69    1.73
   0   0  -3  176.25    1.94
   0   0  -3  171.72    1.74
   0   0   4  354.69    3.28
   0   0  -4  350.99    3.44
   0   0  -4  359.56    3.41
   0   0  -4  353.16    3.33
   0   0  -5  204.74    3.00
   0   0  -5  201.86    2.94
   0   0  -5  211.94    2.33
   0   0  -5  193.50    2.87
   0   0  -5  206.20    3.03
   0   0   5  198.68    2.92
   0   0  -6  102.18    2.72
   0   0  -6  107.82    2.42
   0   0  -6  101.51    1.45
   0   0  -6  106.79    2.49
   0   0  -6  112.68    2.57
   0   0  -6  109.71    1.47
   0   0   6  102.14    2.46
   0   0  -6  104.59    2.40
   0   0  -7   31.26    1.48
   0   0  -7   33.13    1.71
   0   0  -7   32.27    1.23
   0   0  -7   26.54    1.34
   0   0  -7   29.51    1.50
   0   0  -7   28.82    0.83
   0   0  -7   32.85    1.54
   0   0  -7   31.73    1.43
   0   0  -7   30.96    1.46
   0   0  -7   29.15    1.18
   0   0  -7   32.35    0.87
   0   0  -8  143.69    3.25
   0   0  -8  145.48    2.99
   0   0  -8  139.43    2.53
   0   0  -8  142.15    3.07
   0   0  -8  145.86    2.02
   0   0  -8  139.41    3.25
   0   0  -8  140.89    3.71
   0   0  -8  143.75    3.34
   0   0  -9  139.89    3.13
   0   0  -9  142.59    3.74
   0   0   9  127.54    2.95
   0   0  -9  142.75    2.80
   0   0  -9  128.83    2.21
   0   0  -9  132.47    2.57
   0   0 -10   25.12    1.15
   0   0  10   22.43    1.14
   0   1 -10   -0.01    0.24
   0  -1  10    1.20    0.39
   0   1 -10    1.37    0.32
   0   1 -10    1.49    0.53
   0   1 -10    0.93    0.38
   0   1  -9    3.08    0.40
   0  -1   9    5.01    0.68
   0   1  -9    4.37    0.80
   0   1  -9    3.79    0.59
   0   1  -9    2.97    0.61
   0   1  -9    3.49    0.59
   0   1  -8    5.05    0.69
   0   1  -8    3.37    0.69
   0   1  -8    3.95    0.51
   0   1  -8    3.23    0.20
   0   1  -8    3.57    0.60
   0   1  -8    4.52    0.51
   0   1  -8    5.85    0.69
   0   1  -8    4.19    0.68
   0   1  -8    2.66    0.18
   0  -1   8    4.40    0.63
   0   1  -8    5.10    0.74
   0   1  -7  789.29    4.20
   0   1  -7  827.11    8.37
   0   1  -7  864.94    8.33
   0   1  -7  810.90    7.36
   0   1  -7  820.49    7.23
   0   1  -7  850.65    5.81
   0   1  -7  781.93    4.07
   0   1  -7  849.55    4.81
   0   1  -7  807.66    5.89
   0   1  -7  829.37    6.63
   0   1  -7  823.04    7.42
   0   1  -7  828.68    7.53
   0  -1   6  416.90    5.12
   0   1  -6  416.83    4.80
   0   1  -6  405.32    4.94
   0   1  -6  409.21    4.94
   0  -1   5 1362.77    8.06
   0   1  -5 1338.88    7.76
   0   1  -5 1357.84    7.90
   0   1  -4  563.37    4.50
   0   1  -4  563.59    4.33
   0   1  -4  560.03    3.89
   0   1  -4  575.10    4.49
   0   1  -3   16.06    0.69
   0   1  -3   17.01    0.63
   0   1  -3   16.38    0.63
   0  -1   3   17.51    0.68
   0   1  -3   16.39    0.65
   0   1  -3   15.73    0.65
   0  -1   3   14.48    0.62
   0  -1   3   14.15    0.27
   0  -1   2  240.94    2.05
   0   1  -2  240.59    2.09
   0  -1   2  234.80    1.99
   0   1  -2  239.67    1.99
   0   1  -2  233.68    1.96
   0   1  -2  233.92    2.05
   0   1  -1 3200.76    6.15
   0  -1   1 3216.43    5.98
   0  -1   0   91.91    0.85
   0   1   0   95.40    0.85
   0   1   0   93.74    0.84
   0   1   0   96.02    0.86
   0  -1   0   92.92    0.85
   0   1   1 1653.78    3.78
   0  -1  -1 1747.40    4.08
   0  -1  -1 1726.03    3.50
   0  -1  -1 1642.64    3.38
   0  -1  -1 1753.27    3.69
   0   1   1 1573.07    3.61
   0   1   1 1631.87    3.77
   0   1   2 2386.14    5.69
   0  -1  -2 2511.22    6.55
   0  -1  -2 2524.49    5.24
   0  -1  -2 2511.68    5.35
   0  -1  -2 2405.92    4.73
   0  -1  -2 2429.82    5.88
   0   1   2 2528.51    5.94
   0  -1  -2 2428.80    4.99
   0  -1  -3  734.74    4.08
   0  -1  -3  778.77    3.97
   0  -1  -3  807.75    3.42
   0   1   3  750.30    3.99
   0  -1  -3  796.54    3.48
   0  -1  -3  769.86    4.26
   0  -1  -4    2.28    0.34
   0   1   4    1.99    0.30
   0  -1  -4    1.73    0.30
   0  -1  -4    1.99    0.21
   0  -1  -5   17.32    0.91
   0  -1  -5   16.39    0.90
   0  -1  -5   16.27    0.97
   0  -1  -5   15.09    0.45
   0  -1  -5   16.20    0.47
   0  -1  -6    9.66    0.92
   0  -1  -6   10.63    0.81
   0  -1  -6   10.28    0.78
   0  -1  -6   10.88    0.82
   0  -1  -6    9.86    0.78
   0  -1  -6    9.72    0.89
   0  -1  -6   10.43    0.80
   0  -1  -7  542.83    6.88
   0  -1  -7  527.35    6.43
   0  -1  -7  532.08    4.07
   0  -1  -7  544.72    5.99
   0  -1  -7  512.67    5.42
   0  -1  -7  519.51    5.60
   0  -1  -7  529.21    6.66
   0  -1  -7  512.83    4.87
   0  -1  -7  517.46    6.06
   0  -1  -7  507.79    6.27
   0  -1  -7  522.45    5.89
   0  -1  -8   90.91    2.77
   0  -1  -8   91.16    2.22
   0  -1  -8   87.59    2.04
   0  -1  -8   95.68    2.62
   0  -1  -8   82.93    2.63
   0  -1  -8   93.85    2.37
   0  -1  -8  103.16    3.17
   0  -1  -8   93.88    2.55
   0  -1  -8   95.67    2.62
   0  -1  -9  373.50    5.38
   0  -1  -9  392.40    4.86
   0  -1  -9  358.14    3.71
   0  -1  -9  388.74    3.39
   0  -1  -9  373.67    5.68
   0  -1 -10    5.94    0.46
   0   1  10    4.22    0.56
   0   2 -10   70.40    2.44
   0   2 -10   68.39    1.86
   0   2 -10   64.90    1.71
   0  -2  10   61.90    1.73
   0   2 -10   66.20    2.07
   0  -2   9    7.27    0.75
   0   2  -9    7.68    0.79
   0   2  -9    8.48    0.88
   0   2  -9    8.06    0.57
   0   2  -9    8.54    1.01
   0   2  -9    6.57    0.75
   0   2  -9    6.67    0.83
   0   2  -8   17.78    0.83
   0   2  -8   14.78    1.10
   0   2  -8   17.00    1.00
   0   2  -8   16.81    1.22
   0   2  -8   16.51    1.14
   0   2  -8   17.67    1.33
   0   2  -8   19.17    1.37
   0   2  -8   17.46    0.82
   0   2  -8   16.45    1.19
   0  -2   8   16.76    1.09
   0   2  -7  145.46    3.22
   0   2  -7  143.68    2.38
   0   2  -7  154.74    2.56
   0  -2   7  142.70    3.00
   0   2  -7  140.24    3.20
   0   2  -7  149.57    2.43
   0   2  -7  144.86    3.51
   0   2  -7  146.36    3.24
   0   2  -7  161.10    3.67
   0   2  -7  146.17    3.19
   0   2  -7  146.66    2.98
   0   2  -6   43.84    1.37
   0   2  -6   47.54    1.72
   0   2  -6   47.89    1.69
   0   2  -6   46.52    1.76
   0   2  -5  100.71    2.27
   0  -2   5  108.28    2.38
   0   2  -5   94.81    2.16
   0   2  -5  102.01    2.29
   0  -2   5  103.95    2.33
   0   2  -5  100.50    1.96
   0  -2   4    7.87    0.61
   0   2  -4    7.30    0.58
   0   2  -4    7.65    0.53
   0  -2   4    7.49    0.56
   0   2  -4    7.51    0.59
   0   2  -4    8.43    0.62
   0  -2   3  216.35    2.50
   0   2  -3  214.94    2.44
   0   2  -3  230.18    2.58
   0   2  -3  214.49    2.57
   0   2  -3  212.34    2.63
   0  -2   3  225.47    2.56
   0  -2   2  298.81    2.60
   0  -2   2  304.33    2.66
   0   2  -2  296.24    2.67
   0   2  -2  292.80    2.62
   0   2  -2  285.84    2.55
   0   2  -1 1995.19    6.03
   0  -2   1 2001.65    5.79
   0  -2   0 2481.60    6.43
   0   2   0 2481.90    6.39
   0  -2   0 2494.40    6.08
   0  -2  -1   24.44    0.61
   0  -2  -1   24.26    0.57
   0  -2  -1   25.79    0.68
   0   2   1   23.33    0.57
   0   2   1   23.53    0.64
   0   2   1   21.77    0.60
   0  -2  -1   21.98    0.65
   0   2   1   22.58    0.59
   0  -2  -1   24.60    0.53
   0  -2  -2 1909.52    6.30
   0   2   2 1877.18    6.03
   0  -2  -2 1928.81    5.09
   0  -2  -2 1888.70    5.11
   0  -2  -2 1912.99    7.60
   0  -2  -2 1965.08    5.38
   0  -2  -2 1866.34    6.43
   0  -2  -3  704.94    4.40
   0  -2  -3  696.00    4.49
   0  -2  -3  735.52    3.11
   0  -2  -3  711.08    3.04
   0   2   3  716.35    4.39
   0  -2  -3  680.73    4.29
   0  -2  -4   74.45    1.68
   0   2   4   78.01    1.72
   0  -2  -4   76.77    1.74
   0  -2  -4   73.62    1.63
   0  -2  -4   45.12    0.45
   0  -2  -4   49.31    0.47
   0  -2  -5  709.77    5.80
   0  -2  -5  703.31    5.62
   0   2   5  697.51    5.96
   0  -2  -5  711.06    6.87
   0  -2  -6   54.48    1.50
   0  -2  -6   55.24    2.09
   0  -2  -6   58.05    2.17
   0  -2  -6   50.99    1.65
   0  -2  -6   53.36    1.85
   0  -2  -6   53.17    2.15
   0  -2  -6   52.66    1.76
   0  -2  -6   54.36    1.27
   0  -2  -6   48.31    1.91
   0  -2  -6   52.03    1.70
   0  -2  -6   50.82    1.72
   0  -2  -7 1295.44    8.57
   0  -2  -7 1230.52   10.12
   0  -2  -7 1231.54    7.69
   0  -2  -7 1358.50    9.46
   0  -2  -7 1254.06    9.26
   0  -2  -7 1266.62    9.09
   0  -2  -7 1323.10   10.59
   0  -2  -7 1263.85   10.58
   0  -2  -7 1247.85    8.12
   0  -2  -7 1326.09   11.65
   0  -2  -8  190.05    2.69
   0  -2  -8   -0.25    0.37
   0  -2  -8  181.36    3.91
   0  -2  -8  178.29    2.91
   0  -2  -8  195.69    3.54
   0  -2  -8  183.59    4.11
   0  -2  -9  134.04    2.47
   0  -2  -9  131.76    2.17
   0  -2  -9  132.89    3.28
   0   3 -10   10.92    0.98
   0   3 -10    8.94    0.75
   0   3 -10    9.26    0.89
   0  -3  10   10.64    0.67
   0   3 -10   11.35    0.96
   0   3  -9    0.96    0.48
   0   3  -9    1.02    0.41
   0  -3   9    1.13    0.37
   0   3  -9    2.01    0.56
   0   3  -9    1.04    0.43
   0   3  -9    1.41    0.47
   0   3  -9    1.05    0.34
   0  -3   8  154.02    3.06
   0   3  -8  163.40    2.77
   0   3  -8  171.51    3.90
   0   3  -8  170.27    2.42
   0   3  -8  160.21    3.56
   0   3  -8  162.87    3.73
   0   3  -8  161.12    3.69
   0   3  -8  171.60    3.29
   0   3  -8  172.57    3.97
   0   3  -8  157.47    3.49
   0   3  -7   77.88    2.56
   0   3  -7   74.02    2.39
   0   3  -7   77.48    2.46
   0   3  -7   77.33    2.02
   0   3  -7   80.67    2.51
   0   3  -7   74.54    2.39
   0   3  -7   78.53    2.58
   0   3  -7   78.78    1.58
   0  -3   7   77.82    2.17
   0   3  -6  151.82    2.19
   0  -3   6  157.19    2.94
   0   3  -6  143.02    3.15
   0   3  -6  149.57    3.15
   0   3  -6  148.72    3.12
   0   3  -6  156.33    3.40
   0   3  -6  145.80    3.22
   0   3  -6  153.35    3.37
   0   3  -5    0.88    0.36
   0   3  -5    0.06    0.27
   0  -3   5    0.96    0.33
   0   3  -5    1.16    0.38
   0  -3   4  165.56    2.74
   0   3  -4  165.36    2.80
   0   3  -4  164.75    2.84
   0  -3   4  167.23    2.84
   0  -3   4  163.66    2.82
   0   3  -4  162.57    2.83
   0  -3   3  299.62    3.47
   0   3  -3  314.47    3.60
   0  -3   3  311.49    3.55
   0  -3   3  298.17    3.36
   0   3  -3  324.59    3.49
   0   3  -3  302.93    3.57
   0   3  -3  304.46    3.39
   0  -3   2   47.94    1.29
   0   3  -2   48.03    1.31
   0   3  -2   53.65    1.32
   0  -3   2   51.30    1.23
   0  -3   2   50.40    1.33
   0  -3   2   50.91    1.27
   0   3  -2   50.38    1.26
   0  -3   2   54.42    1.35
   0   3  -1  447.06    3.51
   0  -3   1  466.06    3.45
   0  -3   1  460.14    3.73
   0  -3   1  444.07    3.62
   0  -3   1  437.76    3.47
   0   3  -1  448.70    3.51
   0   3   0    6.47    0.44
   0  -3   0    6.75    0.45
   0  -3   0    5.81    0.44
   0   3   0    6.40    0.45
   0  -3   0    6.84    0.47
   0   3   0    6.02    0.43
   0  -3   0    7.35    0.42
   0  -3  -1 3179.92    9.30
   0   3   1 3258.62    9.31
   0  -3  -1 3170.59    9.48
   0  -3  -1 3192.53    7.83
   0  -3  -1 3129.66    9.21
   0  -3  -1 3244.90    9.02
   0  -3  -2 2462.18    6.23
   0   3   2 2420.01    8.55
   0  -3  -2 2492.08    8.73
   0  -3  -2 2416.83    8.68
   0  -3  -2 2462.21    8.60
   0  -3  -3  154.52    2.43
   0  -3  -3  152.94    2.32
   0   3   3  157.86    2.41
   0  -3  -3  161.79    2.43
   0  -3  -4  417.53    4.44
   0  -3  -4  424.03    4.22
   0  -3  -4  427.26    5.38
   0  -3  -4  425.73    4.34
   0   3   4  426.27    4.51
   0  -3  -5   20.59    1.37
   0  -3  -5   23.55    1.45
   0  -3  -5   20.51    1.02
   0  -3  -5   19.17    1.29
   0  -3  -5   20.29    0.74
   0  -3  -5   22.52    1.11
   0  -3  -5   19.30    1.02
   0  -3  -5   18.94    0.98
   0  -3  -5   21.27    1.13
   0  -3  -5   19.99    1.04
   0  -3  -5   19.31    1.23
   0  -3  -6  528.29    4.88
   0  -3  -6  542.57    5.38
   0  -3  -6  517.85    7.21
   0  -3  -6  530.19    5.66
   0  -3  -6  513.77    6.55
   0  -3  -6  561.18    5.86
   0  -3  -6  512.70    5.07
   0  -3  -6  520.41    6.87
   0  -3  -6  542.80    7.09
   0  -3  -6  515.24    5.74
   0  -3  -7  623.37    5.49
   0  -3  -7  614.73    6.26
   0  -3  -7  615.62    4.98
   0  -3  -7  649.55    7.95
   0  -3  -7  647.44    7.70
   0  -3  -7  626.46    6.19
   0  -3  -7  602.92    7.21
   0  -3  -8  156.67    3.63
   0  -3  -8  155.60    2.66
   0  -3  -8  162.47    2.88
   0  -3  -9    1.85    0.31
   0  -3  -9    1.56    0.45
   0   4 -10  124.81    2.91
   0   4 -10  120.34    2.83
   0   4 -10  112.54    2.37
   0   4 -10  114.94    2.48
   0  -4   9   21.05    0.95
   0   4  -9   21.88    1.34
   0   4  -9   20.03    1.02
   0   4  -9   18.67    1.22
   0   4  -9   19.68    0.65
   0   4  -9   20.10    1.24
   0   4  -8    7.92    0.86
   0   4  -8    6.40    0.83
   0   4  -8    9.50    0.99
   0   4  -8    6.92    0.60
   0   4  -8    7.00    0.86
   0   4  -8    7.22    0.75
   0   4  -8    8.93    0.73
   0   4  -8    8.56    0.93
   0   4  -8    6.62    0.84
   0  -4   8    7.18    0.68
   0   4  -7    2.75    0.65
   0  -4   7    2.33    0.47
   0   4  -7    1.89    0.55
   0   4  -7    3.03    0.64
   0   4  -7    2.47    0.59
   0   4  -7    2.77    0.61
   0   4  -6   92.15    2.64
   0  -4   6   89.88    2.57
   0   4  -6   90.82    2.61
   0   4  -6   93.73    2.66
   0   4  -6   90.35    2.67
   0  -4   6   96.72    2.26
   0   4  -6   98.87    2.73
   0   4  -6   92.63    2.42
   0   4  -5   40.87    1.65
   0  -4   5   43.17    1.45
   0   4  -5   43.88    1.73
   0  -4   5   41.19    1.65
   0   4  -4  204.00    3.44
   0  -4   4  208.24    3.45
   0   4  -4  215.66    3.59
   0  -4   4  209.80    3.47
   0   4  -3  153.27    2.86
   0  -4   3  151.98    2.69
   0  -4   3  151.36    2.76
   0   4  -3  149.88    2.78
   0  -4   3  150.52    2.72
   0  -4   2  939.15    6.40
   0  -4   2  969.69    6.05
   0  -4   2  937.51    6.50
   0   4  -2  939.92    6.68
   0   4  -2  981.31    6.59
   0  -4   2  944.54    6.32
   0  -4   1  697.79    5.25
   0   4  -1  695.56    5.35
   0  -4   1  696.72    5.33
   0  -4   0  442.10    4.12
   0  -4   0  447.07    4.14
   0  -4   0  439.84    4.13
   0  -4  -1 2351.75    9.53
   0  -4  -1 2395.88    9.68
   0  -4  -1 2346.57    9.76
   0   4   1 2342.53    9.62
   0  -4  -1 2398.05    7.59
   0  -4  -2  296.29    3.63
   0  -4  -2  309.21    3.59
   0   4   2  302.95    3.64
   0  -4  -2  300.79    3.51
   0  -4  -3    9.45    0.85
   0  -4  -3   10.21    0.85
   0   4   3    8.88    0.71
   0  -4  -3    9.97    0.70
   0  -4  -3    9.04    0.68
   0  -4  -3    9.39    0.73
   0  -4  -4  340.44    5.26
   0  -4  -4  335.55    4.15
   0  -4  -4  333.15    3.99
   0  -4  -4  348.01    4.24
   0  -4  -4  322.95    5.37
   0  -4  -4  320.48    5.06
   0  -4  -4  327.97    4.32
   0  -4  -4  327.28    4.78
   0  -4  -4  332.92    5.03
   0  -4  -4  345.36    4.16
   0  -4  -5  221.44    4.11
   0  -4  -5  240.62    3.55
   0  -4  -5  233.60    3.68
   0  -4  -5  235.60    3.80
   0  -4  -5  224.00    4.71
   0  -4  -5  233.13    3.36
   0  -4  -5  254.24    3.87
   0  -4  -5  220.57    4.50
   0  -4  -5  237.86    3.23
   0  -4  -5  230.54    3.34
   0  -4  -5  213.68    4.58
   0  -4  -5  218.19    4.30
   0  -4  -6   84.64    2.79
   0  -4  -6   85.88    2.27
   0  -4  -6   83.28    2.00
   0  -4  -6   80.96    1.82
   0  -4  -6   80.76    2.26
   0  -4  -6   90.61    3.01
   0  -4  -6   89.20    3.05
   0  -4  -7   42.14    1.52
   0  -4  -7   46.47    2.15
   0  -4  -7   38.42    1.38
   0  -4  -7   43.64    2.15
   0  -4  -7   40.42    1.94
   0  -4  -8  172.88    3.68
   0  -4  -8  175.04    4.00
   0  -4  -8  167.77    2.51
   0   5 -10   39.45    1.51
   0   5 -10   36.66    1.30
   0  -5  10   36.21    1.39
   0   5 -10   39.49    1.39
   0   5  -9    8.89    0.51
   0   5  -9    9.26    0.88
   0   5  -9    8.05    0.82
   0   5  -9    8.73    0.84
   0   5  -9    8.89    0.87
   0   5  -9    7.60    0.64
   0   5  -8   81.30    2.70
   0   5  -8   84.40    2.62
   0   5  -8   82.74    2.48
   0   5  -8   82.78    2.09
   0   5  -8   85.11    1.95
   0  -5   8   76.25    1.59
   0   5  -8   76.37    2.42
   0   5  -7   72.30    2.53
   0   5  -7   73.10    2.17
   0   5  -7   68.73    2.50
   0   5  -7   75.30    2.43
   0   5  -7   66.49    2.45
   0   5  -7   72.38    2.34
   0  -5   7   74.09    1.74
   0   5  -6  434.77    5.53
   0   5  -6  424.83    5.56
   0   5  -6  441.67    6.12
   0  -5   6  430.06    5.96
   0   5  -6  420.47    5.95
   0   5  -6  422.40    5.97
   0  -5   6  434.91    4.26
   0   5  -5  121.45    2.82
   0   5  -5  117.03    3.02
   0  -5   5  125.40    2.24
   0  -5   5  120.52    2.99
   0  -5   5  118.62    2.89
   0   5  -5  120.70    3.11
   0   5  -5  115.50    3.11
   0  -5   4  648.78    4.62
   0  -5   4  640.45    6.53
   0  -5   4  655.75    6.60
   0  -5   4  649.86    6.63
   0   5  -4  653.79    6.82
   0   5  -3  299.21    4.41
   0  -5   3  291.00    4.18
   0  -5   3  297.79    4.26
   0  -5   2  124.21    2.70
   0  -5   2  118.49    2.65
   0  -5   2  122.10    2.60
   0  -5   2  123.47    2.65
   0   5  -1  163.69    3.14
   0  -5   1  159.63    2.90
   0  -5   1  165.93    2.93
   0  -5   1  161.30    2.99
   0   5   0    2.00    0.42
   0  -5   0    1.73    0.41
   0  -5   0    2.45    0.43
   0   5   1  134.37    2.78
   0  -5  -1  145.18    2.75
   0  -5  -1  147.67    2.74
   0  -5  -1  143.20    2.87
   0  -5  -1  131.48    1.46
   0  -5  -2  184.64    3.13
   0  -5  -2  179.29    3.82
   0  -5  -2  184.02    3.12
   0  -5  -2  180.23    3.71
   0  -5  -2  179.29    3.09
   0  -5  -2  174.67    3.00
   0  -5  -3  142.34    2.77
   0  -5  -3  141.32    3.35
   0  -5  -3  138.96    2.66
   0  -5  -3  132.24    3.25
   0  -5  -3  133.15    2.76
   0  -5  -3  140.59    2.83
   0  -5  -3  143.39    2.43
   0  -5  -3  153.89    3.54
   0  -5  -3  129.48    3.50
   0  -5  -3  137.84    2.92
   0  -5  -4   30.15    1.68
   0  -5  -4   27.64    1.35
   0  -5  -4   30.86    1.84
   0  -5  -4   36.90    1.91
   0  -5  -4   32.92    1.25
   0  -5  -4   33.62    1.43
   0  -5  -4   35.96    1.49
   0  -5  -4   33.07    1.74
   0  -5  -4   31.07    1.64
   0  -5  -4   35.63    1.39
   0  -5  -4   32.76    1.29
   0  -5  -5  126.46    2.79
   0  -5  -5  130.23    2.46
   0  -5  -5  114.81    3.28
   0  -5  -5  119.85    2.64
   0  -5  -5  126.21    3.66
   0  -5  -5  123.25    3.22
   0  -5  -5  121.11    3.48
   0  -5  -5  125.57    2.22
   0  -5  -6  425.95    6.25
   0  -5  -6  430.82    6.66
   0  -5  -6  430.46    4.45
   0  -5  -6  415.67    4.63
   0  -5  -6  440.81    6.67
   0  -5  -7    6.55    0.60
   0  -5  -7    7.86    0.97
   0  -5  -7    7.79    0.91
   0  -5  -7    6.68    0.40
   0  -5  -7    6.30    0.84
   0   6  -9   13.83    0.93
   0   6  -9   10.73    0.45
   0   6  -9   14.54    0.98
   0  -6   9   14.84    0.93
   0   6  -9   15.21    1.00
   0   6  -9   14.70    0.81
   0   6  -9   11.51    0.49
   0   6  -8  244.38    3.46
   0   6  -8  235.58    3.91
   0   6  -8  242.36    3.10
   0   6  -8  235.70    4.21
   0  -6   8  235.19    4.50
   0   6  -7   30.82    1.49
   0   6  -7   28.80    1.65
   0   6  -7   30.52    1.65
   0  -6   7   29.64    1.52
   0   6  -7   30.15    1.38
   0  -6   7   26.69    1.59
   0  -6   7   28.36    1.68
   0   6  -6    3.11    0.59
   0  -6   6    1.70    0.56
   0  -6   6    2.55    0.61
   0   6  -6    3.09    0.71
   0   6  -6    1.94    0.49
   0  -6   6    2.51    0.59
   0   6  -6    3.74    0.72
   0  -6   5  104.09    3.04
   0  -6   5   88.70    2.74
   0  -6   5   99.16    2.95
   0   6  -5  100.07    2.94
   0  -6   5  110.00    2.87
   0  -6   5   91.18    2.83
   0   6  -5   99.28    2.96
   0  -6   4  252.27    4.44
   0  -6   4  268.77    4.28
   0   6  -4  243.66    4.50
   0  -6   4  246.12    4.45
   0  -6   4  265.77    4.76
   0  -6   4  268.00    4.69
   0  -6   4  255.54    4.57
   0  -6   3    8.56    0.88
   0  -6   3   10.90    0.95
   0  -6   3    9.85    0.93
   0  -6   3    9.89    0.85
   0  -6   3   10.52    0.56
   0  -6   3    9.43    0.89
   0  -6   3   12.17    1.09
   0  -6   2    0.01    0.33
   0  -6   2    0.35    0.36
   0  -6   2    0.35    0.24
   0  -6   2    0.51    0.38
   0  -6   2    0.36    0.33
   0  -6   2    0.61    0.40
   0  -6   2    0.36    0.40
   0  -6   1  203.55    3.67
   0  -6   1  191.98    4.16
   0  -6   1  198.59    3.65
   0  -6   1  209.00    3.80
   0  -6   1  215.44    3.00
   0  -6   1  206.64    2.74
   0  -6   1  205.73    3.25
   0  -6   1  201.18    3.72
   0  -6   1  204.84    3.56
   0  -6   0   95.39    2.50
   0  -6   0   87.88    1.36
   0  -6   0   96.89    1.99
   0  -6   0   96.45    2.53
   0  -6   0   92.03    2.47
   0  -6   0   92.93    2.46
   0  -6   0   84.54    2.77
   0  -6   0   96.24    2.29
   0  -6   0   95.46    1.92
   0  -6  -1 1524.53    5.23
   0  -6  -1 1485.80    8.04
   0  -6  -1 1429.49    9.38
   0  -6  -1 1399.95   11.03
   0  -6  -1 1433.66    9.64
   0  -6  -1 1467.35   10.29
   0  -6  -1 1412.47    5.11
   0  -6  -1 1470.31    9.76
   0  -6  -1 1416.27    9.25
   0  -6  -1 1428.77    7.61
   0  -6  -2  198.29    3.73
   0  -6  -2  194.76    4.21
   0  -6  -2  204.22    4.36
   0  -6  -2  209.07    3.72
   0  -6  -2  198.14    4.14
   0  -6  -2  193.91    2.30
   0  -6  -2  204.76    3.39
   0  -6  -2  209.33    3.71
   0  -6  -2  195.32    2.91
   0  -6  -2  200.82    3.46
   0   6   3   13.89    1.13
   0  -6  -3   12.26    1.12
   0  -6  -3   15.17    1.28
   0  -6  -3   16.70    1.10
   0  -6  -3   14.69    1.22
   0  -6  -3   13.30    0.81
   0  -6  -3   15.71    0.93
   0  -6  -3   15.77    0.98
   0  -6  -3   14.95    1.02
   0  -6  -3   16.39    1.07
   0  -6  -4   38.02    1.34
   0  -6  -4   39.63    1.24
   0  -6  -4   39.85    1.23
   0  -6  -4   40.31    1.99
   0  -6  -4   39.90    1.90
   0  -6  -4   40.93    2.10
   0  -6  -4   37.12    1.53
   0  -6  -5  426.08    4.34
   0  -6  -5  432.84    6.31
   0  -6  -5  423.37    6.57
   0  -6  -5  423.89    4.59
   0  -6  -5  427.50    5.88
   0  -6  -6   27.10    1.05
   0  -6  -6   31.29    1.77
   0  -6  -6   26.94    1.59
   0  -6  -6   27.89    1.60
   0  -6  -7    2.93    0.61
   0  -6  -7    3.76    0.64
   0   7  -8   15.89    1.07
   0   7  -8   14.15    0.63
   0  -7   8   15.62    0.84
   0  -7   8   14.54    1.03
   0   7  -8   16.11    0.88
   0   7  -7    9.64    0.95
   0  -7   7    7.80    0.87
   0  -7   7    7.88    0.73
   0  -7   7    7.67    0.87
   0   7  -7    7.69    0.72
   0  -7   6   81.79    2.20
   0  -7   6   74.68    2.58
   0   7  -6   85.03    2.56
   0  -7   6   78.48    2.56
   0   7  -6   77.48    2.31
   0  -7   6   77.55    2.60
   0   7  -5   10.44    1.00
   0  -7   5   11.41    0.89
   0  -7   5    9.32    0.94
   0  -7   5   10.13    1.01
   0  -7   5   12.44    1.12
   0  -7   4   13.84    1.18
   0  -7   4   12.09    1.07
   0  -7   4   12.16    0.89
   0  -7   4   10.70    1.02
   0  -7   4   10.72    1.03
   0  -7   4   10.77    1.02
   0  -7   3  210.07    4.43
   0  -7   3  210.31    3.99
   0  -7   3  194.14    4.04
   0  -7   3  188.65    3.95
   0  -7   3  194.53    3.49
   0  -7   3  205.78    3.15
   0  -7   3  196.41    4.08
   0  -7   3  184.08    3.96
   0  -7   2   94.45    1.71
   0  -7   2   83.43    2.57
   0  -7   2   90.94    2.99
   0  -7   2   85.32    2.60
   0  -7   2   86.86    1.73
   0  -7   2   82.80    2.36
   0  -7   2   78.31    2.56
   0  -7   2   89.07    2.15
   0  -7   2   82.52    2.61
   0  -7   1   75.93    2.40
   0  -7   1   74.85    2.74
   0  -7   1   78.20    2.41
   0  -7   1   72.25    1.64
   0  -7   1   84.42    2.21
   0  -7   1   80.10    1.71
   0  -7   1   81.50    2.57
   0  -7   1   77.62    2.49
   0  -7   0   11.73    0.99
   0  -7   0   10.60    0.73
   0  -7   0   11.76    0.93
   0  -7   0   10.85    1.13
   0  -7   0   11.42    0.99
   0  -7   0   12.19    0.98
   0  -7   0   11.51    0.71
   0  -7  -1  454.41    2.81
   0  -7  -1  491.31    5.54
   0  -7  -1  494.69    6.14
   0  -7  -1  474.71    6.79
   0  -7  -1  502.48    6.08
   0  -7  -1  479.05    5.35
   0  -7  -1  502.23    6.07
   0  -7  -1  478.96    4.44
   0  -7  -1  476.67    6.70
   0  -7  -2   35.19    1.85
   0  -7  -2   31.88    1.20
   0  -7  -2   34.44    1.40
   0  -7  -2   30.81    1.69
   0  -7  -2   33.75    1.31
   0  -7  -2   33.24    1.54
   0  -7  -2   30.44    1.74
   0  -7  -3    9.14    0.99
   0  -7  -3    9.85    0.58
   0  -7  -3    9.94    0.69
   0  -7  -3    9.20    1.03
   0  -7  -3    9.59    0.81
   0  -7  -3   10.04    1.04
   0  -7  -4    2.14    0.41
   0  -7  -4    1.02    0.51
   0  -7  -4    1.12    0.56
   0  -7  -4    1.34    0.35
   0  -7  -4    1.61    0.50
   0  -7  -5    9.47    0.93
   0  -7  -5   11.35    1.06
   0  -7  -5    9.25    0.58
   0  -8   7    5.65    0.59
   0  -8   7    6.40    0.69
   0   8  -7    5.19    0.48
   0  -8   7    4.73    0.42
   0  -8   6    2.10    0.53
   0   8  -6    1.87    0.45
   0  -8   6    1.94    0.53
   0  -8   6    1.37    0.33
   0  -8   6    1.93    0.48
   0  -8   6    0.67    0.11
   0  -8   5  170.60    2.64
   0  -8   5  167.12    3.54
   0  -8   5  170.23    3.54
   0   8  -5  159.94    3.45
   0  -8   5  172.28    3.23
   0  -8   4    1.84    0.51
   0  -8   4    1.08    0.40
   0   8  -4    0.31    0.34
   0   8  -4    1.55    0.54
   0  -8   4    1.17    0.32
   0  -8   4    2.01    0.56
   0  -8   4    1.09    0.47
   0  -8   3  165.52    2.97
   0  -8   3  163.95    2.05
   0  -8   3  158.76    3.42
   0  -8   3  169.31    3.57
   0  -8   3  160.56    3.68
   0  -8   3  168.79    3.87
   0  -8   2  110.76    2.79
   0  -8   2  114.37    2.27
   0  -8   2  116.47    3.10
   0  -8   2  120.66    3.39
   0  -8   1   23.65    1.27
   0  -8   1   25.95    1.46
   0  -8   1   24.69    0.81
   0  -8   1   26.50    1.36
   0  -8   1   25.22    1.58
   0  -8   0  326.41    4.36
   0  -8   0  317.84    5.47
   0  -8   0  347.33    5.07
   0  -8   0  345.91    3.15
   0  -8   0  328.03    4.25
   0  -8   0  312.12    5.47
   0  -8  -1  169.93    3.95
   0  -8  -1  161.14    3.74
   0  -8  -1  171.71    2.65
   0  -8  -1  172.25    3.86
   0  -8  -1  176.78    2.33
   0  -8  -1  170.75    3.34
   0  -8  -2   48.78    1.63
   0  -8  -2   46.39    2.02
   0  -8  -2   52.64    1.25
   0  -8  -2   53.60    2.15
   0   8   2   52.79    2.05
   0  -8  -3   33.51    1.66
   0  -8  -3   36.71    1.70
   0  -8  -3   31.08    0.90
   0  -8  -3   34.59    1.07
   0   8   3   32.54    1.56
   0  -8  -4  281.19    4.35
   0  -9   5   61.85    1.80
   0  -9   5   64.53    1.80
   0   9  -5   61.51    1.75
   0   9  -5   60.64    1.83
   0   9  -4   53.12    1.83
   0  -9   4   52.09    1.86
   0  -9   4   55.62    1.75
   0  -9   4   48.98    1.61
   0  -9   3  569.75    6.48
   0   9  -3  541.79    5.96
   0  -9   3  552.70    5.44
   0  -9   3  576.08    6.50
   0  -9   3  554.43    5.29
   0  -9   2  318.94    5.03
   0  -9   2  339.97    5.14
   0  -9   2  325.75    3.97
   0  -9   2  312.50    3.78
   0  -9   2  294.39    4.37
   0  -9   1   98.83    2.81
   0  -9   1   93.63    1.80
   0  -9   1   89.68    2.30
   0   9  -1   99.49    2.71
   0  -9   1   85.19    1.84
   0  -9   1  100.65    2.79
   0  -9   0    1.66    0.49
   0  -9   0    1.47    0.38
   0  -9   0    1.30    0.52
   0   9   0    0.80    0.42
   0  -9  -1    4.17    0.42
   0  -9  -1    5.64    0.71
   0   9   1    5.64    0.68
   0   9   1    5.07    0.67
   0  -9  -1    5.22    0.65
   1  -9  -3  243.77    4.07
   1  -9  -2  128.99    1.73
   1  -9  -2  128.37    2.97
   1  -9  -2  131.07    3.24
   1  -9  -1  100.00    2.82
   1  -9  -1  100.57    1.58
   1  -9  -1  102.17    2.94
   1  -9  -1  101.98    1.92
   1  -9   0    5.11    0.58
   1  -9   0    5.11    0.76
   1  -9   0    4.87    0.74
   1  -9   1   47.47    2.04
   1  -9   1   47.14    1.28
   1  -9   1   47.36    1.72
   1  -9   1   48.31    2.06
   1  -9   2   33.94    1.33
   1  -9   2   33.11    1.70
   1  -9   2   37.69    1.77
   1  -9   2   34.08    1.29
   1  -9   2   34.85    1.55
   1  -9   3   18.13    1.23
   1  -9   3   18.00    1.03
   1  -9   3   17.79    1.00
   1  -9   4    8.56    0.71
  -1   9  -4   10.25    0.88
   1  -9   4    8.93    0.75
  -1   9  -5    0.31    0.26
   1  -9   5    0.43    0.32
   1  -8  -5   61.51    2.03
   1  -8  -5   59.55    2.08
   1  -8  -5   55.33    1.26
   1  -8  -5   60.93    2.09
   1  -8  -4   15.91    0.80
   1  -8  -4   18.46    1.28
  -1   8   4   16.41    1.11
   1  -8  -4   15.84    1.18
   1  -8  -3    5.56    0.80
   1  -8  -3    6.95    0.50
   1  -8  -3    6.51    0.58
   1  -8  -2   16.37    1.27
   1  -8  -2   18.34    0.90
   1  -8  -2   17.53    1.37
   1  -8  -2   17.71    0.98
   1  -8  -1    2.00    0.47
   1  -8  -1    1.45    0.35
   1  -8  -1    1.87    0.61
   1  -8  -1    1.27    0.62
   1  -8  -1    1.63    0.33
   1  -8   0   54.20    2.34
   1  -8   0   52.01    1.70
   1  -8   0   52.97    1.95
   1  -8   0   53.61    1.66
   1  -8   0   46.68    2.17
   1  -8   0   52.28    1.43
   1  -8   1    8.54    0.78
   1  -8   1    9.09    0.82
   1  -8   1   11.67    1.01
   1  -8   1    8.00    0.82
   1  -8   1    8.76    0.60
   1  -8   1    9.33    1.03
   1  -8   2   74.70    1.69
   1  -8   2   80.38    2.77
   1  -8   2   75.01    2.45
   1  -8   2   73.38    2.24
   1  -8   2   80.75    2.38
   1  -8   2   79.75    1.52
   1  -8   3    4.42    0.73
   1  -8   3    3.58    0.66
   1  -8   3    4.40    0.54
   1  -8   3    3.91    0.66
   1  -8   3    4.16    0.69
   1  -8   4  413.22    5.57
   1  -8   4  409.15    5.51
   1  -8   4  419.55    4.77
   1  -8   4  403.66    3.32
  -1   8  -5   -0.10    0.34
   1  -8   5    1.00    0.45
   1  -8   5    0.18    0.32
   1  -8   5    0.34    0.26
   1  -8   5    0.83    0.41
   1  -8   5    0.67    0.43
   1  -8   6    1.14    0.46
  -1   8  -6    0.85    0.41
   1  -8   6    1.26    0.29
   1  -8   6    0.76    0.41
   1  -8   6    1.40    0.39
  -1   8  -7    6.26    0.57
   1  -8   7    4.12    0.29
   1  -8   7    4.90    0.55
   1  -8   7    5.13    0.63
   1  -8   7    5.57    0.65
   1  -7  -6   61.02    2.26
   1  -7  -6   55.66    2.25
   1  -7  -6   56.02    2.02
   1  -7  -6   57.58    1.48
   1  -7  -5   43.36    1.37
   1  -7  -5   41.47    2.06
   1  -7  -5   43.39    1.97
   1  -7  -5   42.44    2.00
   1  -7  -4   72.08    2.74
   1  -7  -4   73.97    1.66
   1  -7  -4   71.94    2.63
   1  -7  -4   69.34    1.79
   1  -7  -4   72.42    2.64
   1  -7  -3  551.76    5.33
   1  -7  -3  553.67    7.34
   1  -7  -3  557.88    5.05
   1  -7  -3  543.77    6.94
   1  -7  -3  541.76    7.17
   1  -7  -2  214.98    3.48
   1  -7  -2  192.08    2.93
   1  -7  -2  204.63    2.83
   1  -7  -2  200.62    4.36
   1  -7  -2  204.31    4.50
   1  -7  -2  205.22    3.53
   1  -7  -2  199.41    3.00
   1  -7  -2  205.08    4.33
   1  -7  -1  413.85    5.10
   1  -7  -1  396.75    4.52
   1  -7  -1  399.88    5.22
   1  -7  -1  400.52    4.16
   1  -7  -1  420.11    4.77
   1  -7  -1  392.85    6.21
   1  -7  -1  384.64    6.18
   1  -7   0  594.20    5.97
   1  -7   0  616.28    6.76
   1  -7   0  634.35    6.58
   1  -7   0  591.86    4.25
   1  -7   0  603.62    6.12
   1  -7   0  576.09    7.52
   1  -7   0  619.29    6.49
   1  -7   0  619.73    5.06
   1  -7   1  134.71    3.12
   1  -7   1  135.49    2.30
   1  -7   1  129.59    2.48
   1  -7   1  141.16    1.62
   1  -7   1  135.07    3.14
   1  -7   1  134.82    3.04
   1  -7   1  148.61    1.70
   1  -7   1  134.47    3.01
   1  -7   1  135.72    3.60
   1  -7   1  118.87    1.46
   1  -7   2    1.48    0.45
   1  -7   2    1.74    0.51
   1  -7   2    1.23    0.40
   1  -7   2    1.24    0.44
   1  -7   2    1.63    0.54
   1  -7   2    1.50    0.47
   1  -7   2    0.68    0.28
   1  -7   2    1.53    0.54
   1  -7   2    0.96    0.30
   1  -7   2    1.27    0.16
   1  -7   3   12.37    0.73
   1  -7   3   11.29    1.03
   1  -7   3   13.24    0.65
   1  -7   3   12.41    0.98
   1  -7   3   11.53    1.01
   1  -7   3   14.73    1.14
   1  -7   3    9.85    0.98
   1  -7   3   11.84    1.02
   1  -7   3   13.33    1.10
   1  -7   3   12.12    1.09
   1  -7   3   12.96    0.88
   1  -7   4   30.36    1.62
   1  -7   4   32.90    1.63
   1  -7   4   29.37    1.63
   1  -7   4   28.52    1.60
   1  -7   4   29.67    1.63
   1  -7   4   29.99    1.23
   1  -7   4   29.49    1.66
   1  -7   4   31.74    1.65
   1  -7   4   31.12    1.44
   1  -7   5  158.81    3.27
   1  -7   5  163.08    3.69
   1  -7   5  155.86    3.69
   1  -7   5  160.38    3.82
   1  -7   5  167.18    2.96
   1  -7   5  159.96    3.81
   1  -7   5  156.49    3.69
  -1   7  -6  339.27    4.90
   1  -7   6  339.50    5.54
   1  -7   6  330.08    5.15
   1  -7   7   61.84    1.67
   1  -7   7   60.37    2.13
   1  -7   7   63.55    2.31
  -1   7  -7   57.82    1.80
   1  -7   8   11.71    0.76
  -1   7  -8   12.14    0.62
  -1   7  -8   12.68    0.95
   1  -7   8   11.90    0.63
  -1   7  -8   11.50    0.80
   1  -7   8   11.66    0.91
  -1   7  -8   12.15    0.72
   1  -6  -7   67.57    2.48
   1  -6  -7   72.17    1.73
   1  -6  -6  212.24    4.25
   1  -6  -6  222.58    3.19
   1  -6  -6  222.59    4.59
   1  -6  -6  217.42    4.79
   1  -6  -5  437.35    4.08
   1  -6  -5  419.35    6.77
   1  -6  -5  423.06    6.26
   1  -6  -5  443.52    6.51
   1  -6  -4    7.47    0.65
   1  -6  -4    5.29    0.82
   1  -6  -4    7.58    0.94
   1  -6  -4    5.59    0.85
   1  -6  -3  128.46    2.62
   1  -6  -3  126.10    2.14
   1  -6  -3  128.12    2.51
   1  -6  -3  128.77    3.39
   1  -6  -3  125.47    3.52
   1  -6  -3  124.34    3.39
   1  -6  -3  126.36    3.27
   1  -6  -2    8.99    0.71
   1  -6  -2    8.58    0.95
   1  -6  -2   10.92    0.72
   1  -6  -2   10.56    0.75
   1  -6  -2   10.67    1.03
   1  -6  -2    9.57    0.74
   1  -6  -2    8.94    0.96
   1  -6  -1  534.21    6.79
   1  -6  -1  562.06    5.84
   1  -6  -1  575.31    5.51
   1  -6  -1  561.21    5.29
   1  -6  -1  583.65    5.55
   1  -6  -1  533.26    3.88
   1  -6  -1  565.07    5.45
   1  -6   0   32.72    1.11
   1  -6   0   31.24    1.49
   1  -6   0   32.67    1.37
   1  -6   0   32.64    1.19
   1  -6   0   33.01    1.70
   1  -6   0   35.47    1.43
   1  -6   0   34.31    1.41
   1  -6   0   32.10    0.88
   1  -6   1    7.12    0.54
   1  -6   1    8.80    0.87
   1  -6   1    6.99    0.72
   1  -6   1    6.92    0.72
   1  -6   1    6.33    0.68
   1  -6   1    7.58    0.72
   1  -6   1    5.68    0.64
   1  -6   1    6.26    0.77
   1  -6   2   12.75    1.02
   1  -6   2   11.87    0.94
   1  -6   2   12.72    0.78
   1  -6   2   11.17    0.89
   1  -6   2   10.07    0.87
   1  -6   2   10.77    0.92
   1  -6   2   12.73    0.98
   1  -6   2   13.05    1.08
   1  -6   3   32.39    1.60
   1  -6   3   31.69    1.53
   1  -6   3   32.09    1.63
   1  -6   3   32.34    1.59
   1  -6   3   30.93    1.50
   1  -6   3   32.52    1.03
   1  -6   3   34.77    1.40
   1  -6   3   30.83    1.55
   1  -6   3   30.96    1.59
   1  -6   4  189.88    3.81
   1  -6   4  197.99    4.15
   1  -6   4  202.22    3.59
   1  -6   4  184.67    3.78
   1  -6   4  193.12    3.85
   1  -6   4  191.92    3.94
   1  -6   5    0.90    0.48
   1  -6   5    0.60    0.42
   1  -6   5    0.52    0.39
   1  -6   5    0.15    0.42
   1  -6   5    0.47    0.46
   1  -6   6  675.21    7.62
   1  -6   6  725.94    8.27
   1  -6   6  681.19    7.69
  -1   6  -6  677.07    7.01
  -1   6  -6  712.18    7.28
   1  -6   6  749.45    7.31
  -1   6  -6  704.89    8.03
   1  -6   7  276.77    4.85
  -1   6  -7  280.80    4.18
  -1   6  -7  272.71    4.98
  -1   6  -7  269.81    4.39
   1  -6   7  263.52    4.82
  -1   6  -7  270.97    4.78
   1  -6   7  290.78    5.20
   1  -6   7  275.89    4.31
  -1   6  -7  293.87    4.60
   1  -6   8    0.48    0.35
  -1   6  -8    0.38    0.43
  -1   6  -8    0.86    0.42
   1  -6   8    0.53    0.38
  -1   6  -8    1.15    0.42
  -1   6  -8    1.20    0.36
  -1   6  -9   49.26    1.67
   1  -6   9   50.65    1.44
  -1   6  -9   46.69    1.65
  -1   6  -9   47.46    1.62
  -1   6  -9   46.72    1.35
   1  -5  -8   71.74    2.49
   1  -5  -8   71.84    1.74
   1  -5  -8   71.95    2.43
   1  -5  -8   72.13    2.58
   1  -5  -7  227.65    4.66
   1  -5  -7  231.98    3.30
   1  -5  -7  241.65    4.92
   1  -5  -7  235.16    4.99
   1  -5  -6   25.94    1.62
   1  -5  -6   24.08    1.49
   1  -5  -6   26.16    1.74
   1  -5  -6   28.98    1.10
   1  -5  -5   48.17    2.14
   1  -5  -5   47.35    2.07
   1  -5  -5   51.01    2.19
   1  -5  -5   47.29    1.51
   1  -5  -5   48.50    2.22
   1  -5  -5   47.00    2.24
   1  -5  -4  452.08    6.62
   1  -5  -4  501.15    3.94
   1  -5  -4  472.58    4.70
   1  -5  -4  513.85    4.63
   1  -5  -4  510.84    6.57
   1  -5  -4  472.68    6.21
   1  -5  -4  479.53    6.31
   1  -5  -4  486.60    6.38
   1  -5  -3  256.61    3.45
   1  -5  -3  296.72    3.49
   1  -5  -3  276.37    4.59
   1  -5  -3  263.01    3.05
   1  -5  -3  289.39    4.43
   1  -5  -3  261.50    4.70
   1  -5  -3  256.46    4.43
   1  -5  -3  269.63    3.29
   1  -5  -2  342.32    3.68
  -1   5   2  341.68    4.05
   1  -5  -1   55.12    1.51
  -1   5   1   57.73    1.70
   1  -5  -1   58.47    1.67
   1  -5  -1   54.34    1.52
   1  -5   0 2687.81   11.24
  -1   5   0 2673.06   11.35
   1  -5   0 2693.68   10.87
   1  -5   0 2663.89   11.32
   1  -5   0 2698.71   10.73
   1  -5   1  401.38    4.44
   1  -5   1  409.43    4.75
   1  -5   1  396.83    4.45
   1  -5   1  413.90    4.42
   1  -5   1  417.29    4.47
   1  -5   2  706.07    5.29
  -1   5  -2  720.59    6.49
   1  -5   2  702.43    6.12
   1  -5   2  701.75    6.17
   1  -5   2  698.52    6.06
   1  -5   3  150.25    2.98
   1  -5   3  152.99    3.06
   1  -5   3  158.58    2.86
   1  -5   3  154.31    2.99
  -1   5  -4    0.40    0.38
   1  -5   4    1.22    0.43
   1  -5   4    0.46    0.38
   1  -5   4    0.93    0.39
   1  -5   5    1.66    0.29
   1  -5   5    2.35    0.54
   1  -5   5    1.12    0.42
  -1   5  -5    0.72    0.42
   1  -5   5    3.02    0.60
   1  -5   5    2.13    0.51
  -1   5  -5    0.93    0.47
   1  -5   5    1.63    0.52
  -1   5  -6  653.55    7.50
   1  -5   6  667.99    7.32
   1  -5   6  657.41    7.50
  -1   5  -6  646.37    7.50
   1  -5   6  654.09    7.29
  -1   5  -6  640.86    7.06
  -1   5  -6  650.08    6.81
   1  -5   6  644.95    4.44
  -1   5  -7  147.47    3.10
  -1   5  -7  141.23    3.38
   1  -5   7  141.56    3.38
  -1   5  -7  145.72    3.55
   1  -5   7  143.23    3.56
  -1   5  -7  151.32    3.49
  -1   5  -7  142.13    3.60
  -1   5  -8   89.03    2.04
  -1   5  -8   86.16    2.59
  -1   5  -8   84.88    2.60
   1  -5   8   84.41    2.75
  -1   5  -8   89.00    2.63
   1  -5   8   94.17    2.65
  -1   5  -9   23.78    1.30
  -1   5  -9   18.90    1.15
  -1   5  -9   19.32    0.97
  -1   5  -9   18.67    1.13
  -1   5  -9   18.76    1.17
  -1   5  -9   14.10    0.58
   1  -5   9   20.63    1.15
   1  -4  -9  110.61    2.94
   1  -4  -9  105.28    2.02
   1  -4  -8  174.94    2.88
   1  -4  -8  172.81    3.99
   1  -4  -8  174.96    3.94
   1  -4  -8  178.14    4.27
   1  -4  -7  111.09    3.24
   1  -4  -7  121.19    3.54
   1  -4  -7  114.60    2.18
   1  -4  -7  121.62    3.52
   1  -4  -6 1051.02    9.32
   1  -4  -6 1068.74    7.11
   1  -4  -6 1063.72   10.08
   1  -4  -6 1062.54    9.77
   1  -4  -6 1092.18   10.43
   1  -4  -6 1056.29   10.42
   1  -4  -5 1465.89   11.08
   1  -4  -5 1438.40   10.48
   1  -4  -5 1447.69   11.44
   1  -4  -5 1461.45    6.56
   1  -4  -5 1464.20    8.13
   1  -4  -5 1451.92   10.77
   1  -4  -5 1519.37    7.69
   1  -4  -5 1505.04   11.61
   1  -4  -4   69.73    1.55
   1  -4  -4   64.51    1.65
   1  -4  -4   67.40    2.20
   1  -4  -4   75.09    2.32
   1  -4  -4   69.87    2.21
   1  -4  -4   77.06    1.67
  -1   4   3   73.30    1.63
   1  -4  -3   80.87    2.11
   1  -4  -3   73.92    1.65
   1  -4  -3   79.14    1.59
   1  -4  -3   77.49    1.55
   1  -4  -2   29.37    0.95
   1  -4  -2   33.32    1.06
   1  -4  -2   30.99    1.17
  -1   4   2   35.31    1.10
   1  -4  -1    4.64    0.41
   1  -4  -1    5.74    0.45
   1  -4  -1    5.43    0.45
   1  -4  -1    3.98    0.39
  -1   4   1    6.25    0.48
  -1   4   1    5.50    0.45
   1  -4  -1    5.40    0.44
   1  -4   0  433.36    3.80
  -1   4   0  431.63    3.76
   1  -4   0  428.12    2.76
   1  -4   0  429.36    3.71
   1  -4   0  445.97    3.82
   1  -4   0  446.10    3.84
   1  -4   1  505.53    4.25
   1  -4   1  509.81    4.29
   1  -4   1  532.27    3.72
   1  -4   1  535.02    4.47
  -1   4  -1  527.85    4.38
   1  -4   2 1079.31    6.76
   1  -4   2 1137.14    6.50
   1  -4   2 1091.35    6.84
  -1   4  -2 1129.04    6.95
   1  -4   2 1143.92    6.96
  -1   4  -2 1060.92    7.06
   1  -4   3   31.72    1.27
   1  -4   3   34.24    1.32
   1  -4   3   30.44    1.26
   1  -4   3   34.09    1.39
   1  -4   4    6.22    0.65
  -1   4  -4    5.87    0.68
   1  -4   4    5.32    0.62
   1  -4   4    6.41    0.67
  -1   4  -5  102.02    2.69
   1  -4   5  107.31    2.71
  -1   4  -5  106.28    2.72
   1  -4   5  107.49    2.70
  -1   4  -5  105.40    2.70
   1  -4   5  110.21    2.20
  -1   4  -6    4.11    0.70
  -1   4  -6    2.39    0.53
   1  -4   6    2.12    0.52
   1  -4   6    3.09    0.46
  -1   4  -6    2.82    0.55
  -1   4  -6    2.60    0.59
  -1   4  -6    3.36    0.65
  -1   4  -6    2.45    0.58
  -1   4  -7   24.50    1.27
  -1   4  -7   20.80    1.38
  -1   4  -7   22.34    1.45
  -1   4  -7   21.69    1.43
  -1   4  -7   18.51    1.33
  -1   4  -7   20.33    1.38
   1  -4   7   21.52    1.04
  -1   4  -8   13.20    1.13
   1  -4   8   10.78    0.69
  -1   4  -8    9.55    0.78
  -1   4  -8    9.24    0.92
  -1   4  -8   10.85    1.02
  -1   4  -8   12.18    0.79
  -1   4  -8   10.56    1.02
  -1   4  -8    9.76    0.98
  -1   4  -9   78.52    2.45
  -1   4  -9   76.03    1.89
  -1   4  -9   73.47    2.24
  -1   4  -9   70.69    2.22
  -1   4  -9   79.30    2.49
   1  -4  10    1.00    0.41
  -1   4 -10    0.85    0.41
  -1   4 -10    0.91    0.31
  -1   4 -10    1.18    0.40
  -1   4 -10    0.96    0.36
   1  -3 -10   10.31    0.58
   1  -3  -9   -0.10    0.33
   1  -3  -9    1.22    0.51
   1  -3  -9    0.63    0.32
   1  -3  -9    0.65    0.48
   1  -3  -8  252.82    4.83
   1  -3  -8  272.12    5.20
   1  -3  -8  274.03    3.36
   1  -3  -8  253.71    3.53
   1  -3  -8  239.60    4.48
   1  -3  -7   36.25    0.78
   1  -3  -7   39.42    1.87
   1  -3  -7   37.71    1.87
   1  -3  -7   39.70    1.94
   1  -3  -7   39.35    2.05
   1  -3  -7   39.66    1.96
   1  -3  -7   40.34    1.35
   1  -3  -7   38.32    1.43
   1  -3  -6  431.85    5.57
   1  -3  -6  412.61    5.47
   1  -3  -6  450.13    4.39
   1  -3  -6  424.59    5.97
   1  -3  -6  422.47    5.81
   1  -3  -6  447.04    6.41
   1  -3  -6  437.90    6.14
   1  -3  -6  428.68    3.70
   1  -3  -6  421.03    4.50
   1  -3  -5   75.90    1.82
   1  -3  -5   78.08    1.65
   1  -3  -5   84.48    2.52
   1  -3  -5   82.42    1.75
   1  -3  -5   84.31    2.46
  -1   3   4  682.82    4.65
   1  -3  -4  710.25    4.80
   1  -3  -4  684.29    6.14
   1  -3  -4  711.88    4.45
   1  -3  -4  671.82    6.28
   1  -3  -4  715.40    4.56
   1  -3  -3    5.58    0.38
  -1   3   3    4.76    0.36
   1  -3  -3    6.93    0.61
   1  -3  -3    5.35    0.38
   1  -3  -3    6.27    0.43
   1  -3  -2  278.62    2.32
   1  -3  -2  283.73    2.40
  -1   3   1  145.87    1.60
   1  -3  -1  143.66    1.67
  -1   3   1  145.09    1.65
   1  -3  -1  145.52    1.83
   1  -3   0  732.10    3.17
   1  -3   0  744.17    3.54
  -1   3   0  743.88    3.90
  -1   3   0  740.37    4.19
   1  -3   0  770.31    4.15
  -1   3   0  744.92    3.74
   1  -3   0  726.70    4.57
   1  -3   0  763.64    4.10
   1  -3   0  769.36    4.47
   1  -3   1  755.96    4.62
  -1   3  -1  784.01    4.40
   1  -3   1  777.26    4.12
   1  -3   1  761.38    4.29
  -1   3  -1  771.60    4.47
   1  -3   1  779.83    4.52
   1  -3   2  144.48    2.18
   1  -3   2  136.30    2.19
  -1   3  -2  141.15    2.13
   1  -3   2  133.71    2.15
  -1   3  -2  131.77    2.06
   1  -3   2  130.58    1.58
   1  -3   2  136.06    2.07
   1  -3   3  100.69    2.08
  -1   3  -3   97.09    2.08
  -1   3  -3  103.17    2.04
  -1   3  -3  100.95    2.04
  -1   3  -3   97.00    2.05
   1  -3   3   95.39    2.01
   1  -3   3   96.07    1.95
   1  -3   4   13.40    0.86
   1  -3   4   14.08    0.89
  -1   3  -4   13.30    0.86
  -1   3  -4   12.62    0.86
   1  -3   4   12.88    0.82
  -1   3  -5  397.26    4.91
  -1   3  -5  391.89    4.93
   1  -3   5  402.18    4.99
   1  -3   6   16.22    0.98
  -1   3  -6   14.71    0.98
  -1   3  -6   17.41    1.18
  -1   3  -6   20.18    1.33
  -1   3  -6   19.47    1.22
   1  -3   6   14.82    1.08
  -1   3  -6   16.13    1.19
  -1   3  -7   33.22    1.69
  -1   3  -7   35.97    1.82
  -1   3  -7   34.76    1.77
   1  -3   7   35.46    1.45
  -1   3  -7   33.68    1.69
  -1   3  -7   35.79    1.77
  -1   3  -7   34.19    1.43
  -1   3  -8   48.52    2.07
  -1   3  -8   46.47    1.55
  -1   3  -8   46.21    1.38
  -1   3  -8   44.49    1.94
  -1   3  -8   44.22    1.89
  -1   3  -8   44.24    1.73
   1  -3   8   44.73    1.57
  -1   3  -8   49.79    2.13
  -1   3  -8   46.05    2.04
  -1   3  -8   41.82    1.95
  -1   3  -9  137.57    3.31
  -1   3  -9  133.92    2.42
  -1   3  -9  137.44    3.03
  -1   3  -9  142.50    3.16
   1  -3   9  131.87    2.29
  -1   3 -10   12.67    0.79
  -1   3 -10   14.98    0.87
  -1   3 -10   14.78    1.06
   1  -2 -10  182.17    2.53
   1  -2 -10  174.18    3.46
   1  -2  -9    4.44    0.73
   1  -2  -9    4.15    0.55
   1  -2  -9    5.68    0.80
   1  -2  -9    5.27    0.52
   1  -2  -9    4.78    0.74
   1  -2  -8   63.96    2.46
   1  -2  -8   63.78    1.16
   1  -2  -8   66.77    1.93
   1  -2  -8   66.03    2.50
   1  -2  -8   66.68    1.80
   1  -2  -8   66.48    1.82
   1  -2  -8   62.05    2.41
   1  -2  -7  175.91    3.12
   1  -2  -7  185.08    3.93
   1  -2  -7  182.91    2.62
   1  -2  -7  189.89    4.15
   1  -2  -7  201.85    3.19
   1  -2  -7  188.57    3.99
   1  -2  -7  195.37    4.05
   1  -2  -6  584.60    6.42
   1  -2  -6  642.83    6.97
   1  -2  -6  628.45    5.23
   1  -2  -6  598.72    5.35
   1  -2  -6  604.59    5.02
   1  -2  -6  601.69    4.74
   1  -2  -6  600.33    6.66
   1  -2  -5  200.36    2.72
   1  -2  -5  204.25    3.51
   1  -2  -5  210.04    2.61
   1  -2  -5  203.86    3.44
  -1   2   4  359.16    2.94
   1  -2  -4  365.82    2.95
   1  -2  -4  354.46    4.03
   1  -2  -4  373.74    3.08
   1  -2  -4  370.51    3.04
   1  -2  -3    5.12    0.43
   1  -2  -3    6.40    0.35
  -1   2   3    4.32    0.26
   1  -2  -3    7.19    0.36
   1  -2  -3    4.39    0.45
   1  -2  -2  876.47    3.14
  -1   2   2  892.52    2.81
   1  -2  -2  911.05    3.17
   1  -2  -2  904.21    4.83
   1  -2  -2  914.18    4.83
  -1   2   2  911.17    2.87
  -1   2   2  892.38    2.71
   1  -2  -1  547.51    2.30
   1  -2  -1  544.67    3.14
  -1   2   1  539.06    2.28
   1  -2   0  638.77    2.40
  -1   2   0  640.46    2.76
   1  -2   0  659.12    2.39
  -1   2   0  653.11    2.75
  -1   2   0  648.26    2.70
   1  -2   0  625.87    3.29
   1  -2   0  637.37    2.89
  -1   2  -1 6010.03   10.78
  -1   2  -1 6164.50   10.22
   1  -2   1 6191.65    8.84
   1  -2   1 6131.78   10.70
   1  -2   1 5973.75   10.59
   1  -2   1 6245.26   10.25
  -1   2  -2 5141.94   11.62
   1  -2   2 5145.75   11.29
  -1   2  -2 5057.33   11.59
  -1   2  -2 5095.75   11.41
   1  -2   2 5174.70   12.06
   1  -2   2 5210.10   11.85
  -1   2  -2 5091.37   11.15
   1  -2   2 5153.46   11.38
  -1   2  -3 2277.56    9.20
   1  -2   3 2303.54    9.26
  -1   2  -3 2274.40    9.20
   1  -2   3 2303.12    8.62
  -1   2  -3 2430.56    8.89
   1  -2   3 2399.52    9.02
   1  -2   3 2330.71    9.27
  -1   2  -3 2367.04    8.99
  -1   2  -3 2340.69    8.93
  -1   2  -4  156.73    2.69
   1  -2   4  155.76    2.72
   1  -2   4  152.39    2.57
  -1   2  -4  153.37    2.63
  -1   2  -4  145.77    2.61
   1  -2   4  155.28    2.71
  -1   2  -4  159.00    2.69
   1  -2   5 1387.27    8.97
  -1   2  -5 1401.72    8.95
  -1   2  -5 1411.62    9.06
  -1   2  -5 1401.93    8.85
  -1   2  -5 1402.66    9.01
  -1   2  -6   78.97    2.37
  -1   2  -6   73.23    2.00
  -1   2  -6   67.61    2.15
  -1   2  -6   76.06    2.46
  -1   2  -6   73.91    1.98
   1  -2   6   69.53    2.02
  -1   2  -6   69.57    2.17
  -1   2  -6   74.09    2.45
  -1   2  -7  219.44    4.42
  -1   2  -7  197.70    3.91
  -1   2  -7  192.45    3.92
  -1   2  -7  197.97    3.90
   1  -2   7  197.84    3.49
  -1   2  -7  222.28    4.40
  -1   2  -7  210.17    3.51
  -1   2  -7  211.15    3.22
  -1   2  -7  197.83    3.93
  -1   2  -8  161.06    3.48
  -1   2  -8  164.06    3.89
  -1   2  -8  158.79    3.07
  -1   2  -8  159.07    1.81
  -1   2  -8  150.59    3.44
  -1   2  -8  160.01    3.69
  -1   2  -8  168.89    3.86
  -1   2  -8  154.36    3.68
   1  -2   8  149.90    2.99
  -1   2  -8  159.00    2.56
  -1   2  -9    5.81    0.82
   1  -2   9    3.88    0.51
  -1   2  -9    4.25    0.65
  -1   2  -9    4.18    0.43
  -1   2  -9    4.23    0.62
  -1   2 -10   15.77    0.81
  -1   2 -10   15.24    0.97
  -1   2 -10   15.93    0.86
   1  -1 -10  339.01    3.57
   1  -1 -10  341.01    5.29
   1  -1 -10  326.93    4.84
   1  -1  -9   63.48    2.35
   1  -1  -9   64.79    2.49
   1  -1  -9   59.49    1.70
   1  -1  -9   70.16    1.99
   1  -1  -9   67.66    2.39
   1  -1  -8  139.93    2.62
   1  -1  -8  134.52    2.56
   1  -1  -8  129.67    3.29
   1  -1  -8  133.80    2.40
   1  -1  -8  135.68    2.81
   1  -1  -8  143.90    3.77
   1  -1  -8  142.36    2.98
   1  -1  -8  129.12    3.36
   1  -1  -7  276.78    4.00
   1  -1  -7  295.00    4.98
   1  -1  -7  287.73    3.59
   1  -1  -7  265.00    4.53
   1  -1  -7  305.93    4.02
   1  -1  -7  285.49    3.88
   1  -1  -7  293.84    3.82
   1  -1  -7  281.61    4.63
   1  -1  -7  298.50    4.75
  -1   1   6    7.34    0.61
   1  -1  -6    7.70    0.63
   1  -1  -6    8.69    0.81
   1  -1  -6    8.13    0.75
   1  -1  -6    8.78    0.65
   1  -1  -6    7.78    0.62
   1  -1  -5  291.50    3.13
   1  -1  -5  295.68    3.18
   1  -1  -5  285.65    3.65
   1  -1  -5  284.88    3.15
  -1   1   5  287.85    3.08
  -1   1   4 1699.54    5.98
   1  -1  -4 1747.37    6.32
   1  -1  -4 1734.75    6.33
   1  -1  -4 1756.25    6.53
   1  -1  -4 1712.91    7.89
   1  -1  -4 1735.18    6.45
  -1   1   3  177.64    1.48
  -1   1   3  183.41    1.44
  -1   1   3  186.00    1.98
   1  -1  -3  179.91    2.19
   1  -1  -3  186.90    1.59
   1  -1  -2 3860.94    4.97
   1  -1  -2 3951.36    8.76
  -1   1   1 1230.20    3.92
  -1   1   0  492.44    1.95
   1  -1   0  516.44    1.85
  -1   1   0  519.40    2.09
   1  -1   0  527.62    1.60
   1  -1   0  499.06    2.04
  -1   1   0  511.45    1.96
   1  -1   0  509.71    1.92
  -1   1   0  509.08    1.72
   1  -1   1 9054.05   11.54
  -1   1  -1 9999.00   11.48
   1  -1   1 9720.55   11.59
  -1   1  -1 9085.72   11.49
   1  -1   1 8916.43   11.60
  -1   1  -2 8550.25   13.76
  -1   1  -2 8888.60   13.50
   1  -1   2 8695.59   13.79
   1  -1   2 8296.18   13.64
   1  -1   2 8607.18   13.50
  -1   1  -2 8557.25   13.42
   1  -1   3   44.31    1.16
  -1   1  -3   46.08    1.16
  -1   1  -3   42.35    1.20
   1  -1   3   42.75    1.20
  -1   1  -3   43.92    1.14
   1  -1   3   46.41    1.19
  -1   1  -3   45.21    1.22
  -1   1  -3   45.17    1.19
  -1   1  -4    4.32    0.47
  -1   1  -4   30.23    1.16
   1  -1   4    5.51    0.55
  -1   1  -4    5.52    0.54
  -1   1  -4    4.74    0.45
   1  -1   4    4.87    0.49
  -1   1  -4   28.03    1.12
  -1   1  -5  422.38    4.78
  -1   1  -5  428.09    4.83
  -1   1  -5  424.77    4.85
  -1   1  -5  425.99    4.76
  -1   1  -6    1.60    0.36
  -1   1  -6    3.21    0.59
  -1   1  -6    2.71    0.53
  -1   1  -6    2.23    0.51
  -1   1  -6    2.91    0.55
  -1   1  -6    2.30    0.38
  -1   1  -6    1.16    0.43
  -1   1  -6    2.19    0.39
  -1   1  -7  187.51    3.95
  -1   1  -7  165.19    3.53
  -1   1  -7  179.23    3.76
  -1   1  -7  177.11    3.39
  -1   1  -7  170.29    3.91
  -1   1  -7  179.89    2.63
  -1   1  -7  179.65    3.01
  -1   1  -7  163.13    3.48
  -1   1  -7  173.28    2.60
  -1   1  -7  159.50    3.55
  -1   1  -8   16.85    0.97
  -1   1  -8   17.39    0.64
  -1   1  -8   15.93    1.20
  -1   1  -8   17.09    1.18
   1  -1   8   17.23    1.10
  -1   1  -8   16.38    0.63
  -1   1  -8   17.38    1.16
  -1   1  -8   19.12    1.30
  -1   1  -9   49.47    1.78
  -1   1  -9   55.72    1.83
  -1   1  -9   59.30    2.31
   1  -1   9   53.29    1.73
  -1   1 -10   88.89    2.13
  -1   1 -10   71.36    1.31
   1  -1  10   78.24    1.57
  -1   1 -10   96.77    2.48
   1   0 -11  199.49    3.61
   1   0 -10   10.13    0.66
   1   0 -10   11.65    1.09
   1   0 -10    9.56    0.74
   1   0  -9  175.82    2.76
   1   0  -9  175.63    3.31
   1   0  -9  159.75    3.63
   1   0  -9  184.57    3.01
   1   0  -9  177.20    3.40
   1   0  -9  188.75    4.36
   1   0  -9  162.50    2.76
   1   0  -8   11.92    0.84
   1   0  -8   15.89    1.06
   1   0  -8   11.78    1.11
   1   0  -8   13.09    0.96
   1   0  -8   11.52    0.86
   1   0  -8   12.19    1.00
   1   0  -8   10.77    0.90
   1   0  -8   12.27    1.07
   1   0  -8   11.67    0.80
   1   0  -7   76.44    1.98
   1   0  -7   72.22    2.03
   1   0  -7   71.62    1.99
   1   0  -7   74.90    2.23
   1   0  -7   76.49    2.06
   1   0  -7   70.81    2.11
   1   0  -7   74.14    2.35
   1   0  -7   70.80    1.47
   1   0  -7   70.96    2.41
   1   0  -7   76.30    2.39
   1   0  -6  129.84    2.47
   1   0  -6  119.53    2.29
   1   0  -6  122.14    2.47
  -1   0   6  123.74    2.48
   1   0  -6  120.29    2.59
   1   0  -6  130.63    2.53
   1   0  -5 2099.78    8.68
   1   0  -5 2074.95    8.49
  -1   0   5 2025.91    8.29
   1   0  -5 1516.44    3.01
   1   0  -5 2051.57    8.56
   1   0  -5 1630.45    3.15
   1   0  -5 2079.87    9.02
   1   0  -4 2301.44    7.52
  -1   0   4 2332.71    7.27
   1   0  -4 2289.64    7.87
   1   0  -4 2269.78    4.66
   1   0  -4 2267.13    7.67
   1   0  -4 2263.85    4.61
   1   0  -4 2326.88    8.17
   1   0  -4 2304.71    6.82
  -1   0   3  615.94    3.11
   1   0  -3  676.35    3.08
   1   0  -3  640.37    3.23
  -1   0   3  653.89    3.28
   1   0  -3  646.27    3.62
   1   0  -3  669.37    2.21
  -1   0   3  629.83    2.99
   1   0  -3  639.08    2.18
  -1   0   3  630.03    3.00
   1   0  -3  640.88    3.42
   1   0  -2  811.38    2.77
  -1   0   2  750.60    2.48
  -1   0   2  783.98    2.53
  -1   0   2  753.32    2.47
   1   0  -2  765.76    2.81
   1   0  -2  715.29    1.86
   1   0  -2  766.15    2.82
   1   0  -2  752.13    1.75
   1   0  -1  167.33    0.74
   1   0  -1  165.26    1.15
  -1   0   1  172.61    0.97
   1   0  -1  166.09    0.81
  -1   0   1  158.88    0.94
  -1   0   1  149.55    0.85
  -1   0   1  159.58    1.10
   1   0  -1  170.47    1.06
  -1   0   0  429.11    1.82
   1   0   0  418.04    1.91
  -1   0   0  418.16    1.92
   1   0   0  430.39    1.92
  -1   0   0  419.21    1.92
  -1   0  -1  618.20    2.99
   1   0   1  610.00    2.95
   1   0   1  670.32    3.21
  -1   0  -1  653.78    2.96
   1   0   1  628.61    3.00
   1   0   2  173.91    1.89
   1   0   2  174.95    1.95
  -1   0  -2  176.23    1.88
  -1   0  -2  174.47    1.88
  -1   0  -2  169.25    1.91
  -1   0  -3  361.64    3.41
   1   0   3  366.93    3.34
  -1   0  -3  360.72    3.27
  -1   0  -3  369.71    3.41
   1   0   3  370.37    3.26
   1   0   4  462.71    4.43
  -1   0  -4  457.25    4.33
  -1   0  -4  452.35    4.31
  -1   0  -4  457.48    4.48
  -1   0  -5  474.08    5.13
  -1   0  -5  491.95    5.17
  -1   0  -5  487.35    5.07
  -1   0  -5  486.82    5.05
   1   0   5  487.77    5.26
  -1   0  -6  288.32    4.36
  -1   0  -6  323.85    3.59
  -1   0  -6  294.91    4.44
  -1   0  -6  299.02    3.52
  -1   0  -6  296.84    4.77
  -1   0  -6  312.92    3.40
  -1   0  -6  296.40    4.33
  -1   0  -6  291.34    4.38
  -1   0  -6  306.73    3.85
  -1   0  -6  311.21    4.30
  -1   0  -6  286.67    4.38
  -1   0  -6  298.58    4.41
  -1   0  -7   81.59    2.55
  -1   0  -7   84.12    2.58
  -1   0  -7   82.42    2.43
  -1   0  -7   87.62    2.25
  -1   0  -7   83.94    2.49
  -1   0  -7   82.61    1.75
  -1   0  -7   87.54    1.93
  -1   0  -7   86.41    2.77
  -1   0  -8   69.34    2.15
  -1   0  -8   73.07    1.61
  -1   0  -8   76.19    2.66
  -1   0  -8   72.12    2.44
  -1   0  -8   71.98    2.26
  -1   0  -9  188.30    3.59
  -1   0  -9  194.71    3.22
  -1   0  -9  192.98    3.06
  -1   0 -10    0.63    0.32
   1   1 -11   35.27    1.02
   1   1 -11   36.84    1.62
  -1  -1  10   70.30    2.10
   1   1 -10   69.20    1.49
   1   1 -10   75.26    2.12
   1   1 -10   76.68    1.56
   1   1  -9   23.01    1.33
   1   1  -9   17.71    0.93
   1   1  -9   22.93    1.20
   1   1  -9   20.11    1.39
   1   1  -9   21.13    1.27
   1   1  -9   21.40    1.50
   1   1  -9   18.94    1.05
   1   1  -9   18.33    1.16
   1   1  -9   20.73    1.31
   1   1  -8  262.94    4.79
   1   1  -8  259.29    3.45
   1   1  -8  267.14    3.04
   1   1  -8  267.03    4.93
   1   1  -8  269.03    4.13
   1   1  -8  266.39    4.00
   1   1  -8  263.61    4.27
   1   1  -8  257.33    4.37
   1   1  -8  269.57    4.33
   1   1  -7  223.88    3.63
   1   1  -7  223.22    3.57
   1   1  -7  226.80    4.18
   1   1  -7  225.68    3.09
   1   1  -7  221.50    3.64
   1   1  -7  222.65    3.68
   1   1  -7  217.74    3.85
   1   1  -7  213.25    3.91
   1   1  -7  215.44    2.35
   1   1  -7  216.56    4.12
   1   1  -7  220.34    3.02
   1   1  -6   49.41    1.00
   1   1  -6   49.54    1.04
   1   1  -6   51.22    1.69
   1   1  -6   51.54    1.64
  -1  -1   6   49.69    1.63
   1   1  -6   51.40    1.61
   1   1  -5  163.45    2.60
   1   1  -5  159.59    1.89
   1   1  -5  165.75    2.62
   1   1  -5  167.41    2.06
  -1  -1   5  159.76    2.56
   1   1  -4   67.77    1.51
   1   1  -4   68.53    1.46
  -1  -1   4   69.05    1.42
   1   1  -4   63.71    1.12
   1   1  -4   65.68    1.44
   1   1  -4   62.14    1.13
   1   1  -4   68.87    1.27
   1   1  -3   22.84    0.76
   1   1  -3   21.83    0.71
  -1  -1   3   22.85    0.72
   1   1  -3   22.69    0.64
   1   1  -3   22.60    0.76
  -1  -1   3   25.04    0.75
   1   1  -3   22.19    0.74
   1   1  -2 1474.87    5.25
  -1  -1   2 1417.42    4.76
   1   1  -2 1454.49    5.20
  -1  -1   2 1472.92    4.85
   1   1  -2 1446.08    4.54
   1   1  -2 1413.63    4.97
   1   1  -2 1410.27    4.78
  -1  -1   2 1475.18    5.05
  -1  -1   1    5.21    0.31
   1   1  -1    4.32    0.26
   1   1  -1    4.49    0.32
   1   1  -1    3.93    0.27
  -1  -1   1    4.87    0.29
  -1  -1   1    5.48    0.30
   1   1  -1    4.66    0.30
  -1  -1   0  305.96    2.13
   1   1   0  305.47    2.10
  -1  -1   0  308.84    2.16
   1   1   0  319.65    2.20
  -1  -1   0  316.68    2.08
   1   1   0  314.54    2.14
  -1  -1  -1 1947.26    6.06
   1   1   1 1959.91    5.96
  -1  -1  -2    2.64    0.28
  -1  -1  -2    3.05    0.33
   1   1   2    3.25    0.33
   1   1   2    2.09    0.28
  -1  -1  -2    2.28    0.30
   1   1   3   17.11    0.78
  -1  -1  -3   18.20    0.80
  -1  -1  -3   18.65    0.74
  -1  -1  -3   16.61    0.68
  -1  -1  -3   17.35    0.81
  -1  -1  -3   18.81    0.83
   1   1   4  169.28    2.82
  -1  -1  -4  167.30    2.34
  -1  -1  -4  152.57    2.61
  -1  -1  -4  158.73    2.64
  -1  -1  -4  163.45    2.73
  -1  -1  -5  179.96    3.20
  -1  -1  -5  175.48    3.36
  -1  -1  -5  176.22    3.24
  -1  -1  -5  171.24    3.05
   1   1   5  174.80    3.29
  -1  -1  -6  223.30    3.92
  -1  -1  -6  239.98    3.04
  -1  -1  -6  231.42    3.92
  -1  -1  -6  229.32    3.86
  -1  -1  -6  237.55    3.60
  -1  -1  -6  230.71    3.99
  -1  -1  -6  230.30    3.95
  -1  -1  -6  117.51    1.02
  -1  -1  -6  245.73    4.38
  -1  -1  -6  238.50    3.24
  -1  -1  -6  237.17    4.18
  -1  -1  -6  231.81    2.13
  -1  -1  -6  113.32    1.00
  -1  -1  -7  595.82    6.90
  -1  -1  -7  605.93    6.87
  -1  -1  -7  621.47    7.68
  -1  -1  -7  568.59    5.00
  -1  -1  -7  632.64    5.32
  -1  -1  -7  601.71    6.44
  -1  -1  -7  603.26    6.84
  -1  -1  -7  589.30    6.26
  -1  -1  -8 1241.30    9.67
  -1  -1  -8 1262.35    9.74
  -1  -1  -8 1297.60   10.17
  -1  -1  -8 1295.48    8.94
  -1  -1  -8 1205.28    6.53
  -1  -1  -8 1256.22    8.49
  -1  -1  -9  132.14    1.88
   1   1   9  128.89    2.68
   1   2 -11   42.85    1.31
   1   2 -11   41.16    1.67
   1   2 -10  139.42    3.48
   1   2 -10  137.54    3.34
   1   2 -10  129.35    2.41
   1   2 -10  134.57    2.61
   1   2 -10  132.36    2.95
   1   2  -9   82.01    2.71
   1   2  -9   72.97    1.65
   1   2  -9   81.68    1.44
   1   2  -9   81.23    2.25
  -1  -2   9   76.13    2.26
   1   2  -9   85.93    2.80
   1   2  -9   76.83    2.42
   1   2  -9   80.28    2.31
   1   2  -9   78.44    2.49
   1   2  -9   82.74    2.54
   1   2  -8   75.11    1.33
   1   2  -8   84.11    2.75
   1   2  -8   87.30    1.78
   1   2  -8   79.29    2.31
   1   2  -8   77.68    2.34
   1   2  -8   84.84    2.74
   1   2  -8   80.15    1.97
   1   2  -8   74.27    1.78
   1   2  -8   73.40    2.41
   1   2  -8   81.34    2.49
   1   2  -8   81.07    2.47
   1   2  -7   45.74    1.09
   1   2  -7   46.31    1.74
   1   2  -7   47.26    1.88
   1   2  -7   48.39    1.44
   1   2  -7   47.97    1.81
   1   2  -7   49.51    1.26
   1   2  -7   45.10    1.89
   1   2  -7   44.90    1.56
   1   2  -7   43.91    1.71
   1   2  -7   46.81    1.39
   1   2  -7   46.08    1.77
   1   2  -7   44.71    1.91
   1   2  -6  714.13    4.91
  -1  -2   6  733.20    6.59
   1   2  -6  743.49    6.48
   1   2  -6  719.50    6.26
   1   2  -6  714.55    6.50
  -1  -2   5  142.66    2.59
   1   2  -5  136.93    2.54
   1   2  -5  136.62    2.55
   1   2  -5  134.93    2.50
   1   2  -4   55.83    1.28
  -1  -2   4   58.73    1.46
   1   2  -4   57.18    1.48
   1   2  -4   59.83    1.53
   1   2  -4   55.22    1.49
   1   2  -3  707.72    4.61
   1   2  -3  694.58    4.71
  -1  -2   3  717.49    4.52
   1   2  -3  688.80    4.21
  -1  -2   3  691.24    4.41
   1   2  -3  685.48    4.84
   1   2  -2    2.00    0.29
  -1  -2   2    1.31    0.24
   1   2  -2    0.96    0.22
  -1  -2   2    1.02    0.27
   1   2  -2    2.12    0.29
  -1  -2   2    1.90    0.28
   1   2  -2    1.92    0.30
  -1  -2   1 1734.39    6.27
   1   2  -1 1701.81    6.24
  -1  -2   1 1761.52    6.38
   1   2  -1 1721.73    6.27
   1   2  -1 1744.48    6.20
  -1  -2   1 1709.38    6.32
   1   2   0  497.30    3.48
  -1  -2   0  503.18    3.37
  -1  -2   0  503.83    3.61
  -1  -2   0  503.11    3.45
   1   2   0  512.78    3.39
  -1  -2  -1   36.90    1.05
  -1  -2  -1   38.79    0.98
  -1  -2  -1   36.58    1.04
  -1  -2  -1   38.56    1.02
   1   2   1   38.49    1.01
  -1  -2  -2 1775.11    7.04
  -1  -2  -2 1717.77    7.43
  -1  -2  -2 1759.28    7.72
   1   2   2 1711.72    7.48
  -1  -2  -2 1715.47    7.49
  -1  -2  -3 2745.28   10.51
  -1  -2  -3 2688.48   10.47
  -1  -2  -3 2757.27   10.68
   1   2   3 2704.02   10.71
  -1  -2  -4  381.86    4.40
  -1  -2  -4  381.28    4.32
  -1  -2  -4  382.82    4.51
  -1  -2  -4  401.07    5.15
   1   2   4  379.26    4.52
  -1  -2  -4  410.54    3.52
  -1  -2  -5  118.47    2.22
  -1  -2  -5  111.95    1.53
  -1  -2  -5  106.58    2.53
  -1  -2  -5  115.28    2.68
  -1  -2  -5  109.09    2.57
  -1  -2  -5  115.24    2.65
  -1  -2  -5  109.86    2.72
  -1  -2  -5  117.43    3.06
  -1  -2  -5  119.40    2.13
  -1  -2  -5  117.08    2.69
  -1  -2  -5  119.86    3.05
  -1  -2  -6  105.17    2.78
  -1  -2  -6  106.03    2.20
  -1  -2  -6  104.88    3.01
  -1  -2  -6   99.97    2.55
  -1  -2  -6  105.53    2.84
  -1  -2  -6  100.01    2.15
  -1  -2  -6  108.21    2.91
  -1  -2  -6  107.35    2.68
  -1  -2  -6  112.40    2.85
  -1  -2  -7  116.36    2.99
  -1  -2  -7  107.64    2.90
  -1  -2  -7  118.27    2.70
  -1  -2  -7  110.87    2.92
  -1  -2  -7  105.74    2.18
  -1  -2  -7  113.17    2.70
  -1  -2  -7  113.42    3.18
  -1  -2  -7  117.48    3.03
  -1  -2  -7  110.23    2.96
  -1  -2  -8  102.07    2.95
  -1  -2  -8  101.20    2.04
  -1  -2  -8   98.20    2.57
  -1  -2  -9   68.35    1.62
   1   2   9   63.24    1.78
   1   3 -11    3.52    0.46
   1   3 -11    3.33    0.53
   1   3 -10    1.40    0.42
   1   3 -10    1.53    0.45
   1   3 -10    0.92    0.37
   1   3 -10    1.03    0.47
   1   3 -10    0.64    0.45
  -1  -3  10    0.78    0.37
   1   3  -9  152.55    2.46
  -1  -3   9  139.28    2.90
   1   3  -9  145.05    3.43
   1   3  -9  136.34    3.03
   1   3  -9  153.88    3.62
   1   3  -9  140.01    3.15
   1   3  -9  144.93    3.55
   1   3  -8  312.96    5.23
   1   3  -8  301.15    3.24
   1   3  -8  304.85    4.98
   1   3  -8  305.28    4.80
   1   3  -8  307.31    4.72
   1   3  -8  325.07    5.22
   1   3  -8  314.60    4.23
   1   3  -8  291.68    2.41
   1   3  -8  302.11    4.90
  -1  -3   8  310.26    4.41
   1   3  -8  299.28    3.37
   1   3  -7   10.74    0.70
   1   3  -7   10.82    0.94
   1   3  -7    9.68    0.64
   1   3  -7   13.32    1.07
   1   3  -7   12.16    1.02
   1   3  -7   10.36    0.78
   1   3  -7   10.79    0.94
   1   3  -7   10.80    0.87
   1   3  -7    9.31    0.90
   1   3  -7   11.12    1.01
  -1  -3   7   12.01    0.92
   1   3  -7   11.61    0.75
   1   3  -6    0.39    0.32
  -1  -3   6    0.31    0.33
   1   3  -5  109.72    2.48
   1   3  -5  113.84    2.55
   1   3  -5  109.86    2.15
   1   3  -5  110.14    2.46
  -1  -3   5  108.55    2.48
   1   3  -4  533.95    5.02
  -1  -3   4  551.45    5.08
   1   3  -4  531.09    5.14
   1   3  -4  527.17    5.00
   1   3  -4  509.37    4.44
  -1  -3   4  513.33    4.98
   1   3  -3   22.85    0.99
   1   3  -3   18.04    0.87
  -1  -3   3   18.58    0.91
  -1  -3   3   18.61    0.86
  -1  -3   3   19.30    0.93
  -1  -3   3   18.47    0.87
   1   3  -3   21.45    0.99
   1   3  -2  144.20    2.25
   1   3  -2  144.72    2.37
  -1  -3   2  147.33    2.26
  -1  -3   2  139.57    2.31
   1   3  -2  157.19    2.43
  -1  -3   2  157.19    2.31
  -1  -3   2  141.58    2.32
   1   3  -2  141.87    2.35
  -1  -3   1   29.94    1.06
   1   3  -1   29.91    1.00
  -1  -3   1   29.60    1.04
   1   3  -1   30.76    1.07
   1   3  -1   30.26    1.07
   1   3  -1   32.19    1.05
  -1  -3   1   28.92    1.03
  -1  -3   1   28.76    1.00
  -1  -3   0  364.44    3.62
  -1  -3   0  354.88    3.57
  -1  -3   0  360.16    3.53
   1   3   0  354.51    3.46
  -1  -3   0  349.25    3.44
  -1  -3  -1  691.92    5.10
  -1  -3  -1  670.86    5.13
  -1  -3  -1  674.97    4.82
   1   3   1  683.55    5.07
  -1  -3  -1  691.01    5.13
  -1  -3  -2  435.57    4.33
  -1  -3  -2  435.24    4.35
   1   3   2  446.99    4.46
  -1  -3  -2  432.30    4.34
   1   3   3  228.50    3.54
  -1  -3  -3  230.25    3.33
  -1  -3  -3  235.06    2.63
  -1  -3  -3  234.29    3.43
  -1  -3  -4    3.07    0.42
  -1  -3  -4    3.16    0.51
  -1  -3  -4    2.88    0.58
  -1  -3  -4    2.42    0.19
  -1  -3  -4    1.77    0.17
  -1  -3  -4    4.72    0.59
  -1  -3  -4    2.41    0.46
  -1  -3  -4    2.35    0.45
  -1  -3  -4    3.76    0.45
  -1  -3  -4    4.85    0.73
  -1  -3  -4    2.17    0.49
  -1  -3  -5   35.62    1.57
  -1  -3  -5   33.68    1.26
  -1  -3  -5   34.57    1.85
  -1  -3  -5   35.15    1.51
  -1  -3  -5   33.49    1.50
  -1  -3  -5   44.32    2.01
  -1  -3  -5   33.96    1.65
  -1  -3  -5   30.18    1.47
  -1  -3  -5   31.68    1.56
  -1  -3  -5   20.94    0.43
  -1  -3  -5   32.97    1.45
  -1  -3  -6  681.29    7.20
  -1  -3  -6  648.48    5.51
  -1  -3  -6  632.48    7.19
  -1  -3  -6  687.22    8.09
  -1  -3  -6  640.03    6.89
  -1  -3  -6  668.40    6.41
  -1  -3  -6  661.96    7.87
  -1  -3  -6  658.13    6.48
  -1  -3  -6  657.21    7.07
  -1  -3  -7   36.48    1.33
  -1  -3  -7   36.39    1.62
  -1  -3  -7   39.60    1.47
  -1  -3  -7   33.54    1.19
  -1  -3  -7   35.63    1.73
  -1  -3  -7   35.58    1.88
  -1  -3  -8    1.62    0.39
  -1  -3  -8    3.06    0.60
   1   4 -10   42.49    1.77
   1   4 -10   38.98    1.64
  -1  -4  10   38.76    1.19
   1   4 -10   41.05    1.53
   1   4 -10   43.92    1.52
   1   4  -9   29.75    1.58
   1   4  -9   25.35    1.41
  -1  -4   9   27.63    1.21
   1   4  -9   28.41    1.16
   1   4  -9   31.24    1.55
   1   4  -9   29.05    1.46
   1   4  -8   30.93    1.65
   1   4  -8   28.93    1.62
   1   4  -8   26.10    1.50
   1   4  -8   28.60    1.16
   1   4  -8   30.78    1.57
   1   4  -8   29.46    1.55
   1   4  -8   29.59    1.41
   1   4  -8   26.33    1.53
   1   4  -8   30.41    1.04
  -1  -4   8   26.35    1.26
   1   4  -7   43.06    1.53
   1   4  -7   40.27    1.80
   1   4  -7   44.17    1.91
   1   4  -7   41.15    1.84
  -1  -4   7   44.47    1.62
   1   4  -7   41.25    1.85
   1   4  -7   39.32    1.80
   1   4  -7   39.82    1.82
   1   4  -6  492.64    5.87
   1   4  -6  489.99    5.99
   1   4  -6  496.43    5.39
   1   4  -6  499.90    6.32
   1   4  -6  489.39    6.00
  -1  -4   6  502.08    5.24
  -1  -4   5 1873.73    9.59
  -1  -4   5 1817.40   10.90
   1   4  -5 1806.49   10.95
   1   4  -5 1810.46   10.82
   1   4  -5 1888.39   11.33
  -1  -4   4    2.99    0.48
   1   4  -4    3.21    0.51
   1   4  -4    4.07    0.57
   1   4  -3   28.23    1.27
  -1  -4   3   29.50    1.25
   1   4  -3   28.55    1.27
  -1  -4   3   26.50    1.21
  -1  -4   2  528.68    5.14
  -1  -4   2  544.71    5.12
   1   4  -2  546.60    5.30
  -1  -4   2  535.92    5.10
   1   4  -1  511.06    4.98
  -1  -4   1  505.62    4.92
  -1  -4   1  506.83    4.94
  -1  -4   1  499.71    4.89
  -1  -4   0   21.85    1.05
  -1  -4   0   20.06    1.01
   1   4   0   22.15    1.07
  -1  -4   0   21.93    1.05
  -1  -4  -1  199.16    3.15
  -1  -4  -1  194.96    3.22
  -1  -4  -1  198.23    3.19
  -1  -4  -2  316.40    4.14
  -1  -4  -2  323.28    4.39
  -1  -4  -2  328.18    3.27
  -1  -4  -2  328.66    4.24
   1   4   2  325.06    4.45
  -1  -4  -3  146.91    1.62
  -1  -4  -3  173.12    2.63
  -1  -4  -3  160.30    2.82
  -1  -4  -3  159.72    3.12
  -1  -4  -3  150.00    2.98
  -1  -4  -3   88.00    0.92
  -1  -4  -3   97.42    0.94
  -1  -4  -3  178.95    2.71
   1   4   3  162.47    3.44
  -1  -4  -3  154.30    3.06
  -1  -4  -3  156.66    3.82
  -1  -4  -3  154.44    3.07
  -1  -4  -3  151.42    3.52
  -1  -4  -4  148.21    3.18
  -1  -4  -4  151.88    3.06
  -1  -4  -4  150.50    3.34
  -1  -4  -4  149.76    2.56
   1   4   4  151.49    3.39
  -1  -4  -4  152.69    3.14
  -1  -4  -4  159.43    3.81
  -1  -4  -4  154.92    3.89
  -1  -4  -4  157.67    3.29
  -1  -4  -4  154.70    3.58
  -1  -4  -5   12.19    1.17
  -1  -4  -5   11.77    0.80
  -1  -4  -5   10.44    0.91
  -1  -4  -5   10.27    0.85
  -1  -4  -5   10.56    0.94
  -1  -4  -5    7.88    0.40
  -1  -4  -5    9.08    0.80
  -1  -4  -5   11.47    0.90
  -1  -4  -5   10.74    0.95
  -1  -4  -5    9.66    0.42
  -1  -4  -5   10.17    1.08
  -1  -4  -5   10.34    1.00
  -1  -4  -6   45.11    1.79
  -1  -4  -6   42.49    1.45
  -1  -4  -6   44.13    2.13
  -1  -4  -6   36.68    1.78
  -1  -4  -6   40.17    2.00
  -1  -4  -6   42.28    1.52
  -1  -4  -6   40.78    1.35
  -1  -4  -7  116.70    2.51
  -1  -4  -7  122.78    3.06
  -1  -4  -7  124.72    3.24
  -1  -4  -7  129.25    3.47
   1   5 -10  160.75    2.71
   1   5 -10  165.03    3.09
   1   5 -10  166.52    2.88
   1   5  -9  732.43    7.04
   1   5  -9  755.02    5.79
   1   5  -9  736.32    7.14
   1   5  -9  749.92    7.03
   1   5  -8   11.51    0.69
   1   5  -8   10.60    0.98
   1   5  -8   10.25    0.95
   1   5  -8   11.59    1.09
   1   5  -8   10.00    0.96
   1   5  -8   11.09    0.77
  -1  -5   8   10.54    0.73
   1   5  -8   13.06    0.97
   1   5  -7  189.29    3.75
  -1  -5   7  201.52    3.10
   1   5  -7  189.45    4.12
   1   5  -7  199.80    4.11
   1   5  -7  204.81    4.15
   1   5  -7  200.39    4.19
   1   5  -7  203.01    3.43
   1   5  -6  241.15    4.50
   1   5  -6  250.21    4.08
  -1  -5   6  251.00    3.49
   1   5  -6  238.55    4.49
   1   5  -6  248.69    4.63
   1   5  -6  250.35    4.58
  -1  -5   6  237.55    4.45
  -1  -5   5    9.15    0.88
   1   5  -5    8.52    0.92
   1   5  -5    7.69    0.84
   1   5  -5    8.72    0.86
   1   5  -5    7.65    0.84
  -1  -5   5   10.89    0.73
   1   5  -5    8.81    0.91
   1   5  -5    9.70    1.00
  -1  -5   4    5.90    0.71
  -1  -5   4    7.04    0.56
  -1  -5   4    6.77    0.82
  -1  -5   4    5.80    0.69
   1   5  -4    7.95    0.81
  -1  -5   3  408.59    5.13
  -1  -5   3  424.86    3.57
   1   5  -3  407.41    5.30
  -1  -5   3  410.03    5.16
   1   5  -2   56.68    1.95
  -1  -5   2   57.96    1.90
  -1  -5   2   61.21    2.03
  -1  -5   2   58.63    1.94
  -1  -5   1    6.52    0.69
  -1  -5   1    8.42    0.77
  -1  -5   1    8.05    0.78
  -1  -5   0   39.18    1.19
  -1  -5   0   44.32    1.68
  -1  -5   0   40.45    1.63
  -1  -5   0   41.46    1.62
  -1  -5  -1  149.86    2.39
  -1  -5  -1  160.87    3.61
  -1  -5  -1  155.95    3.16
  -1  -5  -1  167.17    2.90
  -1  -5  -1  157.22    3.51
  -1  -5  -1  141.19    3.02
  -1  -5  -1  157.23    2.42
  -1  -5  -1  156.23    3.17
  -1  -5  -1  146.93    3.10
  -1  -5  -1  151.78    2.99
  -1  -5  -2   57.91    0.80
  -1  -5  -2   78.35    1.81
  -1  -5  -2   73.48    2.23
  -1  -5  -2   81.09    2.37
  -1  -5  -2   75.72    2.24
  -1  -5  -2   88.96    1.94
  -1  -5  -2   72.76    2.46
  -1  -5  -2   74.74    2.44
  -1  -5  -2   75.44    2.65
  -1  -5  -2   75.54    2.02
  -1  -5  -2   68.17    2.10
  -1  -5  -3    9.44    0.89
  -1  -5  -3    8.01    0.81
   1   5   3    9.36    0.94
  -1  -5  -3    7.75    0.87
  -1  -5  -3    9.71    0.88
  -1  -5  -3   10.08    0.85
  -1  -5  -3   10.41    1.04
  -1  -5  -3    9.78    0.93
  -1  -5  -3    7.54    0.96
  -1  -5  -3    8.24    0.64
  -1  -5  -4    0.51    0.36
  -1  -5  -4    0.91    0.42
  -1  -5  -4    0.12    0.44
  -1  -5  -4    2.01    0.52
   1   5   4    0.68    0.48
  -1  -5  -4    0.95    0.34
  -1  -5  -4    1.50    0.42
  -1  -5  -4    0.89    0.42
  -1  -5  -4    0.48    0.47
  -1  -5  -4    1.02    0.53
  -1  -5  -5    1.14    0.51
  -1  -5  -5    1.59    0.38
  -1  -5  -5    2.44    0.43
  -1  -5  -5    1.73    0.47
  -1  -5  -5    1.12    0.52
  -1  -5  -5    2.43    0.66
  -1  -5  -5    2.68    0.48
  -1  -5  -6  264.47    3.76
  -1  -5  -6  257.36    4.91
  -1  -5  -6  269.11    4.94
  -1  -5  -6  263.98    4.60
  -1  -5  -7   55.80    1.90
  -1  -5  -7   51.19    1.89
   1   6  -9   30.55    1.39
   1   6  -9   34.46    1.44
  -1  -6   9   32.99    1.42
   1   6  -9   31.67    1.10
   1   6  -9   30.35    1.30
   1   6  -8  115.64    2.96
   1   6  -8  113.01    1.86
   1   6  -8  121.47    2.74
   1   6  -8  129.02    2.55
  -1  -6   8  122.55    2.94
   1   6  -8  110.81    2.91
  -1  -6   8  118.40    3.16
   1   6  -7  174.86    3.94
  -1  -6   7  189.00    3.81
   1   6  -7  198.65    3.99
   1   6  -7  182.98    3.91
   1   6  -7  191.80    3.27
   1   6  -6  137.33    3.51
  -1  -6   6  129.48    3.40
   1   6  -6  139.34    3.08
   1   6  -6  134.03    3.47
  -1  -6   6  143.95    3.39
   1   6  -6  142.85    3.49
  -1  -6   6  138.08    3.54
  -1  -6   5   84.17    2.70
   1   6  -5   84.58    2.71
   1   6  -5   86.45    2.78
   1   6  -5   77.69    2.65
  -1  -6   5   89.27    2.73
   1   6  -5   80.03    2.72
   1   6  -5   88.07    2.61
  -1  -6   5   84.38    2.76
  -1  -6   5   91.52    2.68
  -1  -6   5   89.17    2.84
  -1  -6   4   22.26    1.48
  -1  -6   4   20.73    1.36
  -1  -6   4   18.61    1.28
  -1  -6   4   18.41    1.21
   1   6  -4   16.43    1.25
  -1  -6   4   17.67    1.29
  -1  -6   3   16.43    1.10
  -1  -6   3   17.99    1.36
  -1  -6   3   16.78    1.21
  -1  -6   3   18.64    1.29
  -1  -6   3   19.95    1.30
  -1  -6   2  430.38    6.45
  -1  -6   2  412.88    5.77
  -1  -6   2  434.56    5.14
  -1  -6   2  412.71    5.69
  -1  -6   2  403.34    5.56
  -1  -6   2  406.07    5.65
  -1  -6   1   56.25    1.90
  -1  -6   1   56.61    1.38
  -1  -6   1   54.23    2.30
  -1  -6   1   56.26    1.73
  -1  -6   1   55.03    2.07
  -1  -6   1   51.58    2.01
  -1  -6   1   51.81    2.02
  -1  -6   1   55.26    2.07
  -1  -6   0  310.56    3.39
  -1  -6   0  287.87    5.16
  -1  -6   0  304.72    4.74
  -1  -6   0  326.92    4.15
  -1  -6   0  306.68    4.76
  -1  -6   0  308.89    4.88
  -1  -6   0  306.86    3.27
  -1  -6   0  323.95    4.98
  -1  -6   0  318.84    4.56
  -1  -6  -1   15.66    0.82
  -1  -6  -1   12.89    1.11
  -1  -6  -1   14.92    1.11
  -1  -6  -1   13.26    1.15
  -1  -6  -1   14.50    1.05
  -1  -6  -1   11.50    0.85
  -1  -6  -1   13.36    1.03
  -1  -6  -1   13.84    0.76
  -1  -6  -1   12.15    1.02
  -1  -6  -1   17.32    1.29
  -1  -6  -2  480.15    6.49
  -1  -6  -2  473.20    4.35
  -1  -6  -2  509.04    6.26
  -1  -6  -2  472.61    6.80
  -1  -6  -2  477.85    5.57
  -1  -6  -2  493.70    4.47
  -1  -6  -2  490.13    6.17
   1   6   2  501.08    6.66
  -1  -6  -2  489.88    5.77
  -1  -6  -3  117.67    2.19
   1   6   3  118.19    3.17
  -1  -6  -3  115.17    3.09
  -1  -6  -3  113.63    3.40
  -1  -6  -3  121.48    2.67
  -1  -6  -3  124.05    2.78
  -1  -6  -3  117.45    2.97
   1   6   3  126.59    3.28
  -1  -6  -3  128.70    3.10
  -1  -6  -3  117.16    3.30
  -1  -6  -4   14.10    1.23
  -1  -6  -4   15.70    1.08
  -1  -6  -4   16.27    0.89
  -1  -6  -4   15.30    0.84
  -1  -6  -4   14.00    1.17
  -1  -6  -4   14.98    0.83
  -1  -6  -5   21.31    1.44
  -1  -6  -5   23.55    1.11
  -1  -6  -5   21.59    1.41
  -1  -6  -5   23.60    1.43
  -1  -6  -6    4.98    0.73
  -1  -6  -6    5.49    0.71
   1   7  -8    7.97    0.69
   1   7  -8    8.70    0.81
  -1  -7   8    9.03    0.70
   1   7  -7  146.12    3.23
   1   7  -7  143.25    2.57
   1   7  -7  142.96    3.34
  -1  -7   7  149.14    2.92
  -1  -7   7  144.36    3.34
   1   7  -6   -0.11    0.42
  -1  -7   6    0.09    0.41
   1   7  -6    0.43    0.43
   1   7  -6    0.66    0.39
  -1  -7   6   -0.02    0.38
  -1  -7   5   52.89    2.20
   1   7  -5   58.54    2.08
  -1  -7   5   57.43    2.25
   1   7  -5   50.77    2.09
  -1  -7   5   58.03    1.91
   1   7  -5   58.38    2.21
  -1  -7   5   55.87    2.19
  -1  -7   4  638.69    7.54
  -1  -7   4  654.72    7.42
   1   7  -4  648.56    7.50
  -1  -7   4  636.78    7.71
  -1  -7   4  693.46    6.43
  -1  -7   4  689.59    7.94
  -1  -7   3  267.49    4.80
  -1  -7   3  289.28    5.05
  -1  -7   3  297.52    5.36
  -1  -7   3  285.73    4.34
  -1  -7   3  273.72    4.99
  -1  -7   3  294.80    3.94
  -1  -7   3  287.17    4.89
  -1  -7   2  495.89    6.35
  -1  -7   2  483.11    5.28
  -1  -7   2  511.46    6.69
  -1  -7   2  493.71    5.92
  -1  -7   2  489.06    6.30
  -1  -7   2  493.49    4.37
  -1  -7   2  507.28    7.04
  -1  -7   2  480.65    6.51
  -1  -7   1    2.34    0.56
  -1  -7   1    1.54    0.47
  -1  -7   1    2.23    0.68
  -1  -7   1    4.46    0.64
  -1  -7   1    2.76    0.61
  -1  -7   1    2.23    0.55
  -1  -7   1    4.50    0.51
  -1  -7   0  839.52    8.42
  -1  -7   0  857.21    8.45
  -1  -7   0  839.95    7.75
  -1  -7   0  834.64    7.76
  -1  -7   0  830.41    6.39
  -1  -7  -1   93.88    1.68
  -1  -7  -1   96.31    2.53
  -1  -7  -1   99.76    3.00
  -1  -7  -1   98.36    2.79
  -1  -7  -1   94.55    1.59
  -1  -7  -1  100.81    2.97
  -1  -7  -1   95.97    2.46
  -1  -7  -2  468.31    5.81
  -1  -7  -2  452.23    3.66
  -1  -7  -2  461.33    6.22
  -1  -7  -2  462.70    4.95
  -1  -7  -2  479.15    5.23
   1   7   2  457.09    6.18
  -1  -7  -2  459.65    6.42
   1   7   2  448.83    6.24
  -1  -7  -3   38.23    1.53
   1   7   3   39.23    1.76
   1   7   3   41.02    1.78
  -1  -7  -3   36.44    1.79
  -1  -7  -3   38.75    1.13
  -1  -7  -3   35.03    1.64
  -1  -7  -3   37.39    1.11
  -1  -7  -3   37.11    1.85
  -1  -7  -4   39.20    1.28
  -1  -7  -4   38.00    1.79
  -1  -7  -4   39.41    1.76
   1   8  -7   75.75    1.33
  -1  -8   7   83.48    2.00
   1   8  -7   89.99    2.17
  -1  -8   7   81.22    1.63
  -1  -8   7   92.33    2.32
   1   8  -6    0.52    0.32
   1   8  -6    0.02    0.34
  -1  -8   6    0.60    0.17
  -1  -8   6    0.46    0.39
   1   8  -5  684.83    7.02
  -1  -8   5  697.57    7.12
  -1  -8   5  711.18    6.44
   1   8  -5  693.34    6.40
  -1  -8   5  701.27    5.37
  -1  -8   5  696.27    7.02
  -1  -8   5  713.64    7.23
  -1  -8   4  463.60    6.13
   1   8  -4  445.64    5.85
  -1  -8   4  458.43    4.19
  -1  -8   4  438.87    5.69
  -1  -8   4  445.40    5.72
   1   8  -4  442.08    5.78
  -1  -8   4  465.16    5.22
  -1  -8   3   37.14    1.02
  -1  -8   3   34.92    1.40
  -1  -8   3   35.94    1.80
   1   8  -3   37.36    1.73
  -1  -8   3   34.27    1.60
  -1  -8   3   38.15    1.69
  -1  -8   2   81.91    1.91
  -1  -8   2   88.68    2.83
  -1  -8   2   86.35    2.45
  -1  -8   2   81.88    2.44
   1   8  -2   86.97    2.73
  -1  -8   1  252.70    2.53
  -1  -8   1  249.79    4.64
  -1  -8   1  247.05    3.93
  -1  -8   1  242.35    3.97
   1   8  -1  253.25    4.68
  -1  -8   1  249.16    4.69
  -1  -8   0   92.16    2.61
  -1  -8   0   90.32    2.77
   1   8   0   98.12    2.91
  -1  -8   0   95.24    2.34
  -1  -8   0   86.76    2.66
  -1  -8   0   90.02    2.20
  -1  -8  -1    4.21    0.60
   1   8   1    3.88    0.65
  -1  -8  -1    3.88    0.47
   1   8   1    4.39    0.68
  -1  -8  -1    3.98    0.45
  -1  -8  -1    3.98    0.67
  -1  -8  -1    4.57    0.68
   1   8   2   33.16    1.49
   1   8   2   34.15    1.56
  -1  -8  -2   37.22    1.59
  -1  -8  -2   34.79    1.29
  -1  -8  -2   32.54    1.57
  -1  -9   4    6.11    0.68
  -1  -9   4    4.81    0.62
  -1  -9   4    6.16    0.60
   1   9  -4    5.49    0.60
  -1  -9   4    5.39    0.59
   1   9  -4    5.98    0.65
  -1  -9   3   26.83    1.35
  -1  -9   3   27.06    1.36
  -1  -9   3   27.72    1.15
  -1  -9   3   27.31    1.12
   1   9  -3   26.64    1.24
  -1  -9   2   14.60    1.04
  -1  -9   2   12.56    0.72
  -1  -9   2   13.46    0.78
   1   9  -2   11.88    0.84
  -1  -9   2   12.97    0.96
  -1  -9   1    1.56    0.27
  -1  -9   1    2.01    0.50
   1   9  -1    1.36    0.47
  -1  -9   1    1.52    0.43
   2 -10   0   78.96    2.31
   2 -10   1    1.25    0.40
   2 -10   1    0.43    0.13
   2 -10   2   46.29    1.18
   2  -9  -4   88.98    2.52
   2  -9  -4   88.90    1.59
   2  -9  -3    7.16    0.54
   2  -9  -3    7.22    0.86
   2  -9  -3    6.91    0.77
   2  -9  -2  136.27    2.20
   2  -9  -2  126.50    3.25
   2  -9  -2  126.75    3.36
   2  -9  -1   26.44    0.99
   2  -9  -1   23.64    0.85
   2  -9  -1   23.85    1.51
   2  -9   0   53.58    2.20
   2  -9   0   50.71    1.56
   2  -9   0   53.05    2.22
   2  -9   0   53.62    1.35
   2  -9   1    8.47    0.75
   2  -9   1    7.27    0.50
   2  -9   1    8.16    0.48
   2  -9   1    7.93    0.92
   2  -9   2   20.56    1.19
   2  -9   2   24.52    1.48
   2  -9   2   20.23    0.99
   2  -9   2   23.07    0.99
   2  -9   3   25.94    1.14
   2  -9   3   23.17    1.28
   2  -9   3   24.73    1.15
   2  -9   4    0.02    0.31
  -2   9  -4   -0.24    0.27
   2  -9   4   -0.02    0.30
   2  -9   5   20.47    0.98
   2  -9   5   20.42    1.01
   2  -8  -6   38.15    1.11
   2  -8  -5  109.39    2.06
   2  -8  -5  107.90    3.03
   2  -8  -4   54.96    2.30
   2  -8  -4   58.39    1.59
   2  -8  -4   59.60    2.35
   2  -8  -3  158.83    3.81
   2  -8  -3  149.25    3.85
   2  -8  -3  156.42    2.63
   2  -8  -2   35.48    1.28
   2  -8  -2   34.34    1.18
   2  -8  -2   32.20    1.82
   2  -8  -1   84.65    2.16
   2  -8  -1   85.56    2.92
   2  -8  -1   86.72    2.96
   2  -8  -1   87.34    1.94
   2  -8   0    6.94    0.61
   2  -8   0    6.70    0.69
   2  -8   0    7.49    0.91
   2  -8   0    5.52    0.57
   2  -8   0    7.62    0.60
   2  -8   0    6.72    0.72
   2  -8   1   80.20    2.37
   2  -8   1   75.58    2.31
   2  -8   1   78.83    2.78
   2  -8   1   74.83    1.72
   2  -8   1   70.42    1.98
   2  -8   1   85.09    2.82
   2  -8   1   72.99    2.34
   2  -8   1   77.89    2.14
   2  -8   2  100.51    1.86
   2  -8   2  104.82    2.92
   2  -8   2  105.86    2.83
   2  -8   2  107.43    3.14
   2  -8   2  103.58    3.01
   2  -8   2  102.52    2.81
   2  -8   2   99.97    2.51
   2  -8   2   93.04    1.38
   2  -8   2  101.16    2.58
   2  -8   2  100.59    2.90
   2  -8   3    8.91    0.96
   2  -8   3    8.57    0.62
   2  -8   3    8.48    0.87
   2  -8   3    8.52    0.90
   2  -8   3    9.46    0.87
   2  -8   3    8.87    0.85
   2  -8   4   97.36    2.64
   2  -8   4   95.64    2.12
   2  -8   4   91.78    2.86
   2  -8   4   98.13    2.68
   2  -8   5   11.49    0.97
   2  -8   5   11.93    1.07
   2  -8   5   14.24    0.87
   2  -8   5   15.64    1.10
   2  -8   6   12.18    0.76
  -2   8  -6   11.24    0.87
   2  -8   6   12.89    0.97
   2  -8   6   12.54    0.95
  -2   8  -7  189.10    2.71
   2  -8   7  186.23    3.12
   2  -7  -7    6.40    0.54
   2  -7  -7    7.02    0.84
   2  -7  -6  101.58    3.08
   2  -7  -6   97.08    2.43
   2  -7  -6   92.31    2.89
   2  -7  -6   94.50    3.07
   2  -7  -5   37.91    2.02
   2  -7  -5   35.07    1.88
   2  -7  -5   39.76    1.98
   2  -7  -4 1346.25   11.22
   2  -7  -4 1336.23   10.86
   2  -7  -4 1315.96   11.72
   2  -7  -4 1308.56   11.47
   2  -7  -3   48.70    2.24
   2  -7  -3   46.88    2.16
   2  -7  -3   47.89    1.35
   2  -7  -2    8.15    0.61
   2  -7  -2   10.40    1.08
   2  -7  -2   11.03    1.12
   2  -7  -2    6.76    0.35
   2  -7  -2    8.08    0.69
   2  -7  -1  119.14    3.38
   2  -7  -1  115.03    3.37
   2  -7  -1  125.39    2.58
   2  -7  -1  122.22    2.69
   2  -7  -1  119.82    2.17
   2  -7  -1  121.47    2.31
   2  -7   0  337.90    4.76
   2  -7   0  345.75    4.57
   2  -7   0  336.14    4.15
   2  -7   0  334.95    3.72
   2  -7   0  329.48    5.61
   2  -7   0  334.08    4.26
   2  -7   0  320.95    5.04
   2  -7   1    8.99    0.64
   2  -7   1    8.39    0.96
   2  -7   1    7.36    0.77
   2  -7   1    7.96    0.81
   2  -7   1    5.76    0.75
   2  -7   1    9.93    0.93
   2  -7   1    5.69    0.48
   2  -7   1    8.53    0.78
   2  -7   1    8.49    0.92
   2  -7   1    6.64    0.72
   2  -7   2   20.02    1.24
   2  -7   2   17.42    1.16
   2  -7   2   16.51    0.64
   2  -7   2   17.02    0.84
   2  -7   2   17.26    1.29
   2  -7   2   17.72    1.16
   2  -7   2   17.20    0.97
   2  -7   2   17.63    1.25
   2  -7   2   14.38    1.15
   2  -7   2   17.07    1.25
   2  -7   2   17.51    1.15
   2  -7   2   18.17    0.69
   2  -7   3  170.62    3.92
   2  -7   3  172.67    3.71
   2  -7   3  171.30    3.69
   2  -7   3  181.89    3.40
   2  -7   3  168.75    2.69
   2  -7   3  165.40    2.34
   2  -7   3  175.37    3.81
   2  -7   3  178.75    3.70
   2  -7   3  166.67    3.86
   2  -7   3  174.80    3.68
   2  -7   4   34.17    1.70
   2  -7   4   37.01    1.90
   2  -7   4   30.67    1.65
   2  -7   4   34.28    1.61
   2  -7   4   33.05    1.68
   2  -7   4   32.97    1.07
   2  -7   4   32.01    1.67
   2  -7   4   32.05    1.33
   2  -7   4   33.60    1.81
   2  -7   4   32.98    1.66
   2  -7   5   39.19    1.51
   2  -7   5   36.31    1.69
   2  -7   5   36.09    1.76
   2  -7   5   38.70    1.74
   2  -7   5   36.88    1.81
   2  -7   5   35.11    2.09
   2  -7   5   34.81    1.71
   2  -7   5   34.78    1.20
   2  -7   6    1.39    0.45
   2  -7   6    1.38    0.34
   2  -7   6    1.48    0.41
   2  -7   6    1.63    0.53
   2  -7   6    1.68    0.59
  -2   7  -6    2.11    0.50
  -2   7  -6    1.09    0.43
   2  -7   6    0.61    0.45
   2  -7   7   18.95    0.95
   2  -7   7   17.41    1.10
   2  -7   7   17.56    0.68
  -2   7  -7   16.86    1.01
  -2   7  -7   18.74    1.11
   2  -7   7   15.49    1.08
  -2   7  -7   18.21    1.06
  -2   7  -8    1.08    0.30
   2  -7   8    0.92    0.39
   2  -7   8    0.75    0.23
  -2   7  -8    0.83    0.23
   2  -7   8    0.91    0.39
   2  -6  -8  119.96    2.20
   2  -6  -8  113.59    2.43
   2  -6  -8  120.94    3.19
   2  -6  -8  118.19    3.08
   2  -6  -7   70.71    2.69
   2  -6  -7   68.56    2.06
   2  -6  -7   71.89    2.68
   2  -6  -6  196.28    4.32
   2  -6  -6  203.04    3.56
   2  -6  -6  206.26    4.51
   2  -6  -5  187.52    4.26
   2  -6  -5  179.54    3.30
   2  -6  -5  178.05    4.19
   2  -6  -5  192.65    4.61
   2  -6  -4  993.94    5.43
   2  -6  -4 1020.01    7.67
   2  -6  -4 1018.48    9.52
   2  -6  -4  995.36    9.69
   2  -6  -4  994.34   10.08
   2  -6  -4  999.50    9.22
   2  -6  -3    8.42    0.95
   2  -6  -3    7.07    0.85
   2  -6  -3    8.95    0.75
   2  -6  -3    8.77    0.97
   2  -6  -3    7.79    0.59
   2  -6  -3    7.94    0.87
   2  -6  -2 1397.95    6.23
   2  -6  -2 1442.39    7.34
   2  -6  -2 1405.42   10.85
   2  -6  -2 1379.76    7.84
   2  -6  -2 1419.33   10.73
   2  -6  -1  322.22    4.51
   2  -6  -1  331.48    3.61
   2  -6  -1  338.93    3.84
   2  -6  -1  331.94    4.13
   2  -6  -1  322.01    5.09
   2  -6  -1  321.57    5.17
   2  -6   0  319.61    3.95
   2  -6   0  334.41    4.11
   2  -6   0  325.40    5.13
   2  -6   0  325.54    3.99
   2  -6   0  321.12    4.62
   2  -6   0  337.48    4.07
   2  -6   0  311.42    4.38
   2  -6   1  136.64    3.28
   2  -6   1  129.09    2.69
   2  -6   1  130.96    2.99
   2  -6   1  134.10    2.74
   2  -6   1  127.74    2.72
   2  -6   1  133.30    3.12
   2  -6   1  137.45    3.16
   2  -6   1  136.34    2.83
   2  -6   2  384.58    5.39
   2  -6   2  376.63    3.67
   2  -6   2  364.71    4.94
   2  -6   2  363.40    4.04
   2  -6   2  345.26    5.19
   2  -6   2  358.37    4.75
   2  -6   2  370.63    4.82
   2  -6   2  347.22    5.07
   2  -6   2  360.67    3.35
   2  -6   2  359.38    5.18
   2  -6   2  369.12    4.93
   2  -6   2  379.85    4.74
   2  -6   3  274.59    4.51
   2  -6   3  284.30    3.65
   2  -6   3  276.70    3.06
   2  -6   3  267.87    4.33
   2  -6   3  296.93    4.54
   2  -6   3  249.58    3.26
   2  -6   3  270.02    4.01
   2  -6   3  276.69    4.82
   2  -6   3  279.93    4.51
   2  -6   3  267.86    4.34
   2  -6   3  274.84    4.81
   2  -6   3  269.45    4.53
  -2   6  -4    2.13    0.51
   2  -6   4    0.64    0.41
   2  -6   4    1.20    0.53
   2  -6   4    0.61    0.44
   2  -6   4    0.81    0.49
   2  -6   4    0.72    0.44
   2  -6   4    1.23    0.51
   2  -6   4    1.14    0.44
   2  -6   5   27.04    1.56
   2  -6   5   31.83    1.46
   2  -6   5   25.18    1.49
  -2   6  -5   30.40    1.55
   2  -6   5   31.30    1.68
   2  -6   5   30.46    1.74
   2  -6   5   30.44    1.55
   2  -6   6   19.76    1.36
   2  -6   6   22.20    1.23
   2  -6   6   21.22    1.40
   2  -6   6   20.41    1.44
  -2   6  -6   21.02    1.31
  -2   6  -7  238.44    4.15
  -2   6  -7  255.63    3.97
  -2   6  -7  255.38    4.38
   2  -6   7  246.77    4.64
   2  -6   7  258.53    3.82
   2  -6   7  244.70    4.41
  -2   6  -8    1.57    0.48
  -2   6  -8    2.21    0.52
   2  -6   8    2.96    0.56
   2  -6   8    1.94    0.40
  -2   6  -8    1.45    0.44
  -2   6  -8    1.54    0.34
   2  -5  -9  283.25    3.32
   2  -5  -9  284.95    3.88
   2  -5  -8   36.60    1.92
   2  -5  -8   37.10    1.88
   2  -5  -8   36.96    1.96
   2  -5  -8   35.65    1.51
   2  -5  -7  744.50    8.85
   2  -5  -7  758.27    8.84
   2  -5  -7  774.80    6.87
   2  -5  -7  747.09    8.56
   2  -5  -6  130.19    3.59
   2  -5  -6  143.21    3.34
   2  -5  -6  138.60    2.80
   2  -5  -6  146.52    3.97
   2  -5  -6  143.40    3.73
   2  -5  -6  138.97    3.85
   2  -5  -6  136.40    3.57
   2  -5  -5  347.31    2.87
   2  -5  -5  363.78    4.27
   2  -5  -5  340.90    4.91
   2  -5  -5  349.31    5.94
   2  -5  -5  354.53    5.34
   2  -5  -5  357.54    5.59
   2  -5  -5  344.71    5.51
   2  -5  -5  360.51    5.61
   2  -5  -5  368.55    5.81
   2  -5  -4 1455.18   10.54
   2  -5  -4 1430.07    6.40
   2  -5  -4 1347.97    9.11
   2  -5  -4 1388.44   10.58
   2  -5  -4 1359.96    9.97
   2  -5  -4 1448.99    7.99
   2  -5  -4 1401.34   10.60
   2  -5  -4 1376.60   10.03
   2  -5  -4 1421.65   11.42
   2  -5  -4 1419.30   10.30
   2  -5  -4 1450.84   10.54
   2  -5  -3  118.27    1.68
   2  -5  -3  112.85    2.84
   2  -5  -3  111.17    2.61
  -2   5   2    9.55    0.64
  -2   5   2    9.84    0.64
   2  -5  -2   11.97    0.81
   2  -5  -2   10.05    0.72
   2  -5  -2    5.25    0.47
   2  -5  -2    5.47    0.42
   2  -5  -1   17.61    0.99
   2  -5  -1   17.87    0.86
  -2   5   1   18.24    0.88
   2  -5  -1   18.23    0.81
   2  -5  -1   20.35    0.83
   2  -5  -1   16.78    0.92
   2  -5   0   10.93    0.69
  -2   5   0    8.80    0.65
   2  -5   0    8.13    0.62
   2  -5   0    9.41    0.64
   2  -5   0    8.11    0.71
   2  -5   0    9.41    0.72
   2  -5   1  253.09    3.57
  -2   5  -1  243.24    3.48
   2  -5   1  246.40    3.39
   2  -5   1  248.31    3.90
   2  -5   1  238.63    3.30
   2  -5   1  246.69    3.74
   2  -5   2   14.10    0.93
   2  -5   2   13.45    0.89
  -2   5  -2   12.88    0.88
   2  -5   2   14.83    0.93
   2  -5   2   14.06    1.03
   2  -5   2   13.98    0.71
   2  -5   3  408.40    4.97
   2  -5   3  411.94    4.99
   2  -5   3  417.68    4.57
   2  -5   3  403.72    5.56
   2  -5   3  408.26    5.16
   2  -5   4    5.27    0.41
   2  -5   4    5.74    0.72
   2  -5   4    5.49    0.71
   2  -5   4    6.74    0.72
   2  -5   4    5.48    0.76
   2  -5   4    5.57    0.70
  -2   5  -4    4.85    0.66
  -2   5  -5  120.60    3.09
   2  -5   5  126.78    3.16
  -2   5  -5  127.50    3.27
   2  -5   5  126.23    3.19
   2  -5   5  131.36    3.06
   2  -5   5  134.07    3.45
   2  -5   5  123.42    3.17
  -2   5  -6    0.59    0.51
   2  -5   6    0.63    0.43
   2  -5   6    3.46    0.67
   2  -5   6    3.41    0.61
  -2   5  -6    1.20    0.48
   2  -5   6    0.95    0.44
  -2   5  -7    0.82    0.40
  -2   5  -7   -0.15    0.42
  -2   5  -7   -0.24    0.44
  -2   5  -7    0.16    0.40
   2  -5   7    0.16    0.44
   2  -5   7   -0.04    0.41
   2  -5   7    0.17    0.44
   2  -5   7    0.45    0.37
  -2   5  -7    0.23    0.39
  -2   5  -8    0.98    0.46
  -2   5  -8    0.35    0.39
   2  -5   8    0.15    0.37
  -2   5  -8    0.34    0.42
  -2   5  -8    0.16    0.29
  -2   5  -9    4.64    0.59
  -2   5  -9    3.68    0.55
   2  -5   9    2.87    0.46
  -2   5  -9    4.48    0.59
  -2   5  -9    4.95    0.63
  -2   5  -9    3.90    0.44
   2  -4 -10   57.80    1.41
   2  -4 -10   56.80    2.01
   2  -4  -9    3.35    0.63
   2  -4  -9    5.83    0.86
   2  -4  -9    4.85    0.56
   2  -4  -8    3.06    0.72
   2  -4  -8    2.83    0.52
   2  -4  -8    2.70    0.65
   2  -4  -8    2.61    0.58
   2  -4  -8    1.68    0.63
   2  -4  -7   38.78    2.10
   2  -4  -7   40.79    1.57
   2  -4  -7   35.21    1.91
   2  -4  -7   37.73    1.81
   2  -4  -7   35.95    1.91
   2  -4  -6  137.52    1.80
   2  -4  -6  141.84    3.62
   2  -4  -6  145.42    3.81
   2  -4  -6  136.48    3.39
   2  -4  -6  142.29    2.63
   2  -4  -6  136.11    3.39
   2  -4  -6  136.20    3.20
   2  -4  -6  139.81    3.52
   2  -4  -6  133.84    3.57
   2  -4  -5   20.52    1.38
   2  -4  -5   19.41    1.24
   2  -4  -5   18.66    1.22
   2  -4  -5   17.60    1.10
   2  -4  -5   17.36    1.24
   2  -4  -5   19.23    1.25
   2  -4  -5   17.18    1.16
   2  -4  -5   20.48    0.73
   2  -4  -5   16.06    0.80
   2  -4  -4   10.13    0.83
   2  -4  -4    8.39    0.51
   2  -4  -4   11.17    0.88
  -2   4   3  319.90    2.81
   2  -4  -3  327.02    4.01
   2  -4  -3  324.89    2.83
   2  -4  -2 1878.85    5.89
   2  -4  -2 1836.83    8.31
  -2   4   2 1834.99    6.60
   2  -4  -2 1914.31    6.80
   2  -4  -2 1883.38    8.59
   2  -4  -1  127.00    1.75
   2  -4  -1  126.00    1.72
   2  -4  -1  126.02    1.82
   2  -4  -1  121.69    2.18
  -2   4   1  129.58    1.83
   2  -4  -1  125.84    1.98
  -2   4   0  652.96    4.45
   2  -4   0  650.58    5.16
   2  -4   0  662.33    4.43
   2  -4   0  670.40    4.61
   2  -4   0  662.95    4.50
   2  -4   1  587.22    5.26
  -2   4  -1  583.31    4.62
   2  -4   1  602.30    3.71
   2  -4   1  572.90    4.66
   2  -4   1  581.70    4.66
   2  -4   1  600.93    4.72
   2  -4   1  596.01    5.52
   2  -4   2    7.62    0.63
   2  -4   2    6.68    0.60
   2  -4   2    8.43    0.75
  -2   4  -2    7.40    0.62
   2  -4   2    7.35    0.60
   2  -4   3   40.07    1.49
   2  -4   3   38.41    1.44
   2  -4   3   39.83    1.48
  -2   4  -3   39.25    1.53
   2  -4   4  144.79    2.00
   2  -4   4  142.71    3.00
   2  -4   4  148.88    3.05
   2  -4   4  136.97    2.97
  -2   4  -4  135.92    3.02
   2  -4   5    3.09    0.58
  -2   4  -5    1.85    0.50
   2  -4   5    2.97    0.58
  -2   4  -5    3.13    0.61
   2  -4   5    3.41    0.56
   2  -4   5    3.02    0.39
   2  -4   5    4.73    0.69
   2  -4   6  197.12    3.86
  -2   4  -6  203.19    4.16
   2  -4   6  203.51    2.69
  -2   4  -6  205.33    4.25
  -2   4  -6  195.11    4.07
  -2   4  -6  193.46    4.08
   2  -4   6  195.62    4.03
  -2   4  -6  188.39    3.67
   2  -4   6  197.44    4.13
  -2   4  -7  264.56    4.06
  -2   4  -7  254.49    4.77
  -2   4  -7  265.82    4.83
  -2   4  -7  272.45    4.85
   2  -4   7  250.90    4.73
  -2   4  -7  255.04    4.69
   2  -4   7    0.56    0.46
  -2   4  -8    1.24    0.39
  -2   4  -8    1.54    0.50
  -2   4  -8    1.13    0.49
  -2   4  -8    1.10    0.37
  -2   4  -8    1.57    0.56
   2  -4   8    0.44    0.42
  -2   4  -9   15.88    1.10
  -2   4  -9   16.09    1.06
  -2   4  -9   14.46    1.00
   2  -4   9   13.88    0.93
  -2   4  -9   14.34    0.79
  -2   4  -9   14.01    0.96
   2  -3 -10   57.49    1.55
   2  -3 -10   58.33    2.09
   2  -3 -10   62.44    2.25
   2  -3  -9  299.75    5.11
   2  -3  -9  306.07    5.44
   2  -3  -9  314.70    5.46
   2  -3  -8  191.29    4.35
   2  -3  -8  194.46    4.18
   2  -3  -8  192.26    4.32
   2  -3  -7   14.36    0.67
   2  -3  -7   14.70    1.24
   2  -3  -7   11.67    1.02
   2  -3  -7   12.41    0.86
   2  -3  -7   12.97    1.13
   2  -3  -7   14.11    1.20
   2  -3  -7   11.63    1.09
   2  -3  -6   72.12    1.47
   2  -3  -6   72.78    2.29
   2  -3  -6   71.75    2.30
   2  -3  -6   68.18    2.37
   2  -3  -6   74.67    1.76
   2  -3  -6   70.05    2.26
   2  -3  -6   74.39    2.47
   2  -3  -6   77.71    2.54
   2  -3  -6   66.52    2.31
   2  -3  -5 1427.32    9.63
   2  -3  -5 1399.44    9.67
   2  -3  -4  243.29    1.56
   2  -3  -4  259.93    3.65
   2  -3  -4  267.51    2.29
   2  -3  -4  242.35    3.20
  -2   3   3   20.97    0.51
  -2   3   3   20.62    0.50
   2  -3  -3   21.66    0.55
   2  -3  -3   19.92    0.37
   2  -3  -3   21.51    0.96
   2  -3  -2   42.54    1.18
   2  -3  -2   42.67    1.15
  -2   3   2   42.24    0.60
   2  -3  -2   42.40    0.61
  -2   3   2   42.99    0.67
   2  -3  -1  345.79    3.24
   2  -3  -1  343.83    2.36
  -2   3   1  325.47    2.06
   2  -3  -1  338.53    2.27
   2  -3  -1  344.80    3.01
  -2   3   1  321.60    2.06
   2  -3   0 5014.43   10.46
   2  -3   0 5044.94   12.76
   2  -3   0 5025.75   10.71
  -2   3   0 5101.06    9.90
   2  -3   0 5084.85   10.98
   2  -3   1 2088.23    7.70
   2  -3   1 2070.51    8.03
   2  -3   2  451.47    4.15
   2  -3   2  442.27    3.99
   2  -3   2  451.51    4.24
  -2   3  -2  443.94    3.92
  -2   3  -3 2093.87   10.24
   2  -3   3 2133.61   10.19
   2  -3   3 2237.69    9.86
   2  -3   3 2163.49    9.85
   2  -3   3 2168.35   10.10
  -2   3  -3 2270.76   10.16
  -2   3  -4  991.62    7.67
   2  -3   4 1003.01    7.60
  -2   3  -4 1010.25    7.73
   2  -3   4 1010.08    7.67
  -2   3  -5  347.83    4.91
  -2   3  -5  373.11    5.39
  -2   3  -5  343.46    4.92
   2  -3   5  366.18    4.08
   2  -3   5  338.76    4.85
  -2   3  -6   33.44    1.68
  -2   3  -6   36.09    1.81
  -2   3  -6   41.44    1.94
   2  -3   6   35.49    1.64
   2  -3   6   37.13    1.38
  -2   3  -6   33.28    1.68
  -2   3  -6   32.86    1.51
  -2   3  -6   35.83    1.73
   2  -3   6   36.25    1.73
  -2   3  -7  112.19    3.16
  -2   3  -7  118.89    3.24
   2  -3   7  110.81    2.87
  -2   3  -7  108.39    3.13
  -2   3  -7  109.31    2.57
   2  -3   7  110.87    2.25
  -2   3  -7  106.65    3.02
  -2   3  -7  119.14    3.29
  -2   3  -8   42.61    1.67
  -2   3  -8   46.28    1.96
  -2   3  -8   38.10    1.76
  -2   3  -8   43.49    1.87
   2  -3   8   40.54    1.17
  -2   3  -8   45.20    2.03
  -2   3  -8   42.36    1.22
  -2   3  -8   42.07    1.44
  -2   3  -9   57.54    1.87
  -2   3  -9   63.42    2.01
  -2   3  -9   56.32    1.42
  -2   3  -9   65.93    2.20
   2  -2 -11   17.94    0.75
   2  -2 -10  267.41    3.43
   2  -2 -10  263.79    4.66
   2  -2 -10  262.85    4.65
   2  -2 -10  271.88    4.79
   2  -2  -9   56.75    2.32
   2  -2  -9   56.94    2.32
   2  -2  -9   57.85    2.35
   2  -2  -9   54.49    1.04
   2  -2  -8   72.36    1.67
   2  -2  -8   70.35    2.55
   2  -2  -8   70.56    2.59
   2  -2  -8   71.70    2.61
   2  -2  -8   75.22    2.64
   2  -2  -7    0.98    0.31
   2  -2  -7    0.20    0.38
   2  -2  -7    1.38    0.33
   2  -2  -7    1.18    0.42
   2  -2  -7    1.26    0.50
   2  -2  -7    1.17    0.47
   2  -2  -6 1199.88    6.68
   2  -2  -6 1215.83    8.56
   2  -2  -6 1221.97    8.92
  -2   2   6 1191.57    6.70
   2  -2  -6 1212.69    9.25
   2  -2  -5    0.97    0.22
  -2   2   5    1.07    0.21
   2  -2  -5    0.76    0.37
   2  -2  -5    0.92    0.36
   2  -2  -5    0.97    0.17
   2  -2  -4    4.50    0.28
   2  -2  -4    3.77    0.46
   2  -2  -4    3.89    0.20
  -2   2   4    3.93    0.24
   2  -2  -3 3164.62    4.63
   2  -2  -3 3188.08    4.62
   2  -2  -3 3185.04   10.20
  -2   2   2 1277.76    5.93
   2  -2  -2  958.86    1.86
   2  -2  -2 1253.22    5.71
   2  -2  -2 1075.55    1.99
  -2   2   1  402.75    3.03
  -2   2   1  384.83    1.50
   2  -2  -1  413.41    1.91
  -2   2   1  386.75    1.37
   2  -2  -1  401.58    2.96
   2  -2  -1  387.80    3.00
   2  -2  -1  384.15    1.94
  -2   2   0 5468.33    9.19
   2  -2   0 6444.97    9.95
  -2   2   0 6300.90    9.09
  -2   2   0 5533.97    9.75
   2  -2   0 6359.57    8.18
  -2   2   0 6235.76   10.71
   2  -2   0 6331.16   10.90
   2  -2   0 6617.05   12.66
  -2   2  -1 3964.94    9.72
   2  -2   1 3891.04    9.28
  -2   2  -1 3967.82    9.06
   2  -2   1 3936.93   10.00
   2  -2   1 3856.38    9.31
  -2   2  -1 3948.87    7.25
  -2   2  -2  863.77    5.12
  -2   2  -2  877.87    5.28
   2  -2   2  870.05    5.12
   2  -2   2  873.24    5.49
   2  -2   3  474.32    4.61
  -2   2  -3  445.19    4.44
  -2   2  -3  443.82    4.34
   2  -2   3  471.58    4.35
   2  -2   3  439.57    4.40
  -2   2  -3  448.37    4.46
  -2   2  -3  441.04    4.44
  -2   2  -4   48.82    1.66
   2  -2   4   52.42    1.74
  -2   2  -4   50.83    1.70
  -2   2  -4   47.03    1.61
   2  -2   4   46.32    1.60
  -2   2  -4   55.19    1.75
   2  -2   5    0.04    0.32
  -2   2  -5    0.49    0.35
   2  -2   5    0.73    0.34
  -2   2  -5    0.67    0.38
  -2   2  -6  243.34    4.36
  -2   2  -6  271.06    4.79
  -2   2  -6  257.14    4.50
  -2   2  -6  282.43    4.89
   2  -2   6  244.09    4.20
   2  -2   6  260.80    4.58
  -2   2  -6  239.23    4.32
   2  -2   6  264.25    3.86
  -2   2  -6  260.07    3.98
  -2   2  -7   80.38    2.68
  -2   2  -7   82.15    2.09
  -2   2  -7   78.33    2.55
   2  -2   7   82.21    2.15
  -2   2  -7   77.95    2.54
  -2   2  -7   82.05    2.74
  -2   2  -7   79.95    2.67
  -2   2  -8   47.92    1.92
  -2   2  -8   49.04    1.39
  -2   2  -8   50.81    1.72
  -2   2  -8   45.63    1.89
  -2   2  -8   49.64    2.14
   2  -2   8   46.05    1.47
  -2   2  -9    3.45    0.54
  -2   2  -9    3.28    0.33
  -2   2  -9    4.52    0.67
  -2   2  -9    3.86    0.59
   2  -1 -11   65.70    1.43
   2  -1 -11   65.81    2.04
   2  -1 -11   67.33    2.21
   2  -1 -10  456.48    5.98
   2  -1 -10  457.30    6.39
   2  -1 -10  441.44    6.03
   2  -1  -9   26.10    1.10
   2  -1  -9   29.43    1.62
   2  -1  -9   26.87    1.67
   2  -1  -9   26.85    1.61
   2  -1  -8   72.02    1.91
   2  -1  -8   68.55    2.50
   2  -1  -8   69.47    1.73
   2  -1  -8   66.53    1.23
   2  -1  -8   72.10    2.66
   2  -1  -8   64.57    2.32
   2  -1  -7   67.41    1.77
   2  -1  -7   66.58    1.60
   2  -1  -7   63.90    1.39
   2  -1  -7   66.59    2.11
   2  -1  -7   71.52    2.46
   2  -1  -7   61.55    2.16
   2  -1  -7   62.55    2.24
   2  -1  -6  201.25    3.27
   2  -1  -6  202.29    2.84
   2  -1  -6  203.21    2.48
   2  -1  -6  199.89    3.51
  -2   1   6  192.28    2.70
   2  -1  -6  209.08    2.58
   2  -1  -6  209.83    2.90
   2  -1  -5    2.40    0.41
   2  -1  -5    2.14    0.37
   2  -1  -5    2.12    0.26
  -2   1   5    1.29    0.24
   2  -1  -5    1.46    0.23
   2  -1  -4   47.27    0.90
  -2   1   4   47.39    1.25
   2  -1  -4   47.79    0.84
  -2   1   4   47.02    0.81
   2  -1  -4   48.71    1.30
  -2   1   3 4526.30    4.26
   2  -1  -3 4787.70    6.67
   2  -1  -3 4773.48    6.80
   2  -1  -3 4893.57    6.78
  -2   1   3 4984.37   11.79
  -2   1   3 4337.70    4.22
   2  -1  -3 4923.82   11.46
   2  -1  -2 1969.72    6.57
   2  -1  -2 1949.20    3.17
   2  -1  -2 1913.20    3.15
  -2   1   2 1924.48    4.25
  -2   1   1    1.40    0.14
   2  -1  -1    1.24    0.14
  -2   1   1    1.52    0.13
   2  -1   0  500.23    2.55
  -2   1   0  472.99    2.68
   2  -1   0  473.83    2.64
   2  -1   0  502.91    2.57
  -2   1   0  489.59    2.51
  -2   1   0  463.50    2.69
   2  -1   1  815.63    4.20
  -2   1  -1  780.33    4.18
   2  -1   1  776.08    4.28
   2  -1   1  746.45    3.97
  -2   1  -1  782.31    3.90
   2  -1   1  787.00    4.13
   2  -1   2  351.52    3.21
   2  -1   2  357.35    3.37
  -2   1  -2  374.84    3.24
  -2   1  -2  344.71    3.35
  -2   1  -2  360.36    3.29
   2  -1   2  373.17    3.40
   2  -1   2  352.90    3.38
   2  -1   2  374.30    3.35
  -2   1  -3  148.22    2.45
  -2   1  -3  150.05    2.56
   2  -1   3  149.01    2.38
  -2   1  -3  143.04    2.45
   2  -1   3  153.93    2.55
   2  -1   3  156.69    2.57
   2  -1   4  771.16    6.40
  -2   1  -4  774.88    6.48
  -2   1  -4  756.42    6.31
  -2   1  -5   15.29    1.04
  -2   1  -5   12.65    0.98
  -2   1  -5   17.70    1.16
  -2   1  -5   15.01    1.02
   2  -1   5   17.55    1.11
  -2   1  -5   15.21    1.03
   2  -1   6   69.79    2.26
  -2   1  -6   66.35    2.30
  -2   1  -6   70.53    2.35
  -2   1  -6   73.89    2.05
  -2   1  -6   69.28    2.32
  -2   1  -6   66.01    2.29
  -2   1  -7   10.46    1.03
  -2   1  -7    9.09    0.97
  -2   1  -7    8.94    0.76
  -2   1  -7    9.27    0.88
  -2   1  -7    8.27    0.90
   2  -1   7    8.69    0.81
  -2   1  -7    7.60    0.86
  -2   1  -7   11.06    0.72
  -2   1  -7   10.00    1.00
   2  -1   8  182.87    3.73
  -2   1  -8  183.42    3.58
  -2   1  -8  186.95    3.03
   2  -1   8  187.14    3.11
  -2   1  -8  178.54    3.65
  -2   1  -9    0.29    0.31
   2  -1   9    0.52    0.23
  -2   1  -9    0.02    0.31
   2   0 -11  172.17    2.24
   2   0 -11  173.56    3.31
   2   0 -10  204.10    3.04
   2   0 -10  212.98    4.43
   2   0 -10  204.01    4.06
   2   0 -10  217.81    3.03
   2   0  -9   24.83    1.51
   2   0  -9   24.55    1.13
   2   0  -9   26.83    1.70
   2   0  -9   23.68    1.12
   2   0  -9   26.68    1.26
   2   0  -9   25.90    0.87
   2   0  -9   26.03    1.46
   2   0  -9   25.36    1.54
   2   0  -8  163.46    2.59
   2   0  -8  154.52    3.59
   2   0  -8  155.01    3.39
   2   0  -8  177.69    3.22
   2   0  -8  173.45    2.83
   2   0  -8  176.91    3.09
   2   0  -8  165.86    3.90
   2   0  -8  167.53    2.98
   2   0  -8  162.64    3.74
   2   0  -7  466.89    4.93
   2   0  -7  476.15    5.89
   2   0  -7  476.56    5.57
   2   0  -7  467.22    4.39
   2   0  -7  481.35    6.14
   2   0  -7  478.84    4.66
   2   0  -7  456.86    5.87
   2   0  -6    3.64    0.51
   2   0  -6    2.42    0.36
   2   0  -6    3.25    0.42
  -2   0   6    2.22    0.37
   2   0  -6    2.44    0.38
   2   0  -6    2.69    0.37
   2   0  -5   71.28    1.44
   2   0  -5   69.70    1.57
  -2   0   5   71.62    1.50
   2   0  -5   70.49    1.47
   2   0  -4  416.54    2.99
  -2   0   4  409.54    2.96
   2   0  -3 8170.70   11.55
   2   0  -3 8514.13   12.24
   2   0  -3 8725.87   11.95
  -2   0   3 7741.55   10.65
   2   0  -3 8856.63   12.69
   2   0  -3 7354.74   12.62
  -2   0   3 8630.19   11.93
  -2   0   3 8244.16   10.80
  -2   0   2 5836.80    7.94
  -2   0   2 6236.43    9.77
   2   0  -2 6112.04   10.04
  -2   0   2 5905.20    8.40
   2   0  -2 6214.11    9.30
   2   0  -2 6475.99    9.25
   2   0  -2 5647.24   10.75
  -2   0   2 5739.56    8.04
   2   0  -1 4267.16    7.86
   2   0  -1 4313.08    7.05
  -2   0   1 4258.41    7.34
  -2   0   1 4015.86    7.46
   2   0  -1 4174.18    6.83
  -2   0   1 3890.72    7.97
   2   0   0  105.30    1.39
  -2   0   0  107.03    1.34
  -2   0   0  103.82    1.36
   2   0   1  271.55    2.66
  -2   0  -1  278.18    2.60
   2   0   1  282.19    2.59
  -2   0  -1  292.52    2.61
   2   0   1  302.36    2.75
   2   0   1  295.78    2.71
  -2   0  -2  590.06    4.25
   2   0   2  550.45    4.32
   2   0   2  554.03    4.13
  -2   0  -2  545.27    4.35
  -2   0  -2  540.45    4.13
   2   0   2  547.35    4.33
  -2   0  -2  539.82    4.29
   2   0   2  581.21    4.38
  -2   0  -3    4.50    0.50
  -2   0  -3    5.35    0.51
   2   0   3    6.65    0.57
   2   0   3    4.34    0.50
  -2   0  -3    5.56    0.55
   2   0   3    5.70    0.54
  -2   0  -4   57.31    1.79
  -2   0  -4   59.33    1.82
   2   0   4   58.34    1.82
  -2   0  -4   58.21    1.77
  -2   0  -5  233.52    3.98
  -2   0  -5  250.31    4.09
  -2   0  -5  254.24    3.02
  -2   0  -5  253.47    3.96
  -2   0  -5  251.38    4.07
  -2   0  -5  252.75    3.65
  -2   0  -5  230.08    4.01
  -2   0  -6  136.96    3.29
  -2   0  -6  141.53    3.31
  -2   0  -6  128.30    3.12
  -2   0  -6  144.30    2.92
  -2   0  -6  130.57    3.22
  -2   0  -6  138.00    3.12
  -2   0  -6  134.10    3.28
  -2   0  -6  145.07    2.22
  -2   0  -6  146.70    2.64
  -2   0  -7  495.85    6.60
  -2   0  -7  499.97    6.57
  -2   0  -7  495.63    6.12
  -2   0  -7  527.03    5.67
  -2   0  -7  528.31    4.59
  -2   0  -7  486.79    6.15
  -2   0  -8  436.99    3.61
   2   0   8  429.34    4.86
  -2   0  -8  432.75    5.24
  -2   0  -8  431.06    5.45
  -2   0  -9    4.09    0.58
  -2   0  -9    3.93    0.43
   2   0   9    3.88    0.54
   2   0   9    2.65    0.34
  -2   0  -9    4.54    0.50
   2   1 -11   13.40    0.60
  -2  -1  11   14.73    0.93
   2   1 -11   15.88    1.14
   2   1 -11   15.36    0.62
   2   1 -10   26.90    1.09
   2   1 -10   26.18    1.48
   2   1 -10   31.28    1.76
   2   1 -10   30.81    1.65
   2   1 -10   31.84    1.34
   2   1  -9   39.83    1.95
   2   1  -9   38.53    1.38
   2   1  -9   44.28    1.53
   2   1  -9   42.82    1.42
   2   1  -9   43.80    2.07
   2   1  -9   36.94    1.81
   2   1  -9   42.12    1.63
   2   1  -9   42.07    1.69
   2   1  -8  275.88    4.27
   2   1  -8  227.15    1.99
   2   1  -8  272.74    4.84
   2   1  -8  272.41    3.55
   2   1  -8  289.16    4.24
   2   1  -8  285.91    4.01
   2   1  -8  276.71    3.81
   2   1  -8  279.33    4.12
   2   1  -8  246.77    1.82
   2   1  -8  293.89    5.11
   2   1  -8  263.97    4.65
   2   1  -7  166.74    3.55
   2   1  -7  171.72    3.07
   2   1  -7  158.57    3.48
   2   1  -7  170.25    2.95
   2   1  -7  167.44    2.99
   2   1  -7  168.24    3.01
   2   1  -7  171.34    3.54
  -2  -1   6    2.60    0.41
   2   1  -6    2.25    0.39
   2   1  -6    2.70    0.44
   2   1  -6    3.62    0.47
   2   1  -5  201.99    1.59
   2   1  -5  204.13    2.85
   2   1  -5  205.61    2.74
   2   1  -5  209.81    2.85
  -2  -1   5  211.31    2.81
  -2  -1   4 1242.37    5.97
   2   1  -4 1254.43    6.16
   2   1  -4 1249.39    4.41
   2   1  -4 1258.14    6.39
   2   1  -3   27.31    0.68
   2   1  -3   26.73    0.84
   2   1  -3   25.57    0.82
  -2  -1   3   25.87    0.78
  -2  -1   3   26.51    0.84
   2   1  -3   28.29    0.79
  -2  -1   3   28.28    0.83
   2   1  -2    0.89    0.22
   2   1  -2    1.25    0.24
   2   1  -2    1.67    0.22
  -2  -1   2    1.72    0.27
  -2  -1   2    1.37    0.24
   2   1  -1  455.29    3.16
   2   1  -1  471.76    3.03
  -2  -1   1  447.82    3.13
   2   1  -1  443.87    3.27
  -2  -1   1  462.42    3.09
   2   1  -1  457.68    3.08
  -2  -1   1  448.61    3.26
   2   1   0  631.87    3.96
  -2  -1   0  614.47    3.98
   2   1   0  623.76    4.06
   2   1   0  638.46    3.90
   2   1   0  642.24    3.97
  -2  -1   0  658.87    3.93
  -2  -1   0  618.24    3.90
  -2  -1  -1 1112.27    5.99
   2   1   1 1163.03    5.75
   2   1   1 1132.02    6.01
  -2  -1  -1 1109.97    5.69
  -2  -1  -1 1151.81    6.09
   2   1   1 1117.88    6.00
  -2  -1  -1 1098.05    5.61
  -2  -1  -1 1200.36    5.86
   2   1   1 1175.97    6.03
   2   1   2 1601.98    7.93
  -2  -1  -2 1569.27    7.92
  -2  -1  -2 1598.56    7.75
  -2  -1  -2 1590.91    7.84
   2   1   2 1692.70    8.08
  -2  -1  -2 1567.09    7.39
   2   1   2 1578.63    7.93
   2   1   2 1659.41    7.73
  -2  -1  -3   80.87    1.97
  -2  -1  -3   79.25    1.98
  -2  -1  -3   84.30    2.02
  -2  -1  -3   83.14    1.85
   2   1   3   84.05    2.05
  -2  -1  -4 1724.77   10.13
  -2  -1  -4 1716.33    9.94
  -2  -1  -5    4.07    0.46
  -2  -1  -5    3.49    0.60
  -2  -1  -5    3.62    0.63
  -2  -1  -5    4.39    0.52
  -2  -1  -5    2.44    0.51
  -2  -1  -5    2.89    0.57
  -2  -1  -5    3.29    0.56
  -2  -1  -5    3.02    0.52
  -2  -1  -5    3.27    0.45
   2   1   5    4.91    0.68
  -2  -1  -6  760.62    5.98
  -2  -1  -6  730.50    7.46
  -2  -1  -6  725.09    7.73
  -2  -1  -6  725.91    5.15
  -2  -1  -6  770.36    4.71
  -2  -1  -6  729.93    7.72
  -2  -1  -6  743.37    6.87
  -2  -1  -6  724.86    7.56
  -2  -1  -6  706.68    7.27
  -2  -1  -7   42.53    1.92
  -2  -1  -7   44.82    1.81
  -2  -1  -7   41.78    1.76
  -2  -1  -7   44.58    1.46
  -2  -1  -7   43.46    1.89
  -2  -1  -8    8.34    0.84
   2   1   8    6.28    0.68
  -2  -1  -8    7.46    0.74
  -2  -1  -8    7.90    0.70
   2   2 -11  112.69    2.78
  -2  -2  11   96.69    2.16
   2   2 -11  105.75    2.67
   2   2 -11  103.81    1.98
   2   2 -10  154.54    2.41
   2   2 -10  148.07    2.20
   2   2 -10  141.58    3.25
  -2  -2  10  149.62    3.05
   2   2 -10  169.61    3.83
   2   2 -10  161.25    3.18
   2   2 -10  160.08    3.68
   2   2  -9    4.98    0.77
   2   2  -9    5.49    0.55
   2   2  -9    4.88    0.72
   2   2  -9    6.36    0.67
   2   2  -9    4.38    0.73
   2   2  -9    6.86    0.77
   2   2  -9    5.22    0.64
   2   2  -9    5.26    0.71
   2   2  -9    6.66    0.77
   2   2  -8  178.29    3.94
   2   2  -8  175.80    2.80
   2   2  -8  181.37    3.35
   2   2  -8  181.28    3.82
   2   2  -8  175.59    3.37
   2   2  -8  176.91    2.59
   2   2  -8  190.79    3.95
   2   2  -8  175.80    3.50
   2   2  -8  184.80    3.61
   2   2  -8  173.00    3.81
   2   2  -8  186.52    3.75
   2   2  -7  269.46    3.41
   2   2  -7  257.53    3.99
   2   2  -7  263.65    3.96
   2   2  -7  261.93    3.45
   2   2  -7  256.12    4.43
   2   2  -7  258.96    4.44
   2   2  -7  256.05    2.74
   2   2  -7  266.61    4.54
   2   2  -7  257.57    4.00
   2   2  -7  260.83    4.26
   2   2  -7  253.76    3.98
   2   2  -6  355.51    4.30
   2   2  -6  354.94    4.52
   2   2  -6  366.25    4.48
  -2  -2   6  370.58    4.58
   2   2  -5   20.33    1.02
   2   2  -5   19.51    0.76
   2   2  -5   22.40    1.04
   2   2  -5   20.34    1.01
  -2  -2   4 1187.54    6.75
   2   2  -4 1168.09    6.80
   2   2  -4 1158.48    6.76
   2   2  -4 1132.74    5.57
   2   2  -4 1136.49    6.87
  -2  -2   3 1217.91    6.57
   2   2  -3 1241.49    6.49
   2   2  -3 1204.79    6.53
  -2  -2   3 1258.57    6.41
   2   2  -3 1252.36    5.81
   2   2  -3 1212.34    6.63
  -2  -2   2   86.78    1.72
   2   2  -2   89.94    1.68
   2   2  -2   92.84    1.76
  -2  -2   2   91.18    1.68
  -2  -2   2   93.86    1.67
   2   2  -2   90.82    1.58
   2   2  -2   87.33    1.74
  -2  -2   2   86.38    1.70
   2   2  -1  545.72    3.99
   2   2  -1  535.17    4.26
  -2  -2   1  506.34    4.03
   2   2  -1  535.69    4.07
  -2  -2   1  556.73    4.36
  -2  -2   1  569.30    4.14
  -2  -2   1  544.54    4.10
   2   2  -1  532.68    4.27
  -2  -2   1  547.16    4.31
   2   2  -1  494.36    3.68
  -2  -2   0 1131.04    6.13
  -2  -2   0 1128.46    6.45
  -2  -2   0 1123.53    6.38
   2   2   0 1124.91    6.47
   2   2   0 1153.35    6.43
  -2  -2   0 1107.11    6.12
   2   2   0 1139.07    6.22
   2   2   0 1146.05    6.18
  -2  -2  -1 1016.91    6.41
  -2  -2  -1 1016.80    6.46
  -2  -2  -1 1015.14    6.23
  -2  -2  -1 1014.33    6.30
   2   2   1 1017.19    6.48
   2   2   1 1002.30    6.47
  -2  -2  -2  498.02    4.88
  -2  -2  -2  508.05    4.89
   2   2   2  497.20    4.92
  -2  -2  -3   22.44    1.15
  -2  -2  -3   24.21    1.22
  -2  -2  -3   24.68    1.18
  -2  -2  -3   25.38    1.09
  -2  -2  -4   10.97    0.70
  -2  -2  -4    7.41    0.76
   2   2   4    9.61    0.89
  -2  -2  -4    9.35    0.68
  -2  -2  -4    9.51    0.84
  -2  -2  -4    8.48    0.81
  -2  -2  -4    9.38    0.86
  -2  -2  -4    8.47    0.69
  -2  -2  -4   10.72    1.01
  -2  -2  -4    9.03    0.79
  -2  -2  -5   42.20    1.34
  -2  -2  -5   42.14    1.78
  -2  -2  -5   45.09    1.90
   2   2   5   42.86    1.84
  -2  -2  -5   43.49    1.23
  -2  -2  -5   42.03    1.78
  -2  -2  -5   44.09    1.85
  -2  -2  -5   40.74    1.76
  -2  -2  -5   44.87    1.55
  -2  -2  -5   46.24    2.01
  -2  -2  -5   48.91    2.12
  -2  -2  -6  132.32    3.13
  -2  -2  -6  128.36    2.12
  -2  -2  -6  129.31    3.32
  -2  -2  -6  132.07    3.35
  -2  -2  -6  135.24    2.67
  -2  -2  -6  128.37    3.09
  -2  -2  -6  134.48    3.46
  -2  -2  -7   91.00    2.37
  -2  -2  -7   87.56    2.39
  -2  -2  -7   87.58    2.73
  -2  -2  -8  190.84    3.29
  -2  -2  -8  177.66    2.26
   2   3 -11    4.94    0.63
   2   3 -11    4.53    0.49
  -2  -3  11    4.82    0.49
   2   3 -10   83.26    2.60
  -2  -3  10   77.01    2.05
   2   3 -10   77.78    1.90
   2   3 -10   77.30    2.00
   2   3 -10   82.93    2.33
   2   3  -9  316.06    4.43
   2   3  -9  317.73    5.21
   2   3  -9  321.02    2.98
  -2  -3   9  316.59    4.44
   2   3  -9  297.84    4.45
   2   3  -9  339.88    5.20
   2   3  -9  298.37    3.14
   2   3  -9  307.25    4.91
   2   3  -9  312.91    4.90
   2   3  -9  336.26    5.15
   2   3  -8   41.20    1.45
   2   3  -8   41.16    1.90
   2   3  -8   41.87    1.72
   2   3  -8   45.53    1.17
  -2  -3   8   46.66    1.76
   2   3  -8   44.28    1.98
   2   3  -8   41.14    1.75
   2   3  -8   45.51    1.98
   2   3  -8   43.39    1.85
   2   3  -8   51.36    1.55
   2   3  -8   41.34    1.82
   2   3  -8   43.67    1.33
   2   3  -7    1.45    0.49
   2   3  -7    0.75    0.44
   2   3  -7    1.67    0.50
   2   3  -7    2.12    0.40
   2   3  -7    1.60    0.48
   2   3  -7    1.51    0.31
   2   3  -7    1.98    0.37
  -2  -3   7    4.14    0.61
   2   3  -7    2.35    0.54
   2   3  -7    3.66    0.60
   2   3  -7    1.52    0.42
   2   3  -7    1.00    0.45
   2   3  -6   68.09    2.15
   2   3  -6   80.22    1.76
   2   3  -6   74.85    2.43
   2   3  -6   72.86    1.70
   2   3  -6   74.70    2.18
  -2  -3   6   79.23    2.13
   2   3  -6   71.75    2.19
   2   3  -6   79.60    2.43
   2   3  -6   72.49    2.17
   2   3  -6   74.52    2.39
   2   3  -5  176.79    3.19
   2   3  -5  163.64    3.00
   2   3  -5  176.90    2.68
   2   3  -5  165.20    3.11
   2   3  -4 3109.77   12.42
  -2  -3   4 3094.69   12.73
   2   3  -4 3071.18   12.42
   2   3  -3 1039.19    6.93
   2   3  -3 1029.02    7.06
   2   3  -2   35.37    1.28
   2   3  -2   36.17    1.27
   2   3  -2   36.58    1.32
  -2  -3   2   35.29    1.29
  -2  -3   2   35.81    1.30
   2   3  -1  138.27    2.48
   2   3  -1  137.80    2.56
  -2  -3   1  143.67    2.55
  -2  -3   1  139.63    2.47
   2   3  -1  137.96    2.53
  -2  -3   1  135.43    2.50
  -2  -3   0   11.14    0.77
  -2  -3   0   12.37    0.81
   2   3   0   12.65    0.83
  -2  -3  -1  925.25    6.95
  -2  -3  -1  909.95    6.81
   2   3   1  900.75    6.95
  -2  -3  -1  913.15    6.86
  -2  -3  -2   13.35    0.92
  -2  -3  -2   11.01    0.84
  -2  -3  -2   14.13    0.93
  -2  -3  -3   63.50    1.71
  -2  -3  -3   61.91    2.04
  -2  -3  -3   58.69    1.99
   2   3   3   61.03    2.12
  -2  -3  -3   62.94    2.41
  -2  -3  -3   65.62    1.60
  -2  -3  -3   64.15    2.06
  -2  -3  -3   63.74    1.73
  -2  -3  -3   64.34    2.10
  -2  -3  -4   85.51    1.89
  -2  -3  -4   82.47    2.52
  -2  -3  -4   82.38    2.44
   2   3   4   84.85    2.60
  -2  -3  -4   85.69    2.80
  -2  -3  -4   79.96    1.68
  -2  -3  -4   82.13    2.46
  -2  -3  -4   79.90    2.80
  -2  -3  -4   81.54    2.49
  -2  -3  -4   82.21    2.49
  -2  -3  -5   85.34    1.37
  -2  -3  -5   79.87    1.35
  -2  -3  -5   95.18    2.81
   2   3   5   89.27    2.68
  -2  -3  -5   87.43    2.51
  -2  -3  -5   83.66    2.45
  -2  -3  -5   86.54    2.66
  -2  -3  -5   85.70    1.85
  -2  -3  -5   88.12    2.58
  -2  -3  -5   84.85    2.84
  -2  -3  -5   91.77    2.99
  -2  -3  -5   88.09    2.62
  -2  -3  -6   70.71    2.14
  -2  -3  -6   77.85    2.71
  -2  -3  -6   76.45    2.26
  -2  -3  -6   78.07    2.65
  -2  -3  -7   18.00    1.13
  -2  -3  -7   14.68    0.86
  -2  -3  -7   16.99    1.22
  -2  -3  -7   14.66    0.81
   2   4 -11  145.37    2.79
   2   4 -10  435.48    4.50
   2   4 -10  427.14    4.67
   2   4 -10  438.08    5.30
   2   4 -10  423.85    5.46
   2   4  -9  261.50    4.13
   2   4  -9  258.79    4.21
   2   4  -9  255.97    4.48
  -2  -4   9  255.22    3.70
   2   4  -8   13.57    0.78
   2   4  -8   11.40    1.02
   2   4  -8   12.01    1.05
   2   4  -8   11.52    1.04
   2   4  -8   11.42    1.04
  -2  -4   8   12.43    0.89
   2   4  -8   11.36    0.85
   2   4  -8   13.05    1.07
   2   4  -8   11.94    1.01
   2   4  -8    9.92    0.92
   2   4  -7  201.35    3.65
   2   4  -7  195.07    3.20
   2   4  -7  184.23    3.75
   2   4  -7  197.00    3.91
   2   4  -7  200.99    4.04
   2   4  -7  197.40    3.96
   2   4  -7  208.15    4.27
   2   4  -7  199.84    3.94
  -2  -4   7  203.01    3.47
   2   4  -7  200.95    2.99
   2   4  -7  198.40    4.00
   2   4  -7  199.54    4.08
   2   4  -6    1.72    0.43
   2   4  -6    0.77    0.41
   2   4  -6    0.60    0.23
   2   4  -6    1.38    0.44
   2   4  -6    1.22    0.28
   2   4  -6    0.43    0.26
   2   4  -6    0.84    0.43
   2   4  -6    0.54    0.40
   2   4  -6    0.95    0.48
  -2  -4   6    0.69    0.38
   2   4  -6    0.30    0.38
   2   4  -6    1.80    0.50
   2   4  -6    1.41    0.49
  -2  -4   5  170.01    3.00
   2   4  -5  169.03    3.71
   2   4  -5  156.98    3.28
   2   4  -5  149.11    3.28
   2   4  -5  159.64    3.40
  -2  -4   5  155.18    3.29
   2   4  -5  152.79    3.21
   2   4  -5  163.83    3.65
  -2  -4   4  235.03    3.88
   2   4  -4  238.74    3.86
   2   4  -4  240.80    3.93
  -2  -4   3   11.05    0.71
  -2  -4   3    3.84    0.55
   2   4  -3    2.49    0.46
   2   4  -3   11.80    0.90
  -2  -4   3    2.87    0.49
   2   4  -2  699.21    6.44
   2   4  -2  697.00    6.49
  -2  -4   2  683.78    6.34
   2   4  -1    1.03    0.35
  -2  -4   1    2.32    0.46
  -2  -4   1    2.09    0.43
  -2  -4   1    1.36    0.37
  -2  -4   0   12.62    0.93
  -2  -4   0   12.92    0.93
   2   4   0   10.60    0.87
  -2  -4   0   13.29    0.92
  -2  -4  -1  137.42    2.15
  -2  -4  -1  136.90    2.98
  -2  -4  -1  136.66    3.01
  -2  -4  -1  131.25    3.34
  -2  -4  -2   77.91    1.94
   2   4   2   79.75    2.53
  -2  -4  -2   84.43    1.78
  -2  -4  -2   79.17    2.37
  -2  -4  -2   78.58    2.36
   2   4   2   83.40    2.61
  -2  -4  -2   90.21    2.43
  -2  -4  -2   84.79    2.45
  -2  -4  -2   79.12    1.93
  -2  -4  -2   80.74    2.40
  -2  -4  -2   73.67    2.66
  -2  -4  -3   84.10    1.65
   2   4   3   93.13    2.72
   2   4   3   82.58    2.63
  -2  -4  -3   91.17    1.91
  -2  -4  -3   91.49    2.68
  -2  -4  -3   89.47    2.64
  -2  -4  -3   90.83    2.60
  -2  -4  -3   88.31    2.54
  -2  -4  -3   83.99    2.92
  -2  -4  -3   86.67    2.67
  -2  -4  -4   22.21    0.96
  -2  -4  -4   23.04    1.40
  -2  -4  -4   20.36    1.46
   2   4   4   24.82    1.48
  -2  -4  -4   27.66    1.55
  -2  -4  -4   21.78    0.68
  -2  -4  -4   23.55    1.33
  -2  -4  -4   23.64    1.37
  -2  -4  -4   21.05    0.67
  -2  -4  -4   24.46    1.62
  -2  -4  -4   22.94    1.42
  -2  -4  -5    0.69    0.41
  -2  -4  -5    0.81    0.46
  -2  -4  -5    1.41    0.49
  -2  -4  -5    1.44    0.44
   2   4   5    0.78    0.50
  -2  -4  -5    0.99    0.19
  -2  -4  -5    1.01    0.52
  -2  -4  -5    0.35    0.46
  -2  -4  -5   -0.11    0.12
  -2  -4  -5    1.49    0.52
  -2  -4  -6    0.55    0.36
  -2  -4  -6    0.57    0.38
  -2  -4  -6    0.92    0.33
  -2  -4  -6    0.85    0.44
  -2  -4  -6    1.04    0.45
  -2  -4  -6    0.88    0.40
  -2  -4  -7   31.25    1.13
   2   5 -10    5.50    0.55
   2   5 -10    5.11    0.61
   2   5 -10    4.73    0.54
   2   5  -9   40.63    1.67
   2   5  -9   38.37    1.58
   2   5  -9   40.67    1.25
  -2  -5   9   38.60    1.20
   2   5  -9   36.49    1.58
   2   5  -8    5.02    0.74
   2   5  -8    5.76    0.72
   2   5  -8    5.02    0.72
   2   5  -8    3.81    0.27
   2   5  -8    6.26    0.64
  -2  -5   8    4.11    0.50
   2   5  -8    4.90    0.72
   2   5  -8    4.96    0.72
   2   5  -8    5.05    0.62
   2   5  -7   17.14    0.96
   2   5  -7   16.50    1.21
   2   5  -7   17.89    1.12
   2   5  -7   14.19    1.17
   2   5  -7   18.18    1.31
   2   5  -7   17.50    1.25
   2   5  -7   15.71    1.23
  -2  -5   7   14.94    0.92
   2   5  -6   33.97    1.73
   2   5  -6   38.20    1.85
  -2  -5   6   40.84    1.46
   2   5  -6   38.14    1.85
   2   5  -6   41.41    1.62
   2   5  -6   40.41    1.88
   2   5  -6   41.24    1.96
  -2  -5   5  337.36    5.19
   2   5  -5  360.17    5.63
   2   5  -5  344.75    5.36
   2   5  -5  360.83    4.92
   2   5  -5  353.70    5.33
  -2  -5   5  359.11    4.12
   2   5  -5  342.63    5.25
  -2  -5   4  416.71    5.64
  -2  -5   4  433.53    4.25
   2   5  -4  413.18    5.70
   2   5  -4  437.08    6.12
   2   5  -4  402.10    5.81
   2   5  -4  396.03    5.57
  -2  -5   3   38.01    1.71
  -2  -5   3   35.35    1.64
  -2  -5   3   39.27    1.19
   2   5  -3   39.31    1.76
  -2  -5   3   40.98    1.84
  -2  -5   2    7.03    0.80
  -2  -5   2    7.88    0.81
  -2  -5   2    7.93    0.83
  -2  -5   2    7.31    0.83
   2   5  -2    6.38    0.77
  -2  -5   1   88.05    2.84
  -2  -5   1   84.27    2.49
  -2  -5   1   92.18    2.67
  -2  -5   1   87.46    2.55
  -2  -5   0   13.45    1.05
  -2  -5   0   13.90    0.67
  -2  -5   0   13.42    1.06
  -2  -5   0   14.11    1.16
  -2  -5   0   13.75    1.08
  -2  -5   0   16.74    1.03
  -2  -5   0   14.80    1.15
  -2  -5   0   12.49    1.05
   2   5   1   35.02    1.82
  -2  -5  -1   33.32    1.08
  -2  -5  -1   38.07    1.66
  -2  -5  -1   33.35    1.64
  -2  -5  -1   38.04    1.57
  -2  -5  -1   33.34    1.25
  -2  -5  -1   35.60    1.72
  -2  -5  -1   33.76    1.80
  -2  -5  -1   35.07    1.66
  -2  -5  -1   35.37    1.67
  -2  -5  -2   34.44    0.91
   2   5   2   36.77    1.82
  -2  -5  -2   34.64    1.13
   2   5   2   36.48    1.85
  -2  -5  -2   35.33    1.65
  -2  -5  -2   35.10    1.83
  -2  -5  -2   36.78    1.55
  -2  -5  -2   38.18    1.74
  -2  -5  -2   39.84    1.82
  -2  -5  -2   34.63    1.72
  -2  -5  -2   34.36    1.88
   2   5   3  801.41    8.09
  -2  -5  -3  775.48    8.66
  -2  -5  -3  843.24    8.42
   2   5   3  813.20    8.36
  -2  -5  -3  804.98    7.59
  -2  -5  -3  826.74    8.29
  -2  -5  -3  791.28    7.63
  -2  -5  -3  786.67    5.14
  -2  -5  -3  755.33    8.70
  -2  -5  -3  784.67    8.24
  -2  -5  -4  123.20    3.13
  -2  -5  -4  126.71    2.82
   2   5   4  130.55    3.25
  -2  -5  -4  130.64    2.85
  -2  -5  -4  121.76    2.84
  -2  -5  -4  120.33    3.42
  -2  -5  -4  120.10    3.45
  -2  -5  -4  127.64    3.25
  -2  -5  -5  304.48    4.44
  -2  -5  -5  310.36    3.86
  -2  -5  -5  304.05    5.16
  -2  -5  -5  308.46    5.21
  -2  -5  -5  291.95    3.52
  -2  -5  -5  302.05    4.71
  -2  -5  -6    4.33    0.48
  -2  -5  -6    6.15    0.74
   2   6  -9    5.92    0.45
   2   6  -9    6.23    0.69
   2   6  -9    5.05    0.61
  -2  -6   9    4.74    0.62
   2   6  -8   34.74    1.59
   2   6  -8   35.86    1.44
   2   6  -8   36.81    1.67
   2   6  -8   34.32    1.61
   2   6  -7   52.91    2.11
   2   6  -7   48.65    2.02
   2   6  -7   53.48    1.56
  -2  -6   6   64.75    2.44
   2   6  -6   68.79    2.51
   2   6  -6   73.08    2.52
   2   6  -6   69.53    2.47
  -2  -6   6   71.65    2.53
   2   6  -6   74.12    2.13
   2   6  -6   74.77    2.53
  -2  -6   6   74.23    2.47
  -2  -6   5   87.83    2.90
   2   6  -5   81.71    2.41
  -2  -6   5   87.37    2.65
   2   6  -5   74.42    2.61
   2   6  -5   84.57    2.76
   2   6  -5   83.74    2.72
   2   6  -5   80.58    2.71
  -2  -6   5   75.50    2.62
  -2  -6   5   77.32    2.65
  -2  -6   4  142.95    3.76
  -2  -6   4  133.38    3.45
   2   6  -4  133.13    3.45
  -2  -6   4  141.81    3.32
   2   6  -4  133.62    3.50
   2   6  -4  136.67    3.56
  -2  -6   4  136.98    3.50
  -2  -6   3  744.92    8.04
  -2  -6   3  750.49    8.23
   2   6  -3  818.37    8.56
  -2  -6   3  802.96    8.99
  -2  -6   3  762.04    8.09
   2   6  -3  785.90    8.54
  -2  -6   3  784.14    7.53
   2   6  -2 2977.42   16.61
  -2  -6   2 2933.48   17.06
  -2  -6   2 2943.06   15.84
  -2  -6   2 2964.15   16.12
  -2  -6   2 2930.07   15.79
   2   6  -1  110.52    3.25
  -2  -6   1  105.65    3.20
  -2  -6   1  113.44    3.20
  -2  -6   1  104.80    2.99
  -2  -6   1  111.65    3.14
  -2  -6   1  109.63    3.02
  -2  -6   1  109.35    2.46
   2   6   0   36.72    1.92
  -2  -6   0   37.37    1.87
  -2  -6   0   40.73    1.92
  -2  -6   0   36.07    1.74
  -2  -6   0   36.01    1.80
  -2  -6   0   39.11    1.68
  -2  -6   0   43.09    1.61
  -2  -6   0   35.98    1.21
  -2  -6   0   43.05    1.89
   2   6   1  119.49    3.34
  -2  -6  -1  128.98    3.35
  -2  -6  -1  128.58    3.33
   2   6   1  132.21    3.51
  -2  -6  -1  136.97    2.38
  -2  -6  -1  136.73    3.38
  -2  -6  -1  132.08    2.81
  -2  -6  -1  125.35    3.11
  -2  -6  -1  125.42    3.06
  -2  -6  -1  137.55    3.57
  -2  -6  -2  319.88    4.74
   2   6   2  295.10    5.06
   2   6   2  312.86    5.23
  -2  -6  -2  297.15    4.48
  -2  -6  -2  328.18    5.22
  -2  -6  -2  314.29    5.43
  -2  -6  -3   95.41    2.70
  -2  -6  -3   93.62    2.33
   2   6   3   98.30    2.74
   2   6   3   96.37    2.79
  -2  -6  -3   96.79    2.44
  -2  -6  -3  100.47    3.06
  -2  -6  -3   95.10    2.85
  -2  -6  -4   60.49    1.91
   2   6   4   64.79    2.13
  -2  -6  -4   60.18    1.44
  -2  -6  -4   58.20    2.26
  -2  -6  -4   62.67    2.16
   2   7  -8   74.52    1.75
  -2  -7   8   69.00    1.76
   2   7  -8   69.26    1.98
   2   7  -8   68.88    2.04
   2   7  -8   66.96    1.98
   2   7  -7   16.34    1.12
  -2  -7   7   15.73    0.97
   2   7  -7   17.83    1.09
   2   7  -7   15.63    1.12
   2   7  -7   15.37    0.71
  -2  -7   6   17.01    1.21
   2   7  -6   15.98    1.18
   2   7  -6   17.87    1.01
   2   7  -6   15.25    1.17
  -2  -7   6   17.30    1.06
  -2  -7   6   15.49    1.17
   2   7  -6   17.15    1.18
  -2  -7   5    0.19    0.49
  -2  -7   5    1.88    0.54
   2   7  -5    0.54    0.40
   2   7  -5    0.56    0.36
   2   7  -5    0.19    0.34
  -2  -7   5    0.80    0.42
  -2  -7   4  159.91    3.82
  -2  -7   4  153.15    3.74
   2   7  -4  160.57    3.62
  -2  -7   4  165.48    3.08
   2   7  -4  152.79    3.31
   2   7  -4  165.10    3.79
  -2  -7   4  145.89    3.49
  -2  -7   3  473.91    4.92
  -2  -7   3  483.67    6.70
  -2  -7   3  453.92    6.42
   2   7  -3  450.82    6.08
  -2  -7   3  442.06    6.03
  -2  -7   3  459.14    5.48
  -2  -7   2   72.60    2.44
   2   7  -2   77.38    2.66
  -2  -7   2   74.44    2.64
  -2  -7   2   75.65    1.66
  -2  -7   2   76.12    2.63
  -2  -7   2   74.18    2.05
  -2  -7   2   70.86    2.40
  -2  -7   2   74.11    2.30
   2   7  -1   20.09    1.40
  -2  -7   1   17.43    1.28
  -2  -7   1   19.22    0.95
  -2  -7   1   19.06    1.10
  -2  -7   1   16.15    1.24
  -2  -7   1   16.47    1.19
  -2  -7   1   16.83    0.87
  -2  -7   1   18.41    1.25
   2   7   0  230.13    4.58
  -2  -7   0  232.80    4.32
   2   7   0  236.23    4.58
  -2  -7   0  230.38    4.38
  -2  -7   0  223.34    3.21
  -2  -7   0  225.19    3.96
  -2  -7   0  229.48    4.07
  -2  -7  -1   72.36    2.33
  -2  -7  -1   71.18    2.10
   2   7   1   76.75    2.58
   2   7   1   72.79    2.49
  -2  -7  -1   74.47    2.21
  -2  -7  -2    8.76    0.72
  -2  -7  -2    5.93    0.71
  -2  -7  -2    6.22    0.59
   2   7   2    7.28    0.79
   2   7   2    8.30    0.85
  -2  -7  -2    7.76    0.86
  -2  -7  -3   41.53    1.44
  -2  -7  -3   40.51    1.69
   2   7   3   44.14    1.66
  -2  -7  -3   39.97    1.65
   2   8  -6   21.75    1.17
  -2  -8   6   19.91    1.09
  -2  -8   6   21.46    0.88
  -2  -8   6   21.88    1.07
   2   8  -6   21.62    1.21
   2   8  -6   20.06    0.77
  -2  -8   6   21.18    1.16
  -2  -8   5   14.07    1.02
  -2  -8   5   12.90    0.72
  -2  -8   5   11.54    0.83
   2   8  -5   13.37    0.96
   2   8  -5   15.44    0.87
  -2  -8   5   14.60    1.02
   2   8  -5   16.40    1.06
  -2  -8   4   15.54    0.94
  -2  -8   4   16.30    1.15
  -2  -8   4   17.83    1.14
  -2  -8   4   16.39    0.74
   2   8  -4   15.74    1.05
   2   8  -4   15.72    0.98
   2   8  -4   16.61    1.11
  -2  -8   4   15.79    1.07
  -2  -8   3  262.75    3.46
  -2  -8   3  285.17    4.65
  -2  -8   3  267.69    4.19
  -2  -8   3  180.37    1.48
  -2  -8   3  173.74    1.47
  -2  -8   3  167.99    1.47
   2   8  -3  286.02    4.16
   2   8  -3  256.77    4.36
   2   8  -3  264.51    4.11
  -2  -8   3  271.87    4.21
  -2  -8   2   79.84    2.22
  -2  -8   2   80.58    1.68
   2   8  -2   83.45    2.50
   2   8  -2   74.21    2.12
  -2  -8   2   79.89    2.46
  -2  -8   2   78.99    2.46
  -2  -8   2   78.37    2.25
   2   8  -2   74.86    2.37
  -2  -8   1   17.05    1.12
  -2  -8   1   15.98    0.98
   2   8  -1   17.85    1.21
  -2  -8   1   18.36    1.18
   2   8  -1   18.53    1.18
   2   8  -1   19.06    1.23
  -2  -8   1   20.26    1.11
   2   8   0   87.85    2.49
   2   8   0   89.51    2.51
  -2  -8   0   87.53    2.34
  -2  -8   0   86.29    1.93
  -2  -8   0   94.36    2.11
  -2  -8   0   91.80    2.53
   2   8   1   76.85    2.16
  -2  -8  -1   75.20    2.16
   3 -10  -1   -0.06    0.37
   3 -10  -1    0.33    0.21
   3 -10   0   68.63    2.20
   3 -10   1   88.66    2.38
   3 -10   2   11.17    0.47
   3  -9  -4   44.39    1.26
   3  -9  -4   39.15    1.69
   3  -9  -4   36.81    1.39
   3  -9  -4   41.51    1.86
   3  -9  -3   33.53    1.16
   3  -9  -3   30.92    1.64
   3  -9  -3   32.25    1.71
   3  -9  -2  130.74    3.43
   3  -9  -2  128.89    2.26
   3  -9  -1   90.26    1.89
   3  -9  -1   84.33    2.83
   3  -9   0    0.70    0.46
   3  -9   0    0.90    0.32
   3  -9   0    1.51    0.34
   3  -9   1   54.97    1.69
   3  -9   1   54.47    1.35
   3  -9   2   27.18    1.29
   3  -9   2   24.12    0.79
   3  -9   2   25.67    0.84
   3  -9   3   55.15    1.87
   3  -9   3   54.45    1.43
   3  -9   4   10.20    0.84
   3  -9   4   10.53    0.68
   3  -9   4    9.53    0.69
   3  -9   5    5.11    0.46
   3  -9   5    5.78    0.51
   3  -8  -6  112.93    2.20
   3  -8  -6  115.03    3.08
   3  -8  -6  117.04    3.14
   3  -8  -5   54.87    1.70
   3  -8  -5   52.56    2.24
   3  -8  -5   49.36    2.18
   3  -8  -4   37.66    1.52
   3  -8  -4   37.96    1.89
   3  -8  -4   37.33    1.97
   3  -8  -3  412.18    6.34
   3  -8  -3  403.64    6.33
   3  -8  -2   50.98    0.94
   3  -8  -2   48.71    2.26
   3  -8  -1   47.30    1.44
   3  -8  -1   47.06    2.21
   3  -8  -1   52.11    2.25
   3  -8   0   31.37    1.64
   3  -8   0   28.16    1.30
   3  -8   0   28.34    1.22
   3  -8   0   31.39    1.78
   3  -8   0   30.43    1.17
   3  -8   0   29.41    1.65
   3  -8   0   29.35    0.87
   3  -8   1  716.75    8.09
   3  -8   1  818.15    8.66
   3  -8   1  765.32    5.50
   3  -8   1  735.55    5.75
   3  -8   1  730.87    6.74
   3  -8   1  756.44    7.17
   3  -8   1  782.18    8.05
   3  -8   1  760.74    6.14
   3  -8   2    0.92    0.40
   3  -8   2    1.67    0.49
   3  -8   2    0.77    0.39
   3  -8   2    0.12    0.30
   3  -8   2    0.89    0.31
   3  -8   2    1.87    0.45
   3  -8   2    0.91    0.51
   3  -8   2    0.62    0.45
   3  -8   3   10.11    0.55
   3  -8   3   14.37    1.14
   3  -8   3   10.50    1.05
   3  -8   3   11.78    0.92
   3  -8   3   12.51    1.06
   3  -8   3   11.49    0.91
   3  -8   3   10.69    0.95
   3  -8   4   70.88    1.41
   3  -8   4   71.37    2.58
   3  -8   4   71.66    2.34
   3  -8   4   72.30    2.21
   3  -8   4   71.29    2.17
   3  -8   5   31.17    1.42
   3  -8   5   30.10    0.96
   3  -8   5   30.92    1.43
   3  -8   5   34.59    1.51
   3  -8   6    0.13    0.31
   3  -8   6    0.61    0.34
   3  -8   6    0.50    0.17
  -3   8  -6    0.67    0.35
   3  -7  -7    5.88    0.55
   3  -7  -7    5.60    0.85
   3  -7  -6  448.24    6.62
   3  -7  -6  446.01    4.76
   3  -7  -6  436.80    6.70
   3  -7  -5   57.98    2.30
   3  -7  -5   54.55    2.37
   3  -7  -5   60.87    1.83
   3  -7  -5   54.73    2.40
   3  -7  -4 1042.24   10.36
   3  -7  -4 1054.99   10.05
   3  -7  -4 1088.42    7.86
   3  -7  -4 1097.64   10.57
   3  -7  -3  697.60    6.48
   3  -7  -3  691.80    8.13
   3  -7  -3  677.23    8.18
   3  -7  -2   51.72    1.34
   3  -7  -2   52.78    2.31
   3  -7  -2   53.25    2.27
   3  -7  -2   49.25    1.80
   3  -7  -1  101.06    2.24
   3  -7  -1  104.44    3.16
   3  -7  -1   97.34    1.40
   3  -7  -1   97.31    2.94
   3  -7  -1  109.10    2.10
   3  -7  -1   94.76    2.78
   3  -7   0  393.82    4.91
   3  -7   0  405.59    6.07
   3  -7   0  405.91    4.11
   3  -7   0  389.89    4.52
   3  -7   0  398.40    5.75
   3  -7   0  384.86    5.68
   3  -7   0  402.96    5.72
   3  -7   0  402.95    4.30
   3  -7   1  287.42    4.53
   3  -7   1  282.47    4.98
   3  -7   1  305.20    3.52
   3  -7   1  290.30    4.91
   3  -7   1  274.71    4.95
   3  -7   1  273.94    3.90
   3  -7   1  274.46    4.15
   3  -7   1  277.61    4.94
   3  -7   1  294.55    4.31
   3  -7   1  281.08    4.06
   3  -7   2    6.36    0.80
   3  -7   2    5.34    0.54
   3  -7   2    5.61    0.69
   3  -7   2    3.66    0.70
   3  -7   2    5.91    0.73
   3  -7   2    4.79    0.77
   3  -7   2    5.63    0.71
   3  -7   2    5.29    0.50
   3  -7   2    5.63    0.78
   3  -7   2    6.59    0.75
   3  -7   3   50.30    1.33
   3  -7   3   55.49    2.02
   3  -7   3   49.18    2.20
   3  -7   3   53.87    2.08
   3  -7   3   46.67    0.97
   3  -7   3   46.02    0.95
   3  -7   3   52.38    2.05
   3  -7   3   54.41    1.74
   3  -7   3   51.19    2.22
   3  -7   3   49.40    2.05
   3  -7   3   54.75    2.04
   3  -7   4   60.67    2.19
   3  -7   4   60.77    1.48
   3  -7   4   66.67    2.06
   3  -7   4   67.23    2.58
   3  -7   4   61.40    2.28
   3  -7   4   61.06    2.27
   3  -7   4   60.23    2.21
   3  -7   4   67.78    2.31
   3  -7   5    3.53    0.55
   3  -7   5    3.74    0.65
   3  -7   5    3.62    0.46
  -3   7  -5    2.44    0.51
   3  -7   5    5.01    0.80
   3  -7   5    4.41    0.71
   3  -7   5    4.11    0.63
   3  -7   5    5.04    0.75
  -3   7  -6    8.57    0.81
   3  -7   6    8.52    0.57
   3  -7   6   10.49    0.92
   3  -7   6   10.02    0.83
  -3   7  -6    7.83    0.81
   3  -7   6    8.85    0.93
   3  -7   6    8.17    0.86
   3  -7   7    1.07    0.42
  -3   7  -7    0.67    0.31
   3  -7   7    1.24    0.42
   3  -7   7   -0.08    0.28
  -3   7  -7    0.56    0.34
   3  -7   7    0.27    0.11
  -3   7  -7    0.58    0.31
   3  -7   7    0.24    0.11
   3  -6  -8   73.32    1.82
   3  -6  -8   76.90    2.66
   3  -6  -8   77.06    2.70
   3  -6  -7   15.95    0.93
   3  -6  -7    0.01    0.32
   3  -6  -7   13.77    1.28
   3  -6  -7   -0.06    0.45
   3  -6  -7   17.04    1.38
   3  -6  -6  512.56    7.16
   3  -6  -6  522.78    5.06
   3  -6  -6  527.83    6.51
   3  -6  -6  535.16    7.31
   3  -6  -5  746.95    8.10
   3  -6  -5  730.46    7.54
   3  -6  -5  758.27    5.98
   3  -6  -5  760.73    8.64
   3  -6  -5  746.32    8.89
   3  -6  -5  745.82    8.43
   3  -6  -5  766.01    8.42
   3  -6  -4   20.83    1.41
   3  -6  -4   20.04    0.99
   3  -6  -4   21.00    1.43
   3  -6  -4   20.71    1.35
   3  -6  -4   17.15    1.15
   3  -6  -4   22.14    1.53
   3  -6  -3  169.66    1.66
   3  -6  -3  173.15    3.90
   3  -6  -3  164.59    3.38
   3  -6  -3  178.80    2.92
   3  -6  -3  176.13    3.91
   3  -6  -3  174.84    3.49
   3  -6  -3  172.79    3.93
   3  -6  -2  133.13    2.09
   3  -6  -2  121.05    3.20
   3  -6  -2  122.95    2.43
   3  -6  -2  135.44    3.29
   3  -6  -2  133.79    3.02
   3  -6  -2  126.27    2.96
   3  -6  -2  121.02    2.95
   3  -6  -1   29.46    1.57
   3  -6  -1   28.80    0.90
   3  -6  -1   28.07    1.40
   3  -6  -1   31.61    1.08
   3  -6  -1   27.34    1.13
   3  -6  -1   28.97    1.48
   3  -6   0  272.35    3.89
   3  -6   0  260.98    4.51
   3  -6   0  256.41    3.36
   3  -6   0  272.42    3.57
   3  -6   0  252.60    4.27
   3  -6   0  258.92    3.45
   3  -6   0  257.54    4.38
   3  -6   0  257.71    4.34
   3  -6   0  262.16    3.46
   3  -6   1  107.49    2.66
   3  -6   1  104.73    2.80
   3  -6   1  111.76    2.53
   3  -6   1  103.39    2.40
   3  -6   1  107.78    2.91
   3  -6   1  107.93    1.97
   3  -6   1  108.62    2.46
   3  -6   1  105.07    2.43
   3  -6   1  103.02    2.84
   3  -6   1  105.84    2.84
   3  -6   2    1.42    0.44
   3  -6   2    0.71    0.35
   3  -6   2    0.29    0.36
   3  -6   2    0.65    0.28
   3  -6   2    0.85    0.35
   3  -6   2    0.72    0.44
   3  -6   2    1.42    0.52
   3  -6   2    0.75    0.44
   3  -6   2    0.45    0.35
   3  -6   3  636.38    6.78
   3  -6   3  627.65    4.52
  -3   6  -3  613.23    6.60
   3  -6   3  621.92    4.70
   3  -6   3  647.16    6.50
   3  -6   3  645.34    5.66
   3  -6   3  571.14    7.18
   3  -6   3  642.99    6.86
   3  -6   3  629.63    6.72
   3  -6   3  596.96    6.85
   3  -6   3  634.82    6.77
   3  -6   3  596.92    7.24
   3  -6   4  892.04    9.04
   3  -6   4  966.86    7.62
  -3   6  -4  896.22    8.27
   3  -6   4  941.03    8.67
   3  -6   4  925.63    9.55
   3  -6   4  928.61    8.54
   3  -6   4  901.02    8.60
   3  -6   4  982.11    8.39
   3  -6   4  908.29    8.41
   3  -6   4  915.44    8.46
   3  -6   4  951.62    6.55
  -3   6  -5   65.02    2.27
   3  -6   5   68.60    2.45
   3  -6   5   63.77    2.56
   3  -6   5   77.97    2.56
   3  -6   5   75.97    2.24
   3  -6   5   70.38    1.89
   3  -6   5   71.12    2.62
   3  -6   5   73.08    2.35
   3  -6   5   64.98    2.37
   3  -6   5   66.87    2.35
  -3   6  -6   85.76    2.57
   3  -6   6   85.60    2.72
   3  -6   6   96.99    2.46
  -3   6  -6   94.92    2.80
   3  -6   6   95.25    2.12
   3  -6   6   93.74    2.91
   3  -6   6   89.58    2.68
   3  -6   7    0.48    0.43
  -3   6  -7    0.11    0.33
   3  -6   7    0.16    0.30
  -3   6  -7    0.68    0.46
  -3   6  -7    0.48    0.36
   3  -6   7    0.01    0.23
  -3   6  -8   24.86    1.20
  -3   6  -8   24.15    0.94
  -3   6  -8   25.48    1.25
  -3   6  -8   22.91    0.77
   3  -6   8   24.81    1.22
   3  -6   8   21.40    0.82
   3  -6   8   24.07    1.10
   3  -5  -9   36.23    1.33
   3  -5  -9   35.03    1.81
   3  -5  -9   36.70    1.74
   3  -5  -9   33.37    1.79
   3  -5  -8   62.59    2.49
   3  -5  -8   57.82    2.23
   3  -5  -8   59.05    1.75
   3  -5  -8   62.52    2.56
   3  -5  -8   56.79    2.42
   3  -5  -7  409.37    4.41
   3  -5  -7  431.78    6.22
   3  -5  -7  422.74    6.28
   3  -5  -7  406.32    5.90
   3  -5  -7  407.24    6.46
   3  -5  -7  414.81    6.58
   3  -5  -7  430.84    6.60
   3  -5  -6   23.90    1.59
   3  -5  -6   27.80    1.55
   3  -5  -6   27.73    1.10
   3  -5  -6   25.19    1.55
   3  -5  -6   27.84    1.65
   3  -5  -6   28.17    1.75
   3  -5  -6   25.38    1.59
   3  -5  -6   28.18    1.69
   3  -5  -5   33.58    1.60
   3  -5  -5   35.08    1.79
   3  -5  -5   33.14    1.10
   3  -5  -5   35.08    1.80
   3  -5  -5   34.21    1.69
   3  -5  -5   31.79    1.66
   3  -5  -5   31.35    1.70
   3  -5  -5   32.36    1.63
   3  -5  -5   34.60    1.70
   3  -5  -5   33.54    1.86
   3  -5  -5   33.87    1.70
   3  -5  -4   20.14    0.84
   3  -5  -4   18.01    1.20
   3  -5  -4   22.63    1.31
   3  -5  -4   18.88    1.26
   3  -5  -4   18.10    1.18
   3  -5  -4   20.11    1.28
   3  -5  -4   18.04    1.11
   3  -5  -4   21.95    1.32
   3  -5  -4   18.04    1.09
   3  -5  -4   20.28    1.38
   3  -5  -4   17.87    1.24
  -3   5   3  272.76    2.96
  -3   5   3  271.98    2.94
   3  -5  -3  269.82    2.70
   3  -5  -3  251.05    4.08
   3  -5  -3  256.83    3.92
   3  -5  -3  255.46    3.89
  -3   5   2    0.65    0.23
   3  -5  -2    1.54    0.33
   3  -5  -2    1.44    0.18
   3  -5  -2    0.86    0.34
   3  -5  -2    1.16    0.37
   3  -5  -2    1.62    0.28
   3  -5  -1 1623.33    9.58
   3  -5  -1 1644.67    6.79
   3  -5  -1 1637.38    7.78
   3  -5  -1 1623.76    9.82
  -3   5   0   19.88    0.97
   3  -5   0   15.59    1.03
   3  -5   0   16.60    1.04
   3  -5   0   16.20    0.82
   3  -5   0   16.39    0.88
   3  -5   0   20.68    0.93
  -3   5  -1   37.17    1.41
   3  -5   1   35.23    1.52
   3  -5   1   37.17    1.60
   3  -5   1   38.93    1.37
   3  -5   2  263.43    4.38
   3  -5   2  284.16    4.00
   3  -5   2  287.79    4.17
  -3   5  -2  271.70    4.11
   3  -5   2  287.61    4.05
   3  -5   2  274.80    4.43
   3  -5   2  268.01    2.81
   3  -5   3  497.46    4.14
   3  -5   3  520.57    6.28
   3  -5   3  495.67    5.89
   3  -5   3  493.53    5.68
   3  -5   3  498.84    6.34
   3  -5   3  527.66    5.11
   3  -5   3  518.11    4.95
   3  -5   3  511.53    5.80
   3  -5   3  495.58    6.23
   3  -5   3  483.02    5.82
   3  -5   3  506.98    5.90
  -3   5  -4  263.83    4.57
   3  -5   4  271.30    2.73
   3  -5   4  271.89    4.68
   3  -5   4  275.49    4.97
   3  -5   4  281.11    4.60
   3  -5   4  294.71    4.19
   3  -5   4  278.69    4.85
   3  -5   4  279.65    4.63
   3  -5   4  269.38    4.43
   3  -5   4  280.66    4.73
   3  -5   4  266.93    4.54
   3  -5   5   68.53    2.45
  -3   5  -5   60.14    2.28
   3  -5   5   69.93    2.41
   3  -5   5   65.24    2.37
   3  -5   5   65.58    2.55
   3  -5   5   73.98    2.21
   3  -5   5   68.84    2.50
   3  -5   5   68.02    2.42
  -3   5  -6  120.10    3.17
   3  -5   6  111.24    3.14
  -3   5  -6  125.61    3.32
   3  -5   6  117.19    2.77
   3  -5   6  103.58    3.03
   3  -5   6  114.05    3.10
  -3   5  -7   91.53    2.69
  -3   5  -7   90.18    2.31
   3  -5   7   84.99    2.21
  -3   5  -7   87.99    2.71
  -3   5  -7   88.58    2.69
   3  -5   7   86.02    2.63
  -3   5  -8   92.95    1.97
  -3   5  -8   95.39    2.47
  -3   5  -8   95.73    2.52
   3  -5   8   95.63    1.95
  -3   5  -8   98.69    2.60
  -3   5  -8   99.83    1.76
   3  -4 -10   40.74    1.42
   3  -4 -10   39.72    1.84
   3  -4  -9   74.55    2.56
   3  -4  -9   78.27    2.82
   3  -4  -9   81.20    2.13
   3  -4  -9   76.65    2.78
   3  -4  -8  243.07    4.63
   3  -4  -8  242.52    3.57
   3  -4  -8  242.86    5.01
   3  -4  -8  243.91    4.88
   3  -4  -8  242.40    4.94
   3  -4  -7  273.45    5.31
   3  -4  -7  288.48    4.95
   3  -4  -7  278.46    3.53
   3  -4  -7  284.82    4.97
   3  -4  -7  286.58    5.02
   3  -4  -7  273.66    5.15
   3  -4  -7  289.59    5.32
   3  -4  -7  290.38    5.31
   3  -4  -6  203.87    4.15
   3  -4  -6  208.52    4.33
   3  -4  -6  204.86    2.62
   3  -4  -6  210.22    4.08
   3  -4  -6  199.13    4.26
   3  -4  -6  215.85    4.04
   3  -4  -6  207.66    4.11
   3  -4  -6  203.59    4.19
   3  -4  -6  204.23    4.37
   3  -4  -6  222.75    4.38
   3  -4  -5   13.48    1.04
   3  -4  -5   13.09    0.58
   3  -4  -5   16.34    1.17
   3  -4  -5   13.93    1.11
   3  -4  -5   13.84    1.00
   3  -4  -5   14.38    1.06
   3  -4  -5   11.07    0.97
   3  -4  -5   14.19    0.97
   3  -4  -5   14.91    1.08
   3  -4  -5   13.82    1.13
   3  -4  -4   94.57    2.40
   3  -4  -4   94.56    2.26
   3  -4  -4   97.34    2.41
  -3   4   4   90.15    1.27
   3  -4  -3  642.22    5.61
   3  -4  -3  630.18    5.58
  -3   4   2  122.84    1.52
   3  -4  -2  122.75    2.40
   3  -4  -2  127.19    2.31
   3  -4  -1  250.23    3.12
   3  -4  -1  250.14    3.40
   3  -4  -1  257.39    2.38
   3  -4  -1  250.45    3.49
   3  -4  -1  252.18    2.61
   3  -4  -1  256.57    2.40
   3  -4   0    2.06    0.33
  -3   4   0    1.12    0.24
   3  -4   0    1.43    0.31
   3  -4   0    1.79    0.30
   3  -4   0    1.48    0.38
   3  -4   0    2.43    0.45
   3  -4   1 1731.90    8.60
  -3   4  -1 1836.93    8.55
   3  -4   1 1741.93    8.57
   3  -4   1 1654.76    9.31
   3  -4   1 1634.46    5.65
   3  -4   1 1747.64    8.48
   3  -4   1 1840.27   10.01
   3  -4   2 5050.60   16.06
  -3   4  -2 5136.01   16.10
   3  -4   2 5106.87   17.43
   3  -4   2 5085.59   15.92
   3  -4   2 5140.21   14.09
   3  -4   2 5096.74   17.75
   3  -4   2 5176.01   16.25
   3  -4   3  466.11    5.37
   3  -4   3  515.55    5.16
   3  -4   3  493.13    5.45
   3  -4   3  497.29    5.82
   3  -4   3  486.84    5.36
   3  -4   4  204.68    3.93
   3  -4   4  203.87    3.76
   3  -4   4  208.29    3.93
   3  -4   4  211.07    3.85
   3  -4   4  206.78    3.70
   3  -4   4  201.15    3.85
   3  -4   4  219.56    4.04
  -3   4  -5  120.11    3.19
   3  -4   5  114.17    3.07
  -3   4  -5  126.08    3.30
   3  -4   5  116.29    3.07
   3  -4   5  121.77    3.14
   3  -4   5  118.64    3.13
  -3   4  -6  151.52    3.66
   3  -4   6  150.20    3.48
   3  -4   6  145.87    3.58
  -3   4  -6  146.99    3.29
   3  -4   6  149.40    3.62
  -3   4  -6  151.27    3.73
  -3   4  -7    0.21    0.39
   3  -4   7    0.36    0.46
  -3   4  -7    0.97    0.53
   3  -4   7    0.25    0.41
  -3   4  -7    0.79    0.47
   3  -4   7    1.27    0.44
  -3   4  -8   51.89    1.97
  -3   4  -8   49.02    1.86
  -3   4  -8   47.12    1.42
  -3   4  -8   44.54    1.80
  -3   4  -8   49.95    1.23
   3  -4   8   45.94    1.60
   3  -3 -10  304.42    5.05
   3  -3 -10  312.59    5.28
   3  -3 -10  315.68    5.31
   3  -3  -9  139.76    3.58
   3  -3  -9  140.40    3.74
   3  -3  -9  135.81    2.88
   3  -3  -9  134.40    3.69
   3  -3  -8   30.01    1.29
   3  -3  -8   29.54    1.76
   3  -3  -8   24.47    1.48
   3  -3  -8   30.35    1.68
   3  -3  -8   29.25    1.63
   3  -3  -8   30.43    1.77
   3  -3  -8   26.52    1.66
   3  -3  -7  120.12    2.22
   3  -3  -7  118.60    3.14
   3  -3  -7  122.45    3.30
   3  -3  -7  120.44    3.12
   3  -3  -7  118.38    3.36
   3  -3  -7  118.07    3.10
   3  -3  -7  118.55    3.02
   3  -3  -7  117.32    3.27
   3  -3  -7  110.73    3.11
   3  -3  -7  116.39    3.26
   3  -3  -6    1.61    0.50
   3  -3  -6    2.00    0.47
   3  -3  -6    2.09    0.47
   3  -3  -6    1.85    0.27
   3  -3  -6    1.64    0.48
   3  -3  -6    1.95    0.51
   3  -3  -6    2.97    0.57
   3  -3  -6    2.18    0.50
   3  -3  -6    3.50    0.64
   3  -3  -6    1.87    0.50
   3  -3  -6    2.91    0.56
   3  -3  -5 1367.03    9.17
   3  -3  -5 1440.32    9.04
   3  -3  -5 1408.70    9.53
  -3   3   5 1357.61    4.71
  -3   3   4  688.01    1.98
  -3   3   4  720.91    1.96
   3  -3  -4  858.66    6.56
   3  -3  -4  807.33    6.11
   3  -3  -3  133.12    2.37
   3  -3  -3  105.07    0.60
   3  -3  -2  672.06    2.87
   3  -3  -2  678.48    4.99
   3  -3  -2  678.33    5.06
   3  -3  -1  153.87    1.73
  -3   3   1  150.75    1.52
   3  -3  -1  159.68    2.44
  -3   3   1  157.06    2.33
   3  -3  -1  160.38    2.39
   3  -3  -1  156.32    1.71
  -3   3   0   62.15    1.35
   3  -3   0   67.90    1.35
   3  -3   0   66.90    1.38
   3  -3   0   64.35    1.64
   3  -3   0   79.41    1.54
  -3   3   0   76.19    1.35
   3  -3   1  121.32    2.07
   3  -3   1  128.58    2.22
  -3   3  -1  122.91    2.00
   3  -3   1  128.43    2.38
   3  -3   1  123.06    2.17
   3  -3   1  121.36    1.77
   3  -3   2  578.83    5.04
   3  -3   2  579.23    5.22
  -3   3  -2  579.84    5.04
   3  -3   2  588.94    5.51
  -3   3  -3   45.80    1.67
   3  -3   3   46.47    1.63
   3  -3   3   50.15    1.71
   3  -3   3   51.40    1.62
   3  -3   3   46.84    1.63
   3  -3   4  214.40    2.50
   3  -3   4  218.34    3.83
   3  -3   4  209.63    3.89
   3  -3   4  208.34    3.74
  -3   3  -4  206.97    3.79
  -3   3  -5   28.31    1.55
   3  -3   5   27.21    1.51
  -3   3  -5   30.89    1.67
   3  -3   5   26.82    1.49
   3  -3   5   26.13    1.47
   3  -3   5   29.49    1.57
   3  -3   5   29.54    1.01
   3  -3   5   26.85    1.47
   3  -3   5   30.00    1.61
  -3   3  -6   52.32    2.19
  -3   3  -6   64.91    2.42
   3  -3   6   53.17    2.09
   3  -3   6   58.44    2.29
   3  -3   6   62.43    2.24
  -3   3  -6   60.26    2.35
  -3   3  -6   54.94    2.22
   3  -3   6   54.77    2.24
  -3   3  -6   56.21    2.00
   3  -3   6   54.13    2.21
  -3   3  -7    0.58    0.43
  -3   3  -7    0.51    0.44
  -3   3  -7    0.84    0.47
   3  -3   7    0.36    0.39
  -3   3  -7    0.60    0.37
  -3   3  -7    0.97    0.49
  -3   3  -8  132.98    3.08
  -3   3  -8  132.81    3.05
  -3   3  -8  142.44    2.31
  -3   3  -8  133.40    2.70
   3  -3   9    2.68    0.44
   3  -2 -11   74.22    1.70
   3  -2 -11   73.39    2.32
   3  -2 -11   77.81    2.38
   3  -2 -10    5.57    0.70
   3  -2 -10    5.18    0.80
   3  -2 -10    6.20    0.81
   3  -2 -10    4.79    0.77
   3  -2  -9  211.94    4.45
   3  -2  -9  218.78    4.61
   3  -2  -8  144.87    3.53
   3  -2  -8  157.65    3.64
   3  -2  -8  152.96    3.57
   3  -2  -8  146.60    3.62
   3  -2  -8  153.22    3.72
   3  -2  -8  160.71    3.01
   3  -2  -8  154.00    3.84
   3  -2  -7  101.44    2.08
   3  -2  -7   97.90    2.73
   3  -2  -7   98.63    2.76
   3  -2  -7  107.27    3.03
   3  -2  -7  101.11    2.81
   3  -2  -7  105.13    2.80
   3  -2  -7   99.55    2.84
   3  -2  -7  100.52    2.93
   3  -2  -7   94.30    1.14
   3  -2  -6  116.83    2.71
   3  -2  -6  125.26    2.86
  -3   2   6  117.78    1.83
   3  -2  -6  129.25    2.85
   3  -2  -6  126.53    2.96
   3  -2  -6  134.22    1.94
   3  -2  -5   84.58    2.11
   3  -2  -5   89.16    2.15
  -3   2   5   89.14    1.19
   3  -2  -5   88.40    2.26
   3  -2  -4  250.94    3.24
   3  -2  -4  248.89    3.25
   3  -2  -3  121.06    0.73
   3  -2  -3  112.00    0.66
  -3   2   2    4.99    0.17
   3  -2  -2    6.97    0.24
   3  -2  -2    4.86    0.45
   3  -2  -2    6.11    0.25
  -3   2   2    5.57    0.50
  -3   2   2    4.22    0.18
   3  -2  -1   64.14    1.03
   3  -2  -1   63.52    1.40
  -3   2   1   59.83    0.90
   3  -2  -1   63.52    1.06
  -3   2   1   63.54    1.40
  -3   2   0  642.14    3.69
   3  -2   0  642.83    4.46
   3  -2   0  658.83    4.08
   3  -2   0  654.92    4.16
   3  -2   0  641.27    3.15
   3  -2   0  643.61    3.87
   3  -2   1   46.03    1.26
   3  -2   1   38.67    1.16
  -3   2  -1   35.70    1.05
   3  -2   1   43.29    1.24
   3  -2   1   46.97    1.18
   3  -2   1   37.50    1.10
  -3   2  -2 2886.34   11.53
   3  -2   2 2996.27   11.27
   3  -2   2 2974.45   10.95
   3  -2   2 3036.13   10.71
  -3   2  -2 3100.04   11.18
   3  -2   2 2952.22   11.08
   3  -2   2 2976.21   11.37
  -3   2  -3  218.18    3.49
   3  -2   3  218.11    3.38
   3  -2   3  230.74    3.51
   3  -2   3  222.44    3.46
  -3   2  -4   18.59    1.13
  -3   2  -4   18.75    1.15
   3  -2   4   19.99    1.18
   3  -2   4   21.41    0.98
   3  -2   4   21.38    1.23
  -3   2  -5   17.39    1.22
  -3   2  -5   22.11    1.41
  -3   2  -5   20.39    1.33
   3  -2   5   17.53    1.20
   3  -2   5   21.27    1.39
   3  -2   5   18.54    1.25
  -3   2  -5   18.19    1.26
   3  -2   5   21.66    1.03
  -3   2  -5   21.60    1.25
  -3   2  -5   17.65    1.25
  -3   2  -6   27.61    1.60
  -3   2  -6   34.84    1.77
   3  -2   6   29.63    1.56
   3  -2   6   28.73    1.60
   3  -2   6   29.03    1.66
  -3   2  -6   27.90    1.65
   3  -2   6   28.18    1.14
  -3   2  -6   28.61    1.41
  -3   2  -6   28.23    1.60
  -3   2  -6   29.71    1.63
  -3   2  -7   35.45    1.84
   3  -2   7   32.39    1.57
   3  -2   7   32.81    1.64
  -3   2  -7   37.22    1.37
   3  -2   7   -0.09    0.20
  -3   2  -7    5.78    0.78
  -3   2  -7   31.63    1.66
  -3   2  -8  101.51    2.63
  -3   2  -8   95.63    1.51
  -3   2  -8   -0.09    0.17
  -3   2  -8   -0.12    0.32
  -3   2  -8   98.56    2.65
  -3   2  -8   97.44    2.18
   3  -1 -11  124.94    2.22
   3  -1 -11  132.44    3.20
   3  -1 -11  124.27    3.03
   3  -1 -10  210.77    4.36
   3  -1 -10  219.75    4.28
   3  -1 -10  210.13    4.33
   3  -1  -9  210.81    4.47
   3  -1  -9  202.44    4.19
   3  -1  -9  209.22    4.44
   3  -1  -9  209.79    2.23
   3  -1  -8   29.55    1.59
   3  -1  -8   32.52    1.46
   3  -1  -8   31.52    1.64
   3  -1  -8   29.41    1.59
   3  -1  -8   30.37    1.69
   3  -1  -8   32.42    1.64
   3  -1  -8   29.58    1.68
   3  -1  -8   31.79    1.06
   3  -1  -7  273.75    3.61
   3  -1  -7  265.10    4.36
   3  -1  -7  266.32    4.42
   3  -1  -7  269.15    4.52
   3  -1  -7  259.41    4.30
   3  -1  -7  271.62    4.53
   3  -1  -7  263.71    4.42
   3  -1  -7  257.76    4.00
   3  -1  -7  270.51    4.67
   3  -1  -7  273.91    3.00
   3  -1  -6  448.74    4.79
   3  -1  -6  485.04    2.97
   3  -1  -6  464.28    5.32
  -3   1   6  456.60    3.95
   3  -1  -6  490.79    4.05
   3  -1  -6  472.02    5.45
   3  -1  -5  598.85    2.85
  -3   1   5  586.31    3.65
   3  -1  -5  585.39    5.44
   3  -1  -4   21.23    0.59
   3  -1  -4   20.48    0.89
   3  -1  -4   21.41    0.47
  -3   1   4   19.69    0.54
   3  -1  -3   74.24    0.97
  -3   1   3   71.54    1.12
  -3   1   3   75.13    0.90
   3  -1  -3   73.06    0.87
   3  -1  -2 2229.18    5.65
  -3   1   2 2176.64    6.56
   3  -1  -2 2197.89    5.58
  -3   1   2 2145.44    5.10
  -3   1   2 2122.41    5.24
   3  -1  -1   92.40    1.37
   3  -1  -1   91.39    1.48
  -3   1   1   90.60    1.22
   3  -1  -1   87.36    1.29
   3  -1   0  129.15    1.66
  -3   1   0  123.64    1.69
   3  -1   0  123.07    1.70
   3  -1   0  125.31    1.82
   3  -1   0  124.36    1.76
   3  -1   0  123.98    1.85
  -3   1  -1  209.96    2.56
   3  -1   1  198.06    2.26
   3  -1   1  206.71    2.65
   3  -1   1  220.85    2.58
   3  -1   1  205.54    2.68
   3  -1   1  211.05    2.61
  -3   1  -2  267.75    3.48
   3  -1   2  275.76    3.37
   3  -1   2  278.79    3.46
   3  -1   2  266.62    3.43
  -3   1  -3  687.48    6.12
  -3   1  -3  678.27    6.11
   3  -1   3  677.16    5.95
   3  -1   3  675.19    6.00
   3  -1   3  680.57    6.07
  -3   1  -4  588.09    6.31
   3  -1   4  593.69    6.26
  -3   1  -4  580.77    6.20
   3  -1   5    9.71    0.94
  -3   1  -5    7.43    0.84
  -3   1  -5   10.44    0.96
   3  -1   5    8.17    0.87
  -3   1  -5    8.19    0.88
  -3   1  -5    9.85    0.86
  -3   1  -5    7.69    0.85
  -3   1  -6   17.09    1.26
  -3   1  -6   20.51    1.39
   3  -1   6   20.93    1.33
  -3   1  -6   18.98    1.38
   3  -1   6   19.85    1.06
  -3   1  -6   19.70    1.12
  -3   1  -7   42.85    1.47
  -3   1  -7   39.71    1.93
  -3   1  -7   44.01    1.72
   3  -1   7   38.63    1.71
  -3   1  -7   38.04    1.77
   3  -1   7   34.03    1.72
  -3   1  -7   41.45    1.18
   3  -1   7   42.34    1.32
  -3   1  -7   41.53    1.84
  -3   1  -8  109.54    2.59
   3  -1   8  104.11    2.63
  -3   1  -8  103.11    1.93
  -3   1  -8  112.23    2.70
   3   0 -11    1.72    0.34
   3   0 -11    1.96    0.54
   3   0 -11    1.67    0.50
   3   0 -10    3.35    0.66
   3   0 -10    2.32    0.45
   3   0 -10    1.88    0.57
   3   0 -10    1.97    0.56
   3   0 -10    2.06    0.29
   3   0  -9   66.60    2.48
   3   0  -9   69.36    2.54
   3   0  -9   65.57    2.29
   3   0  -9   67.01    2.48
   3   0  -9   69.92    1.81
   3   0  -8  393.64    3.14
   3   0  -8  408.84    4.08
   3   0  -8  408.16    5.85
   3   0  -8  428.62    6.14
   3   0  -8  411.95    5.56
   3   0  -8  413.11    5.74
   3   0  -8  410.02    5.87
   3   0  -8  412.66    6.04
   3   0  -8  412.87    4.47
   3   0  -7  157.78    3.42
   3   0  -7  165.55    3.35
   3   0  -7  159.11    2.21
   3   0  -7  155.52    2.40
   3   0  -7  159.52    3.45
   3   0  -7  172.71    3.60
   3   0  -7  158.23    3.44
   3   0  -7  157.56    3.55
   3   0  -7  167.65    2.73
   3   0  -6  293.07    3.02
   3   0  -6  299.07    3.50
  -3   0   6  286.39    3.42
   3   0  -6  283.61    4.08
   3   0  -6  298.94    3.15
   3   0  -5   57.15    1.36
   3   0  -5   54.11    1.43
   3   0  -5   59.34    1.25
   3   0  -5   57.61    1.74
  -3   0   5   56.94    1.34
   3   0  -5   58.30    1.27
  -3   0   4 1282.89    5.81
  -3   0   4 1271.37    5.51
   3   0  -4 1284.50    5.48
   3   0  -4 1272.66    5.65
   3   0  -3  486.58    3.23
  -3   0   3  498.10    3.18
   3   0  -3  491.28    3.26
   3   0  -2    8.43    0.47
   3   0  -2    9.12    0.35
  -3   0   2    8.10    0.49
  -3   0   2    8.90    0.45
   3   0  -2    8.47    0.47
   3   0  -2    7.35    0.35
   3   0  -1    0.07    0.19
  -3   0   1    0.60    0.20
   3   0  -1    0.63    0.19
  -3   0   1    0.64    0.23
   3   0  -1    0.25    0.16
   3   0   0   25.31    0.92
   3   0   0   31.27    0.94
  -3   0   0   21.89    0.85
  -3   0   0   31.07    0.97
   3   0   0   23.57    0.88
  -3   0   0   26.64    0.88
   3   0   0   26.63    0.90
  -3   0  -1  140.72    2.25
  -3   0  -1  135.80    2.24
  -3   0  -1  133.54    2.29
   3   0   1  139.02    2.21
   3   0   1  135.00    2.27
   3   0   1  136.16    2.24
   3   0   1  129.32    2.25
  -3   0  -1  133.81    2.31
  -3   0  -2 1036.19    7.06
   3   0   2 1038.28    7.03
   3   0   2 1054.10    7.00
   3   0   2 1060.09    6.94
  -3   0  -3  215.89    3.58
   3   0   3  221.78    3.58
  -3   0  -3  216.04    3.54
   3   0   3  223.96    3.61
  -3   0  -4  703.22    6.93
   3   0   4  699.99    7.08
  -3   0  -4  699.69    6.96
  -3   0  -4  713.15    6.59
   3   0   4  719.27    7.05
  -3   0  -5  709.16    7.66
   3   0   5  727.54    7.54
  -3   0  -5  707.80    7.51
  -3   0  -5  720.24    7.71
  -3   0  -5  755.83    6.81
  -3   0  -5  742.09    7.19
  -3   0  -6    8.99    0.96
  -3   0  -6   10.65    1.06
   3   0   6    9.77    0.95
  -3   0  -6   11.78    0.91
  -3   0  -6   11.30    1.05
  -3   0  -6    9.28    0.99
  -3   0  -6   10.82    0.77
  -3   0  -6    9.32    0.96
   3   0   7  128.79    3.32
   3   0   7  131.67    3.29
  -3   0  -7  137.52    1.98
  -3   0  -7  134.89    2.74
  -3   0  -7  130.77    3.10
   3   0   7  129.08    2.38
   3   0   8    4.35    0.61
  -3   0  -8    5.73    0.61
  -3   0  -8    5.62    0.63
   3   1 -11  309.68    4.78
   3   1 -11  280.44    3.00
   3   1 -11  303.02    4.59
   3   1 -11  275.78    4.37
   3   1 -10   39.90    1.90
   3   1 -10   40.54    1.35
   3   1 -10   38.91    1.83
   3   1 -10   45.34    1.45
   3   1  -9  522.81    5.24
   3   1  -9  525.56    6.86
   3   1  -9  515.49    5.00
   3   1  -9  520.68    4.11
   3   1  -9  547.21    6.93
   3   1  -9  522.91    6.81
   3   1  -9  538.45    5.60
   3   1  -8    1.66    0.40
   3   1  -8    1.69    0.53
   3   1  -8    2.28    0.42
   3   1  -8    2.45    0.43
   3   1  -8    2.28    0.55
   3   1  -8    3.39    0.70
   3   1  -8    1.78    0.40
   3   1  -8    2.41    0.58
   3   1  -8    3.27    0.61
   3   1  -8    2.12    0.46
   3   1  -7   74.11    2.40
   3   1  -7   74.83    2.41
   3   1  -7   73.50    1.82
   3   1  -7   69.76    1.03
   3   1  -7   69.83    1.86
   3   1  -7   76.67    2.46
   3   1  -7   78.32    2.27
   3   1  -7   76.14    1.93
   3   1  -7   78.62    1.99
   3   1  -7   75.68    2.48
   3   1  -7   72.34    2.03
   3   1  -6  281.95    3.73
  -3  -1   6  283.76    3.71
   3   1  -6  280.45    4.06
   3   1  -6  276.45    3.40
   3   1  -6  284.04    3.56
   3   1  -5  894.41    5.77
  -3  -1   5  894.15    5.98
   3   1  -5  884.98    5.84
  -3  -1   4  104.93    1.97
   3   1  -4   98.15    1.15
  -3  -1   4  100.94    1.85
   3   1  -4  101.88    1.84
   3   1  -4  104.84    1.93
   3   1  -4  107.03    1.95
   3   1  -3  262.73    2.87
  -3  -1   3  248.02    2.87
   3   1  -3  238.46    2.47
   3   1  -3  266.16    2.90
   3   1  -3  263.02    2.26
  -3  -1   3  271.46    2.90
   3   1  -3  262.65    2.93
   3   1  -2 4798.43   12.27
  -3  -1   2 4646.22   11.73
   3   1  -2 4677.29   12.53
   3   1  -2 4765.61   10.55
   3   1  -2 4700.36   12.41
  -3  -1   1  561.56    4.53
   3   1  -1  568.08    4.42
   3   1  -1  595.19    4.07
  -3  -1   1  602.39    4.33
   3   1  -1  575.95    4.51
   3   1  -1  579.79    4.36
  -3  -1   0  205.98    2.89
   3   1   0  213.00    2.87
  -3  -1   0  200.80    2.69
  -3  -1   0  205.89    2.89
  -3  -1   0  225.83    2.88
   3   1   0  205.91    2.79
   3   1   0  225.73    2.80
   3   1   0  207.18    2.88
  -3  -1  -1   24.99    1.10
  -3  -1  -1   25.33    1.08
  -3  -1  -1   28.43    1.16
   3   1   1   28.41    1.15
   3   1   1   24.90    1.06
   3   1   1   27.80    1.15
  -3  -1  -2    0.46    0.31
   3   1   2    1.03    0.34
  -3  -1  -2    0.63    0.27
   3   1   2    0.61    0.30
  -3  -1  -3   84.13    2.33
  -3  -1  -3   82.76    2.31
   3   1   3   80.47    2.30
  -3  -1  -3   87.24    1.57
  -3  -1  -4  399.86    5.46
   3   1   4  406.22    5.61
  -3  -1  -4  416.75    5.64
  -3  -1  -4  399.72    4.88
  -3  -1  -4  392.82    5.48
  -3  -1  -4  413.70    5.91
  -3  -1  -5  215.13    4.41
  -3  -1  -5  210.33    4.16
   3   1   5  217.33    4.20
  -3  -1  -5  219.49    3.40
  -3  -1  -5  202.01    4.05
  -3  -1  -5  216.30    4.17
  -3  -1  -6  232.97    4.57
  -3  -1  -6  228.11    4.50
  -3  -1  -6  245.27    3.28
   3   1   6  226.96    4.17
  -3  -1  -6  238.23    3.90
  -3  -1  -6  226.80    4.21
  -3  -1  -6  236.59    4.33
  -3  -1  -6  233.18    4.26
   3   1   7   60.41    2.23
  -3  -1  -7   59.66    1.99
  -3  -1  -7   55.55    1.37
   3   1   7   60.97    1.61
  -3  -1  -7   63.25    2.09
   3   1   8   68.68    2.05
  -3  -1  -8   66.75    1.52
   3   2 -11   79.08    2.40
   3   2 -11   62.02    1.18
  -3  -2  11   68.39    1.88
   3   2 -11   68.73    2.08
   3   2 -11   75.33    1.47
   3   2 -10   78.00    2.59
   3   2 -10   74.54    1.28
   3   2 -10   76.06    2.46
   3   2 -10   79.44    2.09
   3   2  -9  500.12    6.65
   3   2  -9  504.58    4.73
   3   2  -9  511.18    4.93
   3   2  -9  485.52    5.54
   3   2  -9  531.20    6.82
   3   2  -9  509.77    5.22
   3   2  -9  516.10    5.75
   3   2  -9  513.82    6.68
   3   2  -9  516.99    5.83
   3   2  -8  594.36    7.13
   3   2  -8  627.38    5.36
   3   2  -8  649.82    7.61
   3   2  -8  612.02    6.33
   3   2  -8  617.00    5.87
   3   2  -8  621.50    6.33
   3   2  -8  607.11    3.62
   3   2  -8  631.23    6.12
   3   2  -8  681.94    7.52
   3   2  -8  606.64    7.27
   3   2  -8  659.66    6.76
   3   2  -7  468.78    6.00
   3   2  -7  516.58    4.70
   3   2  -7  448.43    2.21
   3   2  -7  490.87    5.25
   3   2  -7  474.79    5.35
   3   2  -7  509.29    4.42
   3   2  -7  480.66    6.35
   3   2  -7  504.83    6.41
   3   2  -7  489.98    5.37
   3   2  -7  487.61    5.40
   3   2  -7  507.58    6.49
   3   2  -7  507.21    5.84
   3   2  -6   23.94    1.16
   3   2  -6   13.14    0.32
   3   2  -6   23.64    1.36
   3   2  -6   22.70    1.19
   3   2  -6   21.36    1.11
   3   2  -6   12.85    0.30
   3   2  -5  122.61    2.46
  -3  -2   5  122.89    2.51
   3   2  -5  120.26    1.74
   3   2  -5  119.16    2.45
   3   2  -4  135.90    2.01
   3   2  -4  130.85    2.47
  -3  -2   4  136.51    2.51
   3   2  -4  131.78    2.47
   3   2  -3  225.94    3.10
   3   2  -3  230.96    3.19
   3   2  -3  226.92    3.13
  -3  -2   3  235.94    3.16
   3   2  -3  231.34    2.71
   3   2  -2 1563.18    7.29
   3   2  -2 1564.90    8.20
  -3  -2   2 1577.92    8.42
   3   2  -2 1563.86    8.26
   3   2  -2 1590.75    8.49
  -3  -2   1   15.18    0.87
   3   2  -1   14.63    0.84
   3   2  -1   15.23    0.88
   3   2  -1   13.53    0.81
   3   2   0  173.25    2.90
  -3  -2   0  169.37    2.92
   3   2   0  174.52    2.91
  -3  -2   0  171.75    2.94
   3   2   0  166.36    2.88
  -3  -2  -1   10.23    0.79
  -3  -2  -1    7.32    0.70
   3   2   1    8.69    0.74
   3   2   1    8.95    0.75
  -3  -2  -2   67.88    2.09
   3   2   2   71.34    2.15
  -3  -2  -2   69.00    1.40
  -3  -2  -3  183.59    3.65
   3   2   3  185.36    3.82
  -3  -2  -3  192.11    3.74
  -3  -2  -3  177.91    3.26
  -3  -2  -3  180.60    3.66
  -3  -2  -4   73.46    2.49
   3   2   4   75.28    2.55
  -3  -2  -4   75.85    2.49
  -3  -2  -4   69.81    2.39
  -3  -2  -4   76.44    2.52
  -3  -2  -4   73.85    2.00
  -3  -2  -4   72.50    2.42
  -3  -2  -4   74.79    2.56
  -3  -2  -4   73.09    2.67
  -3  -2  -5   23.00    1.47
   3   2   5   24.80    1.47
  -3  -2  -5   19.21    1.36
  -3  -2  -5   25.99    1.20
  -3  -2  -5   21.58    1.38
  -3  -2  -5   20.82    1.39
  -3  -2  -5   21.88    0.84
  -3  -2  -5   21.27    1.35
  -3  -2  -5   27.69    1.61
  -3  -2  -6   31.75    1.22
   3   2   6   33.69    1.60
  -3  -2  -6   31.55    1.52
  -3  -2  -6   33.94    1.70
  -3  -2  -6   32.04    1.56
   3   2   7   97.44    2.68
   3   2   7   99.69    2.73
  -3  -2  -7  102.17    2.22
   3   3 -11   28.59    1.39
   3   3 -11   30.21    1.05
   3   3 -10   -0.01    0.23
   3   3 -10   10.17    0.65
   3   3 -10   12.65    0.92
   3   3 -10   -0.17    0.36
  -3  -3  10   11.80    0.86
   3   3 -10   13.51    1.11
   3   3 -10   11.84    1.00
   3   3  -9  320.94    5.16
   3   3  -9  311.58    3.30
   3   3  -9  328.72    4.29
   3   3  -9  340.17    5.44
   3   3  -9  320.24    4.38
  -3  -3   9  321.70    4.51
   3   3  -9  323.83    4.80
   3   3  -9  322.69    5.15
   3   3  -9  327.39    4.86
   3   3  -8  392.43    5.71
   3   3  -8  413.54    4.12
   3   3  -8  407.88    4.09
   3   3  -8  403.15    5.11
   3   3  -8  378.96    5.30
   3   3  -8  412.54    6.07
  -3  -3   8  394.57    5.10
   3   3  -8  408.07    5.30
   3   3  -8  408.56    5.96
   3   3  -8  378.97    5.32
   3   3  -8  383.88    5.81
   3   3  -7    4.51    0.68
   3   3  -7    5.60    0.54
   3   3  -7    5.52    0.76
   3   3  -7    5.13    0.68
   3   3  -7    6.29    0.62
   3   3  -7    4.63    0.66
   3   3  -7    4.70    0.57
   3   3  -7    5.76    0.80
   3   3  -7    4.71    0.69
   3   3  -7    4.43    0.73
   3   3  -7    5.48    0.68
   3   3  -6   53.37    1.92
   3   3  -6   62.33    1.59
   3   3  -6   52.73    1.88
   3   3  -6   65.89    1.96
   3   3  -6   53.10    1.88
   3   3  -6   56.97    1.83
   3   3  -6   53.38    2.14
   3   3  -6   55.82    1.36
   3   3  -6   57.66    2.00
   3   3  -6   56.44    1.46
   3   3  -6   60.63    2.28
   3   3  -6   55.21    1.94
   3   3  -6   57.90    2.21
  -3  -3   5   60.32    1.83
   3   3  -5   64.61    1.56
   3   3  -5   63.80    2.27
   3   3  -5   59.77    1.90
   3   3  -5   62.59    2.04
   3   3  -5   61.31    2.20
   3   3  -5   62.88    2.03
   3   3  -5   63.39    2.00
   3   3  -5   60.65    1.57
   3   3  -5   60.89    2.23
   3   3  -4    4.59    0.48
   3   3  -4    3.47    0.50
   3   3  -4    5.03    0.72
   3   3  -4    4.40    0.58
   3   3  -4    3.06    0.52
   3   3  -3  193.85    3.35
  -3  -3   3  196.90    3.37
   3   3  -3  193.90    3.30
   3   3  -3  191.26    3.29
   3   3  -2  674.32    6.21
   3   3  -2  678.25    6.24
  -3  -3   2  664.57    6.14
   3   3  -2  659.49    6.13
  -3  -3   1  219.12    3.58
   3   3  -1  223.06    3.65
  -3  -3   1  219.41    3.60
   3   3   0  175.07    3.65
  -3  -3   0  173.82    3.28
  -3  -3   0  170.23    3.26
   3   3   0  177.46    3.32
  -3  -3  -1    1.29    0.50
  -3  -3  -1    0.14    0.33
   3   3   1    0.14    0.33
   3   3   1    0.84    0.37
  -3  -3  -1    0.30    0.30
  -3  -3  -1    0.69    0.20
  -3  -3  -2   43.99    1.84
   3   3   2   43.18    1.86
  -3  -3  -2   44.00    1.83
   3   3   2   41.89    1.87
  -3  -3  -2   45.00    1.67
  -3  -3  -2   41.64    1.78
  -3  -3  -3  345.31    5.26
  -3  -3  -3  350.76    5.37
   3   3   3  355.62    5.51
  -3  -3  -3  358.05    5.44
  -3  -3  -3  347.94    4.33
  -3  -3  -3  359.55    5.94
  -3  -3  -3  354.42    5.08
  -3  -3  -4    1.41    0.50
  -3  -3  -4    1.50    0.50
   3   3   4    1.20    0.53
  -3  -3  -4    1.46    0.50
  -3  -3  -4    1.96    0.46
  -3  -3  -4    1.64    0.48
  -3  -3  -4    1.58    0.56
  -3  -3  -4    2.00    0.34
  -3  -3  -4    2.27    0.64
  -3  -3  -4    3.62    0.74
   3   3   5    7.64    0.86
  -3  -3  -5    8.74    0.88
  -3  -3  -5    7.70    0.93
  -3  -3  -5    9.62    1.00
  -3  -3  -5    7.93    0.85
   3   3   6   23.20    1.40
  -3  -3  -6   22.35    1.15
  -3  -3  -6   23.25    1.20
  -3  -3  -6   26.68    1.48
  -3  -3  -6   22.96    1.32
   3   4 -10   46.90    1.78
   3   4 -10   47.19    1.45
  -3  -4  10   43.41    1.41
   3   4 -10   46.84    1.35
   3   4 -10   47.62    1.70
   3   4  -9  129.56    3.11
   3   4  -9  133.08    2.82
   3   4  -9  136.15    3.35
   3   4  -9  129.16    2.87
  -3  -4   9  129.00    2.65
   3   4  -8  266.47    2.19
   3   4  -8  268.61    4.50
   3   4  -8  255.76    4.23
   3   4  -8  242.54    4.42
   3   4  -8  273.46    4.88
   3   4  -8  266.22    3.66
  -3  -4   8  267.08    3.98
   3   4  -8  256.05    4.35
   3   4  -8  248.52    4.49
   3   4  -7    1.58    0.53
   3   4  -7    1.38    0.46
   3   4  -7    1.55    0.45
   3   4  -7    1.30    0.49
   3   4  -7    1.71    0.30
   3   4  -7    2.00    0.50
   3   4  -7    1.44    0.44
   3   4  -7    3.09    0.52
   3   4  -7    1.00    0.47
   3   4  -7    2.09    0.58
   3   4  -7    1.15    0.26
   3   4  -6  233.96    4.54
   3   4  -6  226.72    2.63
   3   4  -6  222.26    4.14
   3   4  -6  213.07    4.06
  -3  -4   6  234.56    3.74
   3   4  -6  221.90    4.18
   3   4  -6  229.64    3.29
   3   4  -6  237.60    4.61
   3   4  -6  220.06    4.14
   3   4  -5   52.50    1.23
   3   4  -5   49.89    1.95
   3   4  -5   59.22    2.26
   3   4  -5   52.20    1.69
   3   4  -5   52.92    2.04
  -3  -4   5   58.24    1.82
   3   4  -5   60.50    1.85
   3   4  -5   57.24    2.28
   3   4  -5   51.30    1.97
  -3  -4   4  264.60    4.37
   3   4  -4  278.59    4.44
   3   4  -4  282.95    4.75
   3   4  -4  273.04    4.54
  -3  -4   4  267.57    3.72
   3   4  -4  263.28    3.96
   3   4  -4  268.46    4.37
   3   4  -3  377.33    5.53
  -3  -4   3  330.03    4.82
   3   4  -3  339.58    4.91
   3   4  -3  337.69    5.08
   3   4  -3  359.30    5.25
  -3  -4   3  351.35    4.07
   3   4  -3  353.38    5.03
   3   4  -2   26.71    1.54
  -3  -4   2   24.36    1.33
   3   4  -2   23.48    1.34
   3   4  -2   20.97    1.33
  -3  -4   2   23.89    1.03
   3   4  -2   24.88    1.36
   3   4  -1  913.45    8.88
  -3  -4   1  913.77    8.08
  -3  -4   1  944.50    5.75
   3   4  -1  930.46    8.21
  -3  -4   1  893.02    8.29
  -3  -4   1  935.64    8.29
   3   4   0  234.17    4.57
  -3  -4   0  235.91    4.20
   3   4   0  250.26    4.61
  -3  -4   0  248.66    4.39
   3   4   0  244.48    4.34
  -3  -4   0  253.52    4.14
  -3  -4   0  237.03    4.27
  -3  -4  -1  145.92    3.78
   3   4   1  160.59    3.78
  -3  -4  -1  151.84    3.47
   3   4   1  152.54    3.66
  -3  -4  -1  150.79    3.50
  -3  -4  -1  154.34    3.11
  -3  -4  -1  148.33    3.44
  -3  -4  -2   79.82    2.06
   3   4   2   76.50    2.57
  -3  -4  -2   80.95    2.64
   3   4   2   80.57    2.69
  -3  -4  -2   78.15    2.55
  -3  -4  -2   81.25    2.65
  -3  -4  -2   77.09    2.52
  -3  -4  -2   72.02    2.71
  -3  -4  -3  156.89    3.75
   3   4   3  149.53    3.64
  -3  -4  -3  155.81    3.51
  -3  -4  -3  148.21    3.64
  -3  -4  -3  150.20    3.46
  -3  -4  -3  146.51    1.99
  -3  -4  -3  152.49    3.86
  -3  -4  -3  155.19    3.96
  -3  -4  -3  153.69    3.48
   3   4   4  218.49    4.27
  -3  -4  -4  215.57    3.92
  -3  -4  -4  217.90    3.95
  -3  -4  -4  222.77    4.07
  -3  -4  -4  230.77    4.70
  -3  -4  -4  219.79    4.53
  -3  -4  -4  218.74    3.98
   3   4   5  213.74    4.12
  -3  -4  -5  221.19    3.63
   3   4   5  218.84    3.84
  -3  -4  -5  219.74    3.52
  -3  -4  -5  222.89    4.33
  -3  -4  -5  222.65    4.24
   3   5 -10  207.11    2.57
   3   5 -10  210.48    2.77
   3   5 -10  215.84    3.36
   3   5  -9  115.55    2.56
   3   5  -9  120.51    2.95
  -3  -5   9  113.24    2.03
   3   5  -9  117.52    2.67
   3   5  -8   11.74    1.04
   3   5  -8   12.06    0.54
   3   5  -8   10.89    0.94
   3   5  -8    9.81    0.93
   3   5  -8   10.32    0.77
  -3  -5   8   11.46    0.76
   3   5  -8    8.25    0.46
  -3  -5   7   17.63    0.97
   3   5  -7   17.99    1.24
   3   5  -7   22.94    1.27
   3   5  -7   18.90    1.15
   3   5  -7   16.48    1.26
   3   5  -7   19.45    1.29
   3   5  -7   18.91    0.80
   3   5  -7   21.48    1.40
   3   5  -7   16.56    1.26
   3   5  -6  198.18    4.09
   3   5  -6  199.47    4.21
   3   5  -6  191.96    4.02
  -3  -5   6  188.24    3.07
   3   5  -6  184.80    4.04
   3   5  -6  200.41    3.22
   3   5  -6  201.04    4.24
   3   5  -6  193.90    4.12
   3   5  -5  137.15    3.47
   3   5  -5  134.04    3.41
   3   5  -5  126.99    2.82
   3   5  -5  135.49    3.49
   3   5  -5  124.93    3.32
  -3  -5   5  137.20    2.56
   3   5  -5  135.73    3.53
  -3  -5   4  392.68    5.77
  -3  -5   4  416.99    4.24
   3   5  -4  394.62    5.88
   3   5  -4  412.06    5.93
   3   5  -4  399.16    5.93
   3   5  -4  403.92    5.26
   3   5  -4  416.20    6.20
   3   5  -4  394.97    5.88
   3   5  -3   61.41    2.38
  -3  -5   3   55.55    2.18
   3   5  -3   59.68    2.33
  -3  -5   3   58.08    1.46
   3   5  -3   59.96    2.12
   3   5  -3   56.83    2.25
   3   5  -3   56.41    2.19
  -3  -5   3   56.59    2.26
   3   5  -2  731.30    8.28
  -3  -5   2  742.89    8.51
  -3  -5   2  731.60    7.82
   3   5  -2  727.74    7.99
  -3  -5   2  732.42    7.94
   3   5  -1 1843.25   13.25
  -3  -5   1 1811.58   13.00
  -3  -5   1 1946.97   12.83
  -3  -5   1 1885.39   12.83
   3   5  -1 1918.34   12.96
  -3  -5   1 1939.00   11.60
  -3  -5   1 1894.38   12.59
   3   5   0  580.10    7.39
  -3  -5   0  608.15    7.30
   3   5   0  606.31    7.51
  -3  -5   0  606.43    7.11
  -3  -5   0  596.10    7.35
  -3  -5   0  596.33    6.00
  -3  -5   0  623.83    7.60
   3   5   1   34.84    1.81
  -3  -5  -1   32.81    1.74
   3   5   1   36.53    1.88
  -3  -5  -1   34.25    1.72
  -3  -5  -1   39.28    1.68
  -3  -5  -1   34.91    1.80
  -3  -5  -1   33.57    1.62
  -3  -5  -1   34.76    1.30
  -3  -5  -1   33.85    1.70
  -3  -5  -1   29.40    1.72
   3   5   2    8.07    0.91
  -3  -5  -2   11.42    1.08
   3   5   2    8.66    0.97
  -3  -5  -2    8.73    0.90
  -3  -5  -2   10.27    0.75
  -3  -5  -2   11.63    1.03
  -3  -5  -2    8.77    0.98
  -3  -5  -2    7.36    0.95
   3   5   3   87.04    2.70
  -3  -5  -3   76.15    2.30
  -3  -5  -3   86.41    2.50
  -3  -5  -3   84.64    2.80
  -3  -5  -3   79.90    2.75
  -3  -5  -3   85.45    2.56
   3   5   4   32.23    1.54
  -3  -5  -4   32.91    1.35
  -3  -5  -4   37.95    1.49
  -3  -5  -4   36.82    1.78
  -3  -5  -4   32.14    1.47
   3   6  -9    1.17    0.35
   3   6  -9    1.92    0.38
   3   6  -9    1.35    0.39
   3   6  -8  142.46    2.99
   3   6  -8  153.32    2.56
   3   6  -8  147.71    3.20
   3   6  -8  142.70    3.14
  -3  -6   7  300.33    4.88
   3   6  -7  314.61    4.82
   3   6  -7  324.52    4.49
   3   6  -7  316.86    4.94
   3   6  -7  301.74    4.79
   3   6  -7  319.06    4.98
  -3  -6   6   84.10    2.75
   3   6  -6   90.00    2.73
   3   6  -6   83.00    2.64
   3   6  -6   86.88    2.03
   3   6  -6   84.59    2.69
  -3  -6   6   89.88    2.68
  -3  -6   5   70.86    2.60
  -3  -6   5   63.66    2.44
   3   6  -5   67.05    2.37
   3   6  -5   64.84    2.39
   3   6  -5   71.25    2.07
   3   6  -5   65.91    2.44
   3   6  -5   66.06    2.52
  -3  -6   5   70.17    2.36
  -3  -6   4  246.99    4.94
  -3  -6   4  236.03    4.67
   3   6  -4  242.79    4.70
   3   6  -4  231.01    4.34
   3   6  -4  244.25    4.71
   3   6  -4  242.67    4.07
   3   6  -4  238.59    4.76
  -3  -6   4  256.47    4.40
  -3  -6   4  235.38    4.59
   3   6  -3  215.77    4.42
  -3  -6   3  217.52    4.62
  -3  -6   3  194.37    4.23
   3   6  -3  199.45    3.98
   3   6  -3  210.94    3.95
   3   6  -3  201.48    4.39
   3   6  -3  202.64    4.29
  -3  -6   3  216.64    3.95
  -3  -6   3  206.65    4.27
  -3  -6   2    2.84    0.63
  -3  -6   2    2.14    0.59
   3   6  -2    2.85    0.64
  -3  -6   2    2.60    0.65
  -3  -6   2    3.00    0.55
  -3  -6   1    2.63    0.59
  -3  -6   1    2.56    0.59
   3   6  -1    2.78    0.65
  -3  -6   1    2.19    0.54
   3   6  -1    2.44    0.65
  -3  -6   1    1.79    0.49
  -3  -6   0    1.09    0.49
  -3  -6   0    1.41    0.53
   3   6   0    1.69    0.55
   3   6   0    1.28    0.56
  -3  -6   0    1.41    0.41
  -3  -6   0    0.56    0.31
  -3  -6   0    1.44    0.46
  -3  -6   0    0.76    0.25
  -3  -6   0    0.09    0.33
  -3  -6   0    0.68    0.43
   3   6   1  194.79    4.06
   3   6   1  215.33    4.28
  -3  -6  -1  187.73    2.10
  -3  -6  -1  215.37    3.35
  -3  -6  -1  204.31    3.83
  -3  -6  -1  215.92    3.99
  -3  -6  -1  222.04    4.36
   3   6   2  126.97    3.05
  -3  -6  -2  126.80    2.79
   3   6   2  127.85    3.16
  -3  -6  -2  131.99    2.92
  -3  -6  -2  123.29    3.21
  -3  -6  -2  118.50    2.96
   3   6   3   48.73    1.82
  -3  -6  -3   42.99    1.38
  -3  -6  -3   42.85    1.38
  -3  -6  -3   47.19    1.49
  -3  -6  -3   46.84    1.87
  -3  -6  -3   46.42    1.71
   3   7  -8   14.53    0.51
  -3  -7   8   19.97    0.92
   3   7  -7   14.28    0.66
  -3  -7   7   12.74    0.83
  -3  -7   7   13.72    0.93
   3   7  -7   13.95    0.97
   3   7  -7   14.53    0.99
   3   7  -7   15.97    0.90
   3   7  -7   13.29    0.96
   3   7  -7   14.57    0.97
  -3  -7   6   18.80    1.21
  -3  -7   6   19.96    1.05
   3   7  -6   18.23    1.15
   3   7  -6   19.52    1.24
   3   7  -6   17.91    0.75
   3   7  -6   20.44    1.23
   3   7  -5    1.33    0.52
  -3  -7   5    1.36    0.50
  -3  -7   5    0.81    0.43
   3   7  -5    0.90    0.40
   3   7  -5    1.88    0.52
   3   7  -5    1.02    0.36
  -3  -7   5    1.28    0.40
  -3  -7   4  330.93    5.26
   3   7  -4  327.38    4.77
   3   7  -4  335.44    5.23
   3   7  -4  331.08    4.32
   3   7  -4  331.61    5.11
  -3  -7   4  335.16    4.00
  -3  -7   4  327.76    5.03
  -3  -7   3  127.01    3.26
  -3  -7   3  129.63    2.73
   3   7  -3  126.00    3.16
   3   7  -3  119.13    2.82
   3   7  -3  130.84    2.88
  -3  -7   3  132.31    2.29
  -3  -7   3  121.53    3.06
  -3  -7   2   30.71    1.55
   3   7  -2   33.68    1.70
  -3  -7   2   31.58    1.61
   3   7  -2   32.17    1.67
  -3  -7   2   31.83    1.23
  -3  -7   2   30.41    1.40
   3   7  -2   36.65    1.60
   3   7  -2   32.73    1.62
  -3  -7   2   33.74    1.61
  -3  -7   1  279.50    4.36
  -3  -7   1  269.45    2.49
   3   7  -1  296.07    4.91
   3   7  -1  307.09    4.98
  -3  -7   1  281.32    4.40
   3   7  -1  275.57    4.47
  -3  -7   1  289.99    3.79
  -3  -7   1  287.93    4.47
   3   7   0   18.68    1.23
   3   7   0   19.47    1.27
  -3  -7   0   16.28    1.03
  -3  -7   0   18.78    1.14
  -3  -7  -1    3.84    0.51
   3   7   1    2.45    0.50
   3   7   1    2.39    0.54
  -3  -7  -1    2.17    0.42
  -3  -7  -1    2.60    0.53
  -3  -8   5    1.79    0.20
  -3  -8   4   26.73    1.27
  -3  -8   4   24.83    0.98
   3   8  -4   24.29    0.90
  -3  -8   4   27.02    1.25
   3   8  -3  107.77    2.50
  -3  -8   3  101.70    1.68
   3   8  -3  107.94    2.05
  -3  -8   3  104.06    2.35
   3   8  -2   21.34    1.15
   3   8  -2   20.35    0.95
   4 -10  -2   20.53    1.23
   4 -10  -2   21.71    0.80
   4 -10  -1   91.35    2.53
   4 -10  -1   84.51    1.51
   4 -10   0   15.99    1.06
   4 -10   0   15.09    0.62
   4  -9  -5   17.55    1.18
   4  -9  -4   18.64    1.27
   4  -9  -4   21.13    1.36
   4  -9  -4   18.15    0.92
   4  -9  -3   97.80    2.98
   4  -9  -3    0.09    0.20
   4  -9  -3   -0.04    0.35
   4  -9  -3  106.49    2.39
   4  -9  -2  124.51    3.42
   4  -9  -2  141.67    2.40
   4  -9  -1  100.66    3.07
   4  -9  -1  103.15    2.02
   4  -9   0   11.70    1.06
   4  -9   0    9.63    0.65
   4  -9   0    9.96    0.99
   4  -9   1    1.00    0.31
   4  -9   1    0.14    0.28
   4  -9   1    0.73    0.28
   4  -9   1    0.60    0.50
   4  -9   1   -0.11    0.35
   4  -9   2  280.47    3.71
   4  -9   2  269.48    2.58
   4  -9   3  148.22    2.76
   4  -9   3  145.27    3.12
   4  -9   4    1.03    0.34
   4  -9   4    0.48    0.12
   4  -8  -6    0.42    0.21
   4  -8  -6    0.54    0.46
   4  -8  -5   79.97    2.67
   4  -8  -5   80.25    2.79
   4  -8  -5   79.56    1.85
   4  -8  -5   87.84    2.90
   4  -8  -4  705.83    8.24
   4  -8  -4  718.27    6.07
   4  -8  -3  466.64    6.84
   4  -8  -3  467.48    5.26
   4  -8  -2    0.39    0.45
   4  -8  -2    0.44    0.35
   4  -8  -2    0.33    0.45
   4  -8  -1   26.71    0.81
   4  -8  -1   25.33    1.63
   4  -8  -1   24.07    1.53
   4  -8   0   16.18    0.90
   4  -8   0   20.20    1.43
   4  -8   0   17.42    0.90
   4  -8   0   16.05    1.29
   4  -8   0   16.50    1.23
   4  -8   1   34.25    1.46
   4  -8   1   37.23    1.26
   4  -8   1   34.26    0.98
   4  -8   1   33.25    1.85
   4  -8   1   37.36    1.83
   4  -8   2    3.40    0.58
   4  -8   2    3.86    0.45
   4  -8   2    3.39    0.46
   4  -8   2    3.05    0.69
   4  -8   2    3.75    0.66
   4  -8   2    3.73    0.51
   4  -8   3   23.87    1.37
   4  -8   3   20.06    0.73
   4  -8   3   24.56    1.17
   4  -8   3   27.43    1.65
   4  -8   3   22.97    1.39
   4  -8   3   22.93    1.18
   4  -8   4   86.61    2.53
   4  -8   4   83.30    2.14
   4  -8   4   84.68    2.75
   4  -8   4   82.47    2.40
   4  -8   4   91.49    2.27
   4  -8   5    2.44    0.44
   4  -8   5    2.96    0.52
   4  -8   5    2.63    0.48
   4  -7  -8    5.84    0.79
   4  -7  -7  275.87    2.93
   4  -7  -7  257.04    5.00
   4  -7  -6  511.05    7.14
   4  -7  -6  512.45    6.64
   4  -7  -6  531.19    4.48
   4  -7  -6  524.24    6.56
   4  -7  -6  504.73    7.20
   4  -7  -5  157.31    3.91
   4  -7  -5  163.83    2.62
   4  -7  -5  165.97    3.74
   4  -7  -5  151.62    3.98
   4  -7  -5  158.99    3.99
   4  -7  -4  137.09    3.76
   4  -7  -4  142.22    3.76
   4  -7  -4  143.81    2.64
   4  -7  -4  137.41    3.40
   4  -7  -4  145.03    3.86
   4  -7  -3    4.38    0.75
   4  -7  -3    4.05    0.76
   4  -7  -3    4.21    0.68
   4  -7  -3    2.77    0.61
   4  -7  -3    3.61    0.71
   4  -7  -3    4.55    0.55
   4  -7  -2   55.80    2.36
   4  -7  -2   54.44    1.78
   4  -7  -2   59.53    2.29
   4  -7  -1   79.29    1.77
   4  -7  -1   73.48    2.65
   4  -7  -1   78.80    2.70
   4  -7  -1   73.13    2.56
   4  -7  -1   77.92    2.55
   4  -7   0   48.49    1.68
   4  -7   0   50.52    2.15
   4  -7   0   51.83    1.23
   4  -7   0   53.49    2.27
   4  -7   0   50.64    1.54
   4  -7   0   49.88    2.17
   4  -7   1   17.33    1.13
   4  -7   1   17.95    0.91
   4  -7   1   16.84    0.93
   4  -7   1   17.15    1.06
   4  -7   1   15.39    1.30
   4  -7   1   16.93    1.05
   4  -7   1   20.53    1.45
   4  -7   1   17.44    0.99
   4  -7   2  416.07    5.65
   4  -7   2  359.16    3.77
   4  -7   2  388.71    4.84
   4  -7   2  355.73    6.12
   4  -7   2  384.60    5.19
   4  -7   2  414.76    5.41
   4  -7   2  380.81    6.08
   4  -7   2  369.63    5.61
   4  -7   2  396.15    5.02
   4  -7   3    7.54    0.86
  -4   7  -3    5.19    0.70
   4  -7   3    5.28    0.50
   4  -7   3    5.36    0.73
   4  -7   3    6.06    0.71
   4  -7   3    5.46    0.72
   4  -7   3    5.67    0.51
   4  -7   3    6.47    0.90
   4  -7   3    6.19    0.82
   4  -7   3    6.36    0.77
  -4   7  -4   50.02    1.91
   4  -7   4   57.67    2.01
   4  -7   4   55.59    2.11
   4  -7   4   56.34    1.59
   4  -7   4   56.83    2.36
   4  -7   4   51.75    2.01
   4  -7   4   55.54    2.00
  -4   7  -5   10.29    0.90
   4  -7   5   10.13    0.73
   4  -7   5   10.13    0.99
   4  -7   5   11.34    0.92
   4  -7   5   11.57    0.95
   4  -7   5   10.27    0.90
  -4   7  -6   17.97    1.07
   4  -7   6   19.27    1.11
   4  -7   6   17.91    0.80
  -4   7  -6   19.59    1.17
   4  -7   6   20.17    1.15
   4  -6  -9   46.58    1.90
   4  -6  -9   50.13    2.00
   4  -6  -8  139.84    2.11
   4  -6  -8  135.44    3.30
   4  -6  -8  140.61    3.67
   4  -6  -8   -0.42    0.44
   4  -6  -8   19.55    1.42
   4  -6  -7  163.13    3.73
   4  -6  -7  167.49    2.42
   4  -6  -7  170.03    3.96
   4  -6  -7  162.73    4.16
   4  -6  -6   27.34    1.71
   4  -6  -6   26.65    1.59
   4  -6  -6   24.88    0.95
   4  -6  -6   24.72    1.57
   4  -6  -6   26.73    1.55
   4  -6  -6   26.12    1.65
   4  -6  -6   26.79    1.75
   4  -6  -5 1199.14   10.65
   4  -6  -5 1233.31   10.91
   4  -6  -5 1204.85   10.66
   4  -6  -5 1198.17   10.31
   4  -6  -5 1214.79    6.49
   4  -6  -5 1202.79   10.45
   4  -6  -5 1140.17   10.20
   4  -6  -5 1182.99    9.81
   4  -6  -5 1198.93    9.91
   4  -6  -5 1167.47   10.99
   4  -6  -5 1130.09   10.50
   4  -6  -4   74.26    2.65
   4  -6  -4   80.04    2.72
   4  -6  -4   69.42    2.52
   4  -6  -4   80.36    1.75
   4  -6  -4   73.08    2.50
   4  -6  -4   70.12    2.37
   4  -6  -4   74.63    2.53
   4  -6  -4   74.46    2.53
   4  -6  -4   74.23    2.43
   4  -6  -4   76.21    2.75
   4  -6  -4   68.25    2.46
   4  -6  -3  201.59    4.07
   4  -6  -3  183.31    4.08
   4  -6  -3  182.97    2.69
   4  -6  -3  171.04    3.80
   4  -6  -3  182.53    3.82
   4  -6  -3  182.82    3.71
   4  -6  -3  191.74    3.85
   4  -6  -3  184.72    3.79
   4  -6  -3  190.19    4.11
   4  -6  -2    1.23    0.19
   4  -6  -2    1.62    0.50
   4  -6  -2    0.51    0.40
   4  -6  -2    0.79    0.41
   4  -6  -2    0.77    0.28
   4  -6  -2    0.25    0.36
   4  -6  -2    0.25    0.38
   4  -6  -1   44.00    1.36
   4  -6  -1   40.19    1.85
   4  -6  -1   44.03    1.52
   4  -6  -1   38.80    1.74
   4  -6  -1   39.50    1.80
   4  -6  -1   47.71    1.20
   4  -6  -1   43.51    1.88
   4  -6  -1   42.14    1.82
   4  -6   0  309.85    4.10
   4  -6   0  312.02    4.93
   4  -6   0  304.88    3.48
   4  -6   0  320.38    5.16
   4  -6   0  312.34    3.76
   4  -6   0  320.31    5.13
   4  -6   0  328.44    5.07
   4  -6   0  315.60    3.62
   4  -6   1   46.98    1.78
   4  -6   1   43.09    1.53
   4  -6   1   45.03    1.63
   4  -6   1   41.35    1.94
   4  -6   1   46.17    1.66
   4  -6   1   36.25    0.84
   4  -6   1   41.41    1.90
   4  -6   1   39.46    1.81
   4  -6   1   45.74    1.62
   4  -6   2    3.09    0.45
   4  -6   2    2.63    0.52
   4  -6   2    3.94    0.60
   4  -6   2    3.44    0.47
   4  -6   2    3.83    0.69
   4  -6   2    3.62    0.60
   4  -6   2    3.33    0.70
   4  -6   2    3.30    0.64
   4  -6   2    3.19    0.57
   4  -6   3  173.40    2.50
   4  -6   3  182.78    3.60
   4  -6   3  185.89    3.23
   4  -6   3  170.07    2.34
   4  -6   3  186.48    3.78
   4  -6   3  167.86    4.03
   4  -6   3  191.01    3.85
   4  -6   3  168.99    3.93
   4  -6   3  172.71    3.76
   4  -6   3  183.68    3.68
   4  -6   4  935.65    6.32
  -4   6  -4  888.31    8.41
   4  -6   4  931.72    8.74
   4  -6   4  895.16    9.33
   4  -6   4  928.72    8.80
   4  -6   4  952.06    8.47
   4  -6   4  942.32    7.73
   4  -6   4  909.35    9.16
   4  -6   4  929.27    8.53
   4  -6   4  930.02    8.41
  -4   6  -5    6.17    0.81
   4  -6   5    7.04    0.62
   4  -6   5    8.01    0.85
   4  -6   5    7.71    0.87
   4  -6   5    7.30    0.76
   4  -6   5    9.73    0.99
   4  -6   5    8.10    0.83
   4  -6   5    8.87    0.90
   4  -6   6    0.65    0.44
  -4   6  -6    1.19    0.45
   4  -6   6    0.16    0.38
   4  -6   6    0.17    0.28
   4  -6   6    0.76    0.38
  -4   6  -6    0.57    0.43
  -4   6  -7    5.17    0.64
   4  -6   7    4.25    0.59
   4  -6   7    4.70    0.52
  -4   6  -7    4.50    0.52
  -4   6  -7    4.55    0.60
   4  -6   7    3.78    0.57
   4  -5 -10  173.27    3.57
   4  -5  -9    6.40    0.52
   4  -5  -9    5.68    0.83
   4  -5  -9    4.88    0.76
   4  -5  -9    6.48    0.82
   4  -5  -9    5.85    0.87
   4  -5  -8   92.56    1.87
   4  -5  -8   90.23    2.90
   4  -5  -8   89.52    2.82
   4  -5  -8   94.75    3.06
   4  -5  -8   88.92    3.04
   4  -5  -8   93.32    3.06
   4  -5  -8   93.28    3.12
   4  -5  -7  117.60    3.30
   4  -5  -7  106.64    3.07
   4  -5  -7  110.49    3.24
   4  -5  -7  118.48    1.99
   4  -5  -7  113.14    3.35
   4  -5  -7  121.57    3.60
   4  -5  -7  123.51    3.54
   4  -5  -6   32.47    1.70
   4  -5  -6   36.98    1.79
   4  -5  -6   27.29    0.88
   4  -5  -6   25.68    1.63
   4  -5  -6   27.38    1.60
   4  -5  -6   26.47    1.68
   4  -5  -6   29.21    1.61
   4  -5  -6   29.54    1.66
   4  -5  -6   28.62    1.63
   4  -5  -6   30.09    1.80
   4  -5  -6   31.38    1.77
   4  -5  -6   32.09    1.75
   4  -5  -6   28.30    1.74
   4  -5  -5  273.88    4.95
   4  -5  -5  284.48    4.87
   4  -5  -5  278.86    4.89
   4  -5  -5  283.06    2.57
   4  -5  -5  293.51    4.89
   4  -5  -5  260.78    4.80
   4  -5  -5  284.39    4.65
   4  -5  -5  275.73    4.74
   4  -5  -5  282.40    4.63
   4  -5  -5  278.95    5.20
   4  -5  -5  261.87    4.94
   4  -5  -4   21.52    1.35
   4  -5  -4   21.91    1.35
   4  -5  -4   22.66    1.39
   4  -5  -4   25.36    1.40
   4  -5  -4   19.99    1.24
   4  -5  -4   21.82    1.33
   4  -5  -4   21.24    0.70
   4  -5  -4   20.21    1.21
   4  -5  -4   22.54    1.32
   4  -5  -4   19.75    1.22
   4  -5  -4   23.14    1.47
   4  -5  -4   19.59    1.30
   4  -5  -3   69.83    1.35
   4  -5  -3   74.67    2.22
   4  -5  -3   74.59    2.20
   4  -5  -3   74.55    2.19
   4  -5  -3   75.24    2.27
  -4   5   2  977.66    5.78
   4  -5  -2 1021.91    8.18
   4  -5  -2 1044.19    7.79
   4  -5  -2  997.88    8.15
   4  -5  -2 1038.10    5.65
  -4   5   1   31.45    1.14
   4  -5  -1   32.36    1.51
   4  -5  -1   34.24    0.98
   4  -5  -1   33.32    1.53
   4  -5  -1   35.89    1.23
   4  -5   0   46.86    1.42
   4  -5   0   46.13    1.85
   4  -5   0   49.59    1.44
   4  -5   0   48.45    1.86
   4  -5   0   48.86    1.57
   4  -5   1  188.88    3.15
   4  -5   1  189.88    3.18
   4  -5   1  181.69    3.68
   4  -5   1  181.64    3.12
   4  -5   1  181.99    3.64
   4  -5   1  178.05    3.54
   4  -5   1  182.77    3.16
   4  -5   2  310.91    4.03
   4  -5   2  288.08    3.27
   4  -5   2  304.20    4.89
   4  -5   2  304.85    4.40
   4  -5   2  311.82    4.44
   4  -5   2  292.36    4.83
   4  -5   2  259.79    1.84
   4  -5   2  292.63    4.75
   4  -5   2  283.42    4.54
   4  -5   2  313.58    4.47
   4  -5   2  299.32    3.37
   4  -5   2  313.86    4.48
   4  -5   3  705.77    5.01
   4  -5   3  728.34    7.77
   4  -5   3  762.54    6.35
   4  -5   3  712.45    7.18
   4  -5   3  681.69    7.63
   4  -5   3  721.41    7.27
   4  -5   3  753.80    6.96
   4  -5   3  715.08    7.26
   4  -5   3  738.71    5.32
   4  -5   3  711.25    7.56
   4  -5   3  692.17    7.21
   4  -5   3  715.78    7.21
   4  -5   4  782.24    7.91
   4  -5   4  762.05    8.08
   4  -5   4  772.25    7.93
   4  -5   4  770.48    8.39
   4  -5   4  768.34    7.93
   4  -5   4  770.45    8.06
   4  -5   4  845.10    7.29
   4  -5   4  819.07    6.21
   4  -5   4  787.59    7.69
   4  -5   4  780.60    7.86
   4  -5   4  806.63    7.66
  -4   5  -5    5.04    0.77
   4  -5   5    5.93    0.83
   4  -5   5    6.66    0.73
   4  -5   5    6.38    0.82
   4  -5   5    6.02    0.82
   4  -5   5    7.00    0.65
   4  -5   5    5.67    0.78
   4  -5   5    5.13    0.75
  -4   5  -6   12.85    1.09
   4  -5   6   12.66    0.92
  -4   5  -6   12.30    1.07
  -4   5  -6   11.95    0.96
   4  -5   6   12.88    0.80
   4  -5   6   11.07    0.99
  -4   5  -7   46.85    1.51
  -4   5  -7   47.05    1.80
   4  -5   7   48.53    1.47
  -4   5  -7   46.70    1.81
   4  -5   7   46.30    1.66
   4  -5   7   46.98    1.79
   4  -4 -10   39.95    1.20
   4  -4 -10   39.44    1.80
   4  -4 -10   40.01    1.92
   4  -4 -10   41.48    1.96
   4  -4  -9  132.08    2.43
   4  -4  -9    0.16    0.36
   4  -4  -9  128.93    3.42
   4  -4  -9   -0.21    0.41
   4  -4  -9  127.13    3.63
   4  -4  -9  127.97    3.35
   4  -4  -9  124.96    3.55
   4  -4  -8  326.34    5.44
   4  -4  -8  333.70    3.64
   4  -4  -8  335.89    5.55
   4  -4  -8  321.55    5.48
   4  -4  -8  326.98    5.79
   4  -4  -8  328.41    5.64
   4  -4  -8  343.77    5.92
   4  -4  -7    1.63    0.56
   4  -4  -7    2.37    0.32
   4  -4  -7    1.70    0.54
   4  -4  -7    3.08    0.64
   4  -4  -7    2.70    0.66
   4  -4  -7    1.71    0.52
   4  -4  -7    2.39    0.60
   4  -4  -7    3.86    0.69
   4  -4  -7    4.94    0.78
   4  -4  -7    1.63    0.54
   4  -4  -7    2.25    0.59
   4  -4  -6   41.35    1.93
   4  -4  -6   42.99    1.85
   4  -4  -6   41.40    0.91
   4  -4  -6   42.63    1.89
   4  -4  -6   41.36    1.97
   4  -4  -6   43.97    1.92
   4  -4  -6   43.45    1.85
   4  -4  -6   44.31    1.91
   4  -4  -6   42.70    1.94
   4  -4  -6   44.81    2.07
   4  -4  -6   47.47    2.07
   4  -4  -6   46.82    2.13
   4  -4  -5   54.39    2.01
   4  -4  -5   54.13    2.08
   4  -4  -5   56.09    0.74
   4  -4  -5   52.92    2.08
   4  -4  -5   50.28    0.71
   4  -4  -5   56.57    2.05
   4  -4  -5   52.86    1.93
   4  -4  -5   54.35    2.01
   4  -4  -5   58.12    2.01
   4  -4  -5   61.21    2.12
   4  -4  -5   58.01    2.25
   4  -4  -5   55.26    2.07
   4  -4  -5   59.73    2.12
   4  -4  -5   54.75    2.16
   4  -4  -4    3.81    0.57
   4  -4  -4    4.22    0.60
   4  -4  -4    5.18    0.61
   4  -4  -4    3.77    0.57
   4  -4  -3 2584.00   12.05
   4  -4  -3 2604.94   11.99
  -4   4   2   48.21    1.02
   4  -4  -2   49.38    1.66
   4  -4  -2   52.49    1.66
   4  -4  -2   48.96    1.68
   4  -4  -2   49.54    1.10
   4  -4  -1    0.75    0.22
  -4   4   1    1.24    0.25
   4  -4  -1    1.04    0.25
   4  -4   0   81.62    1.86
  -4   4   0   75.51    1.73
   4  -4   0   79.82    2.17
   4  -4   0   81.53    1.78
   4  -4   0   83.64    1.84
   4  -4   0   80.89    2.17
   4  -4   1  187.38    3.13
  -4   4  -1  179.20    2.98
   4  -4   1  190.63    3.12
   4  -4   1  181.41    3.38
   4  -4   1  193.26    3.07
   4  -4   1  191.28    3.40
   4  -4   2    6.53    0.70
   4  -4   2    7.47    0.72
   4  -4   2    7.92    0.76
   4  -4   2    7.29    0.74
   4  -4   2    6.99    0.70
   4  -4   2    6.42    0.51
   4  -4   2    6.96    0.74
  -4   4  -2    6.11    0.65
   4  -4   2    5.76    0.67
   4  -4   3   89.26    2.55
   4  -4   3   91.64    1.78
   4  -4   3   91.10    2.71
   4  -4   3   92.77    2.59
   4  -4   3   83.70    2.61
   4  -4   3   82.27    2.49
   4  -4   3   90.85    2.54
   4  -4   3   92.23    2.57
   4  -4   3   86.72    2.53
   4  -4   3   98.37    2.27
   4  -4   3   88.67    2.50
   4  -4   3   91.78    2.53
   4  -4   4   28.70    1.59
   4  -4   4   31.64    1.65
   4  -4   4   36.82    1.79
   4  -4   4   31.61    1.65
   4  -4   4   31.86    1.65
   4  -4   4   30.13    1.60
   4  -4   4   29.56    1.59
   4  -4   4   30.24    1.60
  -4   4  -5   33.61    1.78
   4  -4   5   26.78    1.55
   4  -4   5   26.78    1.60
   4  -4   5   28.22    1.60
   4  -4   5   29.63    1.63
   4  -4   5   29.01    1.61
  -4   4  -6   63.04    2.31
   4  -4   6   62.60    2.23
   4  -4   6   59.38    2.32
   4  -4   6   55.33    2.15
  -4   4  -6   64.90    2.35
  -4   4  -6   59.53    2.03
   4  -4   6   62.58    1.93
  -4   4  -7    0.66    0.39
   4  -4   7    0.89    0.44
  -4   4  -7    0.58    0.42
   4  -4   7    0.35    0.35
  -4   4  -7    1.03    0.41
  -4   4  -7    0.37    0.32
   4  -4   7    0.49    0.34
  -4   4  -8    2.98    0.29
   4  -3 -11  100.82    2.68
   4  -3 -11  109.19    1.87
   4  -3 -11  100.90    2.73
   4  -3 -10   82.60    1.96
   4  -3 -10   80.48    2.75
   4  -3 -10   77.97    2.70
   4  -3  -9  156.90    3.74
   4  -3  -9  142.57    3.63
   4  -3  -9  155.98    3.82
   4  -3  -9  148.66    3.86
   4  -3  -9  150.19    3.90
   4  -3  -8  595.24    7.32
   4  -3  -8  596.23    5.09
   4  -3  -8  577.86    7.64
   4  -3  -8  596.55    7.31
   4  -3  -8  558.21    7.12
   4  -3  -8  551.12    7.26
   4  -3  -8  564.19    7.36
   4  -3  -8  570.37    7.10
   4  -3  -8  581.43    7.68
   4  -3  -7   84.06    2.69
   4  -3  -7   81.96    1.61
   4  -3  -7   77.01    2.60
   4  -3  -7   82.03    2.66
   4  -3  -7   85.42    2.83
   4  -3  -7   85.88    2.67
   4  -3  -7   81.95    2.58
   4  -3  -7   77.78    2.66
   4  -3  -7   79.18    2.65
   4  -3  -7   87.27    2.85
   4  -3  -7   83.92    2.84
   4  -3  -6   98.13    2.68
   4  -3  -6  107.11    1.41
   4  -3  -6  101.97    2.75
   4  -3  -6  103.02    2.78
   4  -3  -6   97.75    2.63
   4  -3  -6  101.70    2.77
   4  -3  -6  100.59    2.70
   4  -3  -6   99.54    2.80
   4  -3  -6  101.38    2.91
   4  -3  -6  102.61    2.87
   4  -3  -6   97.36    2.84
   4  -3  -6   99.48    2.91
   4  -3  -5  111.27    2.65
   4  -3  -5  108.54    2.67
   4  -3  -5  106.90    2.58
   4  -3  -5  114.17    2.76
   4  -3  -4  235.87    3.59
   4  -3  -4  222.14    3.43
  -4   3   3   67.84    0.76
   4  -3  -3   69.66    1.87
   4  -3  -2   24.38    0.70
   4  -3  -2   22.15    0.56
   4  -3  -2   23.38    1.06
   4  -3  -1   28.20    0.90
  -4   3   1   26.69    0.83
   4  -3  -1   28.81    1.17
   4  -3  -1   28.62    0.91
   4  -3  -1   30.50    0.93
   4  -3  -1   28.04    1.15
   4  -3   0   19.45    0.86
  -4   3   0   17.34    0.79
   4  -3   0   18.50    0.97
   4  -3   0   19.85    0.89
   4  -3   0   20.51    0.90
   4  -3   0   18.64    0.96
   4  -3   1    8.30    0.65
  -4   3  -1    7.55    0.61
   4  -3   1    8.68    0.73
   4  -3   1    8.06    0.68
   4  -3   1    7.69    0.65
   4  -3   1    7.01    0.47
   4  -3   1    8.26    0.69
   4  -3   2  106.47    2.49
   4  -3   2  103.88    2.45
   4  -3   2  107.63    2.49
  -4   3  -2  107.28    2.49
  -4   3  -3  156.06    2.80
   4  -3   3  148.96    3.28
   4  -3   3  161.40    2.26
   4  -3   3  150.82    3.41
   4  -3   3  153.92    3.59
   4  -3   3  151.54    3.27
   4  -3   3  156.21    3.24
   4  -3   3  160.21    3.01
   4  -3   3  165.69    3.10
   4  -3   3  161.29    3.35
   4  -3   3  153.31    3.13
   4  -3   4   93.25    2.78
   4  -3   4   92.49    2.88
   4  -3   4   91.40    2.72
   4  -3   4   89.28    2.68
   4  -3   4   96.34    2.77
   4  -3   4   97.53    2.55
  -4   3  -5   92.10    2.90
  -4   3  -5  109.37    3.13
   4  -3   5   93.97    2.85
   4  -3   5   99.54    2.97
   4  -3   5   94.83    2.87
   4  -3   5   97.03    2.95
   4  -3   5   93.87    2.93
   4  -3   5  102.18    2.70
  -4   3  -5  102.59    2.97
  -4   3  -6   23.56    1.53
  -4   3  -6   28.94    1.59
   4  -3   6   21.98    1.37
   4  -3   6   23.87    1.52
   4  -3   6   25.74    1.53
   4  -3   6   24.43    1.44
  -4   3  -6   24.56    1.50
  -4   3  -6   27.18    1.37
   4  -3   6   23.05    1.46
  -4   3  -7    0.05    0.32
   4  -3   7   11.76    0.96
  -4   3  -7   -0.06    0.26
  -4   3  -7   13.39    1.07
  -4   3  -7   12.58    0.79
   4  -3   7   10.61    0.98
  -4   3  -8   36.04    1.14
   4  -3   8   34.87    1.07
   4  -2 -11   69.17    1.74
   4  -2 -11   67.02    2.32
   4  -2 -10   19.59    1.07
   4  -2 -10   18.01    1.34
   4  -2 -10   19.15    1.38
   4  -2 -10   22.09    1.49
   4  -2  -9  301.94    5.23
   4  -2  -9  291.48    5.14
   4  -2  -9  305.09    5.25
   4  -2  -9  298.00    5.30
   4  -2  -9  301.96    5.47
   4  -2  -8   92.63    2.76
   4  -2  -8   81.90    2.63
   4  -2  -8  105.19    2.31
   4  -2  -8   94.69    2.91
   4  -2  -8   98.86    3.08
   4  -2  -8   85.95    2.75
   4  -2  -8   86.87    2.80
   4  -2  -8   99.58    3.00
   4  -2  -8   93.46    3.01
   4  -2  -7  142.08    3.23
   4  -2  -7  144.42    3.25
   4  -2  -7  148.39    2.35
   4  -2  -7  143.73    3.44
   4  -2  -7  138.73    3.46
   4  -2  -7  146.25    3.32
   4  -2  -7  145.48    3.44
   4  -2  -7  138.85    3.29
   4  -2  -7  139.85    3.41
   4  -2  -7  143.21    3.54
   4  -2  -7  149.95    3.59
   4  -2  -6  245.84    2.52
   4  -2  -6  225.79    4.12
  -4   2   6  208.82    2.32
   4  -2  -6  233.56    4.07
   4  -2  -6  226.92    3.91
   4  -2  -6  226.19    4.06
   4  -2  -6  227.68    3.80
   4  -2  -5  305.07    4.08
  -4   2   5  298.36    2.19
   4  -2  -5  312.73    4.23
   4  -2  -5  313.98    4.42
  -4   2   4  184.62    1.46
   4  -2  -4  184.82    2.99
   4  -2  -3  435.57    4.53
  -4   2   3  432.96    2.37
  -4   2   2   18.98    0.76
  -4   2   2   18.94    0.60
   4  -2  -2   19.04    0.62
   4  -2  -2   19.01    0.65
   4  -2  -2   19.58    0.62
   4  -2  -1 1333.52    6.11
   4  -2  -1 1344.29    6.21
  -4   2   0    3.96    0.41
   4  -2   0    2.90    0.38
   4  -2   0    3.24    0.39
   4  -2   0    3.55    0.42
   4  -2   0    2.68    0.26
   4  -2   0    3.62    0.31
   4  -2   0    3.33    0.41
   4  -2   1  205.31    3.03
  -4   2  -1  204.75    3.00
   4  -2   1  211.22    3.12
   4  -2   1  199.51    2.90
   4  -2   1  205.13    3.02
   4  -2   2   73.75    2.03
   4  -2   2   73.62    2.01
   4  -2   2   76.41    1.92
   4  -2   3  106.23    2.97
  -4   2  -3   97.81    2.64
   4  -2   3  102.42    2.79
   4  -2   3  104.17    2.63
   4  -2   3  101.12    2.62
   4  -2   3   98.27    2.64
  -4   2  -3  103.80    2.24
   4  -2   4  332.30    5.35
  -4   2  -4  317.58    5.03
  -4   2  -4  294.80    4.89
   4  -2   4  303.62    4.97
   4  -2   4  314.87    5.37
   4  -2   4  332.48    5.26
   4  -2   4  301.29    4.93
   4  -2   4  300.30    4.84
   4  -2   4  317.15    4.78
   4  -2   5  573.85    7.25
  -4   2  -5  555.43    7.03
   4  -2   5  545.49    6.75
   4  -2   5  563.57    7.02
   4  -2   5  558.95    7.04
   4  -2   5  594.22    6.69
  -4   2  -5  573.57    6.43
  -4   2  -5  547.06    6.90
  -4   2  -6   46.24    2.09
   4  -2   6   51.77    1.95
   4  -2   6   46.63    1.95
   4  -2   6   48.52    2.05
   4  -2   6   43.29    1.99
   4  -2   6   47.44    2.12
  -4   2  -6   50.08    2.07
  -4   2  -6   50.55    1.76
   4  -2   7   18.00    1.15
  -4   2  -7   17.41    0.94
   4  -2   7   18.39    1.17
  -4   2  -7   15.97    1.14
  -4   2  -7   16.22    0.74
  -4   2  -8    3.38    0.34
   4  -1 -11  100.31    2.05
   4  -1 -11   92.85    2.18
   4  -1 -11  101.67    2.76
   4  -1 -11   94.75    2.77
   4  -1 -10   16.97    1.05
   4  -1 -10   -0.12    0.35
   4  -1 -10    0.20    0.35
   4  -1 -10   15.93    1.21
   4  -1 -10   17.02    1.26
   4  -1 -10   14.18    1.22
   4  -1  -9   16.56    1.28
   4  -1  -9   16.10    1.02
   4  -1  -9   13.93    1.19
   4  -1  -9   16.27    1.25
   4  -1  -9   16.45    1.26
   4  -1  -9   15.33    1.23
   4  -1  -9   16.68    1.33
   4  -1  -8  195.43    4.08
   4  -1  -8  198.20    4.12
   4  -1  -8  189.78    4.11
   4  -1  -8  208.60    4.14
   4  -1  -8  200.20    4.19
   4  -1  -8  216.32    3.40
   4  -1  -8  202.17    4.13
   4  -1  -8  203.22    4.36
   4  -1  -7  203.13    3.91
   4  -1  -7  197.82    3.57
   4  -1  -7  212.78    3.07
   4  -1  -7  193.95    3.94
   4  -1  -7  195.09    3.89
   4  -1  -7  199.62    3.74
   4  -1  -7  196.90    3.97
   4  -1  -7  198.63    3.92
   4  -1  -7  201.73    4.12
   4  -1  -7  204.42    1.97
   4  -1  -6 1787.65    9.96
  -4   1   6 1775.90    7.65
   4  -1  -6 1847.68   11.39
   4  -1  -6 1902.79   11.13
   4  -1  -6 1885.81    7.55
   4  -1  -6 1814.21   11.09
  -4   1   5 1054.19    5.19
   4  -1  -5 1042.11    8.02
   4  -1  -4  249.97    2.38
   4  -1  -4  243.28    1.95
   4  -1  -4  251.79    3.42
  -4   1   4  243.40    2.29
   4  -1  -4  246.01    3.39
   4  -1  -3  997.77    4.76
   4  -1  -3  995.54    4.48
   4  -1  -3  989.81    4.56
   4  -1  -2 1013.52    5.05
  -4   1   2 1003.59    4.93
   4  -1  -2 1016.07    5.17
   4  -1  -2  998.99    5.16
   4  -1  -1  172.87    2.33
   4  -1  -1  169.48    2.36
   4  -1  -1  172.39    2.37
  -4   1   1  169.46    2.26
  -4   1   0    1.44    0.30
   4  -1   0    1.78    0.34
   4  -1   0    1.40    0.32
   4  -1   0    1.46    0.28
   4  -1   0    1.90    0.35
   4  -1   1  328.08    3.94
   4  -1   1  333.52    3.95
   4  -1   1  326.35    3.97
   4  -1   2  119.13    2.62
  -4   1  -2  126.08    2.77
   4  -1   2  119.40    2.65
   4  -1   2  121.59    2.62
  -4   1  -2  124.85    2.37
  -4   1  -3  171.14    2.82
   4  -1   3  179.48    4.01
  -4   1  -3  167.73    3.48
   4  -1   3  163.59    3.54
   4  -1   3  169.73    3.43
   4  -1   3  179.12    4.01
   4  -1   3  168.59    3.53
   4  -1   3  168.74    3.38
   4  -1   3  176.74    2.41
   4  -1   4  146.57    3.72
  -4   1  -4  138.60    3.39
   4  -1   4  134.93    3.33
   4  -1   4  143.97    3.71
   4  -1   4  142.11    3.46
   4  -1   4  133.91    3.29
   4  -1   4  151.30    2.30
   4  -1   4  139.43    3.28
  -4   1  -4  132.70    3.34
   4  -1   5   11.54    1.08
  -4   1  -5    6.27    0.85
  -4   1  -5    9.41    1.01
   4  -1   5   10.41    1.01
   4  -1   5    8.12    0.96
   4  -1   5    7.71    0.90
   4  -1   5    8.15    0.89
  -4   1  -5    9.45    0.86
  -4   1  -5    8.38    0.94
   4  -1   6    0.25    0.41
  -4   1  -6    0.08    0.43
   4  -1   6    0.55    0.42
   4  -1   6    0.58    0.49
   4  -1   6    0.38    0.38
  -4   1  -6    0.11    0.33
   4  -1   7   34.86    1.61
   4  -1   7   35.69    1.52
  -4   1  -7   34.97    1.58
  -4   1  -7   36.89    1.06
  -4   1  -7   37.03    1.42
   4  -1   7   38.08    1.54
  -4   1  -7   38.46    1.66
   4   0 -11   46.40    1.37
   4   0 -11   46.41    1.82
   4   0 -11   45.10    1.89
   4   0 -10  121.49    3.27
   4   0 -10  132.17    3.42
   4   0 -10  122.35    3.15
   4   0 -10  122.87    3.17
   4   0 -10  125.64    3.37
   4   0  -9  131.70    3.47
   4   0  -9  143.52    3.62
   4   0  -9  134.00    3.31
   4   0  -9  144.31    3.58
   4   0  -9  133.90    3.37
   4   0  -9  126.80    3.47
   4   0  -9  132.43    1.99
   4   0  -8  299.10    5.06
   4   0  -8  297.66    5.16
   4   0  -8  323.74    5.01
   4   0  -8  314.48    5.23
   4   0  -8  308.74    5.01
   4   0  -8  313.18    5.32
   4   0  -8  311.53    3.45
   4   0  -7  121.24    3.07
   4   0  -7  118.37    2.48
   4   0  -7  113.04    1.42
   4   0  -7  113.38    3.06
   4   0  -7  114.62    3.05
   4   0  -7  117.51    1.91
   4   0  -7  118.68    2.99
   4   0  -7  112.70    3.10
   4   0  -7  119.93    2.16
   4   0  -6 1308.76    6.25
   4   0  -6 1287.88    7.32
   4   0  -6 1284.87    9.72
   4   0  -6 1289.80    9.40
   4   0  -5  370.70    3.67
  -4   0   5  371.92    3.64
   4   0  -5  374.35    3.30
   4   0  -5  379.74    4.64
   4   0  -5  369.57    4.81
   4   0  -4 4324.80   12.00
   4   0  -4 4305.81   11.21
  -4   0   4 4283.66   11.69
   4   0  -4 4290.27   11.54
   4   0  -4 4264.14   14.14
   4   0  -3  294.03    3.16
   4   0  -3  296.06    3.00
  -4   0   3  303.95    3.06
   4   0  -3  296.70    3.08
   4   0  -2    8.75    0.57
  -4   0   2    8.78    0.57
   4   0  -2    7.94    0.44
   4   0  -2    8.72    0.43
   4   0  -2    7.61    0.55
   4   0  -2    8.10    0.57
   4   0  -1  824.60    5.67
   4   0  -1  814.67    5.58
   4   0  -1  818.71    5.70
  -4   0   1  807.11    5.52
   4   0   0  885.98    6.32
   4   0   0  899.07    6.42
   4   0   0  889.24    6.31
  -4   0  -1  313.34    4.18
   4   0   1  323.62    4.11
   4   0   1  321.98    4.15
   4   0   1  327.35    4.18
  -4   0  -2   53.94    1.89
   4   0   2   54.46    1.86
  -4   0  -2   54.58    1.58
  -4   0  -3   31.57    1.57
   4   0   3   30.55    1.60
   4   0   3   30.65    1.60
   4   0   3   27.07    1.43
  -4   0  -3   31.02    1.15
   4   0   4  254.92    5.06
  -4   0  -4  250.64    4.67
   4   0   4  232.27    4.43
   4   0   4  237.56    4.83
   4   0   4  237.78    4.49
  -4   0  -4  253.55    4.20
  -4   0  -4  229.08    4.41
   4   0   5   96.01    3.04
  -4   0  -5   87.76    2.85
   4   0   5   90.16    2.77
   4   0   5   92.37    2.97
   4   0   5   93.80    1.81
  -4   0  -5   96.29    2.43
  -4   0  -5   88.68    2.75
   4   0   6    0.80    0.51
  -4   0  -6    0.10    0.41
   4   0   6    0.60    0.42
  -4   0  -6    0.06    0.42
  -4   0  -6    0.38    0.34
   4   0   6    0.46    0.45
  -4   0  -6    0.35    0.42
   4   0   6    0.52    0.43
  -4   0  -6    0.59    0.28
   4   0   7    2.71    0.53
   4   0   7    3.06    0.52
  -4   0  -7    2.86    0.51
  -4   0  -7    2.72    0.38
   4   0   7    3.35    0.59
   4   0   7    2.70    0.52
  -4   0  -7    2.96    0.56
   4   1 -11   93.23    1.83
   4   1 -11   94.95    2.64
   4   1 -10   90.51    2.82
   4   1 -10   85.08    1.94
   4   1 -10   92.93    2.85
   4   1 -10   83.11    2.72
   4   1 -10   90.72    1.68
   4   1  -9  485.79    6.62
   4   1  -9  506.72    4.94
   4   1  -9  498.07    6.78
   4   1  -9  489.52    6.69
   4   1  -9  493.42    4.90
   4   1  -8   64.02    2.36
   4   1  -8   65.17    1.49
   4   1  -8   64.78    1.79
   4   1  -8   62.96    2.42
   4   1  -8   68.38    2.49
   4   1  -8   70.58    2.35
   4   1  -8   64.69    2.46
   4   1  -8   66.68    1.91
   4   1  -7 1249.50    9.84
   4   1  -7 1283.33    7.61
   4   1  -7 1261.31    7.19
   4   1  -7 1277.43    7.79
   4   1  -7 1312.28   10.53
   4   1  -7 1313.59    8.01
   4   1  -7 1280.81    9.76
   4   1  -7 1248.08   10.39
   4   1  -7 1282.83    8.28
   4   1  -6  480.11    5.69
   4   1  -6  483.57    4.51
   4   1  -6  484.24    4.62
   4   1  -6  479.28    6.14
   4   1  -6  487.29    4.74
   4   1  -6  497.32    5.86
   4   1  -6  487.29    6.21
   4   1  -5  242.05    3.42
   4   1  -5  247.03    3.23
  -4  -1   5  241.61    3.37
   4   1  -5  242.33    3.25
   4   1  -5  246.18    4.00
   4   1  -4  136.30    2.51
   4   1  -4   41.11    0.49
  -4  -1   4  143.86    2.47
   4   1  -4  136.03    2.40
   4   1  -4  139.29    2.47
   4   1  -4  133.28    2.90
   4   1  -4   50.94    0.53
   4   1  -3    2.12    0.38
   4   1  -3    2.05    0.37
   4   1  -3    1.92    0.30
   4   1  -3    1.61    0.25
   4   1  -3    2.01    0.37
   4   1  -2    9.60    0.60
   4   1  -2    8.60    0.65
  -4  -1   2   10.53    0.70
   4   1  -2    9.52    0.70
   4   1  -2    9.53    0.68
   4   1  -1  321.28    3.87
   4   1  -1  322.74    3.96
   4   1  -1  318.14    3.93
  -4  -1   0  118.61    2.58
   4   1   0  117.92    2.53
   4   1   0  121.82    2.54
   4   1   0  120.98    2.58
   4   1   1  352.76    4.88
   4   1   1  349.54    4.61
  -4  -1  -1  355.67    4.00
   4   1   1  342.04    4.60
   4   1   2   67.23    2.15
  -4  -1  -2   58.98    2.06
   4   1   2   64.98    2.31
   4   1   2   63.72    2.15
   4   1   2   61.49    2.19
  -4  -1  -2   65.49    1.66
   4   1   2   60.51    2.08
  -4  -1  -3  572.19    6.81
   4   1   3  577.83    7.01
  -4  -1  -3  585.36    6.97
   4   1   3  590.71    6.94
  -4  -1  -3  598.05    6.45
  -4  -1  -3  583.36    6.91
  -4  -1  -4   98.91    2.98
   4   1   4  106.13    3.05
  -4  -1  -4   99.89    3.03
  -4  -1  -4   99.82    2.54
  -4  -1  -4  101.89    2.97
  -4  -1  -4  103.35    2.92
  -4  -1  -4  110.19    3.15
   4   1   5   23.74    1.56
  -4  -1  -5   25.48    1.58
   4   1   5   27.24    1.52
  -4  -1  -5   26.29    1.29
  -4  -1  -5   27.53    1.15
  -4  -1  -5   27.59    1.55
  -4  -1  -5   29.82    1.56
   4   1   5   26.93    1.61
   4   1   6   19.77    1.32
   4   1   6   18.98    1.19
  -4  -1  -6   20.70    1.25
   4   1   6   21.57    1.37
  -4  -1  -6   22.88    1.11
  -4  -1  -6   20.14    1.25
   4   2 -11    0.55    0.39
   4   2 -11    0.03    0.28
   4   2 -11    0.24    0.20
  -4  -2  11    0.62    0.34
   4   2 -11   -0.01    0.35
   4   2 -10   54.37    2.16
   4   2 -10   50.62    1.42
   4   2 -10   51.20    2.09
   4   2 -10   49.65    2.04
   4   2 -10   53.50    1.59
   4   2  -9   66.55    2.41
   4   2  -9   69.38    1.78
   4   2  -9   66.84    1.56
   4   2  -9   73.12    2.54
   4   2  -9   69.63    2.53
   4   2  -9   66.54    2.47
   4   2  -9   68.64    2.04
   4   2  -8    1.03    0.36
   4   2  -8    1.66    0.56
   4   2  -8    2.09    0.42
   4   2  -8    2.34    0.49
   4   2  -8    1.94    0.42
   4   2  -8    1.08    0.38
   4   2  -8    4.15    0.74
   4   2  -8    2.17    0.55
   4   2  -8    1.82    0.55
   4   2  -8    3.81    0.60
   4   2  -7   29.59    0.93
   4   2  -7   27.56    1.49
   4   2  -7   30.39    1.20
   4   2  -7   27.02    1.24
   4   2  -7   25.92    1.29
   4   2  -7   28.29    1.61
   4   2  -7   30.19    1.68
   4   2  -7   27.43    1.30
   4   2  -7   27.94    1.34
   4   2  -7   31.81    1.73
   4   2  -7   25.38    1.34
   4   2  -6    1.23    0.45
   4   2  -6    1.79    0.46
   4   2  -6    1.00    0.33
   4   2  -6    1.11    0.37
   4   2  -6    1.94    0.28
   4   2  -6    1.65    0.41
   4   2  -6    1.37    0.35
   4   2  -6    1.78    0.48
   4   2  -6    2.48    0.51
   4   2  -6    1.40    0.47
   4   2  -6    2.14    0.45
   4   2  -6    1.40    0.42
   4   2  -6    2.23    0.27
   4   2  -6    2.57    0.60
   4   2  -5  300.97    4.07
   4   2  -5  305.79    4.11
   4   2  -5  300.40    4.18
   4   2  -5  311.62    4.95
   4   2  -5  311.84    4.19
   4   2  -5  313.59    4.65
   4   2  -5  299.13    4.88
   4   2  -4  727.02    6.54
   4   2  -4  755.37    6.31
  -4  -2   4  774.98    6.64
   4   2  -4  770.17    4.86
   4   2  -4  731.19    7.37
   4   2  -4  750.67    6.47
   4   2  -3   57.96    1.85
   4   2  -3   54.79    1.73
  -4  -2   3   55.50    1.80
   4   2  -3   59.51    1.52
   4   2  -3   51.46    1.72
   4   2  -2  175.60    3.10
   4   2  -2  180.39    2.87
   4   2  -2  173.16    3.14
   4   2  -2  177.06    3.24
   4   2  -1 1142.39    9.35
   4   2  -1 1127.72    8.07
  -4  -2   1 1146.88    7.32
   4   2  -1 1125.02    8.18
   4   2  -1 1125.91    8.34
   4   2   0   47.45    1.94
  -4  -2   0   48.58    1.81
   4   2   0   46.88    1.75
  -4  -2   0   47.55    1.50
   4   2   0   47.22    1.77
   4   2   1   31.85    1.59
  -4  -2  -1   30.77    1.53
   4   2   1   30.61    1.60
   4   2   1   31.56    1.59
  -4  -2  -1   35.00    1.23
   4   2   1   32.49    1.57
  -4  -2  -1   29.78    1.55
   4   2   2   35.34    1.67
  -4  -2  -2   32.01    1.64
   4   2   2   32.57    1.72
  -4  -2  -2   32.25    1.68
   4   2   2   36.25    1.75
  -4  -2  -2   37.98    1.66
  -4  -2  -2   33.56    1.70
  -4  -2  -3  107.85    3.10
   4   2   3  108.25    3.16
  -4  -2  -3  102.14    3.05
  -4  -2  -3  110.09    2.70
  -4  -2  -3  100.00    2.94
  -4  -2  -3  102.18    3.19
   4   2   4  168.90    4.07
  -4  -2  -4  163.30    3.88
   4   2   4  163.38    3.73
  -4  -2  -4  179.59    3.50
   4   2   4  158.99    3.80
  -4  -2  -4  163.04    2.85
  -4  -2  -4  167.87    3.74
  -4  -2  -4  178.66    3.98
  -4  -2  -4  175.02    3.97
   4   2   5   99.19    2.98
   4   2   5   97.33    2.73
  -4  -2  -5   97.85    2.73
  -4  -2  -5   94.63    1.77
   4   2   5  102.51    2.92
  -4  -2  -5   93.95    2.68
  -4  -2  -5   97.29    2.79
  -4  -2  -5  104.20    2.82
   4   2   6   17.96    1.18
   4   2   6   14.22    0.96
  -4  -2  -6   15.51    0.95
   4   2   6   15.10    1.04
   4   2   6   15.36    1.01
  -4  -2  -6   17.70    1.04
   4   3 -11   86.41    2.29
   4   3 -11   66.56    1.08
   4   3 -10   40.74    1.75
   4   3 -10   34.59    0.94
   4   3 -10   36.71    0.95
   4   3 -10   43.56    1.87
  -4  -3  10   38.45    1.48
   4   3 -10   44.77    1.53
   4   3  -9   15.37    1.16
   4   3  -9   14.92    0.76
   4   3  -9   16.03    1.26
   4   3  -9   15.71    0.88
   4   3  -9   14.53    0.91
  -4  -3   9   15.68    1.03
   4   3  -9   17.99    1.28
   4   3  -9   13.44    1.14
   4   3  -9   16.31    1.08
   4   3  -8  101.89    2.88
   4   3  -8  107.43    2.08
   4   3  -8  104.10    2.50
   4   3  -8  104.85    2.75
   4   3  -8  104.72    1.37
   4   3  -8  105.57    3.12
   4   3  -8  103.88    2.58
  -4  -3   8  108.74    2.66
   4   3  -8  116.20    3.27
   4   3  -8  110.22    2.84
   4   3  -8  100.52    3.02
   4   3  -8  110.03    2.90
   4   3  -7  632.59    6.91
   4   3  -7  680.51    5.30
   4   3  -7  647.09    6.49
   4   3  -7  643.09    6.66
   4   3  -7  648.18    6.87
   4   3  -7  709.80    5.69
   4   3  -7  678.44    7.80
   4   3  -7  709.86    8.09
   4   3  -7  642.66    6.87
   4   3  -7  679.98    7.86
   4   3  -6   26.18    1.06
   4   3  -6   28.84    1.43
   4   3  -6   26.62    1.41
   4   3  -6   30.47    1.35
   4   3  -6   27.28    1.59
   4   3  -6   29.26    1.48
  -4  -3   6   31.93    1.52
   4   3  -6   26.70    0.70
   4   3  -6   30.61    1.71
   4   3  -6   27.68    1.44
   4   3  -5  102.06    2.01
   4   3  -5  102.26    2.00
   4   3  -5   96.48    2.57
   4   3  -5  101.29    2.66
   4   3  -5  101.09    2.88
   4   3  -5   93.00    1.86
  -4  -3   5   99.16    2.46
   4   3  -5   97.13    1.99
   4   3  -5  102.50    3.00
   4   3  -5   95.85    2.60
   4   3  -5   98.05    2.65
   4   3  -5  101.09    2.55
   4   3  -4    6.08    0.52
   4   3  -4    6.10    0.71
   4   3  -4    5.20    0.68
   4   3  -4    6.77    0.77
   4   3  -4    5.45    0.55
   4   3  -4    8.71    0.84
  -4  -3   4    7.48    0.70
   4   3  -4    4.87    0.54
   4   3  -4    5.73    0.77
   4   3  -4    4.67    0.66
   4   3  -3  277.33    4.83
   4   3  -3  261.80    2.88
   4   3  -3  268.68    4.26
   4   3  -3  256.94    3.67
   4   3  -3  268.92    4.39
  -4  -3   3  269.93    3.78
   4   3  -3  272.80    3.87
   4   3  -3  259.79    4.21
   4   3  -3  268.21    4.66
   4   3  -2 1544.60   11.56
  -4  -3   2 1557.38   10.54
   4   3  -2 1628.14   11.16
   4   3  -2 1622.18   10.52
   4   3  -2 1603.79   10.79
  -4  -3   2 1579.68    8.90
   4   3  -2 1620.34    9.90
   4   3  -2 1572.79   10.40
   4   3  -1   17.49    1.29
  -4  -3   1   14.96    1.09
   4   3  -1   16.89    1.23
   4   3  -1   15.32    1.10
   4   3  -1   15.71    1.14
  -4  -3   1   18.86    0.97
   4   3  -1   16.33    1.10
   4   3  -1   14.16    1.06
   4   3   0  451.40    6.31
  -4  -3   0  438.38    5.85
   4   3   0  447.24    6.17
  -4  -3   0  456.05    4.26
   4   3   0  445.59    6.02
   4   3   0  440.33    5.86
  -4  -3   0  430.25    5.93
   4   3   1  609.87    7.40
   4   3   1  619.06    7.29
  -4  -3  -1  613.88    7.18
   4   3   1  633.68    7.48
   4   3   1  625.60    7.27
  -4  -3  -1  636.41    6.73
  -4  -3  -1  609.17    7.17
   4   3   2  382.05    6.00
   4   3   2  385.15    5.61
  -4  -3  -2  387.92    5.85
   4   3   2  395.12    6.01
  -4  -3  -2  379.01    5.88
  -4  -3  -2  389.10    5.03
  -4  -3  -2  375.40    5.67
  -4  -3  -2  377.99    6.21
   4   3   3  221.11    4.52
  -4  -3  -3  217.92    4.48
   4   3   3  216.88    4.42
  -4  -3  -3  220.89    3.29
  -4  -3  -3  219.05    4.26
  -4  -3  -3  220.94    4.63
   4   3   4   71.50    2.52
   4   3   4   72.86    2.44
  -4  -3  -4   76.65    2.43
  -4  -3  -4   70.60    2.34
  -4  -3  -4   71.02    1.65
  -4  -3  -4   74.86    2.41
  -4  -3  -4   78.65    2.66
  -4  -3  -4   75.08    2.56
   4   3   5   33.31    1.60
   4   3   5   36.59    1.56
  -4  -3  -5   33.96    1.44
  -4  -3  -5   37.12    1.52
  -4  -3  -5   37.22    1.62
   4   4 -10    0.76    0.36
   4   4 -10    0.15    0.12
   4   4 -10    0.83    0.41
  -4  -4  10    0.55    0.27
   4   4  -9   25.09    1.33
   4   4  -9   24.02    1.13
   4   4  -9   25.55    1.48
   4   4  -9   25.36    1.21
  -4  -4   9   23.34    1.13
   4   4  -9   24.59    1.33
   4   4  -8  273.15    4.14
   4   4  -8  298.78    3.01
   4   4  -8  285.94    4.99
   4   4  -8  277.71    4.33
  -4  -4   8  278.09    3.99
   4   4  -8  304.47    5.16
   4   4  -8  269.08    4.54
   4   4  -7    2.56    0.34
   4   4  -7    6.15    0.52
   4   4  -7    4.24    0.66
   4   4  -7    3.85    0.68
   4   4  -7    5.70    0.64
   4   4  -7    4.12    0.72
   4   4  -7    3.94    0.66
  -4  -4   7    4.22    0.58
   4   4  -7    4.97    0.76
   4   4  -7    4.38    0.68
   4   4  -6   51.49    2.01
   4   4  -6   52.91    2.12
   4   4  -6   54.21    1.93
   4   4  -6   53.56    2.19
   4   4  -6   48.26    1.99
  -4  -4   6   47.87    1.71
   4   4  -6   49.57    1.28
   4   4  -6   56.78    2.33
   4   4  -6   51.09    2.08
   4   4  -5  388.37    5.59
   4   4  -5  377.39    5.61
   4   4  -5  387.17    5.70
   4   4  -5  390.23    5.63
  -4  -4   5  386.43    4.70
   4   4  -5  395.62    4.37
   4   4  -5  405.53    6.14
   4   4  -5  394.99    5.75
   4   4  -4  113.25    3.16
   4   4  -4  102.45    2.89
   4   4  -4  101.15    2.90
   4   4  -4  104.05    2.95
  -4  -4   4  100.66    2.34
   4   4  -4  103.40    2.47
   4   4  -4  109.05    3.16
   4   4  -4   97.75    2.85
   4   4  -3  799.21    8.60
  -4  -4   3  799.76    8.19
   4   4  -3  799.74    8.10
   4   4  -3  794.09    8.06
  -4  -4   3  776.69    6.22
   4   4  -3  803.88    7.21
   4   4  -3  774.63    8.02
   4   4  -3  790.36    8.38
   4   4  -2  617.54    7.60
  -4  -4   2  612.82    7.22
   4   4  -2  649.00    7.52
   4   4  -2  616.85    7.25
   4   4  -2  622.51    7.26
  -4  -4   2  623.96    5.21
   4   4  -2  647.44    6.73
   4   4  -2  594.78    7.08
   4   4  -2  621.76    7.23
   4   4  -1    3.04    0.69
   4   4  -1    2.27    0.58
  -4  -4   1    3.85    0.69
   4   4  -1    3.93    0.76
   4   4  -1    3.86    0.70
  -4  -4   1    3.16    0.37
   4   4  -1    2.98    0.62
  -4  -4   1    4.24    0.70
  -4  -4   1    3.17    0.66
   4   4   0  686.05    8.03
  -4  -4   0  722.94    7.97
   4   4   0  731.73    8.20
   4   4   0  709.14    7.95
  -4  -4   0  750.64    7.30
  -4  -4   0  707.88    7.83
   4   4   1  190.04    4.07
  -4  -4  -1  191.04    4.19
   4   4   1  192.56    4.21
  -4  -4  -1  190.02    4.23
  -4  -4  -1  189.39    3.42
  -4  -4  -1  191.10    4.06
  -4  -4  -1  185.80    4.27
   4   4   2   92.86    2.75
  -4  -4  -2  105.79    3.15
   4   4   2  102.93    3.04
  -4  -4  -2   97.25    2.86
  -4  -4  -2  113.49    2.78
  -4  -4  -2   99.08    2.11
  -4  -4  -2   92.93    2.78
  -4  -4  -2   93.88    3.03
  -4  -4  -2   95.74    2.64
  -4  -4  -3   24.07    0.92
   4   4   3   27.77    1.60
  -4  -4  -3   26.94    1.44
  -4  -4  -3   23.54    1.38
  -4  -4  -3   22.88    1.37
  -4  -4  -3   23.19    1.48
  -4  -4  -3   24.57    1.53
   4   4   4   69.79    2.17
  -4  -4  -4   66.79    1.98
  -4  -4  -4   69.47    2.05
  -4  -4  -4   68.82    2.28
   4   5  -9   20.86    1.23
   4   5  -9   18.51    0.98
  -4  -5   9   18.67    0.77
   4   5  -9   20.08    1.16
   4   5  -9   20.36    0.98
   4   5  -8    4.38    0.61
   4   5  -8    4.57    0.42
   4   5  -8    3.86    0.67
  -4  -5   8    4.80    0.51
   4   5  -8    4.09    0.67
   4   5  -7   73.38    2.32
   4   5  -7   80.00    2.09
   4   5  -7   77.61    2.52
   4   5  -7   75.21    2.41
  -4  -5   7   77.02    1.87
   4   5  -7   75.15    2.56
   4   5  -6   96.02    2.76
   4   5  -6  100.00    2.63
   4   5  -6   93.47    2.78
   4   5  -6   89.11    2.69
   4   5  -6   97.54    1.73
   4   5  -6   97.93    2.97
   4   5  -6   94.83    2.95
  -4  -5   6   95.03    2.09
   4   5  -5  245.88    4.56
   4   5  -5  245.01    4.47
   4   5  -5  242.56    4.58
  -4  -5   5  255.49    3.31
   4   5  -5  262.10    3.61
   4   5  -5  248.74    4.79
   4   5  -5  262.63    4.91
   4   5  -4   83.60    2.81
   4   5  -4   85.32    2.61
   4   5  -4   90.63    2.85
  -4  -5   4   89.25    1.84
   4   5  -4   93.78    2.39
   4   5  -4   90.20    2.91
   4   5  -4   91.51    2.89
   4   5  -3    0.63    0.42
  -4  -5   3    1.14    0.53
   4   5  -3    1.35    0.52
   4   5  -3   -0.09    0.39
   4   5  -3    0.59    0.47
   4   5  -3    1.29    0.54
   4   5  -3    1.41    0.49
  -4  -5   3    0.96    0.50
   4   5  -2   36.76    1.90
  -4  -5   2   35.66    1.85
  -4  -5   2   35.11    1.84
   4   5  -2   39.36    1.94
   4   5  -2   36.41    1.83
   4   5  -2   37.55    1.67
   4   5  -2   35.22    1.85
   4   5  -2   33.29    1.72
  -4  -5   2   36.17    1.68
  -4  -5   1   17.74    1.32
   4   5  -1   19.09    1.37
   4   5  -1   13.93    1.22
   4   5  -1   16.15    1.16
  -4  -5   1   18.25    1.15
  -4  -5   1   17.02    1.27
   4   5   0  140.06    3.57
  -4  -5   0  144.75    3.68
   4   5   0  138.97    3.50
   4   5   0  146.30    3.32
  -4  -5   0  141.82    2.75
  -4  -5   0  142.76    3.46
  -4  -5   0  143.36    3.56
  -4  -5  -1    2.12    0.60
   4   5   1    1.59    0.49
   4   5   1    2.06    0.56
  -4  -5  -1    2.99    0.60
  -4  -5  -1    2.32    0.49
  -4  -5  -1    2.98    0.57
  -4  -5  -1    3.07    0.39
  -4  -5  -1    2.69    0.64
   4   5   2  323.96    4.73
   4   5   2  339.04    5.18
  -4  -5  -2  323.26    4.69
  -4  -5  -2  328.87    4.80
  -4  -5  -2  311.07    5.00
  -4  -5  -2  311.82    5.06
  -4  -5  -2  326.81    4.59
  -4  -5  -3   55.59    1.72
  -4  -5  -3   53.89    1.70
   4   5   3   58.50    1.85
  -4  -5  -3   57.34    1.79
  -4  -5  -3   56.74    2.03
   4   6  -8    2.18    0.45
   4   6  -8    1.56    0.38
   4   6  -8    2.14    0.46
  -4  -6   7    8.81    0.85
   4   6  -7    8.77    0.80
   4   6  -7   10.52    0.71
   4   6  -7    9.17    0.85
   4   6  -7    9.58    0.87
   4   6  -7   11.72    0.97
  -4  -6   7    9.98    0.88
  -4  -6   6   25.23    1.49
   4   6  -6   24.95    1.39
   4   6  -6   26.25    1.29
   4   6  -6   24.16    1.35
   4   6  -6   26.10    1.45
   4   6  -6   26.59    1.50
  -4  -6   6   29.70    1.48
  -4  -6   5  195.50    4.15
   4   6  -5  182.01    3.63
   4   6  -5  188.84    3.87
   4   6  -5  188.54    2.71
   4   6  -5  193.58    3.98
  -4  -6   5  204.13    3.79
  -4  -6   4   53.84    2.20
   4   6  -4   47.56    2.00
   4   6  -4   53.12    1.68
   4   6  -4   49.29    2.04
  -4  -6   4   53.96    1.95
   4   6  -3  616.42    7.23
  -4  -6   3  596.65    7.14
   4   6  -3  577.93    6.90
   4   6  -3  581.59    5.83
   4   6  -3  583.11    6.78
  -4  -6   3  576.20    5.90
  -4  -6   3  556.33    6.75
  -4  -6   2    0.31    0.40
   4   6  -2   -0.14    0.42
  -4  -6   2   -0.15    0.45
   4   6  -2    0.73    0.45
   4   6  -2    0.69    0.43
  -4  -6   2    0.42    0.34
   4   6  -1  103.02    2.96
   4   6  -1  110.22    3.01
   4   6  -1  107.08    2.60
  -4  -6   1  103.94    1.87
  -4  -6   1  105.33    2.83
   4   6   0   48.13    1.94
   4   6   0   52.30    2.04
  -4  -6   0   50.03    1.88
  -4  -6   0   52.27    1.30
  -4  -6   0   48.53    1.61
   4   6   0   51.61    1.79
  -4  -6   0   50.88    1.92
   4   6   1   17.19    1.10
   4   6   1   16.03    1.12
  -4  -6  -1   15.57    0.98
   4   6   1   16.59    1.01
  -4  -6  -1   15.25    1.00
  -4  -6  -1   16.00    1.05
  -4  -6  -1   14.63    0.98
  -4  -7   6   87.10    2.29
   4   7  -6   93.04    2.27
   4   7  -6   91.77    1.83
  -4  -7   6   91.45    1.81
  -4  -7   5    4.39    0.60
   4   7  -5    4.37    0.53
   4   7  -5    3.48    0.56
   4   7  -5    5.48    0.55
   4   7  -5    3.81    0.57
  -4  -7   5    5.21    0.48
  -4  -7   5    5.44    0.66
   4   7  -5    4.65    0.55
   4   7  -4    1.76    0.47
  -4  -7   4    2.45    0.51
  -4  -7   4    2.23    0.49
  -4  -7   4    2.99    0.46
   4   7  -4    1.65    0.29
   4   7  -4    1.90    0.44
  -4  -7   4    2.20    0.31
   4   7  -4    3.06    0.54
  -4  -7   3   58.53    1.89
  -4  -7   3   66.43    1.56
  -4  -7   3   62.02    1.80
   4   7  -3   61.44    2.02
   4   7  -3   62.74    1.52
  -4  -7   3   59.51    1.94
   4   7  -2  173.50    3.30
   4   7  -2  177.33    3.31
  -4  -7   2  169.23    2.66
   4   7  -2  169.26    2.61
  -4  -7   2  166.86    3.14
   4   7  -1  160.80    3.08
   4   7  -1  144.82    2.38
   5 -10  -1   88.97    1.54
   5  -9  -5   55.90    2.03
   5  -9  -5   37.99    0.68
   5  -9  -4    2.98    0.64
   5  -9  -4    3.05    0.39
   5  -9  -3   90.11    2.86
   5  -9  -3   89.19    2.03
   5  -9  -2  689.29    7.85
   5  -9  -2  668.21    6.16
   5  -9  -1   -0.24    0.37
   5  -9  -1    0.39    0.28
   5  -9   0    4.09    0.47
   5  -9   0    2.95    0.60
   5  -9   1    0.98    0.30
   5  -9   1    0.98    0.43
   5  -9   2    1.55    0.27
   5  -9   2    1.02    0.21
   5  -9   2    1.54    0.44
   5  -9   3    6.59    0.50
   5  -9   3    7.91    0.75
   5  -8  -7   12.27    1.05
   5  -8  -6  148.31    3.47
   5  -8  -6  157.27    3.77
   5  -8  -5  134.14    3.53
   5  -8  -5  134.43    2.01
   5  -8  -4  124.25    3.54
   5  -8  -4   -0.03    0.39
   5  -8  -4  133.25    2.37
   5  -8  -4   -0.21    0.46
   5  -8  -3    4.39    0.79
   5  -8  -3    5.21    0.57
   5  -8  -3    4.88    0.77
   5  -8  -2  122.49    3.47
   5  -8  -2  123.25    2.75
   5  -8  -2  117.58    2.63
   5  -8  -2  112.46    3.32
   5  -8  -1    1.91    0.59
   5  -8  -1    2.66    0.63
   5  -8   0  293.39    3.52
   5  -8   0  294.80    4.98
   5  -8   1    3.77    0.51
   5  -8   1    4.91    0.51
   5  -8   1    4.92    0.81
   5  -8   1    4.40    0.70
   5  -8   2   22.74    1.20
   5  -8   2   18.50    0.81
   5  -8   2   20.48    1.48
   5  -8   2   21.18    1.36
   5  -8   3   17.86    0.78
   5  -8   3   16.67    1.14
   5  -8   4   32.67    1.40
  -5   8  -4   29.47    1.27
   5  -8   4   30.79    1.01
   5  -8   4   32.05    1.43
   5  -7  -8   12.03    0.97
   5  -7  -8   10.48    1.02
   5  -7  -7  650.19    7.28
   5  -7  -7  651.86    8.02
   5  -7  -6   85.80    2.85
   5  -7  -6   83.78    1.29
   5  -7  -6   80.69    2.66
   5  -7  -6   80.11    2.91
   5  -7  -5   33.13    1.84
   5  -7  -5   30.62    1.78
   5  -7  -5   30.72    0.98
   5  -7  -5   28.91    1.64
   5  -7  -5   31.21    1.73
   5  -7  -5   31.86    1.86
   5  -7  -4  243.44    4.98
   5  -7  -4  239.18    3.11
   5  -7  -4  240.58    4.56
   5  -7  -4  240.53    4.74
   5  -7  -4  247.80    5.00
   5  -7  -3  395.36    4.31
   5  -7  -3  406.46    6.37
   5  -7  -3  401.66    6.13
   5  -7  -2  105.68    3.21
   5  -7  -2  113.40    2.51
   5  -7  -2  102.18    3.01
   5  -7  -2  113.87    3.32
   5  -7  -1    2.98    0.33
   5  -7  -1    2.42    0.54
   5  -7  -1    2.49    0.62
   5  -7  -1    2.84    0.50
   5  -7  -1    2.23    0.60
   5  -7  -1    2.47    0.63
   5  -7   0    7.65    0.66
   5  -7   0    6.83    0.93
   5  -7   0    9.46    1.06
   5  -7   0    7.85    0.92
   5  -7   1  274.42    4.18
   5  -7   1  255.59    3.28
   5  -7   1  245.47    2.98
   5  -7   1  259.18    5.28
   5  -7   1  262.24    3.79
   5  -7   1  265.25    5.10
   5  -7   1  255.83    4.74
   5  -7   2   65.16    2.17
   5  -7   2   52.69    1.46
   5  -7   2   57.60    1.73
   5  -7   2   58.79    2.42
   5  -7   2   54.75    2.18
   5  -7   2   58.15    1.79
   5  -7   2   47.39    1.80
   5  -7   3  152.13    3.40
  -5   7  -3  151.14    3.34
   5  -7   3  143.82    2.02
   5  -7   3  156.96    3.01
   5  -7   3  153.03    3.81
   5  -7   3  152.06    3.47
   5  -7   3  162.72    3.12
  -5   7  -4   81.38    2.39
   5  -7   4   81.09    2.15
   5  -7   4   77.90    2.59
   5  -7   4   76.63    2.32
   5  -7   4   82.80    2.23
  -5   7  -5  368.46    4.69
   5  -7   5  392.88    4.45
  -5   7  -5  369.94    4.98
   5  -7   5  384.23    4.53
   5  -6  -9  234.29    4.12
   5  -6  -9  228.74    4.32
   5  -6  -8   17.66    1.32
   5  -6  -8   18.49    1.30
   5  -6  -8   19.37    1.44
   5  -6  -7  102.29    3.06
   5  -6  -7  106.84    3.18
   5  -6  -7  101.86    3.02
   5  -6  -7  104.12    3.20
   5  -6  -7   95.66    3.20
   5  -6  -6   52.07    2.26
   5  -6  -6   55.04    1.03
   5  -6  -6   52.24    0.94
   5  -6  -6   52.71    2.24
   5  -6  -6   50.05    2.25
   5  -6  -6   49.45    2.10
   5  -6  -6   48.38    2.17
   5  -6  -6   53.01    2.41
   5  -6  -6   52.84    2.38
   5  -6  -5   28.77    1.70
   5  -6  -5   30.90    1.80
   5  -6  -5   26.94    0.81
   5  -6  -5   29.46    1.67
   5  -6  -5   24.58    1.56
   5  -6  -5   30.10    1.65
   5  -6  -5   27.11    1.59
   5  -6  -5   31.06    1.73
   5  -6  -5   29.12    1.76
   5  -6  -5   30.90    1.84
   5  -6  -5   29.33    1.75
   5  -6  -4   98.09    3.10
   5  -6  -4  105.09    1.80
   5  -6  -4   99.99    3.08
   5  -6  -4  104.32    2.97
   5  -6  -4  102.55    2.93
   5  -6  -4  105.42    2.95
   5  -6  -4  105.38    3.08
   5  -6  -4  101.75    3.20
   5  -6  -4  101.12    3.05
   5  -6  -3   -0.03    0.39
   5  -6  -3    1.13    0.55
   5  -6  -3    0.78    0.44
   5  -6  -3    0.24    0.21
   5  -6  -3    0.52    0.39
   5  -6  -3    0.96    0.50
   5  -6  -3    0.91    0.38
   5  -6  -3    1.40    0.48
   5  -6  -3    0.87    0.47
   5  -6  -2   65.75    1.74
   5  -6  -2   59.77    2.32
   5  -6  -2   58.61    2.30
   5  -6  -2   60.70    2.22
   5  -6  -1  326.82    3.47
   5  -6  -1  336.19    5.30
   5  -6  -1  339.73    4.30
   5  -6  -1  338.10    5.61
   5  -6  -1  337.37    5.39
   5  -6  -1  335.50    5.25
   5  -6   0  748.61    6.40
   5  -6   0  722.03    7.85
   5  -6   0  745.17    8.47
   5  -6   0  757.64    5.90
   5  -6   0  726.48    7.92
   5  -6   0  743.40    7.86
   5  -6   1  255.62    3.27
   5  -6   1  250.86    3.56
   5  -6   1  249.33    4.62
   5  -6   1  270.37    4.06
   5  -6   1  247.83    4.95
   5  -6   1  264.59    4.02
   5  -6   1  246.68    4.69
   5  -6   1  251.52    4.60
   5  -6   1  255.92    3.69
   5  -6   2 1231.84    6.99
   5  -6   2 1313.66    9.64
   5  -6   2 1173.35   10.89
   5  -6   2 1310.84    9.68
   5  -6   2 1138.88    5.05
   5  -6   2 1212.64   10.40
   5  -6   2 1214.18   10.09
   5  -6   2 1274.81    8.78
   5  -6   2 1278.93    9.01
   5  -6   3   17.63    0.79
   5  -6   3   18.26    1.16
   5  -6   3   16.46    1.19
   5  -6   3   15.88    1.18
   5  -6   3   17.79    0.87
   5  -6   3   16.69    1.30
   5  -6   3   14.74    1.16
   5  -6   3   17.07    1.14
  -5   6  -4   10.81    1.01
   5  -6   4    9.58    0.70
   5  -6   4    7.52    0.78
   5  -6   4    9.56    0.94
   5  -6   4    8.70    0.88
   5  -6   4    8.62    0.85
  -5   6  -5   67.27    2.25
   5  -6   5   68.50    2.11
   5  -6   5   72.62    1.69
  -5   6  -5   66.22    2.28
   5  -6   5   67.63    2.13
  -5   6  -6   18.46    1.10
   5  -6   6   19.08    1.03
   5  -6   6   16.76    0.65
  -5   6  -6   18.19    1.07
  -5   6  -6   16.48    0.98
   5  -6   6   19.51    1.07
   5  -5 -10    3.24    0.57
   5  -5 -10    3.53    0.57
   5  -5  -9    3.21    0.64
   5  -5  -9    3.14    0.65
   5  -5  -9    3.46    0.69
   5  -5  -9    2.84    0.64
   5  -5  -9    2.35    0.59
   5  -5  -8  313.63    5.42
   5  -5  -8  315.25    5.32
   5  -5  -8  311.11    5.47
   5  -5  -8  308.20    5.41
   5  -5  -8  318.82    5.65
   5  -5  -7  194.54    4.22
   5  -5  -7  182.40    1.42
   5  -5  -7  172.44    1.50
   5  -5  -7  201.55    4.36
   5  -5  -7  182.61    4.40
   5  -5  -7  189.71    4.10
   5  -5  -7  189.69    4.25
   5  -5  -7  193.86    4.31
   5  -5  -7  198.39    4.37
   5  -5  -7  190.44    4.48
   5  -5  -7  182.42    4.43
   5  -5  -6    0.60    0.53
   5  -5  -6    0.94    0.51
   5  -5  -6    0.78    0.11
   5  -5  -6    2.61    0.60
   5  -5  -6    1.36    0.50
   5  -5  -6    1.09    0.52
   5  -5  -6    1.95    0.57
   5  -5  -6    1.44    0.52
   5  -5  -6    0.52    0.49
   5  -5  -6    0.60    0.41
   5  -5  -6    1.59    0.63
   5  -5  -5   15.05    1.19
   5  -5  -5    9.06    0.97
   5  -5  -5   11.62    0.40
   5  -5  -5   11.95    0.40
   5  -5  -5   13.40    1.17
   5  -5  -5   13.83    0.45
   5  -5  -5   13.79    1.17
   5  -5  -5   15.22    1.18
   5  -5  -5   12.38    1.11
   5  -5  -5   13.77    1.11
   5  -5  -5   13.82    1.10
   5  -5  -5   13.45    1.12
   5  -5  -5   11.79    1.13
   5  -5  -4   72.66    2.53
   5  -5  -4   70.07    2.50
   5  -5  -4   76.75    1.35
   5  -5  -4   75.81    2.55
   5  -5  -4   74.80    2.39
   5  -5  -4   67.65    2.41
   5  -5  -4   68.23    2.29
   5  -5  -4   67.39    2.23
   5  -5  -4   70.92    2.37
   5  -5  -4   71.18    2.62
   5  -5  -4   72.95    1.22
   5  -5  -4   72.70    2.55
   5  -5  -3  172.30    3.81
   5  -5  -3  181.97    3.85
   5  -5  -3  189.91    2.31
   5  -5  -3  182.85    3.96
   5  -5  -3  171.19    3.41
   5  -5  -3  166.68    3.58
   5  -5  -3  172.60    3.56
   5  -5  -3  179.22    3.40
   5  -5  -3  184.30    3.76
   5  -5  -3  182.20    3.98
   5  -5  -2  315.53    4.97
   5  -5  -2  302.67    2.18
   5  -5  -2  325.10    5.00
   5  -5  -2  338.50    3.51
   5  -5  -2  322.47    5.24
   5  -5  -2  356.48    5.28
   5  -5  -2  326.37    4.85
   5  -5  -2  327.25    4.93
   5  -5  -2  338.89    5.24
   5  -5  -2  337.16    4.92
   5  -5  -1   95.03    2.81
   5  -5  -1  101.99    2.85
   5  -5  -1  101.55    1.76
   5  -5  -1  100.99    2.17
   5  -5  -1   94.62    2.68
   5  -5  -1   99.30    2.74
   5  -5   0   71.12    2.48
   5  -5   0   75.54    1.77
   5  -5   0   79.22    1.97
   5  -5   0   78.95    2.56
   5  -5   0   83.77    2.01
   5  -5   0   73.13    2.38
   5  -5   0   77.14    2.46
   5  -5   0   76.97    1.85
   5  -5   1    1.68    0.43
   5  -5   1    1.06    0.40
   5  -5   1    1.57    0.42
   5  -5   1    2.18    0.54
   5  -5   1    1.36    0.34
   5  -5   1    1.04    0.36
   5  -5   1    1.25    0.50
   5  -5   1    0.87    0.52
   5  -5   1    1.09    0.24
   5  -5   1    0.44    0.37
   5  -5   1    1.34    0.51
   5  -5   2  193.69    2.79
   5  -5   2  199.57    4.17
   5  -5   2  196.87    4.25
   5  -5   2  201.27    3.79
   5  -5   2  198.59    3.63
   5  -5   2  200.42    3.06
   5  -5   2  196.69    4.18
   5  -5   2  191.52    3.94
   5  -5   2  194.33    3.94
   5  -5   2  202.00    3.70
   5  -5   3   74.98    1.61
   5  -5   3   80.72    2.70
   5  -5   3   77.30    1.64
   5  -5   3   74.62    2.56
   5  -5   3   74.43    2.64
   5  -5   3   76.49    2.51
   5  -5   3   71.31    2.41
   5  -5   3   78.17    2.13
   5  -5   3   74.75    2.45
   5  -5   3   79.01    2.43
   5  -5   3   73.18    2.36
  -5   5  -4   20.94    1.39
   5  -5   4   18.32    1.33
   5  -5   4   17.68    1.22
   5  -5   4   19.14    1.25
   5  -5   4   20.03    1.34
   5  -5   4   20.89    0.95
   5  -5   4   19.01    1.13
   5  -5   4   20.64    1.29
   5  -5   4   17.78    1.22
  -5   5  -5   23.41    1.42
   5  -5   5   19.29    1.30
   5  -5   5   21.29    0.91
   5  -5   5   21.53    1.31
   5  -5   5   22.27    1.17
  -5   5  -5   22.62    1.38
   5  -5   5   21.53    1.31
  -5   5  -6   73.30    2.23
   5  -5   6   68.57    2.10
   5  -5   6   48.99    0.90
   5  -5   6   48.49    0.92
   5  -5   6   65.14    1.74
  -5   5  -6   75.08    2.22
  -5   5  -6   68.81    1.96
   5  -5   6   66.20    2.07
   5  -4 -10  114.94    1.29
   5  -4 -10   44.81    1.90
   5  -4 -10  163.88    3.62
   5  -4 -10   73.90    2.48
   5  -4 -10  134.14    1.35
   5  -4 -10  168.43    3.93
   5  -4 -10  176.41    3.88
   5  -4  -9  193.55    2.18
   5  -4  -9  205.80    4.35
   5  -4  -9  183.76    4.10
   5  -4  -9  194.40    4.28
   5  -4  -9  205.38    4.57
   5  -4  -9  198.71    4.23
   5  -4  -9  198.01    4.42
   5  -4  -8  115.46    1.71
   5  -4  -8  109.41    3.20
   5  -4  -8  107.06    3.37
   5  -4  -8  114.21    3.22
   5  -4  -8  106.94    3.19
   5  -4  -8  117.15    3.38
   5  -4  -8  116.15    3.44
   5  -4  -8  111.07    3.32
   5  -4  -8  117.97    3.45
   5  -4  -8  111.55    3.46
   5  -4  -7   50.87    2.17
   5  -4  -7   55.68    0.93
   5  -4  -7   55.73    1.01
   5  -4  -7   49.07    2.25
   5  -4  -7   54.07    2.25
   5  -4  -7   53.50    2.35
   5  -4  -7   53.81    2.18
   5  -4  -7   55.05    2.26
   5  -4  -7   49.37    2.15
   5  -4  -7   51.18    2.22
   5  -4  -7   54.91    2.38
   5  -4  -7   53.41    2.40
   5  -4  -6  607.42    7.29
   5  -4  -6  627.26    7.48
   5  -4  -6  615.97    7.51
   5  -4  -6  639.80    7.25
   5  -4  -6  602.56    7.50
   5  -4  -6  630.29    7.04
   5  -4  -6  632.58    7.21
   5  -4  -6  621.96    7.26
   5  -4  -6  636.47    7.37
   5  -4  -6  598.62    7.59
   5  -4  -6  631.57    7.83
   5  -4  -5  174.79    3.81
   5  -4  -5  181.49    3.93
   5  -4  -5  175.15    3.84
   5  -4  -5  171.09    3.58
   5  -4  -5  170.23    3.85
   5  -4  -5  180.55    3.60
   5  -4  -5  184.55    3.71
   5  -4  -5  182.23    3.73
   5  -4  -5  184.83    3.73
   5  -4  -5  173.14    3.96
   5  -4  -5  172.95    3.97
   5  -4  -4   79.41    2.60
   5  -4  -4   75.45    2.44
   5  -4  -4   71.65    0.95
   5  -4  -4   76.24    2.49
   5  -4  -4   71.37    1.05
   5  -4  -4   76.42    2.41
   5  -4  -4   71.49    2.42
   5  -4  -4   72.80    2.19
   5  -4  -4   73.93    2.18
   5  -4  -4   71.15    2.25
   5  -4  -4   70.16    2.46
   5  -4  -3   44.61    0.99
  -5   4   3   43.07    0.99
   5  -4  -3   43.93    1.71
   5  -4  -2  367.58    3.53
   5  -4  -2  356.87    4.81
   5  -4  -2  360.97    4.77
   5  -4  -1  429.20    4.32
   5  -4  -1  416.29    5.24
   5  -4  -1  432.17    3.85
   5  -4  -1  425.00    5.19
   5  -4   0   19.07    0.97
   5  -4   0   16.43    1.09
   5  -4   0   19.48    0.99
   5  -4   0   20.92    1.04
   5  -4   0   16.90    1.21
   5  -4   0   19.80    1.16
   5  -4   0   17.53    1.15
   5  -4   1   10.51    0.84
   5  -4   1   13.12    1.17
   5  -4   1   10.18    0.64
   5  -4   1   13.58    1.09
   5  -4   1   10.30    0.82
   5  -4   1   11.20    0.87
   5  -4   1   10.10    0.45
   5  -4   1    8.66    0.93
   5  -4   1   12.89    1.02
   5  -4   1   11.19    0.86
   5  -4   1   11.62    0.88
   5  -4   1   10.74    0.46
   5  -4   1   10.34    0.88
   5  -4   1    9.54    0.89
   5  -4   1   11.11    0.93
   5  -4   1    9.86    0.69
   5  -4   2   42.74    1.75
   5  -4   2   40.92    1.28
   5  -4   2   43.44    1.94
   5  -4   2   46.08    1.79
   5  -4   2   46.50    1.43
   5  -4   2   46.30    2.07
   5  -4   2   46.79    1.94
   5  -4   2   46.35    1.85
   5  -4   2   42.51    1.74
   5  -4   2   43.19    1.77
   5  -4   2   46.85    1.67
   5  -4   2   40.57    0.87
   5  -4   2   38.07    1.71
   5  -4   3   88.25    2.63
   5  -4   3  100.71    2.87
   5  -4   3   93.66    1.76
   5  -4   3   95.83    2.92
   5  -4   3   99.91    2.40
   5  -4   3   93.87    2.95
   5  -4   3   93.87    2.75
   5  -4   3   93.72    2.70
   5  -4   3   93.67    2.71
   5  -4   3  102.53    2.66
   5  -4   3   98.26    1.93
   5  -4   3   93.47    2.67
   5  -4   4    6.04    0.81
   5  -4   4    6.08    0.86
   5  -4   4    5.56    0.82
   5  -4   4    5.18    0.79
   5  -4   4    6.83    0.87
   5  -4   4    5.67    0.73
   5  -4   4    5.61    0.68
   5  -4   4    5.81    0.79
   5  -4   4    5.23    0.78
  -5   4  -5   78.83    2.57
   5  -4   5   68.91    2.40
   5  -4   5   75.20    2.48
   5  -4   5   77.81    2.11
   5  -4   5   76.65    2.48
   5  -4   5   73.45    2.27
   5  -4   5   72.74    1.64
   5  -4   5   73.84    2.44
  -5   4  -6  134.00    3.08
   5  -4   6  115.82    2.84
   5  -4   6  120.04    2.65
   5  -4   6  126.88    2.32
  -5   4  -6  120.75    2.59
   5  -4   6  125.03    2.95
  -5   4  -7   24.97    0.76
   5  -3 -11    7.82    0.39
   5  -3 -11    8.23    0.82
   5  -3 -11    9.15    0.92
   5  -3 -10   20.57    0.84
   5  -3 -10   22.60    1.44
   5  -3 -10   19.02    1.31
   5  -3 -10   21.61    1.41
   5  -3 -10   21.01    1.47
   5  -3 -10   21.03    1.45
   5  -3  -9    6.05    0.51
   5  -3  -9    6.82    0.92
   5  -3  -9    6.51    0.92
   5  -3  -9    6.71    0.87
   5  -3  -9    6.32    0.87
   5  -3  -9    5.92    0.90
   5  -3  -9    5.52    0.88
   5  -3  -8  181.35    3.99
   5  -3  -8  179.23    2.43
   5  -3  -8  174.53    4.09
   5  -3  -8  175.00    4.19
   5  -3  -8  168.02    3.84
   5  -3  -8  162.18    3.92
   5  -3  -8  171.20    4.05
   5  -3  -8  175.95    4.14
   5  -3  -8  171.59    4.01
   5  -3  -8  175.46    4.16
   5  -3  -8  176.78    4.23
   5  -3  -7   63.22    2.37
   5  -3  -7   68.54    1.32
   5  -3  -7   65.58    2.45
   5  -3  -7   71.69    2.52
   5  -3  -7   68.81    2.60
   5  -3  -7   68.73    2.36
   5  -3  -7   65.63    2.42
   5  -3  -7   68.17    2.44
   5  -3  -7   66.36    2.47
   5  -3  -7   60.35    2.38
   5  -3  -7   74.79    2.63
   5  -3  -7   70.55    2.62
   5  -3  -6   66.91    2.36
   5  -3  -6   72.10    1.11
   5  -3  -6   65.43    2.30
   5  -3  -6   70.52    2.40
   5  -3  -6   75.27    1.12
   5  -3  -6   71.75    2.40
   5  -3  -6   72.44    2.56
   5  -3  -6   75.23    2.34
   5  -3  -6   73.56    2.45
   5  -3  -6   80.61    2.54
   5  -3  -6   78.25    2.56
   5  -3  -6   68.55    2.49
   5  -3  -6   72.36    2.55
   5  -3  -5  151.43    3.58
   5  -3  -5  145.64    3.37
   5  -3  -5  151.47    1.40
   5  -3  -5  134.51    1.31
   5  -3  -5  158.80    3.43
   5  -3  -5  151.75    3.54
   5  -3  -5  146.05    3.02
   5  -3  -5  155.85    3.29
   5  -3  -5  150.70    3.23
   5  -3  -5  160.55    3.42
   5  -3  -5  148.68    3.52
  -5   3   4   77.10    1.11
   5  -3  -4   87.43    2.45
   5  -3  -4   77.12    2.19
   5  -3  -4   83.65    2.36
   5  -3  -3  289.41    2.61
  -5   3   3  261.40    2.43
   5  -3  -3  269.22    3.90
   5  -3  -3  282.12    4.03
   5  -3  -2   67.47    1.49
   5  -3  -2   70.60    1.36
   5  -3  -2   66.55    1.90
   5  -3  -1   49.35    1.44
   5  -3  -1   50.88    1.68
   5  -3  -1   57.05    1.47
   5  -3  -1   55.35    1.48
  -5   3   1   47.03    1.36
   5  -3  -1   46.27    1.57
   5  -3   0  362.39    4.30
  -5   3   0  358.14    4.17
   5  -3   0  359.62    4.54
   5  -3   0  377.26    4.26
   5  -3   0  379.99    4.32
   5  -3   1  150.91    3.53
   5  -3   1  148.46    2.32
   5  -3   1  143.45    2.92
   5  -3   1  142.45    3.53
   5  -3   1  145.39    2.93
   5  -3   1  141.96    2.96
   5  -3   1  139.71    2.87
   5  -3   1  142.96    3.11
   5  -3   2   19.70    1.21
   5  -3   2   19.49    1.36
   5  -3   2   19.47    0.88
   5  -3   2   19.70    1.31
   5  -3   2   23.90    1.54
   5  -3   2   21.41    1.29
   5  -3   2   23.66    1.23
   5  -3   2   19.39    1.21
   5  -3   2   18.54    1.18
   5  -3   2   20.05    1.17
   5  -3   2   21.57    0.97
  -5   3  -2   20.45    1.09
   5  -3   2   17.76    1.16
   5  -3   3  102.06    3.00
   5  -3   3   92.25    2.85
   5  -3   3  106.19    2.76
   5  -3   3   90.26    2.69
   5  -3   3   99.14    3.09
   5  -3   3   98.70    2.88
   5  -3   3   96.68    2.77
   5  -3   3   96.09    2.80
  -5   3  -3   91.32    2.25
   5  -3   3   96.46    2.63
   5  -3   4  112.99    3.19
   5  -3   4  118.11    3.18
   5  -3   4  127.11    3.46
   5  -3   4  119.55    3.29
   5  -3   4  117.96    3.15
   5  -3   4  117.19    3.24
   5  -3   5  179.37    3.82
   5  -3   5  181.12    3.86
   5  -3   5  182.49    3.91
   5  -3   5  180.02    4.04
   5  -3   5  177.84    3.82
   5  -3   6   80.93    2.39
   5  -3   6   82.20    2.16
   5  -3   6   76.77    2.33
   5  -3   6   78.11    2.41
  -5   3  -6   85.12    2.13
   5  -3   6   76.59    2.38
   5  -3   7   45.44    1.52
  -5   3  -7   46.41    1.17
   5  -2 -11   86.49    1.73
   5  -2 -11   85.29    2.62
   5  -2 -10  330.72    5.40
   5  -2 -10  315.11    3.69
   5  -2 -10  310.77    5.07
   5  -2 -10  347.39    5.53
   5  -2 -10  324.81    5.50
   5  -2 -10  335.13    5.58
   5  -2  -9   88.52    1.99
   5  -2  -9   76.98    2.63
   5  -2  -9   85.32    2.84
   5  -2  -9   86.24    2.90
   5  -2  -9   85.81    2.74
   5  -2  -9   81.96    2.79
   5  -2  -9   89.01    2.95
   5  -2  -9   91.67    3.00
   5  -2  -8   93.64    2.85
   5  -2  -8   85.44    1.85
   5  -2  -8   90.24    2.84
   5  -2  -8   82.27    2.80
   5  -2  -8   88.07    2.92
   5  -2  -8   90.21    2.74
   5  -2  -8   83.00    2.78
   5  -2  -8   88.97    2.92
   5  -2  -8   84.47    2.86
   5  -2  -8   82.53    2.83
   5  -2  -7  151.48    3.49
   5  -2  -7  149.35    3.57
   5  -2  -7  153.00    2.27
   5  -2  -7  160.90    3.61
   5  -2  -7  149.34    3.55
   5  -2  -7  153.94    3.70
   5  -2  -7  155.11    3.38
   5  -2  -7  150.96    3.64
   5  -2  -7  140.97    3.44
   5  -2  -7  146.75    3.61
   5  -2  -7  147.03    3.53
   5  -2  -7  150.70    3.68
   5  -2  -7  152.87    3.67
   5  -2  -6  571.99    6.43
   5  -2  -6  540.11    6.59
   5  -2  -6  573.96    3.90
   5  -2  -6  576.14    6.48
   5  -2  -6  576.57    6.60
   5  -2  -6  585.18    6.99
   5  -2  -6  576.88    6.09
   5  -2  -6  554.80    6.54
   5  -2  -6  576.18    6.52
   5  -2  -6  558.95    6.69
   5  -2  -6  545.34    6.68
   5  -2  -6  581.08    6.95
   5  -2  -5  516.92    3.49
   5  -2  -5  505.39    5.82
  -5   2   5  485.08    3.39
   5  -2  -5  540.24    6.47
   5  -2  -5  486.32    5.71
   5  -2  -5  513.70    5.80
   5  -2  -5  504.42    6.05
  -5   2   4  171.87    2.04
   5  -2  -4  179.19    2.05
   5  -2  -4  165.42    3.06
   5  -2  -4  183.55    3.47
   5  -2  -3  157.09    1.82
  -5   2   3  144.59    1.98
   5  -2  -3  153.67    2.12
   5  -2  -3  147.34    2.73
   5  -2  -3  161.35    3.13
  -5   2   2  162.18    2.33
   5  -2  -2  180.68    2.38
   5  -2  -2  174.16    2.52
   5  -2  -2  176.82    2.40
   5  -2  -2  160.66    2.75
  -5   2   1 1695.88    8.39
   5  -2  -1 1774.94    8.32
   5  -2  -1 1721.82    8.69
   5  -2  -1 1810.26    8.64
   5  -2   0  153.55    2.84
   5  -2   0  157.43    2.76
   5  -2   0  153.25    2.77
   5  -2   1   24.93    1.52
   5  -2   1   23.50    1.30
   5  -2   1   24.78    0.97
   5  -2   1   22.33    1.43
   5  -2   1   23.45    1.22
   5  -2   1   23.61    1.25
   5  -2   1   22.22    1.19
   5  -2   1   22.75    0.96
   5  -2   1   22.02    1.19
   5  -2   1   25.25    1.30
   5  -2   2  171.73    4.01
   5  -2   2  166.24    2.39
   5  -2   2  168.02    3.71
   5  -2   2  163.67    3.44
   5  -2   2  155.52    3.33
   5  -2   2  163.05    3.93
   5  -2   2  167.94    3.44
   5  -2   2  158.60    3.40
   5  -2   2  168.78    3.06
  -5   2  -2  157.33    2.90
   5  -2   2  166.53    3.00
   5  -2   2  158.98    3.30
   5  -2   3    0.59    0.42
   5  -2   3    1.56    0.54
   5  -2   3    0.54    0.40
   5  -2   3    0.54    0.44
   5  -2   3    0.58    0.47
   5  -2   3    0.83    0.46
  -5   2  -3    0.67    0.36
   5  -2   3    0.89    0.47
   5  -2   4    4.86    0.75
   5  -2   4    3.94    0.70
   5  -2   4    6.13    0.87
   5  -2   4    5.31    0.83
   5  -2   4    5.92    0.82
   5  -2   4    4.49    0.69
   5  -2   4    5.19    0.64
   5  -2   5    0.07    0.43
   5  -2   5    0.88    0.47
   5  -2   5    0.24    0.43
   5  -2   5    0.34    0.35
  -5   2  -5    0.47    0.37
   5  -2   6    8.88    0.86
   5  -2   6    9.75    0.90
   5  -2   6   11.77    0.98
   5  -2   6   10.92    0.95
  -5   2  -6    9.86    0.92
  -5   2  -6    9.47    0.71
   5  -1 -11    0.37    0.33
   5  -1 -11  105.25    2.80
   5  -1 -11  190.44    2.91
   5  -1 -11  201.66    3.65
   5  -1 -11  199.52    4.00
   5  -1 -10   52.03    2.15
   5  -1 -10   54.41    1.70
   5  -1 -10   52.19    2.20
   5  -1 -10   50.82    2.02
   5  -1 -10   54.88    2.23
   5  -1 -10   49.72    2.20
   5  -1  -9   27.46    1.23
   5  -1  -9   28.42    1.66
   5  -1  -9   28.50    1.68
   5  -1  -9   24.30    1.45
   5  -1  -9   24.34    1.56
   5  -1  -9   26.50    1.62
   5  -1  -9   24.02    1.57
   5  -1  -8  249.85    4.69
   5  -1  -8  246.20    3.46
   5  -1  -8  241.85    4.75
   5  -1  -8  254.85    4.72
   5  -1  -8  244.16    4.75
   5  -1  -8  245.91    4.73
   5  -1  -7  413.48    5.77
   5  -1  -7  412.61    4.21
   5  -1  -7  409.59    5.89
   5  -1  -7  411.65    5.91
   5  -1  -7  406.63    5.91
   5  -1  -7  427.34    6.09
   5  -1  -7  413.17    6.06
   5  -1  -6  106.06    2.79
   5  -1  -6  102.45    1.97
   5  -1  -6  108.71    2.87
   5  -1  -6  106.94    2.88
   5  -1  -6   98.37    2.80
   5  -1  -6  100.50    2.71
   5  -1  -6  104.88    2.92
   5  -1  -6  108.38    2.94
   5  -1  -6  109.11    1.39
   5  -1  -5  682.71    4.82
   5  -1  -5  691.12    6.60
   5  -1  -5  670.54    6.96
   5  -1  -4   27.06    0.84
  -5   1   4   25.26    0.94
   5  -1  -4   25.99    1.21
   5  -1  -4   26.43    1.37
   5  -1  -4   24.75    0.94
   5  -1  -3  637.95    4.49
  -5   1   3  619.60    4.68
   5  -1  -3  645.23    4.64
   5  -1  -3  610.18    4.82
   5  -1  -3  635.17    6.46
   5  -1  -2 1828.68    8.34
   5  -1  -2 1825.71    8.73
  -5   1   1  223.99    3.27
   5  -1  -1  231.60    3.25
   5  -1  -1  178.15    1.78
   5  -1  -1  186.04    1.78
   5  -1  -1  227.71    3.37
   5  -1  -1  234.18    3.31
  -5   1   0   89.96    2.28
   5  -1   0   95.79    2.27
   5  -1   0   96.17    2.35
   5  -1   0   98.57    1.89
   5  -1   0   91.05    2.24
   5  -1   1  145.76    3.69
   5  -1   1  140.67    3.17
   5  -1   1  154.78    2.33
   5  -1   1  145.98    3.35
   5  -1   1  146.43    3.13
   5  -1   1  142.18    3.57
   5  -1   1  146.13    3.05
   5  -1   1  138.19    3.05
   5  -1   1  140.61    2.65
   5  -1   1  131.53    2.89
  -5   1  -1  134.18    2.63
   5  -1   1  151.52    2.81
   5  -1   1  140.28    3.04
   5  -1   2   67.05    2.59
   5  -1   2   72.30    2.46
   5  -1   2   69.83    2.59
   5  -1   2   71.12    2.30
   5  -1   2   66.59    2.27
   5  -1   2   67.38    2.24
  -5   1  -2   75.14    2.00
   5  -1   2   70.59    2.10
   5  -1   2   66.71    2.14
   5  -1   3    9.67    1.07
   5  -1   3    6.69    0.86
   5  -1   3    6.51    0.87
   5  -1   3    6.15    0.82
   5  -1   3    6.33    0.82
   5  -1   3    6.55    0.83
  -5   1  -3    8.37    0.69
   5  -1   3    6.71    0.76
   5  -1   4    1.06    0.51
   5  -1   4    1.57    0.61
  -5   1  -4    0.92    0.49
   5  -1   4    0.84    0.49
  -5   1  -4    0.55    0.44
   5  -1   4    1.18    0.58
   5  -1   4    0.64    0.48
   5  -1   4    1.62    0.50
  -5   1  -4    1.30    0.49
   5  -1   5   31.56    1.68
   5  -1   5   29.47    1.58
   5  -1   5   31.40    1.72
   5  -1   5   27.21    1.57
   5  -1   5   29.73    1.40
  -5   1  -5   28.27    1.33
  -5   1  -5   29.73    1.63
   5  -1   6  131.19    2.96
   5  -1   6  130.89    2.93
   5  -1   6  134.97    3.12
  -5   1  -6  144.52    2.49
   5  -1   6  138.40    3.15
   5  -1   6  136.16    2.50
  -5   1  -6  134.68    3.04
  -5   1  -6  145.79    1.98
   5   0 -11   46.08    1.90
   5   0 -11   43.54    1.32
   5   0 -11   48.81    1.95
   5   0 -11   44.07    1.88
   5   0 -10   17.73    1.31
   5   0 -10   19.73    1.39
   5   0 -10   22.36    1.45
   5   0 -10   17.94    1.26
   5   0 -10   20.75    1.41
   5   0  -9  123.75    3.36
   5   0  -9  120.30    3.38
   5   0  -9  120.30    3.38
   5   0  -9  114.82    3.18
   5   0  -9  127.82    3.49
   5   0  -8 1264.06   10.52
   5   0  -8 1256.29   10.88
   5   0  -8 1308.48   11.07
   5   0  -8 1328.40   10.68
   5   0  -8 1314.39    8.73
   5   0  -8 1315.67   11.13
   5   0  -8 1305.42    6.08
   5   0  -7   14.81    1.18
   5   0  -7   14.25    0.92
   5   0  -7   12.31    1.10
   5   0  -7   14.11    1.18
   5   0  -7   15.07    1.17
   5   0  -7   13.80    1.17
   5   0  -7   13.27    0.73
   5   0  -6   94.80    1.47
   5   0  -6   94.02    2.64
   5   0  -6   96.04    2.21
   5   0  -6   99.58    1.82
   5   0  -6   92.49    2.68
   5   0  -6   94.46    2.79
   5   0  -6  101.58    2.85
   5   0  -6   93.49    2.79
   5   0  -6  103.15    2.04
   5   0  -5  500.74    4.92
   5   0  -5  513.28    4.26
   5   0  -5  519.32    4.40
   5   0  -5  493.52    6.08
   5   0  -4   51.49    1.54
   5   0  -4   49.45    1.38
  -5   0   4   49.02    1.50
   5   0  -4   54.03    1.48
   5   0  -4   49.69    1.92
   5   0  -3   33.34    1.19
  -5   0   3   35.04    1.28
   5   0  -3   34.43    1.25
   5   0  -3   31.99    1.25
  -5   0   2   54.01    1.65
   5   0  -2   51.88    1.57
   5   0  -2   43.49    0.95
   5   0  -2   42.78    0.88
   5   0  -2   50.75    1.57
   5   0  -2   51.36    1.64
   5   0  -1   93.94    2.65
  -5   0   1   90.01    2.29
   5   0  -1   95.38    2.25
   5   0  -1   94.58    1.84
   5   0  -1   89.61    2.21
   5   0  -1   91.48    2.29
   5   0   0    8.93    0.97
   5   0   0    8.44    0.80
   5   0   0    8.61    0.86
   5   0   0    9.31    0.61
   5   0   0    8.27    0.77
   5   0   0    9.38    0.70
  -5   0   0   10.80    0.77
   5   0   0    9.06    0.79
   5   0   1   82.46    2.84
   5   0   1   77.59    2.43
   5   0   1   79.75    2.57
   5   0   1   77.20    2.63
   5   0   1   78.36    2.36
   5   0   1   76.65    2.38
   5   0   1   73.08    2.27
  -5   0  -1   80.60    2.07
   5   0   1   85.43    2.27
   5   0   1   79.42    2.35
   5   0   2  923.45    9.65
  -5   0  -2  898.98    8.65
   5   0   2  910.53    8.85
   5   0   2  926.64    9.42
   5   0   2  903.10    8.52
   5   0   2  888.00    8.51
   5   0   2  880.22    8.33
  -5   0  -2  931.64    6.76
   5   0   2  938.60    7.98
   5   0   3   94.35    3.13
  -5   0  -3   93.44    2.93
   5   0   3   98.53    3.00
   5   0   3   96.24    3.09
   5   0   3   96.85    2.91
   5   0   3   95.32    2.91
   5   0   3   98.27    2.66
   5   0   4  251.07    4.88
  -5   0  -4  247.71    4.82
   5   0   4  238.01    4.50
   5   0   4  236.38    4.67
   5   0   4  247.59    4.64
   5   0   4  241.25    4.71
   5   0   4  241.10    4.09
  -5   0  -4  241.45    3.99
  -5   0  -4  243.14    4.59
   5   0   5    0.71    0.49
   5   0   5    0.39    0.42
  -5   0  -5    0.48    0.46
   5   0   5    0.25    0.41
   5   0   5    1.08    0.47
   5   0   5    1.59    0.46
  -5   0  -5    0.46    0.33
   5   0   6   54.13    1.85
   5   0   6   50.52    1.73
  -5   0  -6   24.90    0.60
  -5   0  -6   30.78    0.67
   5   0   6   55.32    1.92
  -5   0  -6   58.28    1.59
   5   0   6   51.96    1.49
  -5   0  -6   55.76    1.84
   5   1 -11    4.93    0.69
   5   1 -11    4.32    0.43
   5   1 -11    5.02    0.68
   5   1 -11    4.76    0.69
   5   1 -10   59.90    2.29
   5   1 -10   62.14    1.67
   5   1 -10   61.86    2.38
   5   1 -10   61.37    2.31
   5   1 -10   61.75    2.34
   5   1  -9   31.18    1.25
   5   1  -9   29.61    1.68
   5   1  -9   27.56    1.66
   5   1  -9   28.62    1.57
   5   1  -9   28.92    1.67
   5   1  -9   29.33    1.07
   5   1  -8    1.99    0.40
   5   1  -8    1.60    0.61
   5   1  -8    1.90    0.58
   5   1  -8    2.45    0.64
   5   1  -8    1.52    0.49
   5   1  -8    1.57    0.58
   5   1  -7   13.33    1.10
   5   1  -7   12.17    0.70
   5   1  -7   13.27    0.84
   5   1  -7   12.54    1.11
   5   1  -7   15.16    1.24
   5   1  -7   10.96    1.02
   5   1  -7   11.98    1.12
   5   1  -7   13.91    0.93
   5   1  -6    5.39    0.72
   5   1  -6    5.46    0.54
   5   1  -6    4.57    0.55
   5   1  -6    4.21    0.69
   5   1  -6    5.22    0.57
   5   1  -6    5.33    0.77
   5   1  -6    4.90    0.56
   5   1  -6    4.77    0.71
   5   1  -6    6.72    0.86
   5   1  -6    5.71    0.64
   5   1  -5  101.45    2.63
   5   1  -5  103.19    2.24
   5   1  -5  102.59    2.30
   5   1  -5  109.48    1.71
   5   1  -5  101.47    2.69
   5   1  -5  106.68    2.35
   5   1  -5  107.12    2.37
   5   1  -5   97.25    2.81
   5   1  -5  103.34    2.85
   5   1  -5  108.40    2.95
   5   1  -5  109.17    2.52
   5   1  -4  136.30    3.23
   5   1  -4  125.54    2.56
   5   1  -4  132.30    2.66
   5   1  -4  131.33    2.61
   5   1  -4  133.82    2.67
   5   1  -4  130.33    3.07
   5   1  -3 1038.98    9.05
   5   1  -3  989.97    7.30
   5   1  -3  968.29    4.57
   5   1  -3  998.33    7.48
   5   1  -3 1016.39    7.47
   5   1  -2  192.43    3.95
   5   1  -2  196.76    2.74
   5   1  -2  179.93    3.24
   5   1  -2  180.20    3.32
   5   1  -2  192.60    2.70
   5   1  -2  179.55    3.27
   5   1  -1    0.98    0.39
   5   1  -1    0.39    0.39
   5   1  -1    1.43    0.50
   5   1  -1    1.20    0.39
   5   1  -1    0.54    0.24
   5   1  -1    1.11    0.39
   5   1  -1    1.37    0.40
   5   1  -1    0.95    0.33
  -5  -1   1    0.78    0.35
   5   1  -1    1.08    0.35
   5   1   0  223.49    4.55
   5   1   0  232.64    4.36
   5   1   0  242.04    4.45
   5   1   0  218.93    3.93
   5   1   0  217.28    3.98
  -5  -1   0  232.34    3.50
   5   1   0  227.91    3.99
   5   1   0  239.38    3.76
   5   1   1  169.48    4.09
   5   1   1  175.92    3.78
  -5  -1  -1  178.38    3.83
   5   1   1  180.63    4.01
   5   1   1  169.34    3.69
   5   1   1  168.58    3.67
  -5  -1  -1  177.93    2.98
   5   1   1  175.14    3.70
   5   1   1  177.56    3.45
   5   1   1  172.93    3.52
   5   1   2  104.21    3.27
   5   1   2  107.86    2.90
  -5  -1  -2  109.58    3.14
   5   1   2  109.24    3.16
   5   1   2  103.88    3.12
   5   1   2  109.72    3.10
   5   1   2  105.38    3.04
  -5  -1  -2  104.64    2.02
   5   1   2  114.06    2.89
   5   1   3  137.90    3.72
  -5  -1  -3  136.18    3.58
   5   1   3  138.37    3.52
   5   1   3  127.29    3.43
   5   1   3  135.66    3.46
   5   1   3  131.37    3.48
   5   1   3  145.78    3.27
  -5  -1  -3  142.00    3.15
  -5  -1  -3  137.21    3.47
   5   1   4  168.57    3.95
   5   1   4  168.76    3.72
   5   1   4  175.15    3.88
   5   1   4  167.94    3.38
  -5  -1  -4  171.28    3.01
  -5  -1  -4  165.41    3.67
  -5  -1  -4  170.32    3.62
  -5  -1  -4  176.00    3.70
   5   1   5  175.02    3.68
   5   1   5  175.29    3.46
  -5  -1  -5  174.20    2.46
   5   1   5  171.81    3.56
  -5  -1  -5  175.17    3.12
   5   1   5  179.98    3.13
  -5  -1  -5  183.15    3.53
   5   2 -11   42.34    1.68
   5   2 -11   37.71    0.94
   5   2 -11   36.63    0.92
   5   2 -11   43.54    1.71
   5   2 -10  224.11    4.16
   5   2 -10  218.18    2.82
   5   2 -10  242.87    4.46
   5   2 -10  239.88    4.40
   5   2 -10  236.11    4.35
   5   2 -10  235.97    2.54
   5   2  -9  254.41    4.55
   5   2  -9  253.64    3.27
   5   2  -9  269.93    4.94
   5   2  -9  275.17    5.00
   5   2  -9  239.23    4.62
   5   2  -9  258.47    3.64
   5   2  -8  113.29    3.06
   5   2  -8  120.49    2.36
   5   2  -8  113.88    2.15
   5   2  -8  113.73    2.60
   5   2  -8  121.39    3.35
   5   2  -8  117.46    3.34
   5   2  -8  117.11    3.31
   5   2  -8  116.33    2.72
   5   2  -7   79.09    2.51
   5   2  -7   87.58    2.04
   5   2  -7   80.12    2.05
   5   2  -7   84.60    2.34
   5   2  -7   75.67    2.61
   5   2  -7   84.67    2.22
   5   2  -7   82.88    2.84
   5   2  -7   84.31    2.37
   5   2  -7   77.10    2.70
   5   2  -7   91.00    2.52
   5   2  -6  179.83    3.63
   5   2  -6  195.15    2.98
   5   2  -6  187.32    3.29
   5   2  -6  191.67    3.55
   5   2  -6  185.05    2.46
   5   2  -6  176.69    3.87
   5   2  -6  187.68    3.41
   5   2  -6  192.15    4.19
   5   2  -6  191.41    3.57
   5   2  -6  196.05    3.76
   5   2  -5  373.51    4.05
   5   2  -5  399.23    3.43
   5   2  -5  364.34    3.97
   5   2  -5  350.53    4.63
   5   2  -5  312.15    3.01
   5   2  -5  364.91    4.89
   5   2  -5  374.24    4.21
   5   2  -5  338.41    5.11
   5   2  -5  360.94    4.79
   5   2  -5  368.46    4.94
   5   2  -5  351.48    5.50
   5   2  -4    3.13    0.55
   5   2  -4    2.27    0.49
   5   2  -4    2.73    0.61
   5   2  -4    2.30    0.38
   5   2  -4    2.83    0.54
   5   2  -4    2.12    0.44
   5   2  -4    1.73    0.23
   5   2  -4    2.50    0.26
   5   2  -4    2.63    0.32
   5   2  -4    3.56    0.58
   5   2  -4    3.14    0.61
   5   2  -3   28.99    1.64
   5   2  -3   26.09    1.03
   5   2  -3   25.65    1.36
   5   2  -3   25.91    1.37
   5   2  -3   27.48    1.35
   5   2  -3   23.69    1.01
   5   2  -3   24.66    1.33
  -5  -2   3   25.37    1.24
   5   2  -3   27.89    1.39
   5   2  -3   27.47    1.11
   5   2  -3   23.78    1.31
   5   2  -3   22.84    1.35
   5   2  -2  180.04    4.02
   5   2  -2  176.67    2.48
   5   2  -2  186.10    3.69
   5   2  -2  175.49    3.53
   5   2  -2  178.61    3.58
   5   2  -2  188.05    3.20
  -5  -2   2  181.53    3.18
   5   2  -2  181.41    3.07
   5   2  -2  178.94    3.59
   5   2  -1 1653.00   12.21
   5   2  -1 1719.93   11.90
   5   2  -1 1703.50   11.33
   5   2  -1 1680.17   11.27
  -5  -2   1 1674.02    9.46
   5   2  -1 1682.25   11.23
   5   2  -1 1702.24   10.04
   5   2   0 1232.43   10.64
   5   2   0 1244.57   10.51
  -5  -2   0 1242.44   10.22
   5   2   0 1285.07   10.66
   5   2   0 1210.57    9.99
   5   2   0 1237.06   10.03
  -5  -2   0 1229.82    7.80
   5   2   0 1211.75    9.97
   5   2   0 1259.72    9.16
   5   2   1   64.62    2.51
   5   2   1   55.51    2.20
  -5  -2  -1   58.91    2.32
   5   2   1   61.94    2.43
   5   2   1   61.13    2.34
  -5  -2  -1   61.13    1.50
   5   2   1   56.10    2.23
   5   2   2  131.00    3.55
   5   2   2  138.35    3.30
  -5  -2  -2  145.24    3.68
   5   2   2  129.10    3.44
   5   2   2  131.43    3.43
   5   2   2  133.10    3.52
   5   2   2  142.10    3.22
  -5  -2  -2  140.22    3.14
  -5  -2  -2  132.73    3.44
   5   2   3  170.70    3.95
   5   2   3  174.37    3.87
   5   2   3  178.26    3.53
  -5  -2  -3  171.78    3.09
  -5  -2  -3  176.59    3.84
  -5  -2  -3  185.39    4.03
   5   2   4  194.15    3.99
   5   2   4  199.96    3.84
  -5  -2  -4  201.42    2.99
   5   2   4  201.65    3.47
  -5  -2  -4  188.66    3.70
  -5  -2  -4  197.22    3.84
  -5  -2  -4  198.61    3.81
   5   2   5    7.94    0.77
   5   2   5    7.96    0.76
  -5  -2  -5    6.48    0.44
   5   2   5    6.13    0.58
  -5  -2  -5    7.09    0.72
   5   3 -10   41.57    1.65
   5   3 -10   44.72    1.83
  -5  -3  10   42.41    1.48
   5   3 -10   46.10    1.82
   5   3 -10   44.10    1.26
   5   3  -9    1.04    0.38
   5   3  -9    0.73    0.41
   5   3  -9    0.37    0.25
   5   3  -9    0.78    0.23
   5   3  -9    0.39    0.40
  -5  -3   9    1.03    0.41
   5   3  -9    1.24    0.50
   5   3  -8  118.32    2.95
   5   3  -8  115.84    2.06
   5   3  -8  111.66    2.01
   5   3  -8  112.43    2.38
   5   3  -8  119.39    3.25
   5   3  -8  123.31    2.62
  -5  -3   8  113.55    2.70
   5   3  -8  117.46    3.30
   5   3  -8  120.50    2.88
   5   3  -8  120.73    2.92
   5   3  -7  331.99    3.58
   5   3  -7  317.51    4.43
   5   3  -7  325.62    4.93
   5   3  -7  324.57    2.72
   5   3  -7  321.53    5.32
   5   3  -7  317.01    4.59
  -5  -3   7  332.05    4.63
   5   3  -7  347.32    5.70
   5   3  -7  330.83    4.99
   5   3  -7  333.71    5.12
   5   3  -6   88.52    1.86
   5   3  -6   90.74    2.07
   5   3  -6   85.53    2.43
   5   3  -6   84.54    2.57
   5   3  -6   86.70    2.73
   5   3  -6   90.48    2.58
  -5  -3   6   83.95    2.33
   5   3  -6   88.18    2.66
   5   3  -6   84.66    2.83
   5   3  -5   51.43    1.41
   5   3  -5   52.70    2.04
   5   3  -5   53.47    1.80
   5   3  -5   48.52    1.99
   5   3  -5   50.91    1.97
  -5  -3   5   46.85    1.73
   5   3  -5   51.78    2.07
   5   3  -5   55.72    2.27
   5   3  -5   50.12    1.92
   5   3  -4  124.11    3.37
   5   3  -4  114.59    1.97
   5   3  -4  109.11    2.90
   5   3  -4  116.29    3.04
   5   3  -4  127.59    2.93
   5   3  -4  117.66    3.00
  -5  -3   4  113.38    2.60
   5   3  -4  115.86    2.16
   5   3  -4  120.48    3.11
   5   3  -4  115.23    3.17
   5   3  -3  109.04    3.23
   5   3  -3  102.24    2.87
   5   3  -3   98.53    2.82
   5   3  -3   99.89    2.80
  -5  -3   3  102.03    2.42
   5   3  -3  107.53    2.35
   5   3  -3  103.29    2.89
   5   3  -3  101.10    2.87
   5   3  -2  207.56    4.48
   5   3  -2  217.43    4.30
   5   3  -2  198.17    4.08
   5   3  -2  198.54    4.05
  -5  -3   2  206.04    3.31
   5   3  -2  210.93    4.21
   5   3  -2  213.83    3.57
   5   3  -1  430.41    6.39
   5   3  -1  424.52    6.13
   5   3  -1  433.67    6.06
  -5  -3   1  435.02    4.48
   5   3  -1  432.03    6.11
   5   3  -1  432.74    5.36
   5   3   0  107.23    3.15
  -5  -3   0  114.43    3.27
   5   3   0  114.20    3.25
   5   3   0  116.40    3.20
   5   3   0  111.31    3.18
   5   3   0  111.47    2.79
  -5  -3   0  111.99    2.96
   5   3   1    1.76    0.57
  -5  -3  -1    2.95    0.67
  -5  -3  -1    1.64    0.57
   5   3   1    2.10    0.57
   5   3   1    2.66    0.61
   5   3   1    2.41    0.67
  -5  -3  -1    3.06    0.57
   5   3   1    2.10    0.52
   5   3   2  113.88    2.92
   5   3   2  122.61    3.26
   5   3   2  121.05    2.89
  -5  -3  -2  115.88    2.51
  -5  -3  -2  114.16    3.09
  -5  -3  -2  125.44    3.40
   5   3   3    2.73    0.53
   5   3   3    3.78    0.66
  -5  -3  -3    3.75    0.49
   5   3   3    3.69    0.57
  -5  -3  -3    2.57    0.27
  -5  -3  -3    3.47    0.64
  -5  -3  -3    2.92    0.59
  -5  -3  -3    4.50    0.71
   5   3   4   46.26    1.69
   5   3   4   44.48    1.44
  -5  -3  -4   46.69    1.65
   5   4 -10   12.72    0.92
   5   4 -10   10.84    0.62
   5   4  -9   65.64    1.38
   5   4  -9   69.44    2.25
  -5  -4   9   63.55    1.70
   5   4  -9   68.71    2.27
   5   4  -9   70.82    1.99
   5   4  -8    0.41    0.33
   5   4  -8    0.18    0.36
   5   4  -8    0.45    0.36
  -5  -4   8    1.20    0.41
   5   4  -8    0.39    0.41
   5   4  -8    0.80    0.35
   5   4  -7   45.48    1.72
   5   4  -7   45.11    1.19
   5   4  -7   44.36    1.94
   5   4  -7   43.26    1.75
  -5  -4   7   45.38    1.60
   5   4  -7   47.20    2.09
   5   4  -6   10.55    0.49
   5   4  -6   11.28    0.96
   5   4  -6   12.61    0.54
   5   4  -6   13.70    0.89
   5   4  -6   12.68    1.05
   5   4  -6   11.44    0.98
  -5  -4   6   10.67    0.82
   5   4  -6   11.96    1.06
   5   4  -6    9.87    1.03
   5   4  -5   85.70    2.60
   5   4  -5   82.81    2.72
   5   4  -5   88.35    2.39
   5   4  -5   77.92    2.47
   5   4  -5   83.33    2.58
  -5  -4   5   83.57    2.14
   5   4  -5   79.58    1.28
   5   4  -5   85.67    2.74
   5   4  -5   86.12    2.80
   5   4  -4    3.58    0.70
   5   4  -4    2.91    0.60
   5   4  -4    4.53    0.70
   5   4  -4    3.60    0.65
   5   4  -4    3.12    0.61
   5   4  -4    3.52    0.66
  -5  -4   4    4.45    0.55
   5   4  -4    3.91    0.50
   5   4  -4    3.00    0.63
   5   4  -4    2.93    0.60
   5   4  -3    1.55    0.51
   5   4  -3    1.39    0.52
   5   4  -3    0.40    0.36
  -5  -4   3    1.90    0.39
   5   4  -3    1.80    0.46
   5   4  -3    2.24    0.51
   5   4  -2  189.02    4.24
   5   4  -2  197.10    4.17
   5   4  -2  192.30    4.04
  -5  -4   2  188.26    2.51
   5   4  -2  191.91    4.20
   5   4  -2  188.91    3.37
  -5  -4   1  262.14    4.96
   5   4  -1  265.88    4.85
   5   4  -1  259.07    4.71
   5   4  -1  263.58    4.94
   5   4  -1  263.57    4.09
  -5  -4   1  272.68    4.45
   5   4   0  146.05    3.58
   5   4   0  149.83    3.63
   5   4   0  151.55    3.61
   5   4   0  147.93    3.11
  -5  -4   0  157.83    3.16
  -5  -4   0  140.06    3.48
  -5  -4   0  145.72    3.64
   5   4   1   42.31    1.84
   5   4   1   43.16    1.95
   5   4   1   43.50    1.67
  -5  -4  -1   43.31    1.45
  -5  -4  -1   41.10    1.84
  -5  -4  -1   43.92    1.98
  -5  -4  -2    1.12    0.48
   5   4   2    0.32    0.35
   5   4   2    0.49    0.43
  -5  -4  -2    0.82    0.30
   5   4   2    1.77    0.43
  -5  -4  -2    0.24    0.34
   5   4   3   52.69    1.79
   5   4   3   49.31    1.44
   5   5  -9  123.87    2.67
  -5  -5   8  130.27    2.98
   5   5  -8  133.54    2.44
   5   5  -8  129.08    2.93
   5   5  -8  134.82    2.54
  -5  -5   8  123.36    1.81
   5   5  -8  131.83    3.04
   5   5  -7   42.98    1.61
   5   5  -7   38.18    0.91
   5   5  -7   38.58    1.66
   5   5  -7   41.04    1.61
  -5  -5   7   40.42    1.16
   5   5  -7   43.40    1.87
   5   5  -6    2.54    0.55
   5   5  -6    2.95    0.58
   5   5  -6    2.98    0.48
   5   5  -6    3.16    0.58
  -5  -5   6    3.48    0.40
   5   5  -6    2.77    0.57
   5   5  -5  148.95    3.35
   5   5  -5  156.19    3.05
   5   5  -5  141.33    3.26
  -5  -5   5  139.19    2.03
   5   5  -5  147.13    3.49
  -5  -5   4   85.39    2.74
   5   5  -4   84.12    2.41
   5   5  -4   77.39    2.48
   5   5  -4   80.93    2.56
   5   5  -4   78.20    1.66
   5   5  -4   80.29    2.54
   5   5  -3    6.00    0.81
  -5  -5   3    6.78    0.83
   5   5  -3    6.21    0.79
   5   5  -3    5.40    0.78
   5   5  -3    5.27    0.57
   5   5  -3    5.68    0.73
  -5  -5   3    5.54    0.71
   5   5  -2   95.15    2.91
   5   5  -2  104.73    2.93
   5   5  -2  104.02    2.32
  -5  -5   2  103.59    2.55
  -5  -5   2   95.27    2.83
   5   5  -1   17.13    1.25
   5   5  -1   22.67    1.41
   5   5  -1   19.31    1.29
   5   5  -1   19.27    1.05
  -5  -5   1   19.92    1.05
  -5  -5   1   22.69    1.38
   5   5   0   75.54    2.38
   5   5   0   86.55    2.60
  -5  -5   0   87.23    2.17
   5   5   0   77.70    2.42
   5   5   0   78.80    1.99
  -5  -5   0   74.44    1.47
  -5  -5   0   81.11    2.41
  -5  -5   0   78.53    2.40
   5   5   1  184.68    3.33
   5   5   1  192.80    3.58
  -5  -5  -1  180.45    3.29
   5   5   1  179.99    2.78
  -5  -5  -1  191.98    3.44
  -5  -5  -1  185.75    3.48
  -5  -6   7   28.69    1.32
   5   6  -7   28.56    1.14
   5   6  -7   31.63    1.22
  -5  -6   6  424.03    5.30
   5   6  -6  441.79    4.84
   5   6  -6  431.89    3.38
   5   6  -6  447.60    4.95
   5   6  -6  424.65    5.26
  -5  -6   5    3.80    0.61
   5   6  -5    3.62    0.56
   5   6  -5    5.19    0.55
   5   6  -5    2.36    0.51
   5   6  -5    4.05    0.60
  -5  -6   5    5.06    0.60
  -5  -6   4   23.59    1.27
   5   6  -4   26.51    1.02
   5   6  -4   27.78    1.21
   5   6  -4   23.99    1.29
   5   6  -4   24.19    1.25
  -5  -6   4   24.87    1.11
   5   6  -3   -0.01    0.35
  -5  -6   3    0.35    0.41
   5   6  -3    0.62    0.37
   5   6  -3   -0.06    0.33
   5   6  -3    0.28    0.34
   5   6  -3    0.33    0.18
  -5  -6   3    0.21    0.27
   5   6  -2   52.36    1.87
   5   6  -2   51.44    1.61
  -5  -6   2   56.26    1.60
   5   6  -2   49.20    1.80
   5   6  -2   48.81    1.14
  -5  -6   2   44.44    0.98
  -5  -6   2   50.31    1.81
  -5  -6   1   75.91    1.13
   5   6  -1   89.81    1.51
   6  -9  -5  150.31    3.32
   6  -9  -4   13.78    1.12
   6  -9  -4   10.04    0.44
   6  -9  -3   50.49    2.08
   6  -9  -3   48.65    1.35
   6  -9  -2   -0.21    0.39
   6  -9  -2    0.05    0.18
   6  -9  -1  139.17    2.24
   6  -9  -1  134.55    2.70
   6  -9  -1  133.64    2.75
   6  -9   0   30.04    1.00
   6  -9   0   33.91    1.55
   6  -9   1   68.27    1.31
   6  -9   1   68.85    2.13
   6  -9   2   11.19    0.84
   6  -8  -7  158.71    3.54
   6  -8  -6  148.61    3.56
   6  -8  -6  153.04    3.66
   6  -8  -5   46.51    2.12
   6  -8  -5   22.23    1.49
   6  -8  -4   41.27    2.04
   6  -8  -4   37.69    1.12
   6  -8  -4   41.42    2.01
   6  -8  -3   15.60    1.29
   6  -8  -3   14.71    0.85
   6  -8  -3   18.70    1.32
   6  -8  -3   15.59    0.89
   6  -8  -3   17.11    1.35
   6  -8  -2   70.04    2.57
   6  -8  -2   68.35    1.94
   6  -8  -2   65.13    2.34
   6  -8  -2   63.86    2.55
   6  -8  -1   61.26    2.52
   6  -8  -1   36.21    1.76
   6  -8   0    8.62    0.64
   6  -8   0    8.57    1.00
   6  -8   0    7.91    0.88
   6  -8   1   42.65    1.08
   6  -8   1   46.66    1.30
   6  -8   1   47.29    2.11
   6  -8   1   49.35    2.01
   6  -8   2   10.48    0.68
   6  -8   2    9.20    0.52
   6  -8   2   11.47    0.98
   6  -8   3  187.54    2.73
  -6   8  -3  176.58    3.03
   6  -8   3  181.40    3.31
   6  -7  -8  665.93    6.93
   6  -7  -8  646.20    7.43
   6  -7  -7    0.68    0.50
   6  -7  -7    0.48    0.42
   6  -7  -6   62.93    2.49
   6  -7  -6   65.36    2.42
   6  -7  -6   69.55    2.64
   6  -7  -6   64.33    2.60
   6  -7  -5   72.69    2.75
   6  -7  -5   72.31    1.14
   6  -7  -5   60.09    1.00
   6  -7  -5   74.32    2.58
   6  -7  -5   77.06    2.79
   6  -7  -5   74.95    2.81
   6  -7  -5   64.83    2.51
   6  -7  -4   42.63    2.10
   6  -7  -4   41.33    1.19
   6  -7  -4   38.30    1.95
   6  -7  -4   46.25    1.28
   6  -7  -4   45.76    2.18
   6  -7  -4   49.45    2.26
   6  -7  -3   41.86    2.06
   6  -7  -3   44.11    1.43
   6  -7  -3   41.68    2.02
   6  -7  -2  114.28    3.32
   6  -7  -2  116.03    2.51
   6  -7  -2  121.53    3.50
   6  -7  -1   35.29    1.82
   6  -7  -1   37.04    1.97
   6  -7  -1   37.94    1.87
   6  -7  -1   35.95    1.51
   6  -7   0   14.84    0.78
   6  -7   0    9.71    0.70
   6  -7   0   10.04    0.98
   6  -7   0   13.98    1.25
   6  -7   0   16.44    1.29
   6  -7   1  176.60    3.05
   6  -7   1  166.77    2.58
   6  -7   1  173.71    4.11
   6  -7   1  176.17    3.88
   6  -7   2   10.54    0.84
   6  -7   2    9.54    0.62
   6  -7   2    9.76    0.55
   6  -7   2   11.38    1.02
   6  -7   3   23.52    1.25
  -6   7  -3   22.27    1.28
   6  -7   3   22.27    0.91
   6  -7   3   21.24    1.28
   6  -7   4   71.71    2.01
  -6   7  -4   70.02    2.07
   6  -7   4   71.53    1.50
   6  -7   4   71.84    2.02
   6  -6  -9   76.68    2.38
   6  -6  -9   76.45    2.52
   6  -6  -8  119.62    3.18
   6  -6  -8  133.59    3.43
   6  -6  -8  127.92    3.30
   6  -6  -8  124.95    3.44
   6  -6  -8  118.04    3.42
   6  -6  -7   57.85    2.38
   6  -6  -7   57.16    2.32
   6  -6  -7   58.26    2.44
   6  -6  -7   55.03    2.24
   6  -6  -7   57.06    2.35
   6  -6  -7   60.36    2.48
   6  -6  -7   55.58    2.47
   6  -6  -7   54.73    2.42
   6  -6  -6  256.67    5.06
   6  -6  -6  270.26    4.94
   6  -6  -6  253.92    4.98
   6  -6  -6  282.51    4.99
   6  -6  -6  302.62    5.21
   6  -6  -6  294.94    5.50
   6  -6  -6  269.89    5.42
   6  -6  -6  255.05    5.13
   6  -6  -5    3.12    0.73
   6  -6  -5    2.57    0.22
   6  -6  -5    2.59    0.65
   6  -6  -5    3.32    0.25
   6  -6  -5    2.76    0.23
   6  -6  -5    3.50    0.66
   6  -6  -5    3.87    0.71
   6  -6  -5    3.17    0.70
   6  -6  -5    4.46    0.70
   6  -6  -5    4.11    0.77
   6  -6  -5    3.87    0.78
   6  -6  -5    3.47    0.72
   6  -6  -4   64.05    2.54
   6  -6  -4   70.62    1.48
   6  -6  -4   64.65    2.58
   6  -6  -4   75.94    2.51
   6  -6  -4   65.26    2.40
   6  -6  -4   70.18    2.37
   6  -6  -4   75.97    2.71
   6  -6  -4   72.82    2.80
   6  -6  -4   64.93    2.54
   6  -6  -3   12.05    1.14
   6  -6  -3   11.96    0.73
   6  -6  -3   11.39    1.15
   6  -6  -3   13.33    1.20
   6  -6  -3   14.47    1.27
   6  -6  -3   12.83    1.15
   6  -6  -2   94.78    2.95
   6  -6  -2   96.74    2.23
   6  -6  -2   89.13    2.89
   6  -6  -2   94.80    2.91
   6  -6  -1   20.57    0.83
   6  -6  -1   20.08    1.44
   6  -6  -1   22.46    1.59
   6  -6  -1   23.99    1.53
   6  -6  -1   21.83    1.47
   6  -6   0    2.37    0.43
   6  -6   0    3.26    0.68
   6  -6   0    1.92    0.62
   6  -6   0    1.67    0.56
   6  -6   0    3.02    0.66
   6  -6   1   82.63    1.89
   6  -6   1   80.10    1.81
   6  -6   1   83.35    2.78
   6  -6   1   77.07    2.82
   6  -6   1   84.16    2.25
   6  -6   1   81.14    2.76
   6  -6   1   79.77    2.66
   6  -6   2    2.93    0.45
   6  -6   2    2.98    0.50
   6  -6   2    3.74    0.66
   6  -6   2    3.87    0.60
   6  -6   2    2.71    0.63
   6  -6   2    2.56    0.48
   6  -6   3  115.91    2.54
   6  -6   3  115.59    2.96
   6  -6   3  115.23    2.95
   6  -6   3  114.50    2.60
  -6   6  -4   54.12    2.00
   6  -6   4   58.07    1.74
   6  -6   4   52.21    1.82
   6  -6   4   54.32    1.74
  -6   6  -5   11.07    0.85
   6  -6   5   11.47    0.74
   6  -6   5    9.61    0.69
   6  -5 -10    7.82    0.80
   6  -5  -9   71.01    2.50
   6  -5  -9   69.93    2.43
   6  -5  -9   74.18    2.61
   6  -5  -9   73.21    2.61
   6  -5  -9   66.20    2.47
   6  -5  -8  362.66    5.75
   6  -5  -8  362.50    5.82
   6  -5  -8  356.20    6.08
   6  -5  -8  366.52    5.66
   6  -5  -8  358.64    5.83
   6  -5  -8  373.02    6.08
   6  -5  -8  345.27    5.90
   6  -5  -8  359.64    6.15
   6  -5  -7   34.07    1.87
   6  -5  -7   36.62    1.88
   6  -5  -7   32.21    1.87
   6  -5  -7   30.59    1.66
   6  -5  -7   31.69    1.77
   6  -5  -7   31.79    1.85
   6  -5  -7   30.22    1.85
   6  -5  -7   38.33    2.09
   6  -5  -6   17.04    1.38
   6  -5  -6   14.84    1.28
   6  -5  -6   18.17    1.33
   6  -5  -6   16.67    1.37
   6  -5  -6   17.64    1.28
   6  -5  -6   17.36    1.27
   6  -5  -6   18.02    1.39
   6  -5  -6   20.41    1.56
   6  -5  -6   16.40    1.38
   6  -5  -5  601.15    7.70
   6  -5  -5  633.45    7.87
   6  -5  -5  595.21    2.95
   6  -5  -5  636.48    7.25
   6  -5  -5  581.51    7.54
   6  -5  -5  634.22    7.30
   6  -5  -5  613.12    7.08
   6  -5  -5  638.15    7.61
   6  -5  -5  600.82    8.03
   6  -5  -5  583.19    2.97
   6  -5  -5  612.32    7.89
   6  -5  -4  139.85    3.61
   6  -5  -4  154.11    2.03
   6  -5  -4  147.03    3.81
   6  -5  -4  149.68    3.39
   6  -5  -4  134.39    3.58
   6  -5  -4  155.08    3.57
   6  -5  -4  145.05    3.25
   6  -5  -4  143.14    3.49
   6  -5  -4  151.33    3.95
   6  -5  -4  166.64    4.08
   6  -5  -3   66.67    2.53
   6  -5  -3   71.92    2.55
   6  -5  -3   76.71    1.69
   6  -5  -3   68.29    2.58
   6  -5  -3   68.42    2.48
   6  -5  -3   68.65    2.40
   6  -5  -3   72.11    2.72
   6  -5  -2    1.53    0.52
   6  -5  -2    1.06    0.17
   6  -5  -2    2.30    0.19
   6  -5  -2    1.84    0.55
   6  -5  -2    2.41    0.39
   6  -5  -2    2.16    0.60
   6  -5  -2    4.15    0.68
   6  -5  -2    2.96    0.63
   6  -5  -2    2.63    0.62
   6  -5  -1  196.07    4.18
   6  -5  -1  208.98    4.37
   6  -5  -1  201.43    4.01
   6  -5  -1  201.47    4.11
   6  -5   0  111.52    2.09
   6  -5   0  122.26    3.45
   6  -5   0  114.64    3.32
   6  -5   0  127.46    2.62
   6  -5   0  113.16    3.05
   6  -5   0  110.53    3.08
   6  -5   1   50.74    2.23
   6  -5   1   46.27    1.43
   6  -5   1   52.06    2.17
   6  -5   1   49.47    1.67
   6  -5   1   53.96    2.27
   6  -5   1   52.44    1.91
   6  -5   1   47.31    1.80
   6  -5   1   43.91    1.95
   6  -5   1   50.41    1.73
   6  -5   2   23.34    0.98
   6  -5   2   26.37    1.58
   6  -5   2   24.01    1.27
   6  -5   2   22.56    1.34
   6  -5   2   26.35    1.45
   6  -5   2   21.55    0.68
   6  -5   2   22.50    1.49
   6  -5   2   24.84    1.48
   6  -5   2   22.82    1.28
   6  -5   3    6.45    0.87
   6  -5   3    6.35    0.72
   6  -5   3    6.86    0.85
   6  -5   3    5.73    0.73
   6  -5   3    6.23    0.50
   6  -5   3    6.65    0.80
   6  -5   3    8.11    0.81
  -6   5  -4   32.49    1.63
   6  -5   4   28.72    1.49
   6  -5   4   30.14    1.58
   6  -5   4   30.57    1.44
   6  -5   4   29.31    0.98
   6  -5   4   28.63    1.42
  -6   5  -5   27.65    1.35
   6  -5   5   28.70    1.42
   6  -5   5   27.93    1.24
   6  -5   5   27.53    1.27
   6  -4 -10    2.01    0.57
   6  -4 -10    2.35    0.58
   6  -4 -10    2.25    0.54
   6  -4  -9    1.43    0.51
   6  -4  -9    2.59    0.69
   6  -4  -9    2.27    0.63
   6  -4  -9    1.06    0.51
   6  -4  -9    2.29    0.63
   6  -4  -9    3.19    0.71
   6  -4  -8   32.34    1.80
   6  -4  -8   32.34    1.78
   6  -4  -8   34.04    1.93
   6  -4  -8   31.07    1.68
   6  -4  -8   29.44    1.74
   6  -4  -8   32.38    1.87
   6  -4  -8   31.76    1.85
   6  -4  -8   31.88    1.84
   6  -4  -8   32.39    1.88
   6  -4  -7   48.86    2.24
   6  -4  -7   59.33    2.37
   6  -4  -7   54.77    2.43
   6  -4  -7   56.41    2.22
   6  -4  -7   57.29    2.32
   6  -4  -7   55.09    2.36
   6  -4  -7   57.28    2.39
   6  -4  -7   52.75    2.38
   6  -4  -7   54.97    2.42
   6  -4  -6  542.30    7.26
   6  -4  -6  520.96    2.28
   6  -4  -6  573.85    7.33
   6  -4  -6  541.67    7.45
   6  -4  -6  576.51    6.97
   6  -4  -6  562.67    7.52
   6  -4  -6  581.45    6.79
   6  -4  -6  545.74    6.85
   6  -4  -6  558.71    7.18
   6  -4  -6  595.08    7.33
   6  -4  -6  547.86    7.50
   6  -4  -6  581.72    7.72
   6  -4  -5   31.94    1.76
   6  -4  -5   31.85    0.77
   6  -4  -5   27.71    1.63
   6  -4  -5   28.20    0.75
   6  -4  -5   29.50    1.53
   6  -4  -5   33.53    1.82
   6  -4  -5   31.58    1.58
   6  -4  -5   31.26    1.56
   6  -4  -5   31.21    1.64
   6  -4  -5   32.73    1.65
   6  -4  -5   33.75    1.88
   6  -4  -5   28.49    1.73
   6  -4  -4   26.43    1.65
   6  -4  -4   25.21    1.52
   6  -4  -4   28.21    1.64
   6  -4  -4   29.53    0.90
   6  -4  -4   23.93    1.53
   6  -4  -4   27.41    1.44
   6  -4  -4   28.95    1.52
   6  -4  -4   26.27    1.68
   6  -4  -3  153.88    3.81
   6  -4  -3  153.94    3.58
   6  -4  -3  172.79    2.47
   6  -4  -3  162.06    3.86
   6  -4  -3  152.72    3.72
   6  -4  -3  166.71    3.47
   6  -4  -3  161.45    3.46
   6  -4  -3  173.45    4.15
   6  -4  -3  171.15    3.62
   6  -4  -2   82.24    2.78
   6  -4  -2   90.93    2.05
   6  -4  -2   86.52    2.87
   6  -4  -2   90.51    2.55
   6  -4  -2   86.23    2.63
   6  -4  -1  171.73    4.01
   6  -4  -1  164.48    3.96
   6  -4  -1  168.38    2.36
   6  -4  -1  179.46    2.85
   6  -4  -1  176.39    3.56
   6  -4  -1  165.86    3.66
   6  -4  -1  174.45    3.02
   6  -4   0   43.50    1.56
   6  -4   0   39.20    1.95
   6  -4   0   55.13    2.54
   6  -4   0   40.85    1.31
   6  -4   0   37.79    1.95
   6  -4   0   56.65    1.71
   6  -4   0   42.84    1.90
   6  -4   0   41.25    1.59
   6  -4   0   39.11    1.49
   6  -4   0   44.91    1.67
   6  -4   0   37.36    1.77
   6  -4   0   40.87    1.64
   6  -4   1    8.79    0.84
   6  -4   1    9.74    1.00
   6  -4   1   10.67    1.17
   6  -4   1    7.73    0.63
   6  -4   1    7.75    0.92
   6  -4   1    7.42    0.76
   6  -4   1    6.84    0.91
   6  -4   1    8.83    0.86
   6  -4   1    6.50    0.74
   6  -4   1    8.10    0.83
   6  -4   1    7.92    0.55
   6  -4   1    7.07    0.83
   6  -4   1    7.28    0.82
   6  -4   2   44.95    1.83
   6  -4   2   46.03    1.33
   6  -4   2   51.09    2.19
   6  -4   2   42.37    1.76
   6  -4   2   51.52    2.29
   6  -4   2   46.81    1.96
   6  -4   2   48.11    1.90
   6  -4   2   47.52    1.97
   6  -4   2   52.39    1.60
  -6   4  -2   43.02    1.62
   6  -4   2   41.17    1.86
   6  -4   3   22.33    1.48
   6  -4   3   20.13    1.26
   6  -4   3   18.49    0.56
   6  -4   3   21.63    1.45
   6  -4   3   22.35    1.42
   6  -4   3   24.03    1.40
   6  -4   3   20.97    1.09
   6  -4   3   20.95    1.30
   6  -4   3   20.29    1.28
  -6   4  -4   23.46    1.42
   6  -4   4   23.80    1.43
   6  -4   4   24.05    1.36
   6  -4   4   24.25    1.47
   6  -4   4   23.34    1.35
   6  -4   4   24.81    1.16
   6  -4   4   23.82    1.35
   6  -4   5   72.92    2.27
   6  -4   5   70.88    2.09
   6  -4   5   72.46    2.19
   6  -4   5   67.31    1.62
  -6   4  -5   71.16    2.04
   6  -4   5   70.22    2.09
   6  -3 -11   49.90    1.85
   6  -3 -10   13.13    0.47
   6  -3 -10    0.15    0.12
   6  -3 -10   14.25    1.17
   6  -3 -10   16.12    1.16
   6  -3 -10   15.27    1.21
   6  -3 -10   15.46    1.28
   6  -3 -10    0.14    0.37
   6  -3  -9  554.58    3.62
   6  -3  -9  562.58    7.27
   6  -3  -9  589.71    7.63
   6  -3  -9  572.75    6.84
   6  -3  -9  570.14    7.38
   6  -3  -9  582.11    7.71
   6  -3  -9  602.38    7.56
   6  -3  -8  246.01    4.86
   6  -3  -8  244.59    2.44
   6  -3  -8  245.59    4.82
   6  -3  -8  260.91    5.14
   6  -3  -8  246.22    4.48
   6  -3  -8  251.48    4.91
   6  -3  -8  253.81    5.06
   6  -3  -8  256.66    5.10
   6  -3  -8  252.96    4.96
   6  -3  -8  260.75    5.11
   6  -3  -7  132.68    3.62
   6  -3  -7  125.63    1.71
   6  -3  -7  128.47    3.42
   6  -3  -7  132.94    3.67
   6  -3  -7  143.90    3.36
   6  -3  -7  132.48    3.48
   6  -3  -7  137.59    3.58
   6  -3  -7  126.78    3.52
   6  -3  -7  128.87    3.60
   6  -3  -7  137.33    3.70
   6  -3  -6    2.78    0.64
   6  -3  -6    2.22    0.26
   6  -3  -6    1.92    0.52
   6  -3  -6    2.81    0.58
   6  -3  -6    2.93    0.66
   6  -3  -6    2.23    0.53
   6  -3  -6    2.34    0.55
   6  -3  -6    2.98    0.63
   6  -3  -6    3.07    0.68
   6  -3  -5  311.08    5.46
   6  -3  -5  305.81    5.23
   6  -3  -5  314.63    2.87
   6  -3  -5  307.47    5.05
   6  -3  -5  298.22    4.65
   6  -3  -5  310.14    5.38
   6  -3  -5  303.92    4.73
   6  -3  -5  298.00    4.84
   6  -3  -5  312.37    5.05
   6  -3  -5  286.43    5.32
   6  -3  -4  367.81    5.88
   6  -3  -4  368.37    5.61
   6  -3  -4  387.30    3.49
   6  -3  -4  386.17    5.65
   6  -3  -4  378.13    5.88
   6  -3  -4  363.11    5.05
   6  -3  -4  384.14    5.38
   6  -3  -4  361.41    5.92
   6  -3  -3  101.35    3.09
   6  -3  -3  107.90    3.20
   6  -3  -3   94.53    2.79
   6  -3  -3   96.85    1.96
   6  -3  -3  103.38    2.98
   6  -3  -3   94.54    2.49
   6  -3  -3   96.53    2.68
   6  -3  -3   94.37    1.61
   6  -3  -2    6.38    0.87
   6  -3  -2    5.93    0.84
   6  -3  -2    6.42    0.82
   6  -3  -2    7.63    0.63
   6  -3  -2    5.81    0.51
   6  -3  -2    5.39    0.73
   6  -3  -2    6.27    0.56
   6  -3  -2    5.92    0.43
   6  -3  -1  252.03    4.89
   6  -3  -1  281.98    5.04
   6  -3  -1  245.43    4.77
   6  -3  -1  263.11    3.44
   6  -3  -1  270.61    3.70
   6  -3  -1  268.29    3.61
   6  -3  -1  273.63    3.72
   6  -3  -1  250.30    4.38
   6  -3  -1  267.55    3.85
   6  -3   0  707.24    8.34
   6  -3   0  808.08    8.46
   6  -3   0  757.44    5.55
   6  -3   0  747.97    6.50
   6  -3   0  703.30    8.21
   6  -3   0  765.39    6.92
   6  -3   0  758.42    6.74
   6  -3   0  762.95    6.88
   6  -3   0  731.21    4.96
   6  -3   0  721.17    7.49
   6  -3   0  755.00    7.13
   6  -3   1  183.85    4.23
   6  -3   1  208.10    4.22
   6  -3   1  178.91    2.69
   6  -3   1  189.67    4.07
   6  -3   1  187.26    3.54
   6  -3   1  162.99    1.91
   6  -3   1  187.21    2.04
   6  -3   1  185.78    4.33
   6  -3   1  195.20    3.86
   6  -3   1  175.45    3.49
   6  -3   1  188.11    3.71
   6  -3   1  191.19    3.11
   6  -3   1  173.38    3.72
   6  -3   2   46.54    2.16
   6  -3   2   39.15    1.18
   6  -3   2   42.51    2.00
   6  -3   2   41.30    1.78
   6  -3   2   45.90    1.40
   6  -3   2   41.08    2.06
   6  -3   2   41.15    1.90
   6  -3   2   40.50    1.80
   6  -3   2   44.62    1.94
   6  -3   2   45.43    1.69
  -6   3  -2   41.17    1.56
   6  -3   2   40.61    1.80
   6  -3   3   19.32    1.36
   6  -3   3   15.63    1.23
   6  -3   3   13.73    1.08
   6  -3   3   18.59    0.98
   6  -3   3   14.98    1.27
   6  -3   3   15.88    1.19
   6  -3   3   16.51    1.26
   6  -3   3   16.11    1.07
   6  -3   3   15.88    1.11
   6  -3   4   12.79    1.08
   6  -3   4   11.73    1.05
   6  -3   4   10.53    0.96
   6  -3   4   12.65    0.78
   6  -3   4   13.15    1.13
   6  -3   4   10.93    0.99
   6  -3   4   11.29    0.88
   6  -3   5   23.53    1.35
   6  -3   5   24.04    1.29
   6  -3   5   19.51    0.67
   6  -3   5   22.54    1.29
   6  -3   5   22.48    1.26
   6  -3   5   22.63    1.07
  -6   3  -5   22.51    1.14
   6  -3   5   22.61    1.26
   6  -2 -11   16.61    0.62
   6  -2 -11   19.09    1.22
   6  -2 -11   18.28    1.20
   6  -2 -10  102.61    1.90
   6  -2 -10  102.49    3.05
   6  -2 -10  110.71    3.16
   6  -2 -10  105.34    3.12
   6  -2 -10  108.77    3.12
   6  -2  -9   89.18    2.92
   6  -2  -9   89.16    2.90
   6  -2  -9   83.77    2.87
   6  -2  -9   92.59    3.05
   6  -2  -9   90.06    2.93
   6  -2  -8    6.62    0.54
   6  -2  -8    6.86    0.87
   6  -2  -8    7.73    0.96
   6  -2  -8    5.66    0.85
   6  -2  -8    7.76    0.97
   6  -2  -8    5.25    0.79
   6  -2  -7  272.17    3.14
   6  -2  -7  262.03    4.81
   6  -2  -7  260.56    5.03
   6  -2  -7  258.88    4.82
   6  -2  -7  257.85    4.80
   6  -2  -7  256.99    4.93
   6  -2  -7  261.18    5.03
   6  -2  -7  270.00    5.02
   6  -2  -6 1148.85   10.29
   6  -2  -6 1141.73   10.30
   6  -2  -6 1138.04    9.48
   6  -2  -6 1109.60    9.53
   6  -2  -6 1142.09    9.60
   6  -2  -6 1138.70   10.01
   6  -2  -6 1114.75   10.35
   6  -2  -6 1165.29    6.39
   6  -2  -5  171.05    3.95
   6  -2  -5  171.09    3.92
   6  -2  -5  168.18    2.45
   6  -2  -5  163.33    3.36
   6  -2  -5  178.08    4.04
   6  -2  -5  167.29    3.53
   6  -2  -5  169.02    3.52
   6  -2  -5  173.75    3.81
   6  -2  -4  140.95    3.55
   6  -2  -4  146.17    3.72
   6  -2  -4  131.23    3.36
   6  -2  -4  135.35    2.35
   6  -2  -4  144.51    3.12
   6  -2  -4  138.95    3.30
   6  -2  -4  139.60    1.94
   6  -2  -3    9.81    1.00
   6  -2  -3    9.45    0.97
   6  -2  -3    9.93    0.99
   6  -2  -3    8.41    0.47
   6  -2  -3    9.13    0.68
   6  -2  -3    7.71    0.84
   6  -2  -3    8.75    0.57
   6  -2  -3    8.53    0.86
   6  -2  -3    8.42    0.61
   6  -2  -2  322.58    5.49
   6  -2  -2  345.64    5.53
   6  -2  -2  325.51    3.66
   6  -2  -2  320.11    3.79
   6  -2  -2  322.49    3.77
   6  -2  -2  331.66    5.27
   6  -2  -2  336.94    3.92
   6  -2  -2  325.21    4.95
   6  -2  -2  328.86    4.05
   6  -2  -1  134.73    3.62
   6  -2  -1  137.90    3.44
   6  -2  -1  136.22    2.33
   6  -2  -1  130.12    3.46
   6  -2  -1  133.87    2.73
   6  -2  -1  131.48    2.71
   6  -2  -1  131.21    2.06
   6  -2  -1  137.08    2.77
   6  -2  -1  128.46    3.13
   6  -2  -1  129.75    2.82
   6  -2   0  158.27    4.00
   6  -2   0  178.50    3.91
   6  -2   0  169.38    2.66
   6  -2   0  171.20    3.75
   6  -2   0  158.97    3.15
   6  -2   0  166.72    2.16
   6  -2   0  189.53    2.35
   6  -2   0  172.39    4.08
   6  -2   0  168.32    3.35
   6  -2   0  173.04    3.34
   6  -2   0  169.96    2.92
   6  -2   0  158.35    3.23
   6  -2   0  168.43    3.60
   6  -2   1    0.75    0.48
   6  -2   1    1.47    0.51
   6  -2   1    0.87    0.43
   6  -2   1    0.74    0.50
   6  -2   1    1.01    0.33
   6  -2   1    3.38    0.60
   6  -2   1    1.63    0.56
   6  -2   1    3.44    0.59
   6  -2   1    0.26    0.36
   6  -2   1    1.74    0.40
   6  -2   1    4.03    0.57
  -6   2  -1    0.75    0.38
   6  -2   1    3.18    0.65
   6  -2   2  121.82    3.53
   6  -2   2  124.36    3.37
   6  -2   2  128.54    3.18
   6  -2   2  136.37    2.90
   6  -2   2  129.31    3.62
   6  -2   2  120.64    3.22
   6  -2   2  118.80    3.07
   6  -2   2  116.82    3.16
   6  -2   2  123.95    2.94
  -6   2  -2  121.86    2.63
   6  -2   2  113.35    2.94
   6  -2   3    0.72    0.50
   6  -2   3    0.73    0.45
   6  -2   3   -0.45    0.40
   6  -2   3    1.15    0.51
   6  -2   3    0.47    0.42
   6  -2   3    1.61    0.41
   6  -2   3    0.20    0.41
   6  -2   3    0.61    0.40
   6  -2   4   17.01    1.24
   6  -2   4   12.86    1.07
   6  -2   4   15.28    1.17
   6  -2   4   14.25    0.93
   6  -2   4   13.79    1.17
   6  -2   4   13.22    1.08
   6  -2   4   14.85    1.05
   6  -2   5    1.49    0.44
   6  -2   5    1.18    0.42
   6  -2   5    0.83    0.39
   6  -2   5    1.53    0.50
   6  -2   5    1.19    0.31
   6  -2   5    1.07    0.42
   6  -2   5    1.25    0.36
  -6   2  -5    1.03    0.37
   6  -1 -11   -0.06    0.23
   6  -1 -11    0.28    0.21
   6  -1 -11    0.35    0.36
   6  -1 -11    0.50    0.40
   6  -1 -11    0.29    0.36
   6  -1 -10   10.54    1.03
   6  -1 -10    9.39    0.70
   6  -1 -10    8.60    0.95
   6  -1 -10   10.40    1.04
   6  -1 -10    9.87    1.00
   6  -1 -10   10.64    1.05
   6  -1  -9   87.12    2.82
   6  -1  -9   88.95    2.10
   6  -1  -9   80.54    2.77
   6  -1  -9   86.83    2.92
   6  -1  -9   86.53    2.88
   6  -1  -9   88.56    2.89
   6  -1  -8  257.91    4.84
   6  -1  -8  260.97    3.62
   6  -1  -8  251.04    4.86
   6  -1  -8  260.71    4.86
   6  -1  -8  248.61    4.89
   6  -1  -8  244.63    4.82
   6  -1  -8  254.36    4.90
   6  -1  -7 1473.49   11.26
   6  -1  -7 1475.91    8.46
   6  -1  -7 1459.76   11.34
   6  -1  -7 1493.43   11.55
   6  -1  -7 1443.91   11.44
   6  -1  -7 1440.76   11.50
   6  -1  -7 1490.95   11.44
   6  -1  -6   47.28    1.51
   6  -1  -6   45.16    1.90
   6  -1  -6   47.59    2.09
   6  -1  -6   42.93    1.94
   6  -1  -6   45.26    1.93
   6  -1  -6   48.06    2.10
   6  -1  -6   42.53    0.90
   6  -1  -5    4.29    0.69
   6  -1  -5    4.27    0.51
   6  -1  -5    3.79    0.68
   6  -1  -5    3.59    0.64
   6  -1  -5    3.92    0.61
   6  -1  -5    4.77    0.74
   6  -1  -5    4.12    0.43
   6  -1  -4   19.44    1.33
   6  -1  -4   20.07    0.77
   6  -1  -4   16.94    1.29
   6  -1  -4   17.94    0.83
   6  -1  -4   18.01    1.22
   6  -1  -4   19.96    0.94
   6  -1  -3  132.66    3.47
   6  -1  -3  138.78    3.53
   6  -1  -3  130.73    2.44
   6  -1  -3  134.43    2.46
   6  -1  -3  140.74    2.55
   6  -1  -3  132.84    2.36
   6  -1  -3  131.64    3.18
   6  -1  -3  130.48    2.57
   6  -1  -2  226.60    4.63
   6  -1  -2  216.58    4.35
   6  -1  -2  221.64    3.38
   6  -1  -2  225.52    3.49
   6  -1  -2  228.57    3.52
   6  -1  -2  224.22    2.67
   6  -1  -2  229.41    3.51
   6  -1  -2  227.80    4.21
   6  -1  -2  230.67    3.70
   6  -1  -1  131.23    3.60
   6  -1  -1  138.31    3.47
   6  -1  -1  133.01    2.38
   6  -1  -1  134.75    2.85
   6  -1  -1  134.80    2.03
   6  -1  -1  135.41    2.04
   6  -1  -1  127.79    3.32
   6  -1  -1  124.27    2.81
   6  -1  -1  136.96    2.92
   6  -1  -1  132.00    2.52
   6  -1  -1  134.39    2.89
   6  -1  -1  127.07    3.14
   6  -1   0  392.78    6.29
   6  -1   0  405.59    5.93
   6  -1   0  431.30    4.12
   6  -1   0  407.01    5.84
   6  -1   0  397.09    5.21
   6  -1   0  447.36    4.71
   6  -1   0  395.05    6.05
   6  -1   0  404.03    5.38
   6  -1   0  405.51    5.33
   6  -1   0  410.50    4.95
   6  -1   0  394.10    5.27
  -6   1   0  401.29    4.83
   6  -1   0  385.72    3.22
   6  -1   0  393.25    5.56
   6  -1   1   75.81    2.84
   6  -1   1   82.06    2.63
   6  -1   1   76.23    1.56
   6  -1   1   77.53    2.64
   6  -1   1   76.92    2.45
   6  -1   1   90.19    2.39
   6  -1   1   70.79    2.65
   6  -1   1   81.95    2.56
   6  -1   1   76.80    2.47
   6  -1   1   81.60    2.38
   6  -1   1   71.65    2.40
  -6   1  -1   82.52    2.18
   6  -1   1   74.25    1.78
   6  -1   1   71.57    2.38
   6  -1   2    0.53    0.50
   6  -1   2    0.25    0.45
   6  -1   2    0.50    0.41
   6  -1   2    0.83    0.53
   6  -1   2    0.13    0.41
   6  -1   2    1.02    0.44
   6  -1   2    0.06    0.36
   6  -1   2    0.23    0.36
  -6   1  -2   -0.02    0.33
   6  -1   2    0.32    0.35
   6  -1   2    0.98    0.44
   6  -1   3   11.83    1.17
   6  -1   3   14.98    1.21
   6  -1   3   10.92    1.02
   6  -1   3   16.25    1.10
   6  -1   3   11.98    1.13
   6  -1   3   12.02    1.06
   6  -1   3   12.47    1.12
   6  -1   3   12.45    0.81
   6  -1   4   48.15    2.04
   6  -1   4   47.44    1.97
   6  -1   4   48.81    1.71
   6  -1   4   45.25    1.97
   6  -1   4   44.21    1.87
   6  -1   4   44.72    1.27
  -6   1  -4   46.08    1.70
   6  -1   5   18.56    1.12
   6  -1   5   17.36    1.10
   6  -1   5   15.33    0.78
   6  -1   5   21.42    1.23
   6  -1   5   16.64    1.07
   6  -1   5   18.43    1.02
  -6   1  -5   18.14    1.12
  -6   1  -5   18.30    0.81
   6   0 -11  105.94    1.94
   6   0 -11  101.94    2.11
   6   0 -11  110.69    2.84
   6   0 -11  113.16    2.81
   6   0 -11  101.23    2.68
   6   0 -10   29.14    1.61
   6   0 -10   28.02    1.27
   6   0 -10   27.82    1.61
   6   0 -10   28.08    1.60
   6   0 -10   25.56    1.46
   6   0 -10   27.85    1.58
   6   0  -9  328.94    5.42
   6   0  -9  335.08    4.45
   6   0  -9  332.20    5.56
   6   0  -9  320.69    5.34
   6   0  -9  339.36    5.54
   6   0  -8   32.88    1.76
   6   0  -8   32.93    1.79
   6   0  -8   35.05    1.88
   6   0  -8   34.22    1.81
   6   0  -8   32.33    1.79
   6   0  -7 1115.88    9.76
   6   0  -7 1128.20    9.95
   6   0  -7 1068.48    9.99
   6   0  -7 1114.50   10.03
   6   0  -7 1169.55   10.18
   6   0  -7 1159.34    6.10
   6   0  -6    3.12    0.39
   6   0  -6    3.15    0.61
   6   0  -6    3.57    0.64
   6   0  -6    2.46    0.58
   6   0  -6    2.17    0.65
   6   0  -6    3.34    0.44
   6   0  -5   29.10    1.17
   6   0  -5   29.91    1.07
   6   0  -5   29.06    1.55
   6   0  -5   29.60    1.22
   6   0  -4    2.57    0.64
   6   0  -4    2.76    0.44
   6   0  -4    1.92    0.38
   6   0  -4    4.12    0.52
   6   0  -4    2.65    0.45
   6   0  -4    2.90    0.47
   6   0  -3  138.47    3.48
   6   0  -3  143.69    2.77
   6   0  -3  144.31    3.64
   6   0  -3  140.82    2.47
   6   0  -3  131.35    2.76
   6   0  -3  141.08    2.17
   6   0  -3  140.68    2.82
   6   0  -3  140.01    2.85
   6   0  -3  141.12    2.96
   6   0  -2  403.05    6.15
   6   0  -2  381.76    5.88
   6   0  -2  410.28    4.17
   6   0  -2  407.56    3.49
   6   0  -2  399.57    5.04
   6   0  -2  394.12    4.40
   6   0  -2  395.17    4.97
   6   0  -2  393.15    5.00
   6   0  -2  391.49    4.89
   6   0  -1   63.28    2.52
   6   0  -1   65.86    2.47
   6   0  -1   65.54    1.64
   6   0  -1   66.71    2.16
   6   0  -1   65.64    2.18
   6   0  -1   67.77    2.02
   6   0  -1   60.76    2.07
   6   0  -1   70.67    1.88
   6   0  -1   66.49    2.19
  -6   0   1   65.95    1.99
   6   0  -1   60.31    1.31
   6   0  -1   61.39    2.24
   6   0   0   82.80    2.92
   6   0   0   83.15    2.75
   6   0   0   89.87    1.73
   6   0   0   81.24    2.69
   6   0   0   80.95    2.50
   6   0   0   86.38    2.32
   6   0   0   81.14    2.70
   6   0   0   76.21    2.45
   6   0   0   73.10    2.39
   6   0   0   82.34    2.38
   6   0   0   74.63    2.44
  -6   0   0   78.94    2.15
   6   0   0   76.90    1.83
   6   0   0   76.16    2.48
   6   0   1  815.58    9.16
   6   0   1  830.19    8.35
   6   0   1  823.16    8.66
   6   0   1  825.20    8.19
   6   0   1  893.48    7.85
   6   0   1  838.68    8.82
   6   0   1  765.21    8.05
   6   0   1  818.07    8.17
   6   0   1  847.35    7.91
   6   0   1  790.87    8.20
  -6   0  -1  811.45    6.62
   6   0   1  813.94    6.42
   6   0   1  821.73    7.88
   6   0   2   90.21    3.03
   6   0   2   97.06    2.95
   6   0   2  103.48    2.75
   6   0   2   88.44    2.86
   6   0   2   93.46    2.79
   6   0   2   91.80    2.89
  -6   0  -2   97.11    1.98
   6   0   2   93.32    2.25
   6   0   3    4.82    0.80
   6   0   3    5.07    0.75
   6   0   3    3.71    0.62
   6   0   3    6.76    0.86
   6   0   3    4.72    0.74
   6   0   3    3.95    0.53
  -6   0  -3    4.59    0.69
   6   0   4    6.83    0.80
   6   0   4    7.99    0.86
   6   0   4    6.31    0.77
   6   0   4    7.78    0.84
   6   0   4    6.62    0.52
  -6   0  -4    8.47    0.71
  -6   0  -4    7.46    0.84
   6   1 -11   46.14    1.17
   6   1 -11   47.82    1.81
   6   1 -10   75.88    2.46
   6   1 -10   77.16    1.75
   6   1 -10   80.87    2.59
   6   1 -10   80.80    2.61
   6   1 -10   77.73    2.50
   6   1  -9   20.07    1.34
   6   1  -9   20.72    1.01
   6   1  -9   20.38    1.41
   6   1  -9   21.73    1.48
   6   1  -9   17.60    1.31
   6   1  -8  279.45    4.86
   6   1  -8  295.27    3.74
   6   1  -8  267.33    4.89
   6   1  -8  294.45    5.31
   6   1  -8  274.07    5.00
   6   1  -8  271.69    3.25
   6   1  -7  220.43    2.18
   6   1  -7  238.36    4.44
   6   1  -7  256.11    3.53
   6   1  -7  235.32    3.27
   6   1  -7  219.61    4.39
   6   1  -7  239.17    4.73
   6   1  -7  237.20    4.65
   6   1  -7  228.06    3.42
   6   1  -6   59.69    1.70
   6   1  -6   56.54    1.77
   6   1  -6   52.40    2.08
   6   1  -6   55.71    1.64
   6   1  -6   55.50    1.53
   6   1  -6   50.00    2.15
   6   1  -6   57.81    1.85
   6   1  -5   95.96    2.12
   6   1  -5   90.55    2.05
   6   1  -5   94.63    2.21
   6   1  -5   93.06    2.37
   6   1  -5   95.33    2.31
   6   1  -5   98.83    2.47
   6   1  -5   86.65    2.72
   6   1  -5   96.99    2.48
   6   1  -4  453.11    6.52
   6   1  -4  458.89    4.54
   6   1  -4  454.46    5.14
   6   1  -4  446.71    5.38
   6   1  -4  453.68    4.04
   6   1  -4  447.78    5.20
   6   1  -4  456.46    5.46
   6   1  -4  447.43    5.54
   6   1  -3    2.60    0.63
   6   1  -3    3.79    0.40
   6   1  -3    4.13    0.48
   6   1  -3    3.17    0.55
   6   1  -3    3.14    0.57
   6   1  -3    2.30    0.45
   6   1  -3    3.38    0.57
   6   1  -3    3.82    0.59
   6   1  -2   55.78    2.24
   6   1  -2   50.90    2.23
   6   1  -2   52.42    1.47
   6   1  -2   55.61    2.01
   6   1  -2   51.03    1.97
   6   1  -2   54.71    1.69
   6   1  -2   52.24    1.79
   6   1  -2   56.67    2.03
  -6  -1   2   50.93    1.77
   6   1  -2   52.97    2.02
   6   1  -2   49.44    1.11
   6   1  -1   26.24    1.62
   6   1  -1   22.28    1.50
   6   1  -1   26.69    1.58
   6   1  -1   28.58    1.53
   6   1  -1   30.08    1.39
   6   1  -1   24.62    1.45
   6   1  -1   28.41    1.43
   6   1  -1   25.86    1.46
  -6  -1   1   29.71    1.35
   6   1  -1   28.36    1.54
   6   1  -1   25.47    1.06
   6   1   0 1566.18   12.34
   6   1   0 1536.56   11.70
   6   1   0 1652.34   12.21
   6   1   0 1563.47   11.39
   6   1   0 1536.72   11.51
   6   1   0 1549.05   11.22
   6   1   0 1615.57   10.94
   6   1   0 1545.34   11.53
  -6  -1   0 1586.50    9.14
   6   1   0 1547.64    8.87
   6   1   0 1558.26   11.16
   6   1   1  443.99    6.54
   6   1   1  445.41    6.10
   6   1   1  441.21    6.29
   6   1   1  440.05    6.07
   6   1   1  456.59    6.40
  -6  -1  -1  444.39    4.30
   6   1   1  447.86    4.94
   6   1   1  449.67    5.75
   6   1   2  527.95    6.99
   6   1   2  529.87    6.76
   6   1   2  545.86    6.66
   6   1   2  537.33    5.28
  -6  -1  -2  551.71    6.20
   6   1   3   27.58    1.57
   6   1   3   30.02    1.58
   6   1   3   31.53    1.46
   6   1   3   26.67    1.47
   6   1   3   27.55    1.12
  -6  -1  -3   30.65    1.30
  -6  -1  -3   25.79    1.47
  -6  -1  -3   28.80    1.45
  -6  -1  -3   29.66    1.51
   6   1   4   21.63    1.25
   6   1   4   20.25    1.18
   6   1   4   20.59    1.00
  -6  -1  -4   20.29    0.90
   6   1   4   20.05    1.18
   6   1   4   14.67    0.56
  -6  -1  -4   12.94    0.43
  -6  -1  -4   21.18    1.20
   6   2 -10   55.24    1.94
   6   2 -10   53.68    1.27
   6   2 -10   54.26    1.27
   6   2 -10   59.14    2.12
   6   2 -10   59.92    2.14
   6   2  -9   17.92    1.21
   6   2  -9   18.80    0.88
   6   2  -9   17.83    0.84
   6   2  -9   18.09    1.27
   6   2  -9   18.23    0.80
   6   2  -8   18.90    1.24
   6   2  -8   21.00    0.97
   6   2  -8   19.62    0.94
   6   2  -8   18.52    1.30
   6   2  -8   21.13    1.46
   6   2  -8   18.83    1.03
   6   2  -7   96.46    2.08
   6   2  -7   96.67    2.06
   6   2  -7   91.24    1.97
   6   2  -7   93.64    2.83
   6   2  -7   95.80    3.00
   6   2  -7   96.71    2.48
   6   2  -6  181.25    2.82
   6   2  -6  177.48    3.12
   6   2  -6  184.65    3.53
   6   2  -6  177.27    3.78
   6   2  -6  174.62    3.19
   6   2  -6  181.98    3.54
   6   2  -6  183.55    4.08
   6   2  -6  182.32    3.55
   6   2  -5  717.96    5.53
   6   2  -5  711.59    7.16
   6   2  -5  723.69    4.86
   6   2  -5  711.69    6.80
   6   2  -5  741.37    7.38
   6   2  -5  690.64    7.73
   6   2  -5  730.85    6.75
   6   2  -5  751.20    7.47
   6   2  -4   94.42    3.05
   6   2  -4   93.99    1.95
   6   2  -4   96.53    2.58
   6   2  -4   79.01    1.20
   6   2  -4   81.48    1.23
   6   2  -4   95.64    2.71
   6   2  -4   95.92    2.18
   6   2  -4   92.76    2.55
  -6  -2   4   90.78    2.40
   6   2  -4   93.72    2.71
   6   2  -3    2.46    0.63
   6   2  -3    0.95    0.41
   6   2  -3    5.59    0.48
   6   2  -3    0.75    0.44
   6   2  -3    1.16    0.39
   6   2  -3    0.62    0.38
   6   2  -3    4.76    0.71
   6   2  -3    1.01    0.41
  -6  -2   3    0.42    0.34
   6   2  -2    3.25    0.68
   6   2  -2    2.90    0.64
   6   2  -2    3.91    0.59
   6   2  -2    2.25    0.55
   6   2  -2    2.39    0.51
  -6  -2   2    3.30    0.53
   6   2  -2    3.48    0.65
   6   2  -2    3.33    0.43
   6   2  -1   17.14    1.33
   6   2  -1   15.99    1.27
   6   2  -1   18.23    1.28
   6   2  -1   18.65    1.17
   6   2  -1   17.25    1.29
   6   2  -1   16.86    1.17
   6   2  -1   16.62    1.22
  -6  -2   1   20.33    1.06
   6   2  -1   16.33    1.24
   6   2  -1   14.96    0.89
   6   2   0    1.67    0.53
   6   2   0    0.77    0.50
   6   2   0    1.53    0.54
   6   2   0    1.60    0.59
   6   2   0    2.18    0.55
  -6  -2   0    1.23    0.33
   6   2   0    1.23    0.41
   6   2   0    1.94    0.55
   6   2   1    1.71    0.52
   6   2   1    2.64    0.67
   6   2   1    2.88    0.65
   6   2   1    1.40    0.43
  -6  -2  -1    1.32    0.50
   6   2   2    4.21    0.70
   6   2   2    6.14    0.81
   6   2   2    5.37    0.67
   6   2   2    6.12    0.80
   6   2   2    5.24    0.57
  -6  -2  -2    4.31    0.57
  -6  -2  -2    3.52    0.67
  -6  -2  -2    4.95    0.71
   6   2   3   39.51    1.66
   6   2   3   44.35    1.74
   6   2   3   40.38    1.44
  -6  -2  -3   42.90    1.36
   6   2   3   42.85    1.71
   6   2   3   35.92    1.03
  -6  -2  -3   36.28    0.89
  -6  -2  -3   42.23    1.69
  -6  -2  -3   41.93    1.65
   6   3 -10  194.71    3.48
   6   3  -9   19.81    1.23
  -6  -3   9   19.28    1.02
   6   3  -9   20.31    1.29
   6   3  -9   18.54    0.87
   6   3  -8   38.85    1.04
   6   3  -8   42.38    1.09
   6   3  -8   41.27    1.82
  -6  -3   8   42.20    1.55
   6   3  -8   45.88    2.01
   6   3  -8   43.10    1.57
   6   3  -7   11.59    0.62
   6   3  -7   14.16    0.88
   6   3  -7   11.87    1.01
   6   3  -7   12.60    0.87
  -6  -3   7   11.37    0.88
   6   3  -7   12.02    1.10
   6   3  -6    1.88    0.48
   6   3  -6    1.43    0.47
   6   3  -6    1.64    0.51
   6   3  -6    2.05    0.31
   6   3  -6    1.67    0.45
   6   3  -6    0.86    0.13
   6   3  -6    0.70    0.11
  -6  -3   6    0.59    0.35
   6   3  -6    2.26    0.58
   6   3  -5   48.79    1.86
   6   3  -5   54.96    1.53
   6   3  -5   53.77    1.97
  -6  -3   5   49.32    1.72
   6   3  -5   52.63    2.08
   6   3  -5   47.86    2.05
   6   3  -4    2.12    0.54
   6   3  -4    1.43    0.54
   6   3  -4    2.45    0.57
   6   3  -4    2.98    0.58
   6   3  -4    2.82    0.37
   6   3  -4    0.74    0.22
   6   3  -4    4.49    0.59
  -6  -3   4    2.05    0.46
   6   3  -3   34.66    1.84
   6   3  -3   35.74    1.70
   6   3  -3   40.39    1.48
   6   3  -3   37.12    1.56
   6   3  -3   38.89    1.77
  -6  -3   3   37.13    1.43
   6   3  -3   35.53    1.79
   6   3  -2    1.77    0.55
   6   3  -2    2.23    0.55
   6   3  -2    3.67    0.68
   6   3  -2    2.34    0.50
   6   3  -2    1.50    0.45
  -6  -3   2    2.37    0.40
   6   3  -2    1.71    0.36
   6   3  -1   79.18    2.69
   6   3  -1   84.49    2.66
   6   3  -1   86.68    2.38
   6   3  -1   79.30    2.55
   6   3  -1   83.03    1.88
   6   3   0  296.15    4.94
   6   3   0  305.69    5.04
   6   3   0  288.19    4.78
   6   3   0  292.37    3.56
  -6  -3   0  289.94    4.34
   6   3   0  298.50    4.52
   6   3   1  143.15    3.17
   6   3   1  156.62    3.49
   6   3   1  156.60    2.99
   6   3   1  142.98    3.26
   6   3   1  136.26    2.31
  -6  -3  -1  140.20    2.64
  -6  -3  -1  143.89    3.31
  -6  -3  -1  150.18    3.48
   6   3   2   26.76    1.36
   6   3   2   22.09    1.04
  -6  -3  -2   26.85    1.06
   6   3   2   22.48    1.25
   6   3   2   17.03    0.66
  -6  -3  -2   14.67    0.47
  -6  -3  -2   22.27    1.25
  -6  -3  -2   22.86    1.27
   6   4  -9   12.86    0.90
   6   4  -9   11.22    0.64
   6   4  -8   53.05    1.14
   6   4  -8   57.50    1.93
  -6  -4   8   55.95    1.50
   6   4  -8   61.63    2.13
   6   4  -8   58.82    1.75
   6   4  -7  126.19    2.42
   6   4  -7  126.67    2.88
   6   4  -7  130.15    2.56
  -6  -4   7  127.69    2.38
   6   4  -7  126.88    3.15
   6   4  -7  125.15    2.83
   6   4  -6  240.04    3.75
   6   4  -6  243.19    3.86
  -6  -4   6  244.40    3.33
   6   4  -6  239.93    4.35
   6   4  -5   18.51    1.16
   6   4  -5   20.10    0.92
   6   4  -5   21.00    1.26
  -6  -4   5   19.56    0.96
   6   4  -4   71.07    2.50
   6   4  -4   71.75    2.28
   6   4  -4   63.56    1.15
   6   4  -4   75.01    1.95
   6   4  -4   67.97    2.23
  -6  -4   4   69.15    1.61
   6   4  -3  168.18    3.79
   6   4  -3  163.10    3.52
   6   4  -3  169.53    2.69
   6   4  -3  158.25    3.05
   6   4  -3  158.12    3.44
   6   4  -2    2.82    0.60
   6   4  -2    1.90    0.53
   6   4  -2   -0.56    0.39
   6   4  -2    1.16    0.47
   6   4  -2    1.22    0.41
   6   4  -2    1.84    0.49
   6   4  -2    1.04    0.21
  -6  -4   2    2.86    0.56
  -6  -4   2   -0.24    0.34
   6   4  -1  127.07    3.19
   6   4  -1  138.18    2.64
   6   4  -1  136.16    2.90
   6   4  -1  123.75    3.01
   6   4  -1  112.02    1.68
  -6  -4   1  124.60    2.62
  -6  -4   1  133.09    3.17
   6   4   0    0.34    0.40
  -6  -4   0   -0.18    0.35
   6   4   0    0.60    0.40
   6   4   0    0.28    0.39
   6   4   0    0.46    0.31
   6   4   0    0.51    0.35
   6   4   0    0.47    0.18
  -6  -4   0    0.27    0.30
  -6  -4   0   -0.07    0.34
  -6  -4  -1   44.99    1.08
  -6  -5   7   39.07    1.57
   6   5  -7   40.29    1.18
  -6  -5   6    5.73    0.70
   6   5  -6    6.23    0.60
   6   5  -6    7.65    0.68
  -6  -5   5  225.18    3.84
   6   5  -5  241.50    3.61
   6   5  -5  236.74    3.67
  -6  -5   5  231.38    3.70
  -6  -5   4   87.43    2.29
   6   5  -4   91.23    2.34
   6   5  -4   97.24    1.85
   6   5  -4   91.86    2.36
  -6  -5   4   90.10    2.23
   6   5  -3    6.73    0.74
   6   5  -3    7.06    0.75
   6   5  -3    6.19    0.57
   6   5  -3    5.61    0.67
  -6  -5   3    7.17    0.67
   6   5  -2   30.35    1.42
   6   5  -2   14.78    0.49
   6   5  -2   16.55    0.51
   6   5  -2   25.95    1.07
   6   5  -2   30.31    1.38
  -6  -5   2   28.03    1.02
   7  -9  -3   69.88    2.21
   7  -9  -3   58.44    1.16
   7  -9  -2    0.53    0.27
   7  -9  -2    0.43    0.25
   7  -9  -1   34.01    1.02
   7  -9   0   46.23    1.08
   7  -8  -6   84.56    2.65
   7  -8  -6   82.91    2.59
   7  -8  -5  106.31    3.09
   7  -8  -5   -0.14    0.33
   7  -8  -4   13.45    1.17
   7  -8  -4   10.50    0.48
   7  -8  -3   83.47    2.74
   7  -8  -3   76.57    1.72
   7  -8  -3   78.74    2.56
   7  -8  -2    2.22    0.55
   7  -8  -2    0.26    0.26
   7  -8  -1   82.00    1.80
   7  -8  -1   83.51    2.19
   7  -8  -1   80.21    2.43
   7  -8  -1   87.36    2.62
   7  -8   0   34.58    1.13
   7  -8   0   36.08    1.67
   7  -8   1   17.91    0.72
   7  -8   1   18.89    1.16
   7  -8   2    2.73    0.52
   7  -7  -8  182.11    3.85
   7  -7  -7   43.83    1.99
   7  -7  -7   46.08    2.11
   7  -7  -6  171.03    4.06
   7  -7  -6  165.60    4.06
   7  -7  -5   96.70    3.11
   7  -7  -5   98.25    3.09
   7  -7  -5   97.36    3.16
   7  -7  -5  102.13    3.26
   7  -7  -5  100.95    3.04
   7  -7  -4    1.67    0.56
   7  -7  -4    2.35    0.67
   7  -7  -4    1.07    0.24
   7  -7  -4    2.00    0.60
   7  -7  -3   15.50    1.27
   7  -7  -3   14.51    0.83
   7  -7  -3   12.84    1.20
   7  -7  -2  329.86    4.22
   7  -7  -2  312.78    5.40
   7  -7  -2  313.32    5.58
   7  -7  -1   55.79    2.25
   7  -7  -1   55.19    2.33
   7  -7  -1   54.71    2.20
   7  -7   0   56.25    1.52
   7  -7   0   59.21    2.23
   7  -7   0   53.12    2.21
   7  -7   0   57.71    2.23
   7  -7   1   22.12    0.83
   7  -7   1   21.50    0.88
   7  -7   1   21.38    1.31
   7  -7   1   22.18    1.36
   7  -7   2   13.21    0.73
  -7   7  -2   12.04    0.95
   7  -7   2   13.21    1.02
   7  -7   3    0.36    0.25
  -7   7  -3    0.06    0.33
   7  -7   3    0.49    0.37
   7  -6  -9    0.09    0.43
   7  -6  -8    7.72    0.93
   7  -6  -8    7.48    0.87
   7  -6  -8    6.51    0.89
   7  -6  -8    5.59    0.76
   7  -6  -8    7.60    0.90
   7  -6  -8    6.54    0.90
   7  -6  -7  144.42    3.76
   7  -6  -7  146.36    3.53
   7  -6  -7  137.90    3.63
   7  -6  -7  152.02    3.60
   7  -6  -7  137.76    3.47
   7  -6  -7  148.29    3.89
   7  -6  -7  142.29    3.87
   7  -6  -7  139.16    3.75
   7  -6  -6   39.06    2.05
   7  -6  -6   41.34    2.07
   7  -6  -6   43.63    1.95
   7  -6  -6   39.42    1.98
   7  -6  -6   38.72    1.86
   7  -6  -6   39.52    1.86
   7  -6  -6   37.46    2.03
   7  -6  -6   41.27    2.15
   7  -6  -6   37.56    2.00
   7  -6  -5   14.98    1.33
   7  -6  -5   14.19    0.47
   7  -6  -5   14.07    1.25
   7  -6  -5   14.88    1.17
   7  -6  -5   14.99    1.26
   7  -6  -5   17.60    1.41
   7  -6  -5   16.59    1.41
   7  -6  -5   14.42    1.28
   7  -6  -4  146.78    3.85
   7  -6  -4  141.58    3.82
   7  -6  -4  140.65    2.21
   7  -6  -4  150.77    3.89
   7  -6  -4  148.01    4.00
   7  -6  -3  308.71    5.42
   7  -6  -3  308.07    3.79
   7  -6  -3  286.31    5.39
   7  -6  -3  316.51    5.59
   7  -6  -3  284.13    5.24
   7  -6  -2   44.61    2.06
   7  -6  -2   45.15    1.61
   7  -6  -2   41.01    2.07
   7  -6  -2   49.64    2.23
   7  -6  -2   47.55    2.10
   7  -6  -1  485.11    6.74
   7  -6  -1  481.07    6.54
   7  -6   0  413.75    4.15
   7  -6   0  396.26    4.08
   7  -6   0  409.99    6.17
   7  -6   0  403.03    5.89
   7  -6   1    5.07    0.55
   7  -6   1    6.15    0.82
   7  -6   1    5.71    0.81
   7  -6   2   11.14    0.56
   7  -6   2   10.00    0.95
   7  -6   2   11.30    0.98
   7  -6   3    1.94    0.41
  -7   6  -3    1.93    0.51
   7  -6   3    1.72    0.24
   7  -6   3    1.22    0.41
   7  -6   3    1.73    0.45
   7  -5  -9   36.21    1.75
   7  -5  -9   35.64    1.85
   7  -5  -9   33.01    1.59
   7  -5  -9   34.01    1.74
   7  -5  -9   33.30    1.74
   7  -5  -8    0.62    0.53
   7  -5  -8    0.67    0.52
   7  -5  -8    1.03    0.44
   7  -5  -8    0.56    0.52
   7  -5  -8    1.08    0.51
   7  -5  -8    1.20    0.52
   7  -5  -8    0.64    0.51
   7  -5  -8   -0.10    0.40
   7  -5  -8    0.30    0.52
   7  -5  -7  169.78    4.18
   7  -5  -7  178.45    3.96
   7  -5  -7  165.77    4.14
   7  -5  -7  185.19    3.97
   7  -5  -7  184.99    4.07
   7  -5  -7  186.39    4.43
   7  -5  -7  175.18    4.35
   7  -5  -7  184.29    4.40
   7  -5  -6   47.78    2.28
   7  -5  -6   49.57    2.22
   7  -5  -6   46.53    2.02
   7  -5  -6   47.64    2.23
   7  -5  -6   45.79    2.00
   7  -5  -6   45.78    2.00
   7  -5  -6   42.79    2.15
   7  -5  -6   46.37    2.31
   7  -5  -6   40.82    2.11
   7  -5  -5  546.59    7.47
   7  -5  -5  532.39    3.62
   7  -5  -5  550.41    7.43
   7  -5  -5  569.01    6.87
   7  -5  -5  565.07    7.45
   7  -5  -5  540.51    7.70
   7  -5  -5  525.57    7.46
   7  -5  -4   40.27    2.08
   7  -5  -4   42.55    2.09
   7  -5  -4   45.34    1.31
   7  -5  -4   42.55    2.11
   7  -5  -4   38.50    1.99
   7  -5  -4   41.14    1.99
   7  -5  -3   94.50    3.15
   7  -5  -3  108.10    3.21
   7  -5  -3  106.62    2.26
   7  -5  -3  107.53    3.34
   7  -5  -3   97.52    3.11
   7  -5  -3  104.14    3.07
   7  -5  -3  106.30    3.11
   7  -5  -2   13.77    1.26
   7  -5  -2   14.13    0.92
   7  -5  -2   12.06    1.19
   7  -5  -2   16.22    1.29
   7  -5  -2   14.93    1.19
   7  -5  -2   14.97    1.22
   7  -5  -1  230.04    4.75
   7  -5  -1  223.34    4.76
   7  -5  -1  227.11    4.51
   7  -5   0    5.34    0.80
   7  -5   0    6.12    0.60
   7  -5   0    4.61    0.30
   7  -5   0    5.68    0.86
   7  -5   0    7.27    0.88
   7  -5   1    0.02    0.25
   7  -5   1    0.41    0.27
   7  -5   1    0.09    0.47
   7  -5   1    0.27    0.41
   7  -5   2   16.49    0.91
   7  -5   2   19.08    1.34
   7  -5   2   18.34    1.24
   7  -5   2   17.95    0.99
  -7   5  -3   39.77    1.73
   7  -5   3   40.74    1.76
   7  -5   3   41.94    1.40
   7  -5   3   38.07    1.72
   7  -5   3   39.16    1.60
   7  -5   3   44.26    1.48
  -7   5  -4    7.57    0.71
   7  -5   4    8.08    0.58
   7  -5   4    5.81    0.64
   7  -5   4    7.59    0.59
   7  -4 -10   15.33    1.14
   7  -4 -10   12.98    1.07
   7  -4  -9   12.79    1.13
   7  -4  -9   10.79    1.10
   7  -4  -9    8.10    0.85
   7  -4  -9   10.09    1.03
   7  -4  -9   11.74    1.11
   7  -4  -9    9.75    1.05
   7  -4  -8  121.44    3.30
   7  -4  -8  118.24    3.51
   7  -4  -8  117.24    3.05
   7  -4  -8  120.43    3.34
   7  -4  -8  127.01    3.64
   7  -4  -8  122.10    3.49
   7  -4  -8  130.70    3.63
   7  -4  -8  120.61    3.52
   7  -4  -7  228.73    4.88
   7  -4  -7  240.98    4.60
   7  -4  -7  243.57    5.04
   7  -4  -7  235.07    4.34
   7  -4  -7  234.19    4.57
   7  -4  -7  232.69    4.87
   7  -4  -7  244.23    4.88
   7  -4  -7  228.48    4.94
   7  -4  -7  224.96    4.84
   7  -4  -6  235.90    4.97
   7  -4  -6  239.66    2.29
   7  -4  -6  244.89    4.80
   7  -4  -6  241.96    4.51
   7  -4  -6  232.54    4.95
   7  -4  -6  218.98    4.27
   7  -4  -6  237.19    4.80
   7  -4  -6   41.45    2.01
   7  -4  -6  230.45    5.04
   7  -4  -6  246.61    5.14
   7  -4  -5   28.73    1.80
   7  -4  -5   28.09    1.74
   7  -4  -5   28.16    0.96
   7  -4  -5   25.35    1.66
   7  -4  -5   26.10    1.59
   7  -4  -5   28.15    1.82
   7  -4  -4  150.53    4.05
   7  -4  -4  153.84    3.88
   7  -4  -4  165.18    2.59
   7  -4  -4  168.39    4.08
   7  -4  -4  148.07    3.92
   7  -4  -4  155.65    3.67
   7  -4  -3   73.10    2.80
   7  -4  -3   81.21    2.76
   7  -4  -3   76.28    1.97
   7  -4  -3   76.82    2.80
   7  -4  -3   72.06    2.74
   7  -4  -3   76.56    2.52
   7  -4  -3   77.18    2.65
   7  -4  -2  234.81    4.90
   7  -4  -2  238.43    4.63
   7  -4  -1   38.06    2.02
   7  -4  -1   54.40    2.69
   7  -4  -1   26.19    1.10
   7  -4  -1   38.88    0.93
   7  -4  -1   49.96    2.32
   7  -4  -1   48.32    1.54
   7  -4  -1   42.06    1.97
   7  -4  -1   46.62    1.63
   7  -4   0   86.19    2.97
   7  -4   0   87.31    1.95
   7  -4   0   88.43    2.02
   7  -4   0   90.58    3.05
   7  -4   0   91.75    2.41
   7  -4   0   97.24    2.24
   7  -4   0   84.45    2.74
   7  -4   0   90.11    2.48
   7  -4   0   87.86    2.12
   7  -4   1   93.51    2.97
   7  -4   1   88.70    1.84
   7  -4   1   93.95    2.30
   7  -4   1   92.14    3.06
   7  -4   1   98.52    2.43
   7  -4   1   97.21    2.67
  -7   4  -1   86.53    2.29
   7  -4   1   86.63    2.67
   7  -4   1   96.95    2.70
   7  -4   1   92.77    2.35
   7  -4   2  370.09    5.53
   7  -4   2  363.81    5.53
   7  -4   2  351.88    4.56
   7  -4   2  362.85    5.79
   7  -4   2  361.12    4.75
   7  -4   2  354.13    5.14
   7  -4   2  352.11    4.67
  -7   4  -3   18.04    1.20
   7  -4   3   18.23    1.24
   7  -4   3   17.84    1.04
   7  -4   3   18.43    1.26
   7  -4   3   17.54    1.09
   7  -4   3   17.94    1.07
   7  -4   4    0.33    0.31
   7  -4   4    0.03    0.35
   7  -4   4   -0.12    0.27
   7  -4   4    0.43    0.35
   7  -3 -10   23.69    1.43
   7  -3 -10   24.56    1.47
   7  -3 -10   24.44    1.46
   7  -3  -9   55.27    2.24
   7  -3  -9   62.67    2.46
   7  -3  -9   54.88    2.27
   7  -3  -9   57.99    2.41
   7  -3  -8   41.14    0.98
   7  -3  -8   41.05    1.94
   7  -3  -8   46.13    2.18
   7  -3  -8   39.24    1.95
   7  -3  -8   40.01    2.05
   7  -3  -8   43.92    2.09
   7  -3  -7   94.76    1.66
   7  -3  -7   88.58    2.81
   7  -3  -7   99.98    3.21
   7  -3  -7   87.10    2.80
   7  -3  -7   96.78    3.11
   7  -3  -7   94.19    3.07
   7  -3  -7   91.74    3.06
   7  -3  -6  169.58    4.17
   7  -3  -6  171.35    2.41
   7  -3  -6  161.33    3.64
   7  -3  -6  178.09    4.30
   7  -3  -6  166.98    3.72
   7  -3  -6  177.61    4.06
   7  -3  -6  171.58    4.02
   7  -3  -6  176.96    4.27
   7  -3  -5  706.70    8.61
   7  -3  -5  665.06    8.18
   7  -3  -5  745.67    5.49
   7  -3  -5  693.97    7.86
   7  -3  -5  700.21    8.51
   7  -3  -5  698.52    7.79
   7  -3  -5  730.35    8.04
   7  -3  -4  610.51    7.99
   7  -3  -4  616.84    7.75
   7  -3  -4  626.24    5.45
   7  -3  -4  623.79    7.56
   7  -3  -4  632.59    8.09
   7  -3  -4  643.87    7.41
   7  -3  -3   31.66    1.86
   7  -3  -3   35.91    2.11
   7  -3  -3   33.11    1.37
   7  -3  -3   36.08    1.87
   7  -3  -3   34.18    1.77
   7  -3  -3   31.05    1.05
   7  -3  -2   14.52    1.30
   7  -3  -2   13.70    1.29
   7  -3  -2   11.72    0.51
   7  -3  -2   14.11    1.25
   7  -3  -2   14.47    0.86
   7  -3  -2   10.94    1.05
   7  -3  -2   12.94    0.86
   7  -3  -1    5.68    0.90
   7  -3  -1    3.88    0.76
   7  -3  -1    3.70    0.47
   7  -3  -1    2.91    0.46
   7  -3  -1    3.62    0.75
   7  -3  -1    3.69    0.56
   7  -3  -1    4.22    0.55
   7  -3  -1    4.79    0.77
   7  -3  -1    4.93    0.64
   7  -3   0   19.19    1.47
   7  -3   0   16.29    0.88
   7  -3   0   15.91    1.01
   7  -3   0   17.82    1.39
   7  -3   0   17.96    1.20
   7  -3   0   15.94    1.03
   7  -3   0   16.42    1.14
   7  -3   0   15.83    1.23
   7  -3   0   15.59    1.13
   7  -3   1   15.00    1.28
   7  -3   1   17.48    1.36
   7  -3   1   14.41    0.75
   7  -3   1    2.38    0.56
   7  -3   1   15.16    1.04
   7  -3   1   16.85    1.36
   7  -3   1   15.17    1.06
   7  -3   1   15.61    1.15
   7  -3   1   13.97    0.55
   7  -3   1    0.15    0.14
  -7   3  -1   13.49    0.95
   7  -3   1   14.57    1.16
   7  -3   1   16.05    1.18
   7  -3   2  108.34    3.15
   7  -3   2  108.90    3.07
   7  -3   2   99.24    2.57
   7  -3   2  101.77    3.13
   7  -3   2  107.21    2.71
   7  -3   2  103.22    1.75
   7  -3   2  102.01    2.74
   7  -3   3    2.74    0.59
   7  -3   3    1.95    0.51
   7  -3   3    2.17    0.55
   7  -3   3    2.28    0.51
   7  -3   3    1.95    0.55
   7  -3   3    2.54    0.56
   7  -3   3    1.97    0.30
   7  -3   4   11.73    0.91
   7  -3   4   10.90    0.78
   7  -3   4   11.53    0.92
  -7   3  -4    9.82    0.77
   7  -3   4   10.54    0.79
   7  -2 -11  148.10    3.15
   7  -2 -10    0.31    0.18
   7  -2 -10    1.05    0.49
   7  -2 -10    0.59    0.37
   7  -2 -10    0.50    0.48
   7  -2 -10    0.67    0.43
   7  -2  -9   16.53    0.77
   7  -2  -9   17.51    1.30
   7  -2  -9   20.74    1.42
   7  -2  -9   16.55    1.31
   7  -2  -9   21.54    1.49
   7  -2  -8    0.64    0.26
   7  -2  -8    1.62    0.53
   7  -2  -8    0.05    0.39
   7  -2  -8    0.30    0.48
   7  -2  -8    2.03    0.65
   7  -2  -7  132.14    2.38
   7  -2  -7  139.97    3.48
   7  -2  -7  139.44    3.72
   7  -2  -7  136.26    3.48
   7  -2  -7  137.77    3.68
   7  -2  -7  133.92    3.57
   7  -2  -6    4.65    0.78
   7  -2  -6    5.33    0.53
   7  -2  -6    6.44    0.81
   7  -2  -6    6.57    0.87
   7  -2  -6    4.88    0.80
   7  -2  -5   56.35    2.41
   7  -2  -5   55.27    2.47
   7  -2  -5   57.37    1.71
   7  -2  -5   55.88    2.42
   7  -2  -4  134.74    3.71
   7  -2  -4  141.80    3.94
   7  -2  -4  127.65    2.71
   7  -2  -4  131.39    3.41
   7  -2  -4  136.03    2.14
   7  -2  -3    7.37    0.97
   7  -2  -3    7.85    1.00
   7  -2  -3    6.25    0.39
   7  -2  -3    6.79    0.84
   7  -2  -3    7.74    0.61
   7  -2  -3    8.33    0.94
   7  -2  -3    8.57    0.70
   7  -2  -2  291.56    5.58
   7  -2  -2  299.46    5.53
   7  -2  -2  300.14    3.69
   7  -2  -2  291.34    3.61
   7  -2  -2  310.69    5.39
   7  -2  -2  299.26    4.13
   7  -2  -2  296.29    3.85
   7  -2  -2  291.59    5.05
   7  -2  -2  297.54    4.26
   7  -2  -1   59.80    2.56
   7  -2  -1   60.96    2.47
   7  -2  -1   60.72    1.65
   7  -2  -1   60.68    1.88
   7  -2  -1   64.29    2.52
   7  -2  -1   60.46    2.04
   7  -2  -1   59.93    1.92
   7  -2  -1   59.01    2.03
   7  -2  -1   58.59    2.29
   7  -2  -1   63.90    2.14
   7  -2   0   47.94    2.29
   7  -2   0   46.59    2.10
   7  -2   0   44.64    1.35
   7  -2   0   44.85    1.73
   7  -2   0   47.97    2.20
   7  -2   0   42.07    1.82
   7  -2   0   48.45    1.85
   7  -2   0   44.79    1.21
   7  -2   0   45.35    1.89
  -7   2   0   41.37    1.61
   7  -2   0   40.91    1.89
   7  -2   0   48.36    1.97
   7  -2   1  204.09    4.51
   7  -2   1  218.93    4.38
   7  -2   1  211.35    4.33
   7  -2   1  195.62    3.67
   7  -2   1  195.83    4.31
   7  -2   1  198.45    3.79
   7  -2   1  198.50    4.03
   7  -2   1  192.22    2.85
  -7   2  -1  188.07    3.27
   7  -2   1  198.40    3.94
   7  -2   2   39.98    1.96
   7  -2   2   43.44    1.97
   7  -2   2   40.55    1.72
   7  -2   2   43.80    2.02
   7  -2   2   39.09    1.72
   7  -2   2   46.53    1.46
   7  -2   2   42.97    1.77
   7  -2   3   10.20    0.96
   7  -2   3   10.31    0.95
   7  -2   3   13.37    0.97
   7  -2   3    9.95    0.95
   7  -2   3   10.63    0.91
   7  -2   3   10.79    0.68
   7  -2   4   36.21    1.42
   7  -2   4   36.33    1.51
   7  -2   4   37.10    1.56
   7  -2   4   36.06    1.42
  -7   2  -4   33.15    1.24
   7  -1 -11    2.96    0.58
   7  -1 -10  188.74    2.68
   7  -1 -10  193.51    3.95
   7  -1 -10  190.98    4.01
   7  -1 -10  193.08    3.95
   7  -1  -9   97.88    2.14
   7  -1  -9   94.78    2.89
   7  -1  -9   96.37    3.00
   7  -1  -9   97.40    3.03
   7  -1  -8   18.46    1.00
   7  -1  -8   18.09    1.31
   7  -1  -8   18.42    1.35
   7  -1  -8   21.84    1.52
   7  -1  -7   39.10    1.47
   7  -1  -7   35.20    1.76
   7  -1  -7   40.79    1.97
   7  -1  -7   36.20    1.83
   7  -1  -7   36.72    1.94
   7  -1  -6  765.33    6.64
   7  -1  -6  754.93    8.54
   7  -1  -6  750.11    7.91
   7  -1  -5  508.35    6.94
   7  -1  -5  512.19    7.07
   7  -1  -5  523.75    6.81
   7  -1  -4   27.29    1.67
   7  -1  -4   23.49    1.63
   7  -1  -4   25.50    0.80
   7  -1  -4   24.68    1.07
   7  -1  -4   27.67    1.60
   7  -1  -4   27.45    1.21
   7  -1  -3    0.80    0.40
   7  -1  -3    0.87    0.50
   7  -1  -3    0.85    0.35
   7  -1  -3    0.85    0.31
   7  -1  -3    0.84    0.36
   7  -1  -3    1.34    0.56
   7  -1  -2    1.70    0.46
   7  -1  -2    2.62    0.69
   7  -1  -2    1.73    0.63
   7  -1  -2    0.67    0.33
   7  -1  -2    0.36    0.30
   7  -1  -2    1.81    0.45
   7  -1  -2    2.97    0.58
   7  -1  -2    2.74    0.61
   7  -1  -2    2.91    0.53
   7  -1  -1  282.88    5.46
   7  -1  -1  301.48    5.37
   7  -1  -1  296.10    3.50
   7  -1  -1  301.95    4.42
   7  -1  -1  288.31    4.62
   7  -1  -1  296.74    4.45
   7  -1  -1  287.93    3.14
   7  -1  -1  298.49    4.72
  -7   1   1  289.58    4.23
   7  -1  -1  276.57    4.86
   7  -1  -1  300.87    4.83
   7  -1   0  112.22    3.41
   7  -1   0  115.69    3.28
   7  -1   0  103.74    1.80
   7  -1   0  117.09    2.88
   7  -1   0  111.00    3.20
   7  -1   0  108.36    2.81
   7  -1   0  106.49    2.26
   7  -1   0  106.12    2.94
  -7   1   0  116.39    2.61
   7  -1   0  104.86    2.96
   7  -1   1   24.66    1.61
   7  -1   1   22.53    1.42
   7  -1   1   24.70    1.51
   7  -1   1   21.38    1.28
   7  -1   1   21.60    1.46
   7  -1   1   21.22    1.32
   7  -1   1   23.86    1.15
   7  -1   1   24.31    1.46
  -7   1  -1   23.28    1.14
   7  -1   1   20.53    1.29
   7  -1   2  307.27    5.30
   7  -1   2  297.97    4.94
   7  -1   2  306.95    4.62
   7  -1   2  310.33    5.11
   7  -1   2  287.74    4.55
   7  -1   2  289.01    3.77
   7  -1   3  408.44    5.51
   7  -1   3  413.87    5.07
   7  -1   3  398.42    5.34
   7  -1   3  402.55    5.04
   7  -1   3  404.34    3.95
  -7   1  -3  393.67    4.68
   7   0 -10   53.77    1.45
   7   0 -10   52.03    1.57
   7   0 -10   53.61    2.04
   7   0 -10   51.03    2.04
   7   0  -9    9.10    0.76
   7   0  -9    9.26    0.96
   7   0  -9    8.83    0.97
   7   0  -8   22.37    1.42
   7   0  -8   24.45    1.54
   7   0  -7   34.34    1.70
   7   0  -7   36.19    1.85
   7   0  -7   33.25    0.79
   7   0  -6    0.07    0.23
   7   0  -6    0.09    0.23
   7   0  -6    0.76    0.43
   7   0  -6  115.04    3.12
   7   0  -6  118.86    2.22
   7   0  -5    3.50    0.69
   7   0  -5    2.46    0.43
   7   0  -5    3.27    0.35
   7   0  -5    2.68    0.45
   7   0  -5    3.69    0.70
   7   0  -5    2.73    0.47
   7   0  -4  236.21    4.94
   7   0  -4  229.53    3.26
   7   0  -4  224.92    3.23
   7   0  -4  232.13    3.73
   7   0  -4  234.24    3.43
   7   0  -4  235.03    4.64
   7   0  -4  231.37    3.80
   7   0  -3  249.75    4.91
   7   0  -3  246.21    4.99
   7   0  -3  238.28    3.27
   7   0  -3  243.34    3.72
   7   0  -3  244.73    4.09
   7   0  -3  246.87    3.86
   7   0  -3  251.60    4.18
   7   0  -3  237.96    4.64
   7   0  -3  246.44    4.15
   7   0  -2  180.92    4.22
   7   0  -2  171.39    4.13
   7   0  -2  167.83    2.61
   7   0  -2  176.99    3.37
   7   0  -2  164.73    3.52
   7   0  -2  173.38    3.43
   7   0  -2  170.03    2.38
   7   0  -2  170.97    3.58
  -7   0   2  167.23    3.24
   7   0  -2  167.86    3.87
   7   0  -2  175.40    3.68
   7   0  -1    0.44    0.43
   7   0  -1    1.13    0.54
   7   0  -1    1.03    0.45
   7   0  -1    0.86    0.28
   7   0  -1    1.03    0.45
   7   0  -1    1.22    0.39
  -7   0   1    0.70    0.38
   7   0  -1    0.25    0.42
   7   0   0  676.57    8.09
   7   0   0  696.46    7.88
   7   0   0  701.99    7.16
   7   0   0  717.59    7.31
   7   0   0  686.08    6.02
   7   0   0  716.33    7.82
  -7   0   0  681.15    6.00
   7   0   0  716.92    7.49
   7   0   1  292.24    5.21
   7   0   1  304.27    4.93
   7   0   1  299.88    5.00
   7   0   1  309.41    4.71
   7   0   1  300.50    2.75
   7   0   1  306.65    4.77
   7   0   1  299.91    3.99
  -7   0  -1  307.94    3.42
   7   0   1  312.16    4.65
   7   0   2  119.94    3.17
   7   0   2  124.10    3.07
   7   0   2  120.88    2.87
   7   0   2  123.63    2.94
   7   0   2  121.87    2.43
  -7   0  -2  123.50    2.76
   7   0   3   96.81    2.54
   7   0   3   93.88    2.42
   7   0   3   92.53    2.32
   7   0   3   90.11    1.75
  -7   0  -3   97.49    1.99
   7   1 -10  183.18    2.42
   7   1 -10  179.93    2.36
   7   1 -10  185.37    3.57
   7   1 -10  187.22    3.71
   7   1  -9   84.07    1.82
   7   1  -9   83.73    1.80
   7   1  -9   86.58    2.72
   7   1  -8   -0.06    0.09
   7   1  -8    0.33    0.11
   7   1  -8    0.59    0.29
   7   1  -8    0.68    0.29
   7   1  -8    0.29    0.42
   7   1  -8   -0.11    0.45
   7   1  -7    0.85    0.33
   7   1  -7    2.57    0.62
   7   1  -7    1.75    0.38
   7   1  -6   26.20    1.12
   7   1  -6   24.94    0.79
   7   1  -6   25.53    1.51
   7   1  -6   27.59    1.25
   7   1  -5   65.47    1.72
   7   1  -5   64.60    1.73
   7   1  -5   64.64    2.04
   7   1  -4  254.69    3.77
   7   1  -4  260.02    5.08
   7   1  -4  250.26    3.26
   7   1  -4  269.94    4.33
   7   1  -4  256.98    3.91
   7   1  -4  259.89    4.29
   7   1  -4  256.85    4.27
   7   1  -3    8.47    1.01
   7   1  -3   11.03    0.68
   7   1  -3   10.14    0.87
   7   1  -3    9.16    0.86
  -7  -1   3    9.01    0.81
   7   1  -3    8.94    0.89
   7   1  -3    8.07    0.86
   7   1  -2   49.43    2.24
   7   1  -2   52.04    1.91
   7   1  -2   44.65    1.83
   7   1  -2   45.86    1.43
   7   1  -2   45.12    1.94
  -7  -1   2   43.01    1.61
   7   1  -2   47.14    2.05
   7   1  -1    2.09    0.54
   7   1  -1    4.90    0.79
   7   1  -1    3.98    0.66
   7   1  -1    2.83    0.19
   7   1  -1    4.65    0.71
   7   1  -1    5.26    0.60
  -7  -1   1    5.39    0.60
   7   1  -1    4.50    0.74
   7   1   0   51.84    2.15
   7   1   0   48.09    2.04
   7   1   0   51.50    1.95
   7   1   0   49.78    1.11
   7   1   0   49.05    1.94
   7   1   0   53.61    1.70
  -7  -1   0   52.05    1.42
   7   1   0   50.72    1.95
   7   1   1  125.43    3.18
   7   1   1  122.92    2.94
   7   1   1  128.91    3.15
   7   1   1  122.33    2.92
   7   1   1   89.43    1.36
   7   1   1   98.46    1.41
   7   1   1  117.89    2.87
   7   1   1  123.41    2.48
  -7  -1  -1  129.12    2.88
   7   1   2   43.71    1.74
   7   1   2   43.59    1.71
   7   1   2   43.92    1.65
   7   1   2   43.17    1.65
   7   1   2   41.47    1.30
  -7  -1  -2   43.32    1.41
  -7  -1  -2   43.82    1.66
   7   2  -9   98.90    1.61
   7   2  -9  101.04    2.59
   7   2  -9  101.25    2.74
   7   2  -8  235.20    2.74
   7   2  -8  237.58    4.08
   7   2  -8  246.23    4.48
   7   2  -8  244.96    2.78
   7   2  -7    4.81    0.50
  -7  -2   7    5.16    0.62
   7   2  -7    3.67    0.65
   7   2  -7    4.75    0.58
   7   2  -6   -0.06    0.25
   7   2  -6    0.63    0.33
   7   2  -6    0.65    0.28
   7   2  -6    0.89    0.32
  -7  -2   6    0.87    0.40
   7   2  -5   72.79    1.54
   7   2  -5   74.61    1.99
   7   2  -5   73.45    2.05
  -7  -2   5   74.62    2.13
   7   2  -5   76.27    2.31
   7   2  -4  187.05    3.37
   7   2  -4  186.23    3.45
  -7  -2   4  189.26    3.30
   7   2  -4  190.51    3.80
   7   2  -3   43.70    2.09
   7   2  -3   48.71    1.82
   7   2  -3   49.31    1.31
   7   2  -3   44.18    1.76
  -7  -2   3   45.76    1.59
   7   2  -2    2.09    0.62
   7   2  -2    1.41    0.44
   7   2  -2    2.38    0.59
   7   2  -2    1.87    0.42
  -7  -2   2    1.99    0.41
   7   2  -2    1.85    0.52
   7   2  -1  103.11    2.99
   7   2  -1  105.42    2.71
   7   2  -1  104.00    2.74
   7   2  -1  102.11    2.22
   7   2  -1  107.40    2.81
   7   2   0    1.87    0.49
   7   2   0    1.89    0.50
   7   2   0    2.90    0.57
   7   2   0    2.37    0.43
  -7  -2   0    4.04    0.59
   7   2   0    2.39    0.48
   7   2   1  132.58    2.86
   7   2   1  125.09    2.71
   7   2   1  128.18    2.77
   7   2   1  118.34    2.12
  -7  -2  -1  127.73    2.34
  -7  -2  -1  124.07    2.85
  -7  -3   8    4.16    0.49
   7   3  -8    3.26    0.56
   7   3  -8    3.73    0.40
  -7  -3   7   11.81    0.78
   7   3  -7   11.09    0.94
   7   3  -7   10.11    0.75
   7   3  -6   87.09    1.85
   7   3  -6   89.69    2.00
  -7  -3   6   82.05    2.00
   7   3  -6   83.27    2.41
   7   3  -6   80.75    2.21
   7   3  -5  217.72    3.33
   7   3  -5  225.74    3.51
  -7  -3   5  214.45    3.17
   7   3  -5  214.58    3.80
   7   3  -4   63.13    1.96
   7   3  -4   65.47    2.01
  -7  -3   4   61.49    1.62
   7   3  -3   25.03    1.50
   7   3  -3   22.04    1.21
   7   3  -3   23.26    0.82
   7   3  -3   23.93    1.28
  -7  -3   3   21.80    0.84
   7   3  -2  102.61    2.89
   7   3  -2  106.35    2.57
   7   3  -2  101.33    2.57
   7   3  -2  107.12    2.74
   7   3  -1   39.08    1.69
   7   3  -1   41.17    1.58
   7   3  -1   42.87    1.63
   7   3  -1   40.68    1.20
  -7  -3   1   39.02    1.47
   7   3  -1   38.12    1.51
  -7  -3   1   40.62    1.70
   7   3   0   34.53    0.99
  -7  -3   0   39.25    1.19
  -7  -4   6   19.95    1.14
   7   4  -6   22.22    0.79
   7   4  -5   37.57    1.24
   7   4  -5   39.07    1.31
   7   4  -4  180.43    2.86
   7   4  -4  178.79    2.93
   7   4  -3  118.47    2.39
   7   4  -3  117.56    2.43
  -7  -4   3  113.77    2.35
   7   4  -3  112.22    2.57
   8  -8  -5   52.63    2.01
   8  -8  -4  109.91    2.83
   8  -8  -3   11.62    0.58
   8  -8  -3   10.54    0.94
   8  -8  -2   32.70    1.07
   8  -8  -2   31.95    1.13
   8  -8  -2   30.89    1.48
   8  -8  -1   49.10    1.23
   8  -8  -1   44.43    1.65
   8  -7  -7    5.95    0.81
   8  -7  -6   17.88    1.32
   8  -7  -6   17.00    1.23
   8  -7  -5   26.32    1.61
   8  -7  -5   26.70    1.57
   8  -7  -5   26.11    1.50
   8  -7  -4    0.87    0.46
   8  -7  -4   -0.50    0.38
   8  -7  -4    0.57    0.45
   8  -7  -4    0.80    0.21
   8  -7  -3   22.63    0.98
   8  -7  -3   18.69    1.35
   8  -7  -2   -0.03    0.22
   8  -7  -2  130.90    2.57
   8  -7  -2  130.68    3.33
   8  -7  -2    0.03    0.38
   8  -7  -1    5.12    0.55
   8  -7  -1    5.09    0.74
   8  -7  -1    5.62    0.76
   8  -7   0   37.15    1.08
   8  -7   0   33.07    1.56
   8  -7   0   37.40    1.65
   8  -7   1    0.89    0.40
   8  -6  -8  131.97    3.00
   8  -6  -8  129.58    3.29
   8  -6  -7    6.89    0.94
   8  -6  -7    6.63    0.76
   8  -6  -7    4.93    0.76
   8  -6  -7    4.81    0.77
   8  -6  -6    9.62    1.07
   8  -6  -6    8.14    0.95
   8  -6  -6    8.54    0.93
   8  -6  -6    9.85    1.05
   8  -6  -5   67.02    2.59
   8  -6  -5   56.72    0.96
   8  -6  -5   68.44    2.57
   8  -6  -5   61.59    2.36
   8  -6  -5   71.95    2.70
   8  -6  -5   61.88    2.47
   8  -6  -4  395.65    3.82
   8  -6  -4  396.43    6.22
   8  -6  -4  388.02    5.77
   8  -6  -4  408.99    6.25
   8  -6  -3   34.23    1.32
   8  -6  -3   29.69    1.75
   8  -6  -3   31.99    1.76
   8  -6  -3   30.07    1.72
   8  -6  -2    2.24    0.57
   8  -6  -2    1.63    0.46
   8  -6  -2    0.81    0.52
   8  -6  -2    1.51    0.57
   8  -6  -1   16.07    0.86
   8  -6  -1   15.16    1.24
   8  -6  -1   16.75    1.24
   8  -6   0  135.86    2.19
   8  -6   0  130.23    3.31
   8  -6   1   42.97    1.78
   8  -6   1   41.39    1.71
   8  -6   2    6.92    0.37
  -8   6  -2    8.99    0.79
   8  -5  -9  178.87    3.49
   8  -5  -9  184.75    3.84
   8  -5  -8   10.68    0.96
   8  -5  -8   11.32    1.09
   8  -5  -8   11.31    1.01
   8  -5  -8   11.17    1.09
   8  -5  -7    1.47    0.56
   8  -5  -7    1.44    0.61
   8  -5  -7    1.06    0.48
   8  -5  -7    0.79    0.53
   8  -5  -7    0.94    0.46
   8  -5  -6  172.82    4.22
   8  -5  -6  177.03    4.07
   8  -5  -6  167.40    4.08
   8  -5  -6  168.36    4.18
   8  -5  -5  139.91    3.78
   8  -5  -5  140.56    2.12
   8  -5  -5  142.97    3.73
   8  -5  -5  146.52    3.82
   8  -5  -5  133.58    3.74
   8  -5  -4    6.01    0.91
   8  -5  -4   -0.02    0.36
   8  -5  -4    8.78    0.67
   8  -5  -4    6.32    0.91
   8  -5  -4    6.98    0.92
   8  -5  -4    2.17    0.57
   8  -5  -3  122.15    3.54
   8  -5  -3  119.83    2.55
   8  -5  -3  119.05    3.45
   8  -5  -3  113.47    3.31
   8  -5  -3  121.15    3.31
   8  -5  -2   87.76    2.95
   8  -5  -2   93.11    3.06
   8  -5  -2   95.67    2.93
   8  -5  -2   97.16    2.95
   8  -5  -1   49.19    2.16
   8  -5  -1   49.19    1.46
   8  -5  -1   53.50    2.17
   8  -5   0  139.16    3.38
   8  -5   0  137.51    2.23
   8  -5   0  133.77    3.49
   8  -5   0  131.82    3.29
   8  -5   1    0.01    0.93
   8  -5   1    0.47    0.42
  -8   5  -2   15.93    1.03
   8  -5   2   16.92    1.12
   8  -5   2   17.28    1.04
   8  -4  -9  134.56    3.17
   8  -4  -9  135.91    3.40
   8  -4  -9  129.67    3.17
   8  -4  -9  137.60    3.33
   8  -4  -8    2.34    0.64
   8  -4  -8    2.94    0.64
   8  -4  -8    2.04    0.63
   8  -4  -8    1.63    0.50
   8  -4  -8    0.75    0.44
   8  -4  -7  117.54    3.04
   8  -4  -7  115.65    3.44
   8  -4  -7  119.52    3.11
   8  -4  -7  125.12    3.50
   8  -4  -7  120.81    3.50
   8  -4  -6  182.83    2.37
   8  -4  -6  169.13    4.21
   8  -4  -6  188.44    4.30
   8  -4  -6  175.38    4.30
   8  -4  -5   14.65    1.31
   8  -4  -5   14.90    0.82
   8  -4  -5   16.84    1.40
   8  -4  -4  198.55    3.19
   8  -4  -4  203.30    4.40
   8  -4  -3  120.08    3.57
   8  -4  -3  128.86    2.78
   8  -4  -3  122.87    3.46
   8  -4  -3  114.41    3.44
   8  -4  -3  127.38    3.40
   8  -4  -2   24.70    1.64
   8  -4  -2   22.50    1.03
   8  -4  -2   23.30    1.56
   8  -4  -2   25.61    1.56
   8  -4  -1   51.62    2.31
   8  -4  -1   56.80    1.55
   8  -4  -1   50.86    2.24
   8  -4  -1   54.67    2.22
   8  -4   0    3.72    0.69
   8  -4   0    3.64    0.79
   8  -4   0    5.37    0.52
   8  -4   0    3.09    0.64
   8  -4   0    4.90    0.75
   8  -4   1    1.91    0.52
   8  -4   1    1.12    0.18
   8  -4   1    2.91    0.63
   8  -4   1    2.84    0.58
   8  -4   2    1.99    0.45
  -8   4  -2    0.13    0.29
   8  -4   2   -0.26    0.31
   8  -4   2    1.15    0.19
   8  -4   2    2.10    0.52
   8  -4   2    3.03    0.53
   8  -3 -10  112.92    2.74
   8  -3  -9    1.66    0.48
   8  -3  -9    1.85    0.52
   8  -3  -9    3.05    0.64
   8  -3  -8  145.00    1.81
   8  -3  -8  148.16    3.43
   8  -3  -8  149.54    3.53
   8  -3  -8  141.85    3.65
   8  -3  -8  155.15    3.74
   8  -3  -7   54.92    1.38
   8  -3  -7   61.67    2.52
   8  -3  -7   58.95    2.19
   8  -3  -7   58.27    2.39
   8  -3  -6   45.21    1.40
   8  -3  -6   44.80    2.19
   8  -3  -6   50.21    2.29
   8  -3  -5   29.70    1.82
   8  -3  -5   28.90    1.22
   8  -3  -5   25.14    1.70
   8  -3  -4   87.96    3.08
   8  -3  -4   88.68    2.28
   8  -3  -4   83.42    3.00
   8  -3  -4   90.70    2.87
   8  -3  -3  106.30    3.37
   8  -3  -3  103.19    3.11
   8  -3  -3  108.72    3.14
   8  -3  -3   98.57    1.53
   8  -3  -2   98.54    3.23
   8  -3  -2   98.87    2.09
   8  -3  -2  101.69    3.11
   8  -3  -2  103.12    3.03
   8  -3  -2  105.00    2.23
   8  -3  -1  101.09    3.19
   8  -3  -1  107.41    2.09
   8  -3  -1  103.68    3.15
   8  -3  -1  106.24    3.04
   8  -3  -1  107.32    2.51
   8  -3   0   -0.12    0.22
   8  -3   0   48.74    2.18
   8  -3   0    0.13    0.23
   8  -3   0   60.47    2.43
   8  -3   0   44.96    1.19
   8  -3   0   48.53    1.33
   8  -3   0   47.60    2.10
  -8   3   0   46.73    1.66
   8  -3   0   49.04    2.00
   8  -3   0   49.63    1.80
   8  -3   1   16.56    1.23
   8  -3   1   16.52    0.84
   8  -3   1   17.33    1.26
   8  -3   1   14.40    0.84
  -8   3  -1   18.04    0.95
   8  -3   1   16.86    1.13
   8  -3   1   17.63    1.10
   8  -3   2   83.87    2.36
   8  -3   2   84.38    1.68
   8  -3   2   84.50    2.45
   8  -3   2   86.42    1.80
   8  -2 -10   22.64    1.25
   8  -2  -9  289.39    2.86
   8  -2  -9  288.67    4.61
   8  -2  -8  138.20    2.32
   8  -2  -8  128.49    3.13
   8  -2  -8  137.02    3.50
   8  -2  -8  128.05    3.28
   8  -2  -7   82.26    1.96
   8  -2  -7   82.31    2.82
   8  -2  -6   64.80    2.51
   8  -2  -6   63.59    1.88
   8  -2  -6   63.73    2.54
   8  -2  -5  308.22    5.54
   8  -2  -5  317.07    4.35
   8  -2  -5  316.41    5.67
   8  -2  -4  142.10    3.80
   8  -2  -4  153.23    4.16
   8  -2  -4  144.90    3.62
   8  -2  -3  120.41    3.55
   8  -2  -3  116.59    2.30
   8  -2  -3  114.78    3.22
   8  -2  -3  114.83    2.34
   8  -2  -2    1.01    0.52
   8  -2  -2    1.54    0.72
   8  -2  -2    1.47    0.37
   8  -2  -2    1.22    0.24
   8  -2  -2   -0.13    0.37
   8  -2  -2    1.55    0.56
   8  -2  -2    2.80    0.51
   8  -2  -1   -0.12    0.28
   8  -2  -1   16.40    1.34
   8  -2  -1   17.48    1.37
   8  -2  -1   16.98    0.81
   8  -2  -1   14.71    0.81
   8  -2  -1   -0.03    0.34
  -8   2   1   15.32    0.99
   8  -2  -1   17.58    1.28
   8  -2  -1   16.42    1.09
   8  -2   0   27.30    1.65
   8  -2   0   38.90    1.95
   8  -2   0   29.57    1.21
   8  -2   0   31.98    1.68
   8  -2   0   30.96    1.30
  -8   2   0   26.36    1.21
   8  -2   0   33.25    1.63
   8  -2   0   35.05    1.59
   8  -2   1  365.60    5.50
   8  -2   1  360.63    4.07
   8  -2   1  363.89    4.27
   8  -2   1  358.70    4.82
   8  -2   1  359.14    4.88
   8  -2   2   88.50    1.92
   8  -2   2   86.83    2.41
   8  -2   2   86.58    1.82
   8  -2   2   90.35    2.38
   8  -2   2   89.15    1.94
   8  -1 -10  657.35    6.42
   8  -1  -9  104.00    2.06
   8  -1  -9   95.65    2.62
   8  -1  -9   98.52    2.77
   8  -1  -8   27.04    1.18
   8  -1  -8   30.93    1.62
   8  -1  -7   10.35    0.81
   8  -1  -7    9.50    0.93
   8  -1  -6   -0.13    0.22
   8  -1  -6   88.52    2.89
   8  -1  -5   -0.21    0.41
   8  -1  -5   37.60    2.08
   8  -1  -5   32.73    1.25
   8  -1  -5   34.91    1.86
   8  -1  -5    8.89    0.98
   8  -1  -5   32.72    0.91
   8  -1  -4   20.27    1.44
   8  -1  -4   17.98    1.46
   8  -1  -4   18.26    0.94
   8  -1  -4   19.04    1.37
   8  -1  -4   18.15    0.96
   8  -1  -3  101.23    3.14
   8  -1  -3  107.22    3.34
   8  -1  -3   98.19    2.06
   8  -1  -3   88.30    1.46
   8  -1  -3   97.72    2.97
   8  -1  -3   94.15    2.34
   8  -1  -2  156.32    3.90
   8  -1  -2  169.84    4.13
   8  -1  -2  153.98    2.35
   8  -1  -2  156.51    2.56
  -8   1   2  158.93    3.11
   8  -1  -2  167.28    3.80
   8  -1  -2  163.11    3.26
   8  -1  -1   23.76    1.56
   8  -1  -1   25.26    1.58
   8  -1  -1   24.82    1.16
   8  -1  -1   23.37    1.18
  -8   1   1   21.80    1.14
   8  -1  -1   23.47    1.42
   8  -1   0   43.63    1.98
   8  -1   0   48.92    2.04
   8  -1   0   41.78    1.49
   8  -1   0   44.32    1.60
  -8   1   0   42.72    1.41
   8  -1   0   46.81    1.84
   8  -1   0   46.21    1.81
   8  -1   1  110.25    2.90
   8  -1   1  111.72    2.30
   8  -1   1  111.05    2.38
   8  -1   1  105.16    2.44
   8   0  -9   64.76    1.78
   8   0  -9   61.56    1.97
   8   0  -9   66.27    2.20
   8   0  -8  137.42    2.36
   8   0  -8  131.67    3.17
   8   0  -7    3.68    0.47
   8   0  -7    3.28    0.60
   8   0  -6   17.60    0.91
   8   0  -6   15.59    0.59
   8   0  -5    1.60    0.37
   8   0  -5    0.13    0.41
   8   0  -5    1.03    0.31
   8   0  -5    0.96    0.43
   8   0  -5    2.07    0.61
   8   0  -4    1.27    0.38
   8   0  -4    2.15    0.66
   8   0  -4    1.99    0.40
   8   0  -4    3.11    0.69
   8   0  -3   -0.12    0.30
   8   0  -3   -0.18    0.33
   8   0  -3  153.43    3.93
   8   0  -3  147.48    2.20
   8   0  -3  156.45    2.48
  -8   0   3  151.89    3.00
   8   0  -3  156.80    3.68
   8   0  -3  154.32    3.14
   8   0  -2  108.86    3.09
   8   0  -2  114.28    3.32
   8   0  -2  110.97    2.33
   8   0  -2  114.80    2.48
  -8   0   2  108.13    2.43
   8   0  -2  106.96    2.97
   8   0  -2  114.19    2.80
   8   0  -1    4.44    0.72
   8   0  -1    3.63    0.69
   8   0  -1    3.69    0.53
   8   0  -1    3.69    0.55
  -8   0   1    3.56    0.49
   8   0  -1    4.25    0.67
   8   0  -1    3.52    0.59
   8   0   0   96.14    2.71
   8   0   0   98.17    2.22
   8   0   0   93.88    2.25
   8   0   0   96.69    2.44
   8   0   1   72.92    1.76
   8   1  -9    7.87    0.49
   8   1  -8   13.60    0.69
   8   1  -8   12.57    0.97
   8   1  -7  399.24    3.62
   8   1  -6   40.53    1.19
   8   1  -6   41.91    1.26
   8   1  -5   21.55    0.84
  -8  -1   5   24.38    1.20
   8   1  -5   22.43    1.41
   8   1  -5   20.52    1.06
   8   1  -4   13.96    1.20
   8   1  -4   11.99    0.65
  -8  -1   4   13.05    0.88
   8   1  -4   11.58    1.05
   8   1  -4   11.33    0.86
   8   1  -3  461.54    6.42
   8   1  -3  451.33    4.40
   8   1  -3  469.32    4.75
  -8  -1   3  446.51    4.70
   8   1  -3  475.55    6.16
   8   1  -3  472.29    5.48
   8   1  -2    1.28    0.41
   8   1  -2    1.57    0.42
   8   1  -2    0.73    0.48
   8   1  -2    0.98    0.36
  -8  -1   2    0.78    0.31
   8   1  -2    0.70    0.41
   8   1  -1   57.51    2.09
   8   1  -1   55.37    1.63
   8   1  -1   55.99    1.70
   8   1  -1   59.61    1.93
   8   2  -7   17.72    0.45
   8   2  -6    1.12    0.30
  -8  -2   6    1.18    0.37
  -8  -2   5   54.32    1.55
   8   2  -5   57.87    2.05
   8   2  -5   58.56    1.70
   8   2  -4  199.08    3.88
   8   2  -4  182.46    2.28
  -8  -2   4  181.39    2.65
   8   2  -4  198.92    3.75
   8   2  -4  192.28    3.22
   8   2  -3   17.89    1.20
   8   2  -3   17.08    0.83
   8   2  -3   20.13    0.94
   8   2  -3   19.93    1.19
   8   2  -3   19.84    1.10
   8   2  -2    1.56    0.34
   8   2  -2    2.16    0.41
   8   2  -2    2.47    0.50
   9  -7  -4   28.39    1.47
   9  -7  -3  346.00    4.92
   9  -6  -6    7.08    0.83
   9  -6  -5    8.38    0.88
   9  -6  -5    6.99    0.77
   9  -6  -5    6.61    0.82
   9  -6  -4  557.75    4.17
   9  -6  -4  560.74    6.74
   9  -6  -4  542.70    6.52
   9  -6  -3    0.23    0.30
   9  -6  -3   80.75    1.86
   9  -6  -3   77.46    2.51
   9  -6  -3   -0.30    0.28
   9  -6  -3   79.60    2.46
   9  -6  -2    2.13    0.48
   9  -6  -2    2.13    0.38
   9  -6  -2    1.93    0.39
   9  -6  -2    1.16    0.46
   9  -6  -2    1.50    0.48
   9  -6  -1   54.89    1.22
   9  -6  -1   52.53    1.94
   9  -6  -1   55.41    1.90
   9  -5  -7    3.07    0.64
   9  -5  -7    3.74    0.67
   9  -5  -6    5.22    0.76
   9  -5  -6    5.31    0.80
   9  -5  -5  193.93    2.45
   9  -5  -5  197.52    4.02
   9  -5  -5  192.73    4.22
   9  -5  -4   25.91    1.07
   9  -5  -4   25.47    1.52
   9  -5  -4   21.35    1.40
   9  -5  -4   24.25    1.53
   9  -5  -3    2.78    0.63
   9  -5  -3    2.88    0.42
   9  -5  -3    2.45    0.43
   9  -5  -3    2.43    0.59
   9  -5  -3    1.86    0.53
   9  -5  -3    2.30    0.56
   9  -5  -2   14.88    1.15
   9  -5  -2   16.66    0.80
   9  -5  -2   18.17    1.27
   9  -5  -2   18.79    1.25
   9  -5  -1    1.59    0.47
   9  -5  -1    2.16    0.34
   9  -5  -1    3.21    0.59
   9  -5  -1    2.66    0.54
   9  -5   0   72.10    2.19
   9  -5   0   76.59    2.15
   9  -4  -8    5.57    0.76
   9  -4  -8    5.05    0.70
   9  -4  -7  110.44    3.10
   9  -4  -7  109.90    3.06
   9  -4  -6  249.67    2.79
   9  -4  -6  243.93    4.72
   9  -4  -5  133.24    3.59
   9  -4  -5  131.93    2.40
   9  -4  -5  124.06    3.42
   9  -4  -4    0.98    0.56
   9  -4  -4   -0.14    0.24
   9  -4  -4   -0.36    0.38
   9  -4  -4    1.20    0.36
   9  -4  -4    0.73    0.51
   9  -4  -4   -0.15    0.36
   9  -4  -3   27.32    1.64
   9  -4  -3   28.83    1.08
   9  -4  -3   31.12    1.65
   9  -4  -3   26.80    1.58
   9  -4  -3   29.79    1.59
   9  -4  -2    9.24    0.98
   9  -4  -2    9.04    0.63
   9  -4  -2   10.09    0.97
   9  -4  -2    8.85    0.92
   9  -4  -2   10.16    0.96
   9  -4  -1  165.92    3.58
   9  -4  -1  156.97    2.00
   9  -4  -1  160.19    3.47
  -9   4   1  156.05    2.75
   9  -4  -1  156.70    3.31
   9  -4  -1  169.54    3.48
   9  -4   0    2.35    0.49
   9  -4   0    2.43    0.50
   9  -4   0    3.91    0.60
   9  -3  -8   -0.09    0.31
   9  -3  -8   48.50    0.68
   9  -3  -7  101.18    1.80
   9  -3  -7  100.98    2.97
   9  -3  -7  106.04    2.97
   9  -3  -6   20.27    0.95
   9  -3  -6   18.77    1.36
   9  -3  -5  199.09    4.29
   9  -3  -5  194.70    3.20
   9  -3  -5  195.25    4.32
   9  -3  -4   32.83    1.80
   9  -3  -4   35.87    1.24
   9  -3  -4   32.31    1.80
   9  -3  -4   35.19    1.74
   9  -3  -3   67.17    2.51
   9  -3  -3   68.94    1.64
   9  -3  -3   64.18    2.44
   9  -3  -3   68.71    2.39
   9  -3  -2   54.63    2.22
   9  -3  -2   51.90    1.30
   9  -3  -2   54.85    2.08
   9  -3  -1   11.80    1.02
  -9   3   1   11.00    0.76
   9  -3  -1   10.90    0.92
   9  -3   0   13.68    1.01
   9  -3   0   10.60    0.85
   9  -2  -8    5.04    0.44
   9  -2  -8    6.56    0.75
   9  -2  -7  146.97    2.54
   9  -2  -7  152.08    3.50
   9  -2  -6   14.78    0.80
   9  -2  -6   15.91    0.94
   9  -2  -6   14.83    1.19
   9  -2  -5   86.62    2.76
   9  -2  -5   85.87    1.87
   9  -2  -5   85.45    2.82
   9  -2  -4   31.06    1.70
   9  -2  -4   33.12    1.94
   9  -2  -4   29.47    1.11
   9  -2  -4   29.47    1.69
   9  -2  -4   31.13    1.63
   9  -2  -3   89.64    2.81
   9  -2  -3   84.80    1.69
   9  -2  -2   13.25    1.09
  -9   2   2   10.22    0.75
   9  -2  -2   13.38    1.04
   9  -2  -2   11.96    0.62
   9  -2  -1   17.60    1.19
  -9   2   1   18.09    0.89
   9  -2  -1   19.25    1.16
   9  -2  -1   15.51    0.76
   9  -1  -8  126.53    2.03
   9  -1  -7   56.77    1.43
   9  -1  -7    0.04    0.28
   9  -1  -6    0.81    0.29
   9  -1  -6    0.63    0.41
   9  -1  -5   20.59    0.89
   9  -1  -5   19.51    1.30
   9  -1  -4   65.34    1.42
   9  -1  -4   67.01    2.36
   9  -1  -4   71.00    2.34
   9  -1  -3   18.06    1.22
   9  -1  -3   18.85    1.34
  -9   1   3   13.34    0.85
   9  -1  -3   17.27    1.17
   9  -1  -3   14.98    0.67
   9  -1  -2   29.06    1.47
  -9   1   2   25.83    1.07
   9  -1  -2   26.50    1.36
   9  -1  -2   27.38    1.02
   9   0  -7    7.11    0.47
   9   0  -6  122.44    1.77
   9   0  -5  106.82    1.50
   9   0  -5  145.79    3.13
   9   0  -4   15.86    1.19
   9   0  -4   16.64    1.12
   9   0  -3   80.81    2.50
   9   0  -3   73.36    2.19
TITL n17037 in P-1
REM P-1 (#2 in standard setting)
CELL 1.54184   8.434094   8.699114  10.108278  91.2494 113.5058 110.2921
ZERR    2.00   0.000207   0.000212   0.000243   0.0020   0.0023   0.0022
LATT  1
SFAC C H N O S
UNIT 26.00 26.00 6.00 2.00 2.00
TREF
HKLF 4
END
_computing_structure_solution     'SHELXT 2014/4 (Sheldrick, 2014)'
;
_shelx_hkl_checksum              55478
_shelx_res_file
;
TITL n17037_a.res in P-1
    n17037.res
    created by SHELXL-2016/6 at 15:45:17 on 06-Jul-2017
REM Old TITL n17037 in P-1
REM SHELXT solution in P-1
REM R1 0.157, Rweak 0.010, Alpha 0.043, Orientation as input
REM Formula found by SHELXT: C13 N4 S
CELL 1.54184 8.4341 8.6991 10.1083 91.249 113.506 110.292
ZERR 2 0.0002 0.0002 0.0002 0.002 0.002 0.002
LATT 1
SFAC C H N O S
UNIT 26 26 6 2 2
SADI N2 H2 N3 H3
L.S. 5
PLAN  20
TEMP -100
HTAB N3 N1
BOND $H
list 4
MORE -1
CONF
fmap 2
acta
REM <olex2.extras>
REM <HklSrc "%.\\n17037.hkl">
REM </olex2.extras>
WGHT    0.041500    0.286700
FVAR       1.20650
S1    5    0.379698    0.748742    0.887936    11.00000    0.03025    0.02084 =
         0.03085   -0.00503    0.01936   -0.00158
O1    4    0.280218    0.167695    0.550601    11.00000    0.05084    0.02123 =
         0.03076   -0.00074    0.00712    0.01263
N1    3    0.870280    1.036252    0.779396    11.00000    0.02682    0.02172 =
         0.02970   -0.00013    0.01551    0.00425
N2    3    0.695797    0.984735    0.917341    11.00000    0.02577    0.01908 =
         0.02264   -0.00360    0.01262    0.00276
H2    2    0.679522    1.025983    0.983654    11.00000    0.03134
N3    3    0.558822    0.769600    0.719187    11.00000    0.02299    0.02032 =
         0.02602   -0.00422    0.01306    0.00173
H3    2    0.648288    0.821024    0.700731    11.00000    0.03976
C1    1    1.015541    1.137822    0.756817    11.00000    0.03108    0.02759 =
         0.03501    0.00353    0.01980    0.00765
AFIX  43
H1    2    1.032837    1.102259    0.675841    11.00000   -1.20000
AFIX   0
C2    1    1.140083    1.290272    0.844843    11.00000    0.02677    0.02482 =
         0.03878    0.00772    0.01736    0.00567
AFIX  43
H2A   2    1.240860    1.358462    0.825316    11.00000   -1.20000
AFIX   0
C3    1    1.114263    1.341689    0.963163    11.00000    0.02516    0.02060 =
         0.03160   -0.00008    0.00764    0.00144
AFIX  43
H3A   2    1.197544    1.446526    1.025915    11.00000   -1.20000
AFIX   0
C4    1    0.967460    1.239966    0.988938    11.00000    0.02699    0.02347 =
         0.02456   -0.00118    0.01005    0.00533
AFIX  43
H4    2    0.948182    1.272457    1.069814    11.00000   -1.20000
AFIX   0
C5    1    0.847373    1.087521    0.893011    11.00000    0.02103    0.01934 =
         0.02204    0.00339    0.00818    0.00700
C6    1    0.553202    0.836625    0.835836    11.00000    0.02324    0.01653 =
         0.02202    0.00048    0.00874    0.00625
C7    1    0.411759    0.621242    0.619063    11.00000    0.02240    0.02018 =
         0.02323   -0.00413    0.01273    0.00353
C8    1    0.424913    0.468472    0.640250    11.00000    0.02572    0.02518 =
         0.01983    0.00023    0.01014    0.00881
AFIX  43
H8    2    0.528426    0.461636    0.721088    11.00000   -1.20000
AFIX   0
C9    1    0.284013    0.325177    0.541179    11.00000    0.03291    0.01958 =
         0.02185   -0.00057    0.01451    0.00759
C10   1    0.133210    0.336067    0.423110    11.00000    0.02813    0.02453 =
         0.02533   -0.00582    0.00717    0.00366
AFIX  43
H10   2    0.036818    0.238022    0.355995    11.00000   -1.20000
AFIX   0
C11   1    0.123787    0.489312    0.403595    11.00000    0.02924    0.03323 =
         0.03042   -0.00211    0.00236    0.01158
AFIX  43
H11   2    0.020819    0.496461    0.322431    11.00000   -1.20000
AFIX   0
C12   1    0.263305    0.633721    0.501363    11.00000    0.03320    0.02403 =
         0.03383    0.00018    0.01073    0.01263
AFIX  43
H12   2    0.256619    0.739342    0.487419    11.00000   -1.20000
AFIX   0
C13   1    0.425139    0.147128    0.674862    11.00000    0.06236    0.03154 =
         0.03823    0.00756    0.01139    0.02490
AFIX 137
H13A  2    0.402596    0.028361    0.670313    11.00000   -1.50000
H13B  2    0.425443    0.190958    0.765138    11.00000   -1.50000
H13C  2    0.546803    0.207955    0.674384    11.00000   -1.50000
AFIX   0
HKLF 4
REM  n17037_a.res in P-1
REM R1 =  0.0330 for    2096 Fo > 4sig(Fo)  and  0.0337 for all    2125 data
REM    172 parameters refined using      1 restraints
END
WGHT      0.0415      0.2866
REM Highest difference peak  0.252,  deepest hole -0.257,  1-sigma level  0.057
Q1    1   0.4020  0.8055  0.9792  11.00000  0.05    0.25
Q2    1   0.3100  0.6180  0.5967  11.00000  0.05    0.17
Q3    1   0.4753  0.2048  0.8949  11.00000  0.05    0.17
Q4    1   0.3967  0.5509  0.6661  11.00000  0.05    0.16
Q5    1   1.1533  1.4805  1.1794  11.00000  0.05    0.16
Q6    1   0.4361  0.5412  0.5992  11.00000  0.05    0.16
Q7    1   0.4994  0.0574  0.6355  11.00000  0.05    0.15
Q8    1   0.1728  0.3131  0.5185  11.00000  0.05    0.15
Q9    1   0.8974  1.0476  0.8599  11.00000  0.05    0.15
Q10   1   0.3254  0.6638  0.8050  11.00000  0.05    0.15
Q11   1   1.1794  1.2951  0.9320  11.00000  0.05    0.14
Q12   1   0.3948  0.4019  0.5705  11.00000  0.05    0.14
Q13   1   0.7988  0.9473  0.7098  11.00000  0.05    0.14
Q14   1   0.4157  0.7034  1.0095  11.00000  0.05    0.14
Q15   1   0.4225  0.2958  0.8239  11.00000  0.05    0.14
Q16   1   0.5708  0.7722  0.8067  11.00000  0.05    0.14
Q17   1  -0.0734  0.4775  0.4028  11.00000  0.05    0.14
Q18   1   0.7281  0.1493  0.6705  11.00000  0.05    0.14
Q19   1   0.3815  0.6325  0.5259  11.00000  0.05    0.14
Q20   1   0.5007  0.7753  0.8797  11.00000  0.05    0.13
;
_shelx_res_checksum              59341
loop_
_space_group_symop_operation_xyz
'x, y, z'
'-x, -y, -z'
loop_
_atom_site_type_symbol
_atom_site_label
_atom_site_fract_x
_atom_site_fract_y
_atom_site_fract_z
_atom_site_U_iso_or_equiv
_atom_site_adp_type
_atom_site_calc_flag
_atom_site_occupancy
S S1 0.37970(5) 0.74874(4) 0.88794(4) 0.02876(15) Uani d 1
O O1 0.28022(18) 0.16770(13) 0.55060(13) 0.0385(3) Uani d 1
N N1 0.87028(18) 1.03625(15) 0.77940(14) 0.0266(3) Uani d 1
N N2 0.69580(18) 0.98474(15) 0.91734(14) 0.0236(3) Uani d 1
H H2 0.680(3) 1.026(2) 0.9837(19) 0.031(5) Uiso d 1
N N3 0.55882(18) 0.76960(15) 0.71919(14) 0.0244(3) Uani d 1
H H3 0.648(3) 0.821(2) 0.701(2) 0.040(5) Uiso d 1
C C1 1.0155(2) 1.1378(2) 0.75682(18) 0.0305(4) Uani d 1
H H1 1.032837 1.102259 0.675841 0.037 Uiso calc 1
C C2 1.1401(2) 1.29027(19) 0.84484(18) 0.0303(4) Uani d 1
H H2A 1.240860 1.358462 0.825316 0.036 Uiso calc 1
C C3 1.1143(2) 1.34169(19) 0.96316(18) 0.0297(4) Uani d 1
H H3A 1.197544 1.446526 1.025915 0.036 Uiso calc 1
C C4 0.9675(2) 1.23997(19) 0.98894(17) 0.0268(3) Uani d 1
H H4 0.948182 1.272457 1.069814 0.032 Uiso calc 1
C C5 0.84737(19) 1.08752(17) 0.89301(15) 0.0215(3) Uani d 1
C C6 0.5532(2) 0.83663(17) 0.83584(15) 0.0215(3) Uani d 1
C C7 0.4118(2) 0.62124(18) 0.61906(16) 0.0225(3) Uani d 1
C C8 0.4249(2) 0.46847(18) 0.64025(16) 0.0239(3) Uani d 1
H H8 0.528426 0.461636 0.721088 0.029 Uiso calc 1
C C9 0.2840(2) 0.32518(18) 0.54118(16) 0.0247(3) Uani d 1
C C10 0.1332(2) 0.33607(19) 0.42311(17) 0.0297(4) Uani d 1
H H10 0.036818 0.238022 0.355995 0.036 Uiso calc 1
C C11 0.1238(2) 0.4893(2) 0.40360(18) 0.0349(4) Uani d 1
H H11 0.020819 0.496461 0.322431 0.042 Uiso calc 1
C C12 0.2633(2) 0.6337(2) 0.50136(18) 0.0313(4) Uani d 1
H H12 0.256619 0.739342 0.487419 0.038 Uiso calc 1
C C13 0.4251(3) 0.1471(2) 0.6749(2) 0.0457(5) Uani d 1
H H13A 0.402596 0.028361 0.670313 0.069 Uiso calc 1
H H13B 0.425443 0.190958 0.765138 0.069 Uiso calc 1
H H13C 0.546803 0.207955 0.674384 0.069 Uiso calc 1
loop_
_atom_site_aniso_label
_atom_site_aniso_U_11
_atom_site_aniso_U_22
_atom_site_aniso_U_33
_atom_site_aniso_U_12
_atom_site_aniso_U_13
_atom_site_aniso_U_23
S1 0.0302(2) 0.0208(2) 0.0309(2) -0.00158(16) 0.01936(18) -0.00503(15)
O1 0.0508(7) 0.0212(6) 0.0308(6) 0.0126(5) 0.0071(5) -0.0007(5)
N1 0.0268(7) 0.0217(6) 0.0297(7) 0.0043(5) 0.0155(6) -0.0001(5)
N2 0.0258(6) 0.0191(6) 0.0226(6) 0.0028(5) 0.0126(5) -0.0036(5)
N3 0.0230(7) 0.0203(6) 0.0260(7) 0.0017(5) 0.0131(5) -0.0042(5)
C1 0.0311(8) 0.0276(8) 0.0350(9) 0.0076(7) 0.0198(7) 0.0035(7)
C2 0.0268(8) 0.0248(8) 0.0388(9) 0.0057(6) 0.0174(7) 0.0077(7)
C3 0.0252(8) 0.0206(7) 0.0316(8) 0.0014(6) 0.0076(7) -0.0001(6)
C4 0.0270(8) 0.0235(8) 0.0246(8) 0.0053(6) 0.0100(6) -0.0012(6)
C5 0.0210(7) 0.0193(7) 0.0220(7) 0.0070(6) 0.0082(6) 0.0034(6)
C6 0.0232(7) 0.0165(7) 0.0220(7) 0.0063(6) 0.0087(6) 0.0005(6)
C7 0.0224(7) 0.0202(7) 0.0232(7) 0.0035(6) 0.0127(6) -0.0041(6)
C8 0.0257(8) 0.0252(8) 0.0198(7) 0.0088(6) 0.0101(6) 0.0002(6)
C9 0.0329(8) 0.0196(7) 0.0218(7) 0.0076(6) 0.0145(6) -0.0006(6)
C10 0.0281(8) 0.0245(8) 0.0253(8) 0.0037(6) 0.0072(6) -0.0058(6)
C11 0.0292(8) 0.0332(9) 0.0304(9) 0.0116(7) 0.0024(7) -0.0021(7)
C12 0.0332(9) 0.0240(8) 0.0338(9) 0.0126(7) 0.0107(7) 0.0002(7)
C13 0.0624(12) 0.0315(9) 0.0382(10) 0.0249(9) 0.0114(9) 0.0076(8)
loop_
_atom_type_symbol
_atom_type_description
_atom_type_scat_dispersion_real
_atom_type_scat_dispersion_imag
_atom_type_scat_source
C C 0.0181 0.0091 'International Tables Vol C Tables 4.2.6.8 and 6.1.1.4'
H H 0.0000 0.0000 'International Tables Vol C Tables 4.2.6.8 and 6.1.1.4'
N N 0.0311 0.0180 'International Tables Vol C Tables 4.2.6.8 and 6.1.1.4'
O O 0.0492 0.0322 'International Tables Vol C Tables 4.2.6.8 and 6.1.1.4'
S S 0.3331 0.5567 'International Tables Vol C Tables 4.2.6.8 and 6.1.1.4'
loop_
_geom_angle_atom_site_label_1
_geom_angle_atom_site_label_2
_geom_angle_atom_site_label_3
_geom_angle
C9 O1 C13 117.87(13)
C5 N1 C1 117.73(13)
C5 N2 H2 115.5(13)
C6 N2 H2 113.8(13)
C6 N2 C5 129.96(13)
C6 N3 H3 117.5(14)
C6 N3 C7 123.30(13)
C7 N3 H3 119.1(14)
N1 C1 H1 118.3
N1 C1 C2 123.43(15)
C2 C1 H1 118.3
C1 C2 H2A 121.0
C1 C2 C3 118.07(14)
C3 C2 H2A 121.0
C2 C3 H3A 120.2
C4 C3 C2 119.63(14)
C4 C3 H3A 120.2
C3 C4 H4 120.9
C3 C4 C5 118.25(14)
C5 C4 H4 120.9
N1 C5 N2 118.64(13)
N1 C5 C4 122.89(13)
C4 C5 N2 118.47(13)
N2 C6 S1 118.69(11)
N3 C6 S1 123.46(11)
N3 C6 N2 117.86(13)
C8 C7 N3 119.07(13)
C12 C7 N3 119.58(13)
C12 C7 C8 121.32(14)
C7 C8 H8 120.5
C7 C8 C9 118.93(14)
C9 C8 H8 120.5
O1 C9 C8 124.51(14)
O1 C9 C10 115.24(13)
C10 C9 C8 120.24(14)
C9 C10 H10 120.1
C11 C10 C9 119.82(14)
C11 C10 H10 120.1
C10 C11 H11 119.6
C10 C11 C12 120.72(15)
C12 C11 H11 119.6
C7 C12 C11 118.96(15)
C7 C12 H12 120.5
C11 C12 H12 120.5
O1 C13 H13A 109.5
O1 C13 H13B 109.5
O1 C13 H13C 109.5
H13A C13 H13B 109.5
H13A C13 H13C 109.5
H13B C13 H13C 109.5
loop_
_geom_bond_atom_site_label_1
_geom_bond_atom_site_label_2
_geom_bond_distance
S1 C6 1.6910(15)
O1 C9 1.3655(19)
O1 C13 1.428(2)
N1 C1 1.347(2)
N1 C5 1.3303(19)
N2 H2 0.833(17)
N2 C5 1.4007(19)
N2 C6 1.3689(19)
N3 H3 0.828(17)
N3 C6 1.3290(19)
N3 C7 1.4352(18)
C1 H1 0.9500
C1 C2 1.375(2)
C2 H2A 0.9500
C2 C3 1.389(2)
C3 H3A 0.9500
C3 C4 1.375(2)
C4 H4 0.9500
C4 C5 1.398(2)
C7 C8 1.386(2)
C7 C12 1.381(2)
C8 H8 0.9500
C8 C9 1.392(2)
C9 C10 1.389(2)
C10 H10 0.9500
C10 C11 1.377(2)
C11 H11 0.9500
C11 C12 1.390(2)
C12 H12 0.9500
C13 H13A 0.9800
C13 H13B 0.9800
C13 H13C 0.9800
loop_
_geom_hbond_atom_site_label_D
_geom_hbond_atom_site_label_H
_geom_hbond_atom_site_label_A
_geom_hbond_site_symmetry_A
_geom_hbond_distance_DH
_geom_hbond_distance_HA
_geom_hbond_distance_DA
_geom_hbond_angle_DHA
N2 H2 S1 2_677 0.833(17) 2.619(17) 3.3882(13) 154.1(16)
N3 H3 N1 . 0.828(17) 1.990(19) 2.6624(17) 137.8(19)
loop_
_geom_torsion_atom_site_label_1
_geom_torsion_atom_site_label_2
_geom_torsion_atom_site_label_3
_geom_torsion_atom_site_label_4
_geom_torsion
O1 C9 C10 C11 -179.94(15)
N1 C1 C2 C3 0.0(2)
N3 C7 C8 C9 -178.66(13)
N3 C7 C12 C11 178.71(14)
C1 N1 C5 N2 179.20(13)
C1 N1 C5 C4 -0.5(2)
C1 C2 C3 C4 0.2(2)
C2 C3 C4 C5 -0.6(2)
C3 C4 C5 N1 0.7(2)
C3 C4 C5 N2 -178.94(13)
C5 N1 C1 C2 0.1(2)
C5 N2 C6 S1 -175.35(12)
C5 N2 C6 N3 4.6(2)
C6 N2 C5 N1 -4.2(2)
C6 N2 C5 C4 175.50(14)
C6 N3 C7 C8 -94.15(17)
C6 N3 C7 C12 87.82(19)
C7 N3 C6 S1 4.4(2)
C7 N3 C6 N2 -175.49(13)
C7 C8 C9 O1 -179.53(14)
C7 C8 C9 C10 0.1(2)
C8 C7 C12 C11 0.7(2)
C8 C9 C10 C11 0.4(2)
C9 C10 C11 C12 -0.3(3)
C10 C11 C12 C7 -0.2(3)
C12 C7 C8 C9 -0.7(2)
C13 O1 C9 C8 3.6(2)
C13 O1 C9 C10 -176.05(15)

_cod_database_fobs_code 2020900
