#------------------------------------------------------------------------------
#$Date: 2018-01-24 08:30:12 +0200 (Wed, 24 Jan 2018) $
#$Revision: 205533 $
#$URL: file:///home/coder/svn-repositories/cod/cif/2/02/09/2020962.cif $
#------------------------------------------------------------------------------
#
# This file is available in the Crystallography Open Database (COD),
# http://www.crystallography.net/. The original data for this entry
# were provided by IUCr Journals, http://journals.iucr.org/.
#
# The file may be used within the scientific community so long as
# proper attribution is given to the journal article from which the
# data were obtained.
#
data_2020962
loop_
_publ_author_name
'Sohr, Julia'
'Schmidt, Horst'
'Voigt, Wolfgang'
_publ_section_title
;
 Higher hydrates of lithium chloride, lithium bromide and lithium iodide
;
_journal_coeditor_code           QF3002
_journal_issue                   2
_journal_name_full               'Acta Crystallographica Section C'
_journal_page_first
;
;
_journal_paper_doi               10.1107/S2053229618001183
_journal_volume                  74
_journal_year                    2018
_chemical_formula_iupac          'Li Cl, 5H2 O'
_chemical_formula_moiety         'Cl, 5(H2 O), Li'
_chemical_formula_sum            'Cl H10 Li O5'
_chemical_formula_weight         132.47
_chemical_name_systematic
;
Lithium chloride pentahydrate
;
_space_group_crystal_system      triclinic
_space_group_IT_number           2
_space_group_name_Hall           '-P 1'
_space_group_name_H-M_alt        'P -1'
_symmetry_space_group_name_Hall  '-P 1'
_symmetry_space_group_name_H-M   'P -1'
_atom_sites_solution_hydrogens   difmap
_audit_creation_method           SHELXL-2014/7
_cell_angle_alpha                88.34(3)
_cell_angle_beta                 77.53(3)
_cell_angle_gamma                70.77(3)
_cell_formula_units_Z            4
_cell_length_a                   6.247(2)
_cell_length_b                   9.232(4)
_cell_length_c                   11.677(5)
_cell_measurement_reflns_used    7772
_cell_measurement_temperature    140
_cell_measurement_theta_max      29.59
_cell_measurement_theta_min      10.83
_cell_volume                     620.2(4)
_computing_cell_refinement
;
X-AREA (Stoe & Cie, 2015)
;
_computing_data_collection
;
X-AREA (Stoe & Cie, 2015)
;
_computing_data_reduction
;
X-RED (Stoe & Cie, 2015)
;
_computing_molecular_graphics
;
DIAMOND (Brandenburg, 2017)
;
_computing_publication_material
;
publCIF (Westrip, 2010)
;
_computing_structure_refinement
;
SHELXL2014 (Sheldrick, 2015)
;
_computing_structure_solution
;
SHELXS97 (Sheldrick, 2008)
;
_diffrn_ambient_temperature      140
_diffrn_detector_area_resol_mean 6.67
_diffrn_measured_fraction_theta_full 0.987
_diffrn_measured_fraction_theta_max 0.977
_diffrn_measurement_device_type  'Stoe IPDS 2T'
_diffrn_measurement_method       'rotation method'
_diffrn_radiation_type           'Mo K\a'
_diffrn_radiation_wavelength     0.71073
_diffrn_reflns_av_R_equivalents  0.0506
_diffrn_reflns_limit_h_max       8
_diffrn_reflns_limit_h_min       -8
_diffrn_reflns_limit_k_max       12
_diffrn_reflns_limit_k_min       -12
_diffrn_reflns_limit_l_max       15
_diffrn_reflns_limit_l_min       -15
_diffrn_reflns_number            3284
_diffrn_reflns_theta_full        25.242
_diffrn_reflns_theta_max         29.156
_diffrn_reflns_theta_min         2.879
_exptl_absorpt_coefficient_mu    0.546
_exptl_absorpt_correction_T_max  0.9358
_exptl_absorpt_correction_T_min  0.7261
_exptl_absorpt_correction_type   integration
_exptl_absorpt_process_details
;
(Coppens, 1970)
;
_exptl_crystal_colour            colourless
_exptl_crystal_density_diffrn    1.419
_exptl_crystal_description       needle
_exptl_crystal_F_000             280
_exptl_crystal_size_max          0.5
_exptl_crystal_size_mid          0.4
_exptl_crystal_size_min          0.15
_refine_diff_density_max         1.426
_refine_diff_density_min         -0.484
_refine_ls_extinction_method     none
_refine_ls_goodness_of_fit_ref   1.013
_refine_ls_hydrogen_treatment    refall
_refine_ls_matrix_type           full
_refine_ls_number_parameters     207
_refine_ls_number_reflns         3283
_refine_ls_number_restraints     30
_refine_ls_restrained_S_all      1.009
_refine_ls_R_factor_all          0.0605
_refine_ls_R_factor_gt           0.0585
_refine_ls_shift/su_max          0.000
_refine_ls_shift/su_mean         0.000
_refine_ls_structure_factor_coef Fsqd
_refine_ls_weighting_details
'w=1/[\s^2^(Fo^2^)+(0.0900P)^2^+1.8450P] where P=(Fo^2^+2Fc^2^)/3'
_refine_ls_weighting_scheme      calc
_refine_ls_wR_factor_gt          0.1600
_refine_ls_wR_factor_ref         0.1626
_reflns_number_gt                3103
_reflns_number_total             3284
_reflns_threshold_expression     'I > 2\s(I)'
_cod_data_source_file            qf3002sup1.cif
_cod_data_source_block           LiCl.5H2O
_cod_database_code               2020962
_shelx_space_group_comment
;
The symmetry employed for this shelxl refinement is uniquely defined
by the following loop, which should always be used as a source of
symmetry information in preference to the above space-group names.
They are only intended as comments.
;
_shelx_hkl_file
;
   1   0   0   22.58    1.91   0
   3   0   0   73.01    1.61   0
   4   0   0  500.62    3.45   0
   5   0   0  365.77    2.90   0
   6   0   0  258.60    2.51   0
   7   0   0  226.43    2.46   0
  -7   1   0   58.40    1.57   0
  -6   1   0   27.47    1.17   0
  -5   1   0  105.34    1.65   0
  -4   1   0  134.34    1.95   0
  -3   1   0  147.52    2.01   0
  -1   1   0   47.41    1.58   0
   1   1   0    8.28    1.80   0
   2   1   0  186.47    3.04   0
   3   1   0   20.75    1.76   0
   4   1   0   50.25    1.47   0
   5   1   0    2.87    1.26   0
   6   1   0  191.35    2.34   0
   7   1   0   14.34    1.22   0
   8   1   0   20.14    1.46   0
  -7   2   0  240.34    2.40   0
  -6   2   0   12.88    1.19   0
  -5   2   0  629.79    3.29   0
  -4   2   0  100.64    1.54   0
  -3   2   0 1684.35    5.55   0
  -2   2   0 3402.85    8.07   0
  -1   2   0 2524.38    7.85   0
   0   2   0 4153.96   11.03   0
   1   2   0   43.34    1.73   0
   2   2   0  853.21    5.50   0
   3   2   0  582.50    4.24   0
   4   2   0  606.83    4.09   0
   5   2   0  448.94    3.37   0
   6   2   0    5.09    1.40   0
   7   2   0   40.69    1.44   0
   8   2   0  277.82    3.21   0
  -7   3   0  300.71    2.78   0
  -6   3   0    0.78    1.05   0
  -5   3   0  562.17    2.96   0
  -4   3   0  257.22    2.08   0
  -3   3   0  319.10    2.43   0
  -2   3   0  393.62    3.21   0
  -1   3   0   11.27    1.39   0
   0   3   0 9003.13   13.35   0
   1   3   0  101.56    1.86   0
   2   3   0 5365.32   11.31   0
   3   3   0    1.77    1.05   0
   4   3   0  325.39    2.80   0
   5   3   0    8.75    1.09   0
   6   3   0   37.64    1.48   0
   7   3   0    3.98    1.24   0
   8   3   0    5.54    1.17   0
  -6   4   0    4.64    1.07   0
  -5   4   0   34.58    1.37   0
  -4   4   0  317.91    2.69   0
  -3   4   0  350.08    2.94   0
  -2   4   0 2365.79    5.77   0
  -1   4   0   92.79    1.39   0
   0   4   0    8.95    1.34   0
   1   4   0  290.40    2.51   0
   2   4   0    4.44    1.26   0
   3   4   0 1180.29    4.76   0
   4   4   0    5.61    0.96   0
   5   4   0 1221.01    4.72   0
   6   4   0  558.75    3.46   0
   7   4   0  452.40    3.41   0
   8   4   0  280.96    3.08   0
  -6   5   0   37.22    1.21   0
  -5   5   0  500.99    2.75   0
  -4   5   0    5.17    1.19   0
  -3   5   0  179.85    1.69   0
  -2   5   0   82.93    1.27   0
  -1   5   0   30.54    1.11   0
   0   5   0  174.68    1.86   0
   1   5   0  949.78    3.79   0
   2   5   0 1683.45    5.04   0
   3   5   0 2791.77    6.72   0
   4   5   0 1352.24    4.74   0
   5   5   0  672.44    3.44   0
   6   5   0    0.15    1.15   0
   7   5   0   39.54    1.41   0
   8   5   0  115.35    2.17   0
  -5   6   0    1.95    0.90   0
  -4   6   0   29.93    1.23   0
  -3   6   0   20.09    1.19   0
  -2   6   0    1.88    0.88   0
  -1   6   0   44.00    1.10   0
   0   6   0   92.56    1.46   0
   1   6   0  187.65    1.79   0
   2   6   0   17.92    1.19   0
   3   6   0  490.37    2.71   0
   4   6   0   13.25    0.95   0
   5   6   0  341.20    2.48   0
   6   6   0   49.11    1.41   0
   7   6   0   70.41    1.54   0
   8   6   0  128.46    2.23   0
  -5   7   0   16.10    1.12   0
  -4   7   0  146.71    1.81   0
  -3   7   0   10.61    0.95   0
  -2   7   0 2250.78    5.04   0
  -1   7   0   87.45    1.34   0
   0   7   0 2685.18    6.19   0
   1   7   0 1420.09    4.49   0
   2   7   0  119.94    1.49   0
   3   7   0 1742.84    4.68   0
   4   7   0    1.15    0.84   0
   5   7   0  826.41    3.55   0
   6   7   0  148.40    1.81   0
   7   7   0  382.13    2.77   0
   8   7   0  229.40    3.85   0
  -4   8   0   36.07    1.19   0
  -3   8   0   33.47    1.33   0
  -2   8   0   16.83    0.95   0
  -1   8   0    8.93    0.99   0
   0   8   0   15.95    1.05   0
   1   8   0   23.55    1.17   0
   2   8   0   35.77    1.33   0
   3   8   0    5.98    0.93   0
   4   8   0  118.49    1.55   0
   5   8   0    5.32    1.21   0
   6   8   0    7.24    0.95   0
   7   8   0    9.08    1.09   0
  -3   9   0   19.12    0.99   0
  -2   9   0  530.71    2.51   0
  -1   9   0  264.30    2.19   0
   0   9   0   59.34    1.25   0
   1   9   0 1338.08    4.36   0
   2   9   0   71.62    1.27   0
   3   9   0  312.35    1.99   0
   4   9   0  118.95    1.53   0
   5   9   0   61.05    1.36   0
   6   9   0  205.27    1.84   0
   7   9   0    6.05    1.10   0
  -2  10   0  382.38    2.59   0
  -1  10   0    1.43    1.64   0
   0  10   0 1034.14    3.39   0
   1  10   0   12.28    1.02   0
   2  10   0   31.35    1.11   0
   3  10   0   76.42    1.34   0
   4  10   0   42.66    1.10   0
   5  10   0    7.89    0.96   0
   6  10   0   12.42    0.89   0
  -1  11   0  170.73    1.84   0
   0  11   0   31.14    1.18   0
   1  11   0  182.06    1.86   0
   2  11   0   45.26    1.18   0
   3  11   0  118.41    1.49   0
   4  11   0   68.58    1.19   0
   5  11   0  103.49    1.53   0
   6  11   0  303.57    2.28   0
   1  12   0  365.81    2.87   0
   2  12   0   84.04    1.38   0
   3  12   0  239.93    1.93   0
   4  12   0    0.53    0.96   0
  -4 -12   1  370.80    2.27   0
  -3 -12   1   25.34    1.11   0
  -2 -12   1  248.48    2.07   0
  -1 -12   1   79.84    1.58   0
  -5 -11   1   56.88    1.24   0
  -4 -11   1   79.56    1.32   0
  -3 -11   1    8.69    0.88   0
  -2 -11   1   72.38    1.35   0
  -1 -11   1  230.61    2.07   0
   0 -11   1   95.94    1.29   0
   1 -11   1  154.32    1.79   0
  -6 -10   1  211.36    1.88   0
  -5 -10   1   35.55    1.09   0
  -4 -10   1  539.35    2.57   0
  -3 -10   1   51.00    1.19   0
  -2 -10   1   12.14    1.17   0
  -1 -10   1   59.85    1.22   0
   0 -10   1  331.30    2.01   0
   1 -10   1  198.37    1.88   0
   2 -10   1   60.75    1.22   0
  -7  -9   1    1.75    0.84   0
  -6  -9   1   11.09    1.06   0
  -5  -9   1   23.10    1.06   0
  -4  -9   1   48.92    1.13   0
  -3  -9   1   25.19    1.06   0
  -2  -9   1  233.19    1.78   0
  -1  -9   1  187.84    1.86   0
   0  -9   1  381.90    2.50   0
   1  -9   1   36.23    1.10   0
   2  -9   1   34.81    1.03   0
   3  -9   1    5.38    1.07   0
  -7  -8   1    4.15    1.11   0
  -6  -8   1  556.38    2.93   0
  -5  -8   1  280.39    2.12   0
  -4  -8   1  785.53    3.14   0
  -3  -8   1  651.97    2.82   0
  -2  -8   1   29.76    1.01   0
  -1  -8   1 1128.06    3.56   0
   0  -8   1   14.97    1.02   0
   1  -8   1 1723.51    4.61   0
   2  -8   1  229.12    1.78   0
   3  -8   1  239.86    2.05   0
   4  -8   1 1073.45    3.84   0
  -7  -7   1    9.20    0.97   0
  -6  -7   1  113.63    1.59   0
  -5  -7   1   56.66    1.36   0
  -4  -7   1    8.28    1.04   0
  -3  -7   1  206.97    1.83   0
  -2  -7   1    4.77    1.13   0
  -1  -7   1  365.95    2.28   0
   0  -7   1    3.93    1.13   0
   1  -7   1   74.60    1.37   0
   2  -7   1    3.48    1.01   0
   3  -7   1   15.97    1.30   0
   4  -7   1   28.05    1.30   0
   5  -7   1    6.46    1.09   0
  -8  -6   1    2.62    1.08   0
  -7  -6   1  113.73    1.64   0
  -6  -6   1  289.67    2.30   0
  -5  -6   1   -1.31    1.27   0
  -4  -6   1  227.30    2.15   0
  -3  -6   1  293.05    2.20   0
  -2  -6   1  277.85    2.15   0
  -1  -6   1 2615.96    5.83   0
   0  -6   1  676.05    3.36   0
   1  -6   1 1252.36    4.14   0
   2  -6   1  368.58    2.22   0
   3  -6   1    3.69    0.92   0
   4  -6   1  324.22    2.16   0
   5  -6   1   31.20    1.12   0
  -8  -5   1  132.96    1.88   0
  -7  -5   1   16.85    1.25   0
  -6  -5   1  340.38    2.56   0
  -5  -5   1  456.42    2.83   0
  -4  -5   1  539.21    3.19   0
  -3  -5   1 1913.49    5.43   0
  -2  -5   1  159.72    1.94   0
  -1  -5   1 1897.56    5.20   0
   0  -5   1   39.65    1.07   0
   1  -5   1  818.03    3.63   0
   2  -5   1   92.12    1.35   0
   3  -5   1  183.76    1.96   0
   4  -5   1    8.76    1.25   0
   5  -5   1   14.90    1.26   0
   6  -5   1   36.96    1.30   0
  -8  -4   1  133.23    2.27   0
  -7  -4   1   98.08    1.78   0
  -6  -4   1  113.42    1.88   0
  -5  -4   1  181.68    2.12   0
  -4  -4   1  292.64    2.34   0
  -3  -4   1  478.98    2.98   0
  -2  -4   1  206.91    2.26   0
  -1  -4   1 1160.00    4.63   0
   0  -4   1 2374.79    6.21   0
   1  -4   1  302.64    2.29   0
   2  -4   1 5141.08    8.81   0
   3  -4   1  110.38    1.66   0
   4  -4   1  984.41    5.65   0
   5  -4   1    0.52    1.24   0
   6  -4   1  214.15    2.58   0
  -8  -3   1  187.61    2.47   0
  -7  -3   1    1.14    1.11   0
  -6  -3   1  726.91    3.84   0
  -5  -3   1  271.72    2.54   0
  -4  -3   1  715.37    3.70   0
  -3  -3   1 1137.78    4.80   0
  -2  -3   1  823.52    4.35   0
  -1  -3   1 1295.52    5.34   0
   0  -3   1  232.34    2.39   0
   1  -3   1  474.58    3.22   0
   2  -3   1  271.30    2.42   0
   3  -3   1  172.90    2.39   0
   4  -3   1  540.52    3.44   0
   5  -3   1  585.14    3.47   0
   6  -3   1    0.72    0.95   0
   7  -3   1  157.55    2.28   0
  -8  -2   1    0.40    1.25   0
  -7  -2   1    2.19    1.07   0
  -6  -2   1  260.96    2.34   0
  -5  -2   1    6.54    0.97   0
  -4  -2   1   86.80    1.63   0
  -3  -2   1  233.62    2.50   0
  -2  -2   1 3952.89   10.08   0
  -1  -2   1  422.69    3.85   0
   0  -2   1    2.83    1.22   0
   1  -2   1    2.79    0.93   0
   2  -2   1   17.77    1.26   0
   3  -2   1   36.05    1.43   0
   4  -2   1   51.47    1.28   0
   5  -2   1  130.45    1.77   0
   6  -2   1  115.36    1.85   0
   7  -2   1   75.92    1.67   0
  -7  -1   1  200.54    2.29   0
  -6  -1   1 2312.50    6.59   0
  -5  -1   1  805.18    3.84   0
  -4  -1   1  557.36    3.47   0
  -3  -1   1 1590.23    5.79   0
  -2  -1   1   48.32    1.50   0
  -1  -1   1  877.43    5.90   0
   0  -1   1   10.55    1.35   0
   1  -1   1   43.35    2.01   0
   3  -1   1  186.86    2.40   0
   4  -1   1 5651.90   10.77   0
   5  -1   1   89.61    1.70   0
   6  -1   1   86.01    1.74   0
   7  -1   1   62.87    1.66   0
  -7   0   1    3.91    0.91   0
  -6   0   1  228.52    2.16   0
  -5   0   1  121.63    1.80   0
  -4   0   1   26.11    1.07   0
  -3   0   1  208.33    2.35   0
  -2   0   1   12.58    1.33   0
  -1   0   1   71.98    2.77   0
   1   0   1   10.68    1.91   0
   2   0   1    4.65    1.53   0
   3   0   1   16.15    1.22   0
   4   0   1    2.14    1.19   0
   5   0   1    0.47    1.21   0
   6   0   1   28.29    1.39   0
   7   0   1   33.26    1.44   0
  -7   1   1   37.49    1.30   0
  -6   1   1  123.36    1.66   0
  -5   1   1  179.33    2.02   0
  -4   1   1  262.09    2.32   0
  -3   1   1  875.79    3.96   0
   0   1   1   31.34    1.52   0
   1   1   1   25.39    2.02   0
   3   1   1  813.41    6.00   0
   4   1   1   10.13    1.51   0
   5   1   1  746.47    4.71   0
   6   1   1    1.76    1.19   0
   7   1   1  415.52    3.69   0
   8   1   1   21.30    1.72   0
  -7   2   1  119.67    1.76   0
  -6   2   1  163.64    1.91   0
  -5   2   1  575.79    3.02   0
  -4   2   1   50.63    1.15   0
  -1   2   1 1053.64    5.78   0
   0   2   1 1884.92    8.02   0
   1   2   1  178.75    2.77   0
   2   2   1  905.94    6.23   0
   3   2   1   27.14    1.76   0
   4   2   1 2162.79    8.23   0
   5   2   1    1.63    1.33   0
   6   2   1   68.82    1.98   0
   7   2   1   11.95    1.42   0
   8   2   1   25.32    1.75   0
  -6   3   1   74.45    1.29   0
  -5   3   1  129.50    1.54   0
  -4   3   1   82.17    1.41   0
  -3   3   1   87.84    1.35   0
  -2   3   1  292.37    2.57   0
  -1   3   1  994.52    5.68   0
   1   3   1 1858.42    6.60   0
   2   3   1 6747.01   13.26   0
   3   3   1   44.80    1.48   0
   4   3   1   31.77    1.55   0
   5   3   1  168.11    2.32   0
   6   3   1   51.98    1.79   0
   7   3   1  350.83    3.47   0
   8   3   1   48.87    2.03   0
  -6   4   1    9.92    0.97   0
  -5   4   1  262.93    2.18   0
  -4   4   1  352.70    2.83   0
  -3   4   1 1231.92    4.90   0
  -2   4   1 1310.13    5.25   0
  -1   4   1 1064.82    4.05   0
   0   4   1    8.50    1.27   0
   1   4   1   48.32    1.39   0
   2   4   1  769.74    3.97   0
   3   4   1  357.72    2.94   0
   4   4   1  216.26    2.61   0
   5   4   1  791.82    4.35   0
   6   4   1  475.97    3.56   0
   7   4   1  309.74    3.16   0
   8   4   1   13.16    1.43   0
  -6   5   1   12.94    0.94   0
  -5   5   1    9.60    0.95   0
  -4   5   1  219.41    1.84   0
  -3   5   1   77.94    1.50   0
  -2   5   1    5.71    0.81   0
  -1   5   1  528.26    2.76   0
   0   5   1  336.00    2.51   0
   1   5   1   50.42    1.36   0
   2   5   1  147.99    1.90   0
   3   5   1   42.40    1.29   0
   4   5   1   10.58    0.98   0
   5   5   1  145.70    2.03   0
   6   5   1    3.58    0.91   0
   7   5   1  106.94    2.09   0
   8   5   1   43.51    1.74   0
  -5   6   1  613.01    2.93   0
  -4   6   1  305.79    2.22   0
  -3   6   1  758.14    2.97   0
  -2   6   1  442.39    2.48   0
  -1   6   1  140.96    1.55   0
   0   6   1 3685.53    7.31   0
   1   6   1  170.51    1.93   0
   2   6   1 6270.57    9.17   0
   3   6   1   39.62    1.39   0
   4   6   1  186.95    1.87   0
   5   6   1  515.13    2.97   0
   6   6   1   38.27    1.36   0
   7   6   1  275.47    2.61   0
   8   6   1    3.66    1.14   0
  -4   7   1  100.00    1.48   0
  -3   7   1    1.66    0.80   0
  -2   7   1   89.33    1.51   0
  -1   7   1   -0.55    1.10   0
   0   7   1  117.34    1.63   0
   1   7   1   20.04    1.03   0
   2   7   1    4.65    0.93   0
   3   7   1    8.17    1.09   0
   4   7   1    2.08    1.16   0
   5   7   1   57.97    1.55   0
   6   7   1    4.41    1.11   0
   7   7   1   35.85    1.37   0
   8   7   1    0.27    1.02   0
  -4   8   1   10.75    1.27   0
  -3   8   1   73.58    1.21   0
  -2   8   1   49.14    1.11   0
  -1   8   1   -1.50    1.11   0
   0   8   1  857.95    3.54   0
   1   8   1  190.71    1.84   0
   2   8   1  332.40    2.22   0
   3   8   1 1622.14    4.37   0
   4   8   1   22.92    1.25   0
   5   8   1 1127.55    4.05   0
   6   8   1   68.37    1.30   0
   7   8   1  189.76    2.12   0
  -3   9   1   87.27    1.62   0
  -2   9   1  128.85    1.55   0
  -1   9   1   14.50    1.18   0
   0   9   1  289.52    2.45   0
   1   9   1   11.68    0.97   0
   2   9   1  310.12    2.16   0
   3   9   1    9.88    1.03   0
   4   9   1   90.53    1.33   0
   5   9   1    7.28    1.00   0
   6   9   1   70.42    1.32   0
   7   9   1    1.42    0.87   0
  -2  10   1  388.77    2.22   0
  -1  10   1    5.14    0.87   0
   0  10   1 1683.24    4.49   0
   1  10   1  263.87    2.16   0
   2  10   1  141.15    1.57   0
   3  10   1  687.88    2.94   0
   4  10   1   71.35    1.32   0
   5  10   1  368.17    2.29   0
   6  10   1   11.80    0.96   0
   7  10   1  235.26    2.22   0
  -1  11   1   19.91    1.05   0
   0  11   1   18.34    1.12   0
   1  11   1  119.71    1.73   0
   2  11   1   44.67    1.13   0
   3  11   1  291.96    1.97   0
   4  11   1  100.13    1.44   0
   5  11   1  409.00    2.38   0
   6  11   1  102.33    1.55   0
   1  12   1   20.95    1.78   0
   2  12   1   30.40    1.20   0
   3  12   1   21.36    1.01   0
   4  12   1   38.32    1.09   0
  -4 -12   2  201.87    1.81   0
  -3 -12   2  108.79    1.51   0
  -2 -12   2  352.73    2.34   0
  -1 -12   2   20.37    1.01   0
  -5 -11   2   83.68    1.29   0
  -4 -11   2  294.36    2.01   0
  -3 -11   2   14.93    0.90   0
  -2 -11   2  627.60    2.90   0
  -1 -11   2  123.23    1.59   0
   0 -11   2  609.48    2.70   0
   1 -11   2   66.42    1.82   0
  -6 -10   2   54.52    1.37   0
  -5 -10   2   17.39    0.91   0
  -4 -10   2    6.02    1.16   0
  -3 -10   2   32.97    0.98   0
  -2 -10   2  244.42    1.90   0
  -1 -10   2    6.98    0.91   0
   0 -10   2   27.82    1.15   0
   1 -10   2  191.58    1.71   0
   2 -10   2   45.87    1.18   0
  -7  -9   2  204.78    1.96   0
  -6  -9   2  173.00    1.81   0
  -5  -9   2  230.10    1.87   0
  -4  -9   2  690.28    2.88   0
  -3  -9   2    6.87    1.02   0
  -2  -9   2 2080.89    4.85   0
  -1  -9   2  389.62    2.31   0
   0  -9   2  577.90    3.00   0
   1  -9   2  165.84    1.63   0
   2  -9   2    1.14    0.86   0
   3  -9   2  347.04    2.34   0
  -7  -8   2  233.54    2.07   0
  -6  -8   2    0.50    1.05   0
  -5  -8   2  212.81    1.85   0
  -4  -8   2   53.47    1.38   0
  -3  -8   2    1.64    0.91   0
  -2  -8   2  131.64    1.54   0
  -1  -8   2    5.65    0.86   0
   0  -8   2    1.41    1.23   0
   1  -8   2   38.26    1.08   0
   2  -8   2   17.35    1.26   0
   3  -8   2    2.06    1.13   0
   4  -8   2   29.69    1.16   0
  -7  -7   2  369.45    2.50   0
  -6  -7   2   -0.33    1.02   0
  -5  -7   2  527.80    2.73   0
  -4  -7   2  601.98    2.89   0
  -3  -7   2   29.82    1.07   0
  -2  -7   2  181.90    1.77   0
  -1  -7   2   71.22    1.36   0
   0  -7   2  851.34    3.17   0
   1  -7   2  651.24    2.82   0
   2  -7   2    2.60    0.83   0
   3  -7   2  864.45    3.29   0
   4  -7   2   42.38    1.08   0
   5  -7   2   32.60    1.18   0
  -7  -6   2  197.58    2.02   0
  -6  -6   2  153.10    1.70   0
  -5  -6   2   58.76    1.39   0
  -4  -6   2  503.54    2.67   0
  -3  -6   2   27.42    1.04   0
  -2  -6   2   96.33    1.40   0
  -1  -6   2  386.32    2.41   0
   0  -6   2   17.70    1.18   0
   1  -6   2  508.16    2.55   0
   2  -6   2  213.81    1.80   0
   3  -6   2  204.58    1.83   0
   4  -6   2   69.39    1.26   0
   5  -6   2  110.53    1.76   0
  -8  -5   2   28.29    1.30   0
  -7  -5   2    4.43    1.14   0
  -6  -5   2  225.93    2.06   0
  -5  -5   2  219.98    1.98   0
  -4  -5   2 3110.56    6.59   0
  -3  -5   2  785.21    3.45   0
  -2  -5   2  203.25    1.88   0
  -1  -5   2  738.97    3.32   0
   0  -5   2  135.84    1.61   0
   1  -5   2 2005.64    5.37   0
   2  -5   2   73.85    1.34   0
   3  -5   2  903.06    3.55   0
   4  -5   2  942.74    3.75   0
   5  -5   2  131.33    1.83   0
   6  -5   2  546.32    3.21   0
  -8  -4   2   31.06    1.50   0
  -7  -4   2  103.57    1.80   0
  -6  -4   2  242.98    2.14   0
  -5  -4   2    6.35    1.04   0
  -4  -4   2  242.15    2.43   0
  -3  -4   2  812.72    3.73   0
  -2  -4   2  751.89    3.63   0
  -1  -4   2 3435.75    7.59   0
   0  -4   2  196.44    2.13   0
   1  -4   2 1873.28    5.36   0
   2  -4   2  618.55    3.22   0
   3  -4   2  776.56    3.47   0
   4  -4   2   16.16    1.31   0
   5  -4   2   89.47    2.00   0
   6  -4   2  120.54    2.08   0
  -8  -3   2   76.16    1.72   0
  -7  -3   2   43.50    1.49   0
  -6  -3   2  125.66    1.69   0
  -5  -3   2   24.89    1.17   0
  -4  -3   2   14.86    1.15   0
  -3  -3   2   -0.53    1.12   0
  -2  -3   2  407.53    3.20   0
  -1  -3   2  660.37    3.74   0
   0  -3   2 8812.07   13.17   0
   1  -3   2  889.88    4.87   0
   2  -3   2  848.95    4.70   0
   3  -3   2   10.75    1.12   0
   4  -3   2   16.35    1.14   0
   5  -3   2   25.32    1.36   0
   6  -3   2    3.58    0.97   0
   7  -3   2   56.63    1.70   0
  -7  -2   2    4.08    1.10   0
  -6  -2   2  467.42    2.96   0
  -5  -2   2  478.15    2.87   0
  -4  -2   2 4757.46    8.53   0
  -3  -2   2 3822.29    8.08   0
  -1  -2   2 7142.35   13.31   0
   0  -2   2  136.73    2.42   0
   1  -2   2 2465.07    8.80   0
   2  -2   2  209.96    2.75   0
   3  -2   2  871.09    4.70   0
   4  -2   2  182.33    2.30   0
   5  -2   2    2.09    1.02   0
   6  -2   2 1305.92    5.22   0
   7  -2   2   53.56    1.58   0
  -7  -1   2   15.64    1.18   0
  -6  -1   2   -0.34    1.25   0
  -5  -1   2    2.13    1.25   0
  -4  -1   2  676.78    3.41   0
  -3  -1   2  205.73    2.08   0
  -2  -1   2   13.25    1.17   0
  -1  -1   2  238.26    2.87   0
   0  -1   2   18.56    1.94   0
   1  -1   2    8.56    1.35   0
   2  -1   2 1092.97    6.32   0
   3  -1   2   77.25    1.88   0
   4  -1   2  142.19    2.19   0
   5  -1   2   45.86    1.57   0
   6  -1   2   49.26    1.60   0
   7  -1   2    0.36    1.17   0
  -7   0   2  117.54    1.93   0
  -6   0   2  187.04    1.93   0
  -5   0   2   83.08    1.40   0
  -4   0   2 1149.42    4.15   0
  -3   0   2   38.13    1.17   0
  -2   0   2 1862.60    5.98   0
  -1   0   2  845.42    4.96   0
   0   0   2 1496.87    7.53   0
   1   0   2  868.47    6.61   0
   2   0   2 1961.40    8.95   0
   3   0   2   16.66    1.62   0
   4   0   2 1726.74    7.93   0
   5   0   2  683.61    4.75   0
   6   0   2  790.47    5.12   0
   7   0   2  526.26    4.78   0
   8   0   2    3.02    1.51   0
  -7   1   2    8.07    1.11   0
  -6   1   2  457.54    2.83   0
  -5   1   2   44.41    1.16   0
  -4   1   2  641.99    3.19   0
  -3   1   2  436.67    2.68   0
  -2   1   2  112.34    1.74   0
  -1   1   2  537.91    3.92   0
   0   1   2    3.10    0.95   0
   1   1   2  215.70    2.81   0
   3   1   2   21.66    2.62   0
   4   1   2    5.79    1.74   0
   5   1   2    0.53    1.45   0
   6   1   2   30.73    1.83   0
   7   1   2    3.56    1.42   0
   8   1   2   23.79    1.01   0
  -7   2   2    7.28    0.89   0
  -6   2   2  602.98    3.12   0
  -5   2   2   15.29    1.18   0
  -4   2   2  126.91    1.71   0
  -3   2   2  255.86    1.95   0
  -1   2   2  188.24    2.37   0
   0   2   2  480.65    3.87   0
   1   2   2  671.69    4.38   0
   3   2   2  682.38    6.36   0
   5   2   2   46.12    1.85   0
   6   2   2  930.04    6.59   0
   7   2   2   11.46    1.68   0
  -6   3   2  175.67    1.83   0
  -5   3   2   15.87    0.93   0
  -4   3   2   65.92    1.29   0
  -3   3   2  220.57    1.97   0
  -2   3   2  311.05    2.46   0
  -1   3   2  916.39    4.63   0
   0   3   2 9999.99   13.10   0
   1   3   2 1428.23    5.58   0
   2   3   2 1269.01    5.85   0
   3   3   2   61.55    1.78   0
   4   3   2  107.35    2.43   0
   5   3   2   54.57    1.89   0
   6   3   2  437.95    4.35   0
   7   3   2  138.89    3.13   0
  -6   4   2    3.84    0.94   0
  -5   4   2   -0.25    0.91   0
  -4   4   2  358.37    2.68   0
  -3   4   2  131.75    1.74   0
  -2   4   2    3.17    0.95   0
  -1   4   2  145.05    2.03   0
   0   4   2  638.37    3.69   0
   1   4   2  422.45    2.93   0
   2   4   2 1661.05    5.72   0
   3   4   2   25.21    1.08   0
   4   4   2  259.99    2.69   0
   5   4   2   69.83    1.80   0
   6   4   2   26.16    1.60   0
   7   4   2  104.40    2.47   0
  -5   5   2  360.73    2.63   0
  -4   5   2  704.56    3.81   0
  -3   5   2 1219.40    4.82   0
  -2   5   2   35.30    1.43   0
  -1   5   2 2572.20    6.69   0
   0   5   2 1520.33    5.02   0
   1   5   2 1468.88    4.78   0
   2   5   2  360.95    2.51   0
   3   5   2  546.97    3.32   0
   4   5   2 3123.06    7.61   0
   5   5   2   77.47    1.73   0
   6   5   2  644.75    4.12   0
   7   5   2    8.33    1.25   0
   8   5   2  105.41    3.43   0
  -5   6   2    1.47    0.98   0
  -4   6   2  128.52    1.49   0
  -3   6   2   27.76    1.07   0
  -2   6   2   46.07    1.05   0
  -1   6   2   24.87    1.26   0
   0   6   2   81.11    1.44   0
   1   6   2  165.35    1.83   0
   2   6   2  136.16    1.82   0
   3   6   2   22.00    1.30   0
   4   6   2    0.78    0.94   0
   5   6   2    0.03    1.08   0
   6   6   2    5.56    1.02   0
   7   6   2   42.33    1.49   0
   8   6   2    2.20    1.34   0
  -4   7   2    9.82    0.95   0
  -3   7   2  863.40    3.23   0
  -2   7   2  101.56    1.51   0
  -1   7   2 1336.08    4.51   0
   0   7   2  490.71    2.78   0
   1   7   2   95.67    1.42   0
   2   7   2   26.96    1.04   0
   3   7   2   79.98    1.42   0
   4   7   2  410.58    2.66   0
   5   7   2  875.93    3.93   0
   6   7   2  118.10    1.80   0
   7   7   2  817.61    4.40   0
   8   7   2   16.05    1.67   0
  -4   8   2   21.95    1.02   0
  -3   8   2  220.98    1.91   0
  -2   8   2    4.39    1.10   0
  -1   8   2  156.52    2.11   0
   0   8   2   77.47    1.41   0
   1   8   2   16.99    0.96   0
   2   8   2  149.90    1.70   0
   3   8   2    3.09    0.86   0
   4   8   2   80.82    1.40   0
   5   8   2    1.13    0.94   0
   6   8   2   93.56    1.66   0
   7   8   2   14.22    1.33   0
   8   8   2    0.13    1.00   0
  -3   9   2  275.41    2.08   0
  -2   9   2    3.93    1.04   0
  -1   9   2   39.81    1.04   0
   0   9   2   68.27    1.51   0
   1   9   2   55.78    1.16   0
   2   9   2 1386.87    4.05   0
   3   9   2    1.09    0.94   0
   4   9   2  381.14    2.21   0
   5   9   2  373.86    2.38   0
   6   9   2    7.86    1.05   0
   7   9   2  349.02    2.79   0
  -2  10   2  152.98    1.79   0
  -1  10   2  228.24    2.33   0
   0  10   2  406.72    2.23   0
   1  10   2    2.23    0.91   0
   2  10   2   45.94    1.17   0
   3  10   2  179.70    1.73   0
   4  10   2  121.07    1.51   0
   5  10   2  193.79    1.77   0
   6  10   2   18.32    1.00   0
   7  10   2  226.71    1.97   0
  -1  11   2   10.51    0.98   0
   0  11   2   56.67    1.12   0
   1  11   2    1.55    0.93   0
   2  11   2  238.38    1.91   0
   3  11   2  140.09    1.62   0
   4  11   2   22.19    0.99   0
   5  11   2  218.48    1.94   0
   6  11   2   38.77    1.11   0
   1  12   2    6.86    1.01   0
   2  12   2  665.44    3.34   0
   3  12   2    1.07    1.05   0
   4  12   2  666.39    3.15   0
  -3 -12   3   75.91    1.40   0
  -2 -12   3  129.38    1.62   0
  -1 -12   3   11.14    1.13   0
  -5 -11   3  108.56    1.47   0
  -4 -11   3   82.48    1.36   0
  -3 -11   3  130.48    1.61   0
  -2 -11   3   15.83    0.92   0
  -1 -11   3   15.96    1.15   0
   0 -11   3    1.76    0.99   0
   1 -11   3   23.62    1.11   0
  -6 -10   3   11.05    1.05   0
  -5 -10   3  265.59    2.03   0
  -4 -10   3  272.58    1.93   0
  -3 -10   3  293.31    2.05   0
  -2 -10   3  435.11    2.34   0
  -1 -10   3   71.42    1.22   0
   0 -10   3 1541.51    5.47   0
   1 -10   3  107.29    1.65   0
   2 -10   3  552.62    2.89   0
  -6  -9   3   76.42    1.49   0
  -5  -9   3  126.69    1.57   0
  -4  -9   3    1.73    1.12   0
  -3  -9   3  333.35    2.01   0
  -2  -9   3  158.99    1.70   0
  -1  -9   3   42.51    1.10   0
   0  -9   3    0.49    0.94   0
   1  -9   3    1.21    0.89   0
   2  -9   3    4.98    1.02   0
   3  -9   3   44.10    1.30   0
  -7  -8   3   44.55    1.28   0
  -6  -8   3  141.79    1.61   0
  -5  -8   3  301.80    2.20   0
  -4  -8   3   61.44    1.26   0
  -3  -8   3  648.83    2.90   0
  -2  -8   3  230.39    1.84   0
  -1  -8   3   21.09    0.95   0
   0  -8   3 1220.39    3.67   0
   1  -8   3  229.30    1.89   0
   2  -8   3   16.82    1.01   0
   3  -8   3   89.22    1.37   0
   4  -8   3  137.64    1.66   0
  -7  -7   3  112.29    1.58   0
  -6  -7   3  112.39    1.53   0
  -5  -7   3  292.62    2.12   0
  -4  -7   3  127.40    1.65   0
  -3  -7   3  228.46    1.84   0
  -2  -7   3  559.54    2.73   0
  -1  -7   3   24.85    1.08   0
   0  -7   3  275.16    2.09   0
   1  -7   3    2.74    0.98   0
   2  -7   3   19.13    0.98   0
   3  -7   3   22.60    1.22   0
   4  -7   3   95.73    1.59   0
   5  -7   3   18.14    1.29   0
  -7  -6   3   56.67    1.25   0
  -6  -6   3    4.17    1.08   0
  -5  -6   3  149.56    1.76   0
  -4  -6   3   -0.02    0.89   0
  -3  -6   3    1.28    1.07   0
  -2  -6   3 2859.44    5.95   0
  -1  -6   3  489.43    2.69   0
   0  -6   3 2741.94    5.97   0
   1  -6   3  144.35    1.91   0
   2  -6   3    0.21    0.83   0
   3  -6   3  393.05    2.53   0
   4  -6   3   19.81    1.00   0
   5  -6   3  559.40    3.16   0
  -7  -5   3  389.93    2.63   0
  -6  -5   3    5.56    1.09   0
  -5  -5   3  634.70    3.03   0
  -4  -5   3  189.59    1.93   0
  -3  -5   3  114.40    1.48   0
  -2  -5   3  232.68    2.04   0
  -1  -5   3  224.19    2.15   0
   0  -5   3  302.15    2.26   0
   1  -5   3 1231.46    5.02   0
   2  -5   3   34.45    1.09   0
   3  -5   3  634.19    3.09   0
   4  -5   3  195.84    2.12   0
   5  -5   3  162.30    1.86   0
   6  -5   3   41.73    1.33   0
  -7  -4   3   49.56    1.51   0
  -6  -4   3  537.92    3.01   0
  -5  -4   3  332.24    2.31   0
  -4  -4   3  255.89    2.19   0
  -3  -4   3  174.52    1.86   0
  -2  -4   3    3.89    1.00   0
  -1  -4   3    4.25    1.20   0
   0  -4   3 3840.11    7.74   0
   1  -4   3  145.18    2.23   0
   2  -4   3   28.69    1.25   0
   3  -4   3  583.96    3.23   0
   4  -4   3   78.94    2.11   0
   5  -4   3  115.86    2.33   0
   6  -4   3  103.93    2.10   0
  -7  -3   3  397.12    2.69   0
  -6  -3   3  111.34    1.80   0
  -5  -3   3  261.93    2.06   0
  -4  -3   3  432.26    2.56   0
  -3  -3   3   49.33    1.62   0
  -2  -3   3 2371.31    6.24   0
  -1  -3   3 3595.42    8.08   0
   1  -3   3 4646.86    9.32   0
   2  -3   3  542.66    3.66   0
   3  -3   3 1499.46    6.18   0
   4  -3   3   11.74    1.07   0
   5  -3   3  616.09    3.91   0
   6  -3   3   17.39    1.21   0
   7  -3   3   89.85    2.06   0
  -7  -2   3  156.34    1.97   0
  -6  -2   3  138.04    1.85   0
  -5  -2   3   97.91    1.41   0
  -4  -2   3  395.45    2.50   0
  -3  -2   3   93.40    1.58   0
  -2  -2   3   92.27    2.02   0
  -1  -2   3  187.62    2.25   0
   0  -2   3 2909.16    8.30   0
   1  -2   3   45.72    1.74   0
   2  -2   3    5.68    1.39   0
   3  -2   3  116.52    2.05   0
   4  -2   3  408.95    3.21   0
   5  -2   3  102.54    1.86   0
   6  -2   3  332.74    3.00   0
   7  -2   3   62.97    1.76   0
  -7  -1   3  113.56    1.72   0
  -6  -1   3  127.74    1.65   0
  -5  -1   3  134.76    1.83   0
  -4  -1   3   88.02    1.42   0
  -3  -1   3   19.55    1.11   0
  -2  -1   3 3977.83    8.29   0
  -1  -1   3 2042.89    7.11   0
   0  -1   3 1494.80    6.32   0
   1  -1   3 4025.29   12.18   0
   2  -1   3 1842.60    7.75   0
   3  -1   3 1839.19    6.97   0
   4  -1   3   75.94    1.63   0
   5  -1   3  451.07    3.41   0
   6  -1   3   21.58    1.39   0
   7  -1   3   37.69    1.67   0
  -7   0   3   87.27    1.72   0
  -6   0   3  125.84    1.77   0
  -5   0   3   20.14    1.03   0
  -4   0   3  563.91    2.84   0
  -3   0   3    8.79    1.24   0
  -2   0   3 3557.74    7.56   0
  -1   0   3  368.96    4.56   0
   0   0   3  436.95    3.63   0
   1   0   3  307.80    3.29   0
   2   0   3   30.05    1.99   0
   3   0   3   82.03    2.53   0
   4   0   3   54.87    1.97   0
   5   0   3   16.44    1.65   0
   6   0   3   11.06    1.48   0
   7   0   3    1.18    1.11   0
   8   0   3    6.61    1.07   0
  -7   1   3    1.72    1.01   0
  -6   1   3  113.53    1.63   0
  -5   1   3  108.30    1.43   0
  -4   1   3 2974.07    6.19   0
  -3   1   3  332.04    2.35   0
  -1   1   3  824.27    4.06   0
   0   1   3 1656.79    6.15   0
   1   1   3  611.29    4.80   0
   2   1   3  159.55    2.92   0
   3   1   3  763.67    3.57   0
   7   1   3   11.14    0.91   0
   8   1   3  442.26    2.69   0
  -6   2   3  253.32    2.11   0
  -5   2   3   65.65    1.20   0
  -4   2   3 1088.26    3.75   0
  -3   2   3   18.56    1.09   0
  -2   2   3  863.00    3.48   0
  -1   2   3  450.21    3.29   0
   0   2   3  104.79    1.64   0
   1   2   3  584.27    3.57   0
   2   2   3 1438.80    6.00   0
   3   2   3  291.51    3.15   0
   8   2   3  154.24    1.80   0
  -6   3   3   25.50    1.07   0
  -5   3   3  156.69    1.65   0
  -4   3   3  438.66    2.52   0
  -3   3   3  171.07    1.74   0
  -2   3   3   34.93    1.30   0
  -1   3   3   52.46    1.84   0
   0   3   3 1075.92    4.58   0
   1   3   3   67.69    1.51   0
   2   3   3 2540.81    6.35   0
   3   3   3   19.55    1.26   0
   4   3   3   20.97    1.70   0
   5   3   3   31.86    2.36   0
   8   3   3   38.43    1.32   0
  -6   4   3  288.28    2.37   0
  -5   4   3    2.67    0.91   0
  -4   4   3  775.02    3.29   0
  -3   4   3  319.95    2.43   0
  -2   4   3 1727.55    5.10   0
  -1   4   3  740.89    4.32   0
   0   4   3  646.17    3.40   0
   1   4   3 1093.59    4.25   0
   2   4   3 1966.86    5.80   0
   3   4   3  853.83    3.90   0
   4   4   3  533.42    4.11   0
   5   4   3  146.58    2.63   0
   6   4   3  625.71    6.20   0
  -5   5   3   20.71    1.12   0
  -4   5   3    7.23    1.07   0
  -3   5   3    0.53    0.96   0
  -2   5   3  550.92    3.06   0
  -1   5   3   -6.40    1.37   0
   0   5   3   22.63    1.25   0
   1   5   3    1.70    1.06   0
   2   5   3   30.73    1.09   0
   3   5   3  371.00    2.68   0
   4   5   3  986.02    4.53   0
   5   5   3  158.74    2.32   0
   6   5   3  149.57    2.50   0
   7   5   3   10.87    1.66   0
  -5   6   3    5.49    0.91   0
  -4   6   3    1.61    1.07   0
  -3   6   3   52.16    1.60   0
  -2   6   3   -0.36    1.20   0
  -1   6   3  817.62    4.00   0
   0   6   3 3193.35    6.70   0
   1   6   3 2564.59    6.32   0
   2   6   3 1137.44    3.93   0
   3   6   3  604.18    2.95   0
   4   6   3   46.78    1.18   0
   5   6   3    4.96    1.19   0
   6   6   3  893.64    4.80   0
   7   6   3  203.05    2.91   0
  -4   7   3  198.92    1.68   0
  -3   7   3   24.42    1.05   0
  -2   7   3  105.70    1.36   0
  -1   7   3  196.48    1.64   0
   0   7   3   98.76    1.58   0
   1   7   3   45.70    1.23   0
   2   7   3    9.64    1.13   0
   3   7   3   -0.33    1.07   0
   4   7   3   12.69    1.02   0
   5   7   3    1.71    1.17   0
   6   7   3    0.62    1.23   0
   7   7   3    2.92    1.17   0
   8   7   3   -0.01    0.82   0
  -3   8   3  184.08    1.83   0
  -2   8   3   15.44    0.91   0
  -1   8   3 1030.81    3.58   0
   0   8   3  740.04    3.44   0
   1   8   3  897.18    3.81   0
   2   8   3   95.50    1.41   0
   3   8   3  412.88    2.40   0
   4   8   3  960.75    3.54   0
   5   8   3  220.06    1.97   0
   6   8   3 1131.44    3.97   0
   7   8   3    4.38    1.01   0
  -3   9   3  135.47    1.65   0
  -2   9   3    2.89    0.88   0
  -1   9   3  297.99    2.12   0
   0   9   3  218.94    1.97   0
   1   9   3  298.14    2.32   0
   2   9   3  313.45    2.11   0
   3   9   3  104.00    1.42   0
   4   9   3   70.50    1.33   0
   5   9   3   29.03    1.13   0
   6   9   3    7.61    0.90   0
   7   9   3   74.84    1.46   0
  -2  10   3   13.58    0.99   0
  -1  10   3  166.57    1.83   0
   0  10   3  123.91    1.52   0
   1  10   3   -0.42    0.96   0
   2  10   3   67.72    1.24   0
   3  10   3    4.59    0.96   0
   4  10   3  286.79    2.02   0
   5  10   3  109.34    1.52   0
   6  10   3   75.07    1.30   0
   7  10   3  351.47    2.35   0
   0  11   3   44.10    1.11   0
   1  11   3  226.36    2.37   0
   2  11   3  209.67    1.93   0
   3  11   3    3.26    0.94   0
   4  11   3  142.10    1.59   0
   5  11   3   10.60    1.01   0
   6  11   3  289.63    2.19   0
   1  12   3   11.54    1.08   0
   2  12   3   57.51    1.31   0
   3  12   3    1.56    1.07   0
   4  12   3  135.07    1.80   0
  -2 -12   4   25.84    1.04   0
  -5 -11   4  133.02    1.50   0
  -4 -11   4   56.82    1.22   0
  -3 -11   4  232.80    1.84   0
  -2 -11   4   70.32    1.43   0
  -1 -11   4  193.92    1.84   0
   0 -11   4  344.75    2.09   0
   1 -11   4   78.51    1.48   0
  -5 -10   4   31.49    1.09   0
  -4 -10   4   13.54    0.89   0
  -3 -10   4   -0.82    1.01   0
  -2 -10   4   68.57    1.35   0
  -1 -10   4   22.39    1.12   0
   0 -10   4  236.48    2.47   0
   1 -10   4   27.71    1.09   0
   2 -10   4   57.46    1.34   0
  -6  -9   4  113.20    1.56   0
  -5  -9   4   57.79    1.15   0
  -4  -9   4   56.48    1.28   0
  -3  -9   4   98.62    1.37   0
  -2  -9   4  433.09    2.31   0
  -1  -9   4  385.74    2.27   0
   0  -9   4  466.31    2.68   0
   1  -9   4   38.81    1.09   0
   2  -9   4  731.45    2.99   0
   3  -9   4  195.65    1.77   0
  -6  -8   4   64.95    1.22   0
  -5  -8   4   35.54    1.15   0
  -4  -8   4  444.92    2.37   0
  -3  -8   4   13.08    1.05   0
  -2  -8   4  604.78    2.63   0
  -1  -8   4  160.42    1.70   0
   0  -8   4 1017.11    3.54   0
   1  -8   4   18.62    1.00   0
   2  -8   4  558.91    2.66   0
   3  -8   4    2.33    1.02   0
   4  -8   4   47.80    1.43   0
  -7  -7   4  160.37    1.82   0
  -6  -7   4   17.79    1.00   0
  -5  -7   4  272.85    1.99   0
  -4  -7   4  287.44    2.10   0
  -3  -7   4  535.29    2.66   0
  -2  -7   4   95.23    1.31   0
  -1  -7   4  527.00    2.58   0
   0  -7   4 2063.50    4.84   0
   1  -7   4    7.98    1.13   0
   2  -7   4 2521.93    5.38   0
   3  -7   4   87.51    1.37   0
   4  -7   4  280.56    2.34   0
   5  -7   4   -1.76    1.35   0
  -7  -6   4  230.50    2.02   0
  -6  -6   4    5.97    0.96   0
  -5  -6   4  821.15    3.37   0
  -4  -6   4  181.22    1.80   0
  -3  -6   4 1382.02    4.08   0
  -2  -6   4  213.63    1.91   0
  -1  -6   4  698.91    3.06   0
   0  -6   4  860.49    3.35   0
   1  -6   4   14.22    1.09   0
   2  -6   4  278.92    2.15   0
   3  -6   4   70.38    1.29   0
   4  -6   4  100.17    1.93   0
   5  -6   4   89.13    1.54   0
  -7  -5   4   15.13    1.09   0
  -6  -5   4  254.55    2.05   0
  -5  -5   4   13.18    1.27   0
  -4  -5   4    1.04    1.07   0
  -3  -5   4  684.32    3.03   0
  -2  -5   4  705.24    3.12   0
  -1  -5   4  429.74    2.53   0
   0  -5   4  382.65    2.42   0
   1  -5   4   64.03    1.54   0
   2  -5   4    1.32    0.90   0
   3  -5   4   65.85    1.34   0
   4  -5   4  154.83    1.88   0
   5  -5   4  240.30    2.21   0
   6  -5   4   -0.92    1.12   0
  -7  -4   4  520.04    2.90   0
  -6  -4   4   28.82    1.14   0
  -5  -4   4 1573.97    4.60   0
  -4  -4   4   36.21    1.05   0
  -3  -4   4 2104.10    5.33   0
  -2  -4   4  527.79    2.90   0
  -1  -4   4  795.34    3.68   0
   0  -4   4  458.51    2.77   0
   1  -4   4   21.14    1.36   0
   2  -4   4  621.44    3.66   0
   3  -4   4  594.21    3.21   0
   4  -4   4   97.44    2.18   0
   5  -4   4  394.39    3.61   0
   6  -4   4   72.88    2.64   0
  -7  -3   4   59.56    1.32   0
  -6  -3   4  152.20    1.84   0
  -5  -3   4  186.80    1.77   0
  -4  -3   4  121.87    1.58   0
  -3  -3   4  213.15    1.90   0
  -2  -3   4 1833.77    5.21   0
  -1  -3   4  516.54    3.11   0
   0  -3   4 8778.92   12.23   0
   1  -3   4    4.01    1.21   0
   2  -3   4   21.58    1.28   0
   3  -3   4   21.02    1.30   0
   4  -3   4   85.62    1.83   0
   5  -3   4  110.12    2.02   0
   6  -3   4    5.25    1.12   0
   7  -3   4   94.58    2.21   0
  -7  -2   4   80.58    1.60   0
  -6  -2   4   13.16    1.14   0
  -5  -2   4  153.08    1.70   0
  -4  -2   4  271.44    2.11   0
  -3  -2   4  296.64    2.36   0
  -2  -2   4   38.50    1.18   0
  -1  -2   4   25.43    1.36   0
   0  -2   4    2.40    1.48   0
   1  -2   4 3171.23    8.46   0
   2  -2   4  873.98    4.64   0
   3  -2   4 2909.48    8.43   0
   4  -2   4  400.55    3.22   0
   5  -2   4 1176.52    5.27   0
   6  -2   4  333.38    3.15   0
   7  -2   4  450.69    4.37   0
  -7  -1   4   95.44    1.70   0
  -6  -1   4   45.26    1.19   0
  -5  -1   4   92.95    1.72   0
  -4  -1   4  473.17    2.82   0
  -3  -1   4    5.00    0.99   0
  -2  -1   4    9.89    1.15   0
  -1  -1   4    6.93    1.63   0
   0  -1   4 3600.32    8.47   0
   1  -1   4  271.15    2.82   0
   2  -1   4  370.05    3.23   0
   3  -1   4  104.00    2.13   0
   4  -1   4  202.01    2.55   0
   5  -1   4   29.32    1.71   0
   6  -1   4   31.81    1.77   0
   7  -1   4   20.49    1.29   0
  -7   0   4   62.78    1.58   0
  -6   0   4   25.85    1.06   0
  -5   0   4   78.21    1.53   0
  -4   0   4  108.08    1.47   0
  -3   0   4   53.22    1.20   0
  -2   0   4  982.63    3.81   0
  -1   0   4 1559.30    5.34   0
   1   0   4 2974.19    9.11   0
   2   0   4 7446.45   11.57   0
   3   0   4  888.60    5.08   0
   4   0   4    9.14    1.21   0
   5   0   4  474.40    2.69   0
   6   0   4   17.79    0.98   0
   7   0   4  244.72    2.06   0
   8   0   4  107.47    1.50   0
  -6   1   4  100.05    1.42   0
  -5   1   4  199.02    1.89   0
  -4   1   4  161.31    1.65   0
  -3   1   4   47.67    1.18   0
  -2   1   4 1470.58    4.56   0
  -1   1   4  200.78    2.13   0
   0   1   4 6256.58   10.54   0
   1   1   4 1533.23    5.75   0
   2   1   4 1028.66    4.82   0
   3   1   4  701.06    3.29   0
   4   1   4  101.60    1.69   0
   5   1   4  102.83    1.60   0
   6   1   4   60.89    1.44   0
   7   1   4    1.53    1.05   0
   8   1   4   19.40    1.21   0
  -6   2   4   18.45    0.94   0
  -5   2   4   60.19    1.32   0
  -4   2   4  461.11    2.57   0
  -3   2   4  124.63    1.42   0
  -2   2   4   47.36    1.24   0
  -1   2   4  125.50    1.72   0
   0   2   4  862.49    3.91   0
   1   2   4  252.68    2.47   0
   2   2   4 2950.17    7.38   0
   3   2   4  361.21    3.53   0
   4   2   4    4.50    1.27   0
   5   2   4  209.24    1.75   0
   6   2   4   18.15    1.01   0
   7   2   4    0.26    0.83   0
   8   2   4  337.40    2.31   0
  -6   3   4   65.27    1.29   0
  -5   3   4  350.62    2.31   0
  -4   3   4  747.82    3.20   0
  -3   3   4  222.20    1.85   0
  -2   3   4 2427.63    5.61   0
  -1   3   4   37.51    1.26   0
   0   3   4 6136.84   10.01   0
   1   3   4  303.27    2.71   0
   2   3   4 3766.26    7.23   0
   3   3   4  215.84    2.16   0
   4   3   4   16.27    1.20   0
   5   3   4  126.64    1.68   0
   6   3   4  234.58    1.82   0
   7   3   4   14.34    0.89   0
   8   3   4   15.25    1.22   0
  -5   4   4   91.58    1.36   0
  -4   4   4    7.95    1.02   0
  -3   4   4    1.33    0.94   0
  -2   4   4 1050.72    3.87   0
  -1   4   4   71.81    1.50   0
   0   4   4   62.22    1.29   0
   1   4   4   14.48    0.90   0
   2   4   4  708.80    3.34   0
   3   4   4    9.24    0.91   0
   4   4   4    0.70    1.01   0
   5   4   4  198.91    2.12   0
   6   4   4  547.29    2.48   0
   7   4   4  125.58    1.52   0
   8   4   4  385.62    2.37   0
  -5   5   4  246.21    2.12   0
  -4   5   4  266.66    2.04   0
  -3   5   4  117.78    1.65   0
  -2   5   4   82.90    1.37   0
  -1   5   4   15.90    1.18   0
   0   5   4  276.72    2.13   0
   1   5   4  562.97    3.32   0
   2   5   4  436.20    2.68   0
   3   5   4 1665.11    4.98   0
   4   5   4 2114.54    5.87   0
   5   5   4  726.26    3.53   0
   6   5   4  172.10    1.97   0
   7   5   4   39.64    1.04   0
   8   5   4  153.95    1.51   0
  -4   6   4   58.79    1.39   0
  -3   6   4   34.06    1.39   0
  -2   6   4  142.71    1.70   0
  -1   6   4   10.74    1.28   0
   0   6   4 1116.26    3.83   0
   1   6   4   86.41    1.38   0
   2   6   4   26.87    1.30   0
   3   6   4   87.16    1.45   0
   4   6   4   53.34    1.20   0
   5   6   4    5.49    1.04   0
   6   6   4   10.43    1.10   0
   7   6   4   10.01    1.12   0
   8   6   4    7.50    0.95   0
  -4   7   4  112.10    1.53   0
  -3   7   4   66.69    1.19   0
  -2   7   4  936.57    3.05   0
  -1   7   4  119.36    1.59   0
   0   7   4 2233.79    5.31   0
   1   7   4  878.71    4.08   0
   2   7   4  165.08    1.64   0
   3   7   4 1226.64    3.91   0
   4   7   4  183.19    1.74   0
   5   7   4  559.18    2.76   0
   6   7   4   96.54    1.54   0
   7   7   4  214.94    2.01   0
   8   7   4  586.34    2.60   0
  -3   8   4    6.15    1.18   0
  -2   8   4  317.33    1.97   0
  -1   8   4  128.21    1.84   0
   0   8   4   91.08    1.36   0
   1   8   4  503.23    2.97   0
   2   8   4   58.30    1.16   0
   3   8   4  236.47    2.05   0
   4   8   4  136.41    1.75   0
   5   8   4   74.06    1.42   0
   6   8   4  109.06    1.61   0
   7   8   4    1.72    1.12   0
  -2   9   4  111.73    1.35   0
  -1   9   4   99.26    1.43   0
   0   9   4    7.65    0.91   0
   1   9   4 1013.41    4.20   0
   2   9   4   30.95    1.29   0
   3   9   4  300.16    2.02   0
   4   9   4  205.86    1.78   0
   5   9   4   12.40    0.96   0
   6   9   4   28.77    1.01   0
   7   9   4   23.43    1.18   0
  -1  10   4  229.05    2.58   0
   0  10   4  452.80    2.36   0
   1  10   4  269.57    2.59   0
   2  10   4    3.70    0.88   0
   3  10   4  171.65    1.87   0
   4  10   4  222.62    1.96   0
   5  10   4   33.23    1.10   0
   6  10   4   82.49    1.37   0
   7  10   4    7.77    1.22   0
   0  11   4   25.08    1.01   0
   1  11   4   74.79    1.75   0
   2  11   4   26.95    1.20   0
   3  11   4    8.50    0.90   0
   4  11   4    1.82    0.94   0
   5  11   4   49.50    1.25   0
   6  11   4  140.81    1.71   0
   2  12   4  228.63    2.15   0
   3  12   4  250.48    2.09   0
   4  12   4  161.04    1.83   0
  -4 -11   5   11.87    1.10   0
  -3 -11   5    9.68    1.09   0
  -2 -11   5   64.88    1.18   0
  -1 -11   5    6.11    1.16   0
   0 -11   5   10.39    0.93   0
  -5 -10   5   13.01    0.98   0
  -4 -10   5  280.64    2.02   0
  -3 -10   5  207.66    1.67   0
  -2 -10   5   65.50    1.27   0
  -1 -10   5  247.53    1.93   0
   0 -10   5  199.36    2.00   0
   1 -10   5  110.07    1.39   0
   2 -10   5  151.78    1.66   0
  -6  -9   5  165.65    1.73   0
  -5  -9   5   88.29    1.37   0
  -4  -9   5  689.99    2.85   0
  -3  -9   5   89.39    1.36   0
  -2  -9   5    5.04    0.99   0
  -1  -9   5   35.94    1.22   0
   0  -9   5  405.26    2.58   0
   1  -9   5   10.61    1.03   0
   2  -9   5   90.53    1.29   0
   3  -9   5   10.07    0.98   0
  -6  -8   5  154.31    1.59   0
  -5  -8   5  169.11    1.74   0
  -4  -8   5  467.31    2.43   0
  -3  -8   5  453.32    2.37   0
  -2  -8   5    0.68    0.93   0
  -1  -8   5  371.05    2.27   0
   0  -8   5  159.95    1.69   0
   1  -8   5  635.28    3.31   0
   2  -8   5   89.88    1.50   0
   3  -8   5   79.02    1.32   0
   4  -8   5  585.02    3.23   0
  -6  -7   5  320.32    2.16   0
  -5  -7   5  162.51    1.65   0
  -4  -7   5  172.77    1.68   0
  -3  -7   5  491.18    2.47   0
  -2  -7   5   92.91    1.49   0
  -1  -7   5  775.72    3.10   0
   0  -7   5   39.68    1.21   0
   1  -7   5  415.64    2.68   0
   2  -7   5   93.91    1.37   0
   3  -7   5   13.46    0.95   0
   4  -7   5  113.06    1.82   0
   5  -7   5   10.15    1.17   0
  -7  -6   5   56.38    1.26   0
  -6  -6   5   75.17    1.33   0
  -5  -6   5   20.07    1.09   0
  -4  -6   5   22.19    1.12   0
  -3  -6   5   14.36    1.14   0
  -2  -6   5  447.26    2.42   0
  -1  -6   5  234.87    1.88   0
   0  -6   5  315.01    2.28   0
   1  -6   5  371.56    2.59   0
   2  -6   5   15.25    1.10   0
   3  -6   5   58.83    1.39   0
   4  -6   5  184.47    1.90   0
   5  -6   5  133.27    1.88   0
  -7  -5   5   20.42    1.12   0
  -6  -5   5  385.42    2.39   0
  -5  -5   5  431.20    2.51   0
  -4  -5   5   12.53    0.94   0
  -3  -5   5 1420.20    4.24   0
  -2  -5   5  181.49    1.83   0
  -1  -5   5 2257.92    5.33   0
   0  -5   5 1359.68    4.29   0
   1  -5   5 1158.67    4.36   0
   2  -5   5  698.08    3.62   0
   3  -5   5  164.41    1.82   0
   4  -5   5  203.39    2.01   0
   5  -5   5   27.02    1.40   0
   6  -5   5   61.37    1.76   0
  -7  -4   5   43.60    1.25   0
  -6  -4   5   88.79    1.42   0
  -5  -4   5    2.01    1.22   0
  -4  -4   5  170.70    1.79   0
  -3  -4   5   67.53    1.36   0
  -2  -4   5   62.75    1.51   0
  -1  -4   5    0.27    1.18   0
   0  -4   5    5.98    0.93   0
   1  -4   5   15.27    1.11   0
   2  -4   5 2211.91    6.21   0
   3  -4   5    9.68    1.08   0
   4  -4   5  365.25    2.84   0
   5  -4   5   23.05    1.37   0
   6  -4   5    7.61    1.30   0
  -7  -3   5   45.84    1.20   0
  -6  -3   5   95.84    1.49   0
  -5  -3   5  569.65    2.83   0
  -4  -3   5   52.76    1.15   0
  -3  -3   5 1456.68    4.27   0
  -2  -3   5  487.51    2.72   0
  -1  -3   5 1354.78    4.43   0
   0  -3   5 1361.22    4.63   0
   1  -3   5  397.21    2.68   0
   2  -3   5   84.89    1.70   0
   3  -3   5  117.49    1.88   0
   4  -3   5  585.51    3.84   0
   5  -3   5  836.93    4.59   0
   6  -3   5   52.79    1.66   0
   7  -3   5  326.49    4.31   0
  -7  -2   5   83.21    1.55   0
  -6  -2   5  299.83    2.30   0
  -5  -2   5  226.76    1.88   0
  -4  -2   5   34.84    1.36   0
  -3  -2   5   74.88    1.37   0
  -2  -2   5 3464.24    6.85   0
  -1  -2   5   63.32    1.80   0
   0  -2   5 1625.72    5.21   0
   1  -2   5   81.64    1.98   0
   2  -2   5  351.99    2.79   0
   3  -2   5    2.50    1.18   0
   4  -2   5  596.24    3.78   0
   5  -2   5    2.39    1.08   0
   6  -2   5    1.72    1.07   0
   7  -2   5    1.27    1.00   0
  -7  -1   5  247.41    2.31   0
  -6  -1   5  450.67    2.74   0
  -5  -1   5  707.93    3.04   0
  -4  -1   5  174.59    1.71   0
  -3  -1   5 1064.08    3.67   0
  -2  -1   5  284.90    2.09   0
  -1  -1   5  532.13    3.07   0
   0  -1   5  100.45    1.96   0
   1  -1   5   -0.15    1.26   0
   2  -1   5 3480.97    8.43   0
   3  -1   5  696.74    4.39   0
   4  -1   5 3982.27    7.87   0
   5  -1   5  550.82    4.61   0
   6  -1   5   79.57    1.39   0
   7  -1   5  195.13    2.08   0
  -6   0   5  353.65    2.40   0
  -5   0   5  581.97    2.88   0
  -4   0   5   70.48    1.24   0
  -3   0   5  687.77    2.95   0
  -2   0   5  198.14    1.77   0
  -1   0   5  189.31    2.10   0
   0   0   5    3.77    1.06   0
   1   0   5  200.88    2.89   0
   2   0   5 1297.33    5.29   0
   3   0   5  831.81    5.06   0
   4   0   5  440.39    2.73   0
   5   0   5  369.99    2.35   0
   6   0   5   75.10    1.50   0
   7   0   5   43.71    1.13   0
   8   0   5    5.13    1.16   0
  -6   1   5   17.62    0.96   0
  -5   1   5    6.18    1.17   0
  -4   1   5  425.96    2.56   0
  -3   1   5   44.51    1.09   0
  -2   1   5   17.03    0.96   0
  -1   1   5   27.16    1.07   0
   0   1   5 1160.94    4.28   0
   1   1   5  513.03    3.90   0
   2   1   5 2257.60    6.26   0
   3   1   5 1516.52    7.14   0
   4   1   5   15.05    1.23   0
   5   1   5  979.82    3.62   0
   6   1   5  121.98    1.44   0
   7   1   5  471.86    2.67   0
   8   1   5   17.30    0.96   0
  -6   2   5   58.28    1.25   0
  -5   2   5  475.73    2.49   0
  -4   2   5  114.91    1.69   0
  -3   2   5  508.67    2.56   0
  -2   2   5  673.60    3.04   0
  -1   2   5  225.81    1.99   0
   0   2   5 4549.87    8.05   0
   1   2   5   36.22    1.27   0
   2   2   5 2447.41    6.27   0
   3   2   5  475.22    3.65   0
   4   2   5  923.68    3.39   0
   5   2   5  369.42    2.17   0
   6   2   5   58.70    1.20   0
   7   2   5  103.23    1.58   0
   8   2   5   86.23    1.38   0
  -6   3   5   86.40    1.54   0
  -5   3   5   21.44    1.17   0
  -4   3   5  291.21    2.11   0
  -3   3   5  156.26    1.57   0
  -2   3   5   12.29    1.07   0
  -1   3   5  114.14    1.58   0
   0   3   5 8446.25   10.73   0
   1   3   5   52.35    1.43   0
   2   3   5 5587.49    8.32   0
   3   3   5   10.56    1.02   0
   4   3   5   11.01    1.35   0
   5   3   5   10.77    0.94   0
   6   3   5   66.16    1.16   0
   7   3   5  118.84    1.54   0
   8   3   5    1.10    1.13   0
  -5   4   5  108.52    1.53   0
  -4   4   5  333.59    2.13   0
  -3   4   5  279.22    2.03   0
  -2   4   5 1789.98    4.64   0
  -1   4   5  277.89    2.62   0
   0   4   5 1944.68    5.34   0
   1   4   5   51.95    1.30   0
   2   4   5  734.32    3.30   0
   3   4   5  717.43    3.13   0
   4   4   5  293.25    2.54   0
   5   4   5  694.19    2.85   0
   6   4   5  554.69    2.62   0
   7   4   5  318.29    2.08   0
   8   4   5  382.11    2.27   0
  -5   5   5   41.11    1.25   0
  -4   5   5  172.56    1.72   0
  -3   5   5   63.21    1.21   0
  -2   5   5  321.87    2.14   0
  -1   5   5   32.62    1.11   0
   0   5   5   76.98    1.37   0
   1   5   5    3.10    1.04   0
   2   5   5  344.95    2.32   0
   3   5   5    2.23    0.97   0
   4   5   5   12.51    1.33   0
   5   5   5   19.42    1.27   0
   6   5   5  208.24    1.89   0
   7   5   5    2.64    1.05   0
   8   5   5   -1.22    0.88   0
  -4   6   5  181.79    1.85   0
  -3   6   5  384.53    2.49   0
  -2   6   5  456.40    2.55   0
  -1   6   5   64.43    1.39   0
   0   6   5 1116.76    3.91   0
   1   6   5    1.26    1.07   0
   2   6   5 2502.79    5.47   0
   3   6   5   17.84    0.95   0
   4   6   5   42.67    1.04   0
   5   6   5  224.81    1.98   0
   6   6   5  607.21    3.30   0
   7   6   5  146.27    1.55   0
   8   6   5  100.25    1.35   0
  -4   7   5  193.71    1.72   0
  -3   7   5   56.83    1.45   0
  -2   7   5   54.16    1.27   0
  -1   7   5    6.40    1.02   0
   0   7   5  283.30    2.15   0
   1   7   5   41.88    1.14   0
   2   7   5  361.90    2.22   0
   3   7   5  262.23    2.10   0
   4   7   5   -1.75    0.94   0
   5   7   5  104.18    1.66   0
   6   7   5   14.11    1.02   0
   7   7   5    4.02    1.00   0
   8   7   5   12.15    0.98   0
  -3   8   5   54.05    1.15   0
  -2   8   5  260.98    1.94   0
  -1   8   5    0.05    1.09   0
   0   8   5   31.50    1.04   0
   1   8   5   83.73    1.58   0
   2   8   5    9.04    1.01   0
   3   8   5  825.55    3.23   0
   4   8   5  772.19    3.15   0
   5   8   5  857.19    3.02   0
   6   8   5  123.07    1.55   0
   7   8   5  111.06    1.79   0
  -2   9   5  166.95    1.74   0
  -1   9   5   -0.24    0.81   0
   0   9   5  608.98    2.60   0
   1   9   5  212.32    2.05   0
   2   9   5  210.73    1.79   0
   3   9   5  348.84    2.19   0
   4   9   5   21.02    1.03   0
   5   9   5  113.45    1.50   0
   6   9   5   57.29    1.16   0
   7   9   5   36.72    1.31   0
  -1  10   5    1.88    0.83   0
   0  10   5  374.19    2.33   0
   1  10   5   27.45    1.36   0
   2  10   5   13.60    0.97   0
   3  10   5  269.05    1.98   0
   4  10   5   96.19    1.33   0
   5  10   5  149.03    1.72   0
   6  10   5   -2.06    1.05   0
   0  11   5   82.18    1.38   0
   1  11   5  388.67    2.82   0
   2  11   5   35.98    1.15   0
   3  11   5  497.25    2.73   0
   4  11   5   42.35    1.06   0
   5  11   5  461.30    2.60   0
   3  12   5    0.58    0.97   0
  -3 -11   6   45.88    1.09   0
  -2 -11   6  311.25    2.14   0
  -1 -11   6  335.50    2.44   0
   0 -11   6  326.28    2.18   0
  -5 -10   6   18.95    1.15   0
  -4 -10   6   53.84    1.28   0
  -3 -10   6   55.77    1.27   0
  -2 -10   6  386.76    2.15   0
  -1 -10   6  301.73    2.06   0
   0 -10   6  370.23    2.60   0
   1 -10   6    5.84    0.89   0
   2 -10   6   32.77    1.16   0
  -5  -9   6   12.67    0.99   0
  -4  -9   6  283.46    2.03   0
  -3  -9   6   33.44    1.04   0
  -2  -9   6  635.79    2.74   0
  -1  -9   6  516.34    2.55   0
   0  -9   6  268.18    2.11   0
   1  -9   6  250.91    1.96   0
   2  -9   6   59.65    1.29   0
   3  -9   6  168.39    1.82   0
  -6  -8   6   59.07    1.19   0
  -5  -8   6  217.54    1.78   0
  -4  -8   6  102.90    1.43   0
  -3  -8   6   18.07    1.04   0
  -2  -8   6  386.01    2.17   0
  -1  -8   6  320.76    2.27   0
   0  -8   6    3.14    0.90   0
   1  -8   6   72.37    1.41   0
   2  -8   6   32.54    1.07   0
   3  -8   6   46.31    1.24   0
   4  -8   6    3.30    0.97   0
  -6  -7   6   13.47    1.02   0
  -5  -7   6   97.80    1.32   0
  -4  -7   6   10.62    0.93   0
  -3  -7   6    0.97    0.98   0
  -2  -7   6   47.62    1.24   0
  -1  -7   6   42.28    1.23   0
   0  -7   6  837.56    3.31   0
   1  -7   6   74.26    1.53   0
   2  -7   6  253.93    2.01   0
   3  -7   6  206.42    1.89   0
   4  -7   6   60.41    1.63   0
  -6  -6   6  156.09    1.57   0
  -5  -6   6   18.96    0.95   0
  -4  -6   6  848.70    3.14   0
  -3  -6   6  102.17    1.47   0
  -2  -6   6  120.66    1.51   0
  -1  -6   6  320.03    2.13   0
   0  -6   6  684.33    2.91   0
   1  -6   6  468.76    2.90   0
   2  -6   6  781.88    3.65   0
   3  -6   6  305.70    2.21   0
   4  -6   6  798.04    3.74   0
   5  -6   6   56.12    1.70   0
  -6  -5   6   61.56    1.27   0
  -5  -5   6  128.48    1.55   0
  -4  -5   6  405.59    2.34   0
  -3  -5   6  235.79    1.84   0
  -2  -5   6   28.21    1.18   0
  -1  -5   6   31.64    1.41   0
   0  -5   6  325.02    2.22   0
   1  -5   6   75.22    1.53   0
   2  -5   6   22.86    1.10   0
   3  -5   6  159.49    1.82   0
   4  -5   6  415.05    2.82   0
   5  -5   6    1.50    1.07   0
   6  -5   6  496.47    3.90   0
  -7  -4   6   52.76    1.56   0
  -6  -4   6  109.10    1.46   0
  -5  -4   6   26.41    1.01   0
  -4  -4   6  129.58    1.55   0
  -3  -4   6  747.47    3.03   0
  -2  -4   6    8.89    0.99   0
  -1  -4   6 2599.80    5.92   0
   0  -4   6  460.11    2.72   0
   1  -4   6 1831.16    5.23   0
   2  -4   6 1170.67    4.44   0
   3  -4   6  501.95    3.06   0
   4  -4   6  523.29    3.08   0
   5  -4   6   29.20    1.40   0
   6  -4   6  221.92    2.86   0
  -7  -3   6   32.89    1.13   0
  -6  -3   6   96.75    1.52   0
  -5  -3   6  122.46    1.64   0
  -4  -3   6  197.18    1.71   0
  -3  -3   6  472.29    2.52   0
  -2  -3   6 1903.92    4.83   0
  -1  -3   6  924.66    4.47   0
   0  -3   6  476.36    2.78   0
   1  -3   6    0.57    0.95   0
   2  -3   6  963.46    4.14   0
   3  -3   6   90.30    1.70   0
   4  -3   6    3.32    1.12   0
   5  -3   6  141.40    2.19   0
   6  -3   6   24.63    1.51   0
   7  -3   6   24.50    1.36   0
  -6  -2   6  125.34    1.65   0
  -5  -2   6  344.38    2.19   0
  -4  -2   6  535.54    2.70   0
  -3  -2   6 2106.46    5.00   0
  -2  -2   6 1737.98    4.72   0
  -1  -2   6 3685.26    7.28   0
   0  -2   6    7.50    0.89   0
   1  -2   6 2277.19    6.39   0
   2  -2   6  134.26    1.80   0
   3  -2   6  780.16    4.00   0
   4  -2   6   30.54    1.33   0
   5  -2   6    1.05    1.06   0
   6  -2   6  503.83    3.18   0
   7  -2   6  173.24    2.18   0
  -6  -1   6   28.93    1.08   0
  -5  -1   6  147.08    1.79   0
  -4  -1   6  938.39    3.36   0
  -3  -1   6 1239.43    3.83   0
  -2  -1   6  676.24    2.96   0
  -1  -1   6 1987.36    5.64   0
   0  -1   6   34.13    1.08   0
   1  -1   6  553.54    3.08   0
   2  -1   6  881.55    4.10   0
   3  -1   6   18.85    1.18   0
   4  -1   6  133.01    2.20   0
   5  -1   6  142.95    1.78   0
   6  -1   6   13.51    1.10   0
   7  -1   6  131.27    1.92   0
  -6   0   6   -2.93    1.10   0
  -5   0   6    0.61    1.20   0
  -4   0   6  253.20    1.88   0
  -3   0   6   37.84    1.37   0
  -2   0   6   99.94    1.52   0
  -1   0   6  145.81    1.59   0
   0   0   6 1345.78    4.41   0
   1   0   6  280.38    2.39   0
   2   0   6 1065.01    4.33   0
   3   0   6    3.12    1.05   0
   4   0   6   23.37    1.20   0
   5   0   6  623.72    2.88   0
   6   0   6  220.32    1.97   0
   7   0   6  606.06    3.08   0
  -6   1   6  478.64    2.61   0
  -5   1   6  177.25    1.66   0
  -4   1   6 1028.80    3.43   0
  -3   1   6  786.92    3.04   0
  -2   1   6    0.08    0.75   0
  -1   1   6  669.05    3.43   0
   0   1   6  314.30    2.23   0
   1   1   6  189.10    2.09   0
   2   1   6  564.19    2.97   0
   3   1   6    3.91    0.97   0
   4   1   6  664.76    3.01   0
   5   1   6  161.34    1.62   0
   6   1   6  114.53    1.43   0
   7   1   6  214.77    1.85   0
   8   1   6   15.63    0.97   0
  -6   2   6  158.32    1.75   0
  -5   2   6    8.72    0.85   0
  -4   2   6  373.44    2.25   0
  -3   2   6    3.91    0.92   0
  -2   2   6  136.92    1.59   0
  -1   2   6   16.99    1.06   0
   0   2   6  181.01    1.70   0
   1   2   6    7.24    0.87   0
   2   2   6  212.23    1.99   0
   3   2   6    0.80    1.00   0
   4   2   6 3446.49    6.13   0
   5   2   6    6.48    0.89   0
   6   2   6  232.71    1.77   0
   7   2   6    2.60    0.81   0
   8   2   6    8.97    0.88   0
  -5   3   6   78.75    1.35   0
  -4   3   6   41.53    1.14   0
  -3   3   6  317.93    2.15   0
  -2   3   6  271.24    2.07   0
  -1   3   6  158.48    1.74   0
   0   3   6 3427.63    6.60   0
   1   3   6   98.44    1.82   0
   2   3   6 3080.99    6.32   0
   3   3   6  140.62    1.84   0
   4   3   6 1179.41    5.52   0
   5   3   6  591.36    2.58   0
   6   3   6  674.58    2.72   0
   7   3   6  436.96    2.31   0
   8   3   6   33.05    1.29   0
  -5   4   6  108.93    1.57   0
  -4   4   6  125.66    1.50   0
  -3   4   6   53.47    1.17   0
  -2   4   6   29.16    1.09   0
  -1   4   6   56.44    2.11   0
   0   4   6 3656.78    6.76   0
   1   4   6   26.17    1.03   0
   2   4   6   91.81    1.39   0
   3   4   6   48.87    1.07   0
   4   4   6   21.68    1.20   0
   5   4   6   73.94    1.41   0
   6   4   6  239.21    1.79   0
   7   4   6   20.51    0.97   0
   8   4   6   12.01    1.21   0
  -4   5   6   53.56    1.29   0
  -3   5   6  385.61    2.32   0
  -2   5   6  143.62    1.62   0
  -1   5   6  579.77    3.07   0
   0   5   6 2563.46    5.56   0
   1   5   6  336.44    2.60   0
   2   5   6 1280.30    3.91   0
   3   5   6    7.14    0.92   0
   4   5   6 1992.94    5.28   0
   5   5   6   30.95    1.23   0
   6   5   6 1044.28    3.24   0
   7   5   6   57.43    1.37   0
   8   5   6   29.99    1.07   0
  -4   6   6   97.08    1.48   0
  -3   6   6  312.50    2.11   0
  -2   6   6  270.16    2.13   0
  -1   6   6  278.54    2.71   0
   0   6   6  331.07    2.21   0
   1   6   6    1.49    0.93   0
   2   6   6    2.45    1.00   0
   3   6   6   57.42    1.24   0
   4   6   6  297.93    1.88   0
   5   6   6  108.01    1.73   0
   6   6   6   51.68    1.37   0
   7   6   6   32.86    1.22   0
   8   6   6    1.89    1.09   0
  -3   7   6  108.96    1.48   0
  -2   7   6  458.50    2.63   0
  -1   7   6  339.23    2.56   0
   0   7   6  105.19    1.51   0
   1   7   6   37.73    1.14   0
   2   7   6    3.23    0.93   0
   3   7   6   93.13    1.52   0
   4   7   6  347.24    2.25   0
   5   7   6  431.02    2.46   0
   6   7   6   36.03    1.37   0
   7   7   6  543.92    2.46   0
   8   7   6  213.23    1.65   0
  -3   8   6  341.20    2.41   0
  -2   8   6  227.78    1.73   0
  -1   8   6  119.06    1.80   0
   0   8   6  275.70    1.77   0
   1   8   6    6.64    0.96   0
   2   8   6  332.71    2.04   0
   3   8   6   41.69    1.24   0
   4   8   6  168.47    1.66   0
   5   8   6  221.02    1.64   0
   6   8   6    0.83    0.92   0
   7   8   6   90.59    1.56   0
  -2   9   6   53.06    1.16   0
  -1   9   6    2.20    0.85   0
   0   9   6    1.79    0.88   0
   1   9   6    1.73    0.89   0
   2   9   6  599.97    2.80   0
   3   9   6   23.38    0.93   0
   4   9   6  346.26    2.24   0
   5   9   6   50.30    1.14   0
   6   9   6   72.06    1.33   0
   7   9   6  109.46    1.60   0
  -1  10   6   39.45    1.22   0
   0  10   6  406.78    2.18   0
   1  10   6    2.07    0.95   0
   2  10   6  143.69    1.50   0
   3  10   6  338.23    2.12   0
   4  10   6   28.23    1.04   0
   5  10   6  481.78    2.60   0
   6  10   6    4.66    1.10   0
   1  11   6    0.59    0.99   0
   2  11   6   22.65    1.16   0
   3  11   6   26.19    1.05   0
   4  11   6   22.51    0.95   0
   5  11   6   85.52    1.49   0
  -2 -11   7  105.12    1.55   0
  -1 -11   7   11.85    0.99   0
  -4 -10   7  137.32    1.72   0
  -3 -10   7   25.18    1.10   0
  -2 -10   7  320.73    2.05   0
  -1 -10   7   -0.19    0.91   0
   0 -10   7  501.46    2.77   0
   1 -10   7  168.78    1.67   0
  -5  -9   7   79.00    1.45   0
  -4  -9   7  320.77    2.04   0
  -3  -9   7  173.70    1.70   0
  -2  -9   7   30.48    1.03   0
  -1  -9   7   21.64    1.26   0
   0  -9   7  351.91    2.35   0
   1  -9   7  204.36    1.97   0
   2  -9   7  110.68    1.57   0
   3  -9   7   30.86    1.17   0
  -5  -8   7    2.58    0.90   0
  -4  -8   7   45.04    1.08   0
  -3  -8   7   29.51    1.20   0
  -2  -8   7   25.42    0.99   0
  -1  -8   7   21.12    1.06   0
   0  -8   7  409.83    2.41   0
   1  -8   7  326.13    2.38   0
   2  -8   7    3.01    0.97   0
   3  -8   7   66.90    1.40   0
  -6  -7   7  486.06    2.64   0
  -5  -7   7   54.18    1.11   0
  -4  -7   7  704.51    2.84   0
  -3  -7   7   53.33    1.39   0
  -2  -7   7 1518.02    4.05   0
  -1  -7   7   78.59    1.41   0
   0  -7   7 2167.58    4.87   0
   1  -7   7  174.17    1.97   0
   2  -7   7   11.99    1.02   0
   3  -7   7   63.04    1.22   0
   4  -7   7  103.40    1.47   0
  -6  -6   7   10.78    1.17   0
  -5  -6   7    0.65    0.84   0
  -4  -6   7   31.23    1.11   0
  -3  -6   7    9.16    0.94   0
  -2  -6   7  427.60    2.44   0
  -1  -6   7  304.27    2.08   0
   0  -6   7 1784.11    4.66   0
   1  -6   7   87.83    1.59   0
   2  -6   7    6.80    1.13   0
   3  -6   7   22.34    1.14   0
   4  -6   7   21.26    1.21   0
   5  -6   7  167.56    2.16   0
  -6  -5   7  137.22    1.65   0
  -5  -5   7  355.39    2.24   0
  -4  -5   7  300.89    2.08   0
  -3  -5   7   40.74    1.21   0
  -2  -5   7  873.49    3.24   0
  -1  -5   7  327.78    2.19   0
   0  -5   7  274.27    2.04   0
   1  -5   7  835.76    3.32   0
   2  -5   7    3.16    0.96   0
   3  -5   7  599.18    3.13   0
   4  -5   7  210.23    2.15   0
   5  -5   7  139.74    2.11   0
   6  -5   7  249.76    2.93   0
  -6  -4   7  193.71    1.89   0
  -5  -4   7   34.67    1.25   0
  -4  -4   7  544.58    2.68   0
  -3  -4   7   71.61    1.32   0
  -2  -4   7    2.08    1.04   0
  -1  -4   7   83.12    1.48   0
   0  -4   7  841.53    3.29   0
   1  -4   7  221.22    1.87   0
   2  -4   7  127.46    1.69   0
   3  -4   7   -0.05    0.94   0
   4  -4   7  353.52    2.73   0
   5  -4   7    4.38    1.14   0
   6  -4   7   13.52    1.52   0
  -6  -3   7   49.39    1.31   0
  -5  -3   7  124.41    1.59   0
  -4  -3   7  332.37    2.09   0
  -3  -3   7    3.42    0.86   0
  -2  -3   7  343.44    2.23   0
  -1  -3   7  851.38    3.74   0
   0  -3   7  679.98    3.07   0
   1  -3   7 2160.66    6.28   0
   2  -3   7   14.14    0.99   0
   3  -3   7 1093.08    4.40   0
   4  -3   7  605.92    3.65   0
   5  -3   7  430.44    3.42   0
   6  -3   7  118.24    2.79   0
  -6  -2   7  261.97    1.95   0
  -5  -2   7  154.70    1.58   0
  -4  -2   7   61.89    1.26   0
  -3  -2   7    5.67    0.91   0
  -2  -2   7  121.80    1.65   0
  -1  -2   7  950.75    3.47   0
   0  -2   7  650.62    3.04   0
   1  -2   7 1687.54    5.29   0
   2  -2   7  230.00    2.14   0
   3  -2   7  218.33    2.18   0
   4  -2   7   34.82    1.48   0
   5  -2   7   19.58    1.34   0
   6  -2   7   82.54    1.51   0
   7  -2   7   13.25    1.07   0
  -6  -1   7    5.44    1.28   0
  -5  -1   7    9.46    0.90   0
  -4  -1   7   44.55    1.62   0
  -3  -1   7   61.03    1.22   0
  -2  -1   7    1.39    0.84   0
  -1  -1   7 1000.19    3.92   0
   0  -1   7    3.00    0.79   0
   1  -1   7 1332.54    5.48   0
   2  -1   7 2150.36    5.92   0
   3  -1   7  669.99    3.51   0
   4  -1   7  515.70    3.58   0
   5  -1   7  236.82    1.93   0
   6  -1   7   84.20    1.42   0
   7  -1   7   28.67    1.20   0
  -6   0   7  163.75    1.90   0
  -5   0   7   37.94    1.41   0
  -4   0   7  205.91    1.94   0
  -3   0   7  328.23    2.05   0
  -2   0   7 1765.11    4.35   0
  -1   0   7 1496.31    4.54   0
   0   0   7  203.84    1.93   0
   1   0   7 1488.19    5.39   0
   2   0   7 1023.48    4.03   0
   3   0   7  540.11    3.17   0
   4   0   7  366.82    3.00   0
   5   0   7  141.97    1.57   0
   6   0   7  288.05    2.21   0
   7   0   7   -0.34    1.12   0
  -6   1   7   12.06    0.99   0
  -5   1   7  126.24    1.45   0
  -4   1   7   43.53    1.31   0
  -3   1   7  342.82    2.07   0
  -2   1   7 2160.73    4.89   0
  -1   1   7  358.79    2.26   0
   0   1   7  350.93    2.27   0
   1   1   7   79.71    1.65   0
   2   1   7  163.36    1.72   0
   3   1   7  168.91    1.88   0
   4   1   7   42.70    1.09   0
   5   1   7   73.72    1.42   0
   6   1   7  598.50    2.74   0
   7   1   7    2.25    0.99   0
   8   1   7  423.64    2.58   0
  -5   2   7   18.29    1.12   0
  -4   2   7  643.09    2.84   0
  -3   2   7  383.90    2.19   0
  -2   2   7  936.11    3.24   0
  -1   2   7 1543.60    4.52   0
   0   2   7   18.11    0.92   0
   1   2   7  794.26    3.80   0
   2   2   7  192.36    1.84   0
   3   2   7  119.11    1.71   0
   4   2   7  755.68    2.95   0
   5   2   7   15.87    1.22   0
   6   2   7  449.08    2.31   0
   7   2   7  196.38    1.81   0
   8   2   7  144.22    1.55   0
  -5   3   7   52.25    1.15   0
  -4   3   7   39.68    1.14   0
  -3   3   7  241.44    1.87   0
  -2   3   7  126.99    1.41   0
  -1   3   7  131.15    1.74   0
   0   3   7 1772.05    4.50   0
   1   3   7   47.17    1.19   0
   2   3   7  539.07    2.67   0
   3   3   7   39.86    1.12   0
   4   3   7  263.55    2.65   0
   5   3   7  123.51    1.37   0
   6   3   7  169.68    1.75   0
   7   3   7  206.54    1.68   0
   8   3   7    0.82    1.12   0
  -5   4   7    2.67    0.91   0
  -4   4   7  500.08    2.60   0
  -3   4   7  215.82    1.76   0
  -2   4   7  427.69    2.41   0
  -1   4   7  443.44    2.45   0
   0   4   7  129.56    1.48   0
   1   4   7  174.30    1.72   0
   2   4   7  356.13    2.23   0
   3   4   7   85.53    1.79   0
   4   4   7  727.19    3.63   0
   5   4   7    3.19    0.86   0
   6   4   7  331.78    1.95   0
   7   4   7  111.34    1.33   0
   8   4   7  352.62    2.26   0
  -4   5   7    9.15    1.00   0
  -3   5   7  157.71    1.56   0
  -2   5   7  450.74    2.35   0
  -1   5   7  312.95    2.32   0
   0   5   7  114.06    1.38   0
   1   5   7  337.77    2.17   0
   2   5   7  142.99    1.54   0
   3   5   7   -0.19    0.95   0
   4   5   7  272.89    2.17   0
   5   5   7   58.29    1.48   0
   6   5   7   45.46    1.25   0
   7   5   7   58.94    1.22   0
   8   5   7   18.71    0.96   0
  -4   6   7    7.94    1.06   0
  -3   6   7    3.44    1.03   0
  -2   6   7   19.97    1.04   0
  -1   6   7   55.28    1.15   0
   0   6   7 1180.52    3.70   0
   1   6   7  377.43    2.94   0
   2   6   7 1311.31    3.86   0
   3   6   7  114.77    1.55   0
   4   6   7  111.41    1.35   0
   5   6   7   52.12    1.25   0
   6   6   7  300.70    2.78   0
   7   6   7  291.14    1.95   0
   8   6   7  128.43    1.61   0
  -3   7   7  120.93    1.54   0
  -2   7   7  112.08    1.45   0
  -1   7   7  410.86    3.08   0
   0   7   7  612.12    2.77   0
   1   7   7  350.58    2.35   0
   2   7   7  434.60    2.32   0
   3   7   7   34.66    1.11   0
   4   7   7  143.74    1.68   0
   5   7   7   -0.70    1.13   0
   6   7   7  147.16    1.90   0
   7   7   7   43.53    1.22   0
  -2   8   7   21.92    1.23   0
  -1   8   7  134.86    1.60   0
   0   8   7  342.54    1.98   0
   1   8   7  236.46    2.40   0
   2   8   7   35.11    1.08   0
   3   8   7   87.36    1.30   0
   4   8   7  116.37    1.64   0
   5   8   7  100.60    1.26   0
   6   8   7  531.39    2.82   0
   7   8   7    8.22    1.07   0
  -1   9   7  421.57    2.63   0
   0   9   7  541.75    2.52   0
   1   9   7  183.85    1.91   0
   2   9   7  372.31    2.24   0
   3   9   7   34.99    1.25   0
   4   9   7  331.29    2.10   0
   5   9   7   50.17    1.24   0
   6   9   7   83.41    1.35   0
   7   9   7  205.87    2.08   0
   0  10   7   99.44    1.46   0
   1  10   7    2.33    0.93   0
   2  10   7  531.93    2.72   0
   3  10   7   10.46    0.92   0
   4  10   7    7.16    1.10   0
   5  10   7   18.42    0.93   0
   6  10   7    5.45    1.04   0
   2  11   7  178.81    1.72   0
   3  11   7   -0.11    0.90   0
   4  11   7  131.00    1.55   0
   5  11   7   67.08    1.83   0
  -3 -10   8   42.21    1.08   0
  -2 -10   8  117.59    1.59   0
  -1 -10   8   12.86    1.06   0
   0 -10   8    1.86    0.99   0
   1 -10   8   27.82    1.11   0
  -4  -9   8    2.67    1.01   0
  -3  -9   8    5.97    1.13   0
  -2  -9   8  123.96    1.38   0
  -1  -9   8   11.79    1.08   0
   0  -9   8  135.88    1.55   0
   1  -9   8   12.62    1.10   0
   2  -9   8  141.30    1.62   0
  -5  -8   8  112.08    1.41   0
  -4  -8   8  194.39    1.76   0
  -3  -8   8    0.90    0.96   0
  -2  -8   8  762.53    2.96   0
  -1  -8   8   37.35    1.16   0
   0  -8   8 1000.40    3.35   0
   1  -8   8   29.01    1.06   0
   2  -8   8  886.42    3.88   0
   3  -8   8  177.77    1.94   0
  -5  -7   8    8.20    0.92   0
  -4  -7   8   33.36    1.13   0
  -3  -7   8   14.38    1.06   0
  -2  -7   8    2.72    0.87   0
  -1  -7   8   84.25    1.33   0
   0  -7   8   41.70    1.26   0
   1  -7   8   17.19    1.08   0
   2  -7   8  493.95    2.88   0
   3  -7   8  112.62    1.52   0
   4  -7   8   60.53    1.34   0
  -6  -6   8    7.07    0.77   0
  -5  -6   8  347.13    2.21   0
  -4  -6   8  418.41    2.28   0
  -3  -6   8  506.00    2.40   0
  -2  -6   8  244.91    2.02   0
  -1  -6   8  299.26    2.27   0
   0  -6   8  882.17    3.38   0
   1  -6   8  130.99    1.74   0
   2  -6   8  499.06    2.85   0
   3  -6   8  305.56    2.20   0
   4  -6   8   28.81    1.17   0
   5  -6   8  165.84    2.17   0
  -6  -5   8   16.52    0.94   0
  -5  -5   8  191.18    1.72   0
  -4  -5   8   14.32    1.13   0
  -3  -5   8   -0.22    1.03   0
  -2  -5   8 1299.53    3.99   0
  -1  -5   8   66.42    1.28   0
   0  -5   8  397.54    2.29   0
   1  -5   8   49.85    1.40   0
   2  -5   8   77.76    1.50   0
   3  -5   8    0.08    0.94   0
   4  -5   8  438.65    2.94   0
   5  -5   8    0.18    1.06   0
  -6  -4   8   53.69    1.37   0
  -5  -4   8  361.90    2.31   0
  -4  -4   8  173.04    1.56   0
  -3  -4   8  607.50    2.76   0
  -2  -4   8  615.33    2.81   0
  -1  -4   8  265.04    1.91   0
   0  -4   8 1218.96    3.91   0
   1  -4   8   41.91    1.45   0
   2  -4   8  135.08    1.73   0
   3  -4   8  291.41    2.46   0
   4  -4   8    2.71    1.17   0
   5  -4   8  314.68    2.99   0
   6  -4   8  208.21    3.32   0
  -6  -3   8   14.65    1.00   0
  -5  -3   8  431.04    2.42   0
  -4  -3   8  522.29    2.42   0
  -3  -3   8  276.96    1.88   0
  -2  -3   8  210.31    1.75   0
  -1  -3   8  230.87    1.78   0
   0  -3   8 1177.77    3.80   0
   1  -3   8   23.83    1.18   0
   2  -3   8   10.41    0.96   0
   3  -3   8  462.23    2.97   0
   4  -3   8    1.13    0.96   0
   5  -3   8   62.07    1.58   0
   6  -3   8   82.93    2.07   0
  -6  -2   8   -1.97    1.19   0
  -5  -2   8   45.70    1.37   0
  -4  -2   8   54.66    1.43   0
  -3  -2   8   49.70    1.16   0
  -2  -2   8   50.12    1.19   0
  -1  -2   8   15.44    1.03   0
   0  -2   8   45.25    1.21   0
   1  -2   8  782.44    3.65   0
   2  -2   8   28.22    1.12   0
   3  -2   8 1211.95    4.50   0
   4  -2   8  180.99    2.07   0
   5  -2   8  536.20    3.69   0
   6  -2   8  586.76    3.30   0
   7  -2   8  185.58    2.13   0
  -6  -1   8   61.53    1.24   0
  -5  -1   8   90.86    1.35   0
  -4  -1   8 1388.44    4.09   0
  -3  -1   8   -0.35    0.93   0
  -2  -1   8  536.26    2.48   0
  -1  -1   8  145.38    1.71   0
   0  -1   8 1952.32    4.96   0
   1  -1   8 1038.19    4.22   0
   2  -1   8 1184.47    4.09   0
   3  -1   8 1020.78    4.07   0
   4  -1   8  203.48    2.33   0
   5  -1   8  372.94    2.45   0
   6  -1   8  209.17    1.91   0
   7  -1   8  158.03    1.92   0
  -5   0   8    2.78    1.06   0
  -4   0   8   17.09    0.95   0
  -3   0   8    9.02    0.86   0
  -2   0   8    1.42    0.95   0
  -1   0   8  307.87    1.97   0
   0   0   8 2711.63    5.65   0
   1   0   8  871.36    4.08   0
   2   0   8 2309.59    5.59   0
   3   0   8  325.93    2.39   0
   4   0   8   12.06    1.06   0
   5   0   8  148.91    1.55   0
   6   0   8    2.13    1.04   0
   7   0   8  117.09    1.49   0
  -5   1   8   89.64    1.35   0
  -4   1   8  271.25    1.84   0
  -3   1   8   14.04    0.91   0
  -2   1   8  429.40    2.27   0
  -1   1   8  841.22    3.19   0
   0   1   8 3282.57    6.17   0
   1   1   8 2823.79    6.26   0
   2   1   8  534.83    2.66   0
   3   1   8 1957.64    5.13   0
   4   1   8    9.52    1.09   0
   5   1   8  383.24    2.40   0
   6   1   8   32.25    1.19   0
   7   1   8    8.85    0.86   0
  -5   2   8   -1.74    0.98   0
  -4   2   8  358.93    2.16   0
  -3   2   8    7.88    0.95   0
  -2   2   8  378.89    2.11   0
  -1   2   8   29.67    1.16   0
   0   2   8   63.78    1.21   0
   1   2   8  -16.60    1.22   0
   2   2   8  716.10    2.99   0
   3   2   8    9.03    1.04   0
   4   2   8   94.23    1.81   0
   5   2   8   30.27    0.99   0
   6   2   8  288.46    2.06   0
   7   2   8    0.57    0.83   0
   8   2   8   13.33    1.09   0
  -5   3   8   17.92    1.13   0
  -4   3   8  331.51    2.27   0
  -3   3   8    2.94    0.77   0
  -2   3   8 1358.63    3.86   0
  -1   3   8  335.43    2.23   0
   0   3   8 2068.57    4.73   0
   1   3   8  787.53    3.60   0
   2   3   8  398.09    2.28   0
   3   3   8  417.28    2.36   0
   4   3   8   23.59    1.21   0
   5   3   8  102.10    1.33   0
   6   3   8  373.54    2.10   0
   7   3   8    0.77    1.11   0
   8   3   8  111.41    1.56   0
  -4   4   8  189.68    1.84   0
  -3   4   8   17.83    1.15   0
  -2   4   8  211.41    1.73   0
  -1   4   8   98.61    1.49   0
   0   4   8  143.68    1.54   0
   1   4   8  255.77    2.05   0
   2   4   8  151.54    1.51   0
   3   4   8  137.15    1.48   0
   4   4   8  288.13    2.37   0
   5   4   8    9.22    0.91   0
   6   4   8   15.51    0.90   0
   7   4   8   56.75    1.23   0
   8   4   8   79.37    1.52   0
  -4   5   8  132.52    1.57   0
  -3   5   8    5.80    1.05   0
  -2   5   8   82.54    1.31   0
  -1   5   8   66.80    1.31   0
   0   5   8   10.94    1.01   0
   1   5   8  212.02    2.06   0
   2   5   8  155.39    1.56   0
   3   5   8  231.75    1.90   0
   4   5   8 1573.27    4.94   0
   5   5   8   99.49    1.87   0
   6   5   8  664.91    2.69   0
   7   5   8    4.69    0.83   0
   8   5   8  197.86    1.78   0
  -3   6   8   68.08    1.23   0
  -2   6   8   37.30    1.06   0
  -1   6   8  142.66    1.77   0
   0   6   8  439.57    2.42   0
   1   6   8  247.74    2.26   0
   2   6   8  187.26    1.61   0
   3   6   8  305.76    1.99   0
   4   6   8 1207.37    3.63   0
   5   6   8   65.71    1.56   0
   6   6   8  220.58    2.88   0
   7   6   8   19.70    1.25   0
  -2   7   8   60.61    1.19   0
  -1   7   8   14.20    0.95   0
   0   7   8  389.86    2.31   0
   1   7   8    9.14    0.98   0
   2   7   8  144.96    1.56   0
   3   7   8   96.58    1.37   0
   4   7   8  495.06    2.51   0
   5   7   8   52.53    1.20   0
   6   7   8  104.57    1.75   0
   7   7   8   16.24    1.04   0
  -2   8   8  118.73    1.56   0
  -1   8   8  150.80    2.18   0
   0   8   8   40.22    1.03   0
   1   8   8  640.67    3.08   0
   2   8   8  347.84    2.09   0
   3   8   8  316.79    2.06   0
   4   8   8  348.18    2.20   0
   5   8   8   34.79    1.26   0
   6   8   8  241.26    2.09   0
   7   8   8    3.38    0.82   0
  -1   9   8    1.85    1.19   0
   0   9   8  155.97    1.47   0
   1   9   8   43.90    1.32   0
   2   9   8  296.54    1.96   0
   3   9   8   42.47    1.25   0
   4   9   8   20.49    1.12   0
   5   9   8    4.46    1.04   0
   6   9   8    1.93    1.02   0
   1  10   8  393.77    2.72   0
   2  10   8   43.15    1.10   0
   3  10   8  111.31    1.41   0
   4  10   8  169.62    1.88   0
   5  10   8   23.65    1.04   0
   3  11   8    8.51    1.18   0
  -2 -10   9    4.02    1.05   0
  -1 -10   9  129.45    1.70   0
   0 -10   9   33.88    1.33   0
  -3  -9   9  479.17    2.52   0
  -2  -9   9   14.71    1.05   0
  -1  -9   9   34.96    1.33   0
   0  -9   9  718.68    3.20   0
   1  -9   9    2.51    1.04   0
   2  -9   9  292.49    2.24   0
  -4  -8   9   39.52    1.20   0
  -3  -8   9   57.68    1.35   0
  -2  -8   9    2.14    0.87   0
  -1  -8   9   34.32    1.11   0
   0  -8   9  105.20    1.45   0
   1  -8   9   85.49    1.42   0
   2  -8   9   11.03    1.02   0
   3  -8   9   33.38    1.14   0
  -5  -7   9  150.52    1.57   0
  -4  -7   9   84.32    1.37   0
  -3  -7   9  371.37    2.21   0
  -2  -7   9  326.79    2.03   0
  -1  -7   9  212.73    1.79   0
   0  -7   9  534.77    2.57   0
   1  -7   9  119.89    1.55   0
   2  -7   9  206.65    1.96   0
   3  -7   9   31.23    1.02   0
   4  -7   9  290.34    2.44   0
  -5  -6   9   90.58    1.28   0
  -4  -6   9    5.37    1.11   0
  -3  -6   9  223.54    1.81   0
  -2  -6   9  144.85    1.66   0
  -1  -6   9   88.25    1.38   0
   0  -6   9  102.97    1.45   0
   1  -6   9   36.74    1.27   0
   2  -6   9  115.27    1.62   0
   3  -6   9   42.99    1.32   0
   4  -6   9   25.71    1.26   0
  -5  -5   9  128.91    1.69   0
  -4  -5   9   48.14    1.29   0
  -3  -5   9  193.60    1.65   0
  -2  -5   9  893.80    3.27   0
  -1  -5   9  334.01    2.25   0
   0  -5   9 1813.61    4.60   0
   1  -5   9  188.07    1.88   0
   2  -5   9 1454.70    4.38   0
   3  -5   9    1.88    1.02   0
   4  -5   9  444.36    2.94   0
   5  -5   9   72.38    1.66   0
  -5  -4   9   73.43    1.28   0
  -4  -4   9   18.95    1.05   0
  -3  -4   9  421.19    2.27   0
  -2  -4   9   20.00    1.05   0
  -1  -4   9  152.35    1.57   0
   0  -4   9  711.31    2.99   0
   1  -4   9   24.44    1.06   0
   2  -4   9  224.59    2.03   0
   3  -4   9   32.84    1.21   0
   4  -4   9  234.75    2.28   0
   5  -4   9   59.84    1.66   0
   6  -4   9    1.05    1.32   0
  -5  -3   9  119.04    1.62   0
  -4  -3   9  118.80    1.46   0
  -3  -3   9  281.32    2.02   0
  -2  -3   9  288.41    1.90   0
  -1  -3   9  288.54    2.24   0
   0  -3   9  997.43    3.41   0
   1  -3   9   31.18    1.68   0
   2  -3   9  339.44    2.38   0
   3  -3   9  126.76    1.80   0
   4  -3   9  146.22    1.90   0
   5  -3   9  457.45    3.35   0
   6  -3   9   13.78    1.04   0
  -5  -2   9  564.54    2.80   0
  -4  -2   9  110.86    1.43   0
  -3  -2   9  472.01    2.32   0
  -2  -2   9 1296.67    3.68   0
  -1  -2   9  117.15    1.64   0
   0  -2   9 2074.60    4.89   0
   1  -2   9   43.62    1.26   0
   2  -2   9  138.09    1.69   0
   3  -2   9   14.28    1.00   0
   4  -2   9  415.04    2.89   0
   5  -2   9  199.76    2.34   0
   6  -2   9   -0.25    0.80   0
  -5  -1   9  106.82    1.38   0
  -4  -1   9   35.13    1.11   0
  -3  -1   9  149.36    1.52   0
  -2  -1   9   25.49    1.00   0
  -1  -1   9  174.46    1.55   0
   0  -1   9    1.68    0.89   0
   1  -1   9   59.06    1.32   0
   2  -1   9   23.68    1.05   0
   3  -1   9   89.68    1.50   0
   4  -1   9  447.66    2.86   0
   5  -1   9  220.79    1.82   0
   6  -1   9    2.76    0.98   0
   7  -1   9   40.56    1.13   0
  -5   0   9  530.40    2.69   0
  -4   0   9   13.84    0.99   0
  -3   0   9  725.94    2.84   0
  -2   0   9  305.09    1.87   0
  -1   0   9  159.15    1.53   0
   0   0   9  117.01    1.42   0
   1   0   9  123.73    1.73   0
   2   0   9   55.42    1.28   0
   3   0   9 1281.06    4.33   0
   4   0   9  116.09    1.60   0
   5   0   9 1219.76    3.86   0
   6   0   9   37.76    1.02   0
   7   0   9  199.10    2.04   0
  -5   1   9  131.01    1.47   0
  -4   1   9    8.93    0.84   0
  -3   1   9   42.23    1.09   0
  -2   1   9   57.14    1.25   0
  -1   1   9    3.61    0.85   0
   0   1   9 2152.10    4.90   0
   1   1   9   21.15    1.54   0
   2   1   9   88.45    1.31   0
   3   1   9  263.54    2.04   0
   4   1   9   65.18    1.27   0
   5   1   9  152.17    1.51   0
   6   1   9  563.56    2.63   0
   7   1   9   77.09    1.49   0
  -4   2   9  148.78    1.57   0
  -3   2   9   84.29    1.24   0
  -2   2   9  239.64    1.77   0
  -1   2   9    9.34    1.02   0
   0   2   9  768.17    2.93   0
   1   2   9  347.51    2.76   0
   2   2   9  912.15    3.28   0
   3   2   9 1011.45    3.51   0
   4   2   9   60.79    1.46   0
   5   2   9  799.38    2.93   0
   6   2   9   27.86    0.93   0
   7   2   9  233.96    1.83   0
  -4   3   9    0.93    1.08   0
  -3   3   9  120.62    1.45   0
  -2   3   9  464.93    2.38   0
  -1   3   9   53.09    1.23   0
   0   3   9    6.85    0.98   0
   1   3   9   21.28    1.05   0
   2   3   9  786.35    3.00   0
   3   3   9  159.62    1.70   0
   4   3   9   35.20    1.57   0
   5   3   9  140.71    1.62   0
   6   3   9   11.45    1.12   0
   7   3   9   -0.66    1.08   0
  -4   4   9  130.29    1.62   0
  -3   4   9    8.76    1.04   0
  -2   4   9  388.68    2.29   0
  -1   4   9   36.09    1.06   0
   0   4   9 1173.32    3.60   0
   1   4   9  418.93    2.48   0
   2   4   9  426.43    2.25   0
   3   4   9  896.86    3.15   0
   4   4   9  137.07    1.86   0
   5   4   9  517.23    3.67   0
   6   4   9  104.59    1.50   0
   7   4   9  120.34    1.60   0
  -3   5   9   31.03    1.02   0
  -2   5   9 1533.72    4.16   0
  -1   5   9   28.43    1.01   0
   0   5   9  575.11    2.63   0
   1   5   9  144.42    1.61   0
   2   5   9  593.60    2.66   0
   3   5   9  163.07    1.67   0
   4   5   9  294.60    2.22   0
   5   5   9  160.48    1.96   0
   6   5   9  249.94    1.74   0
   7   5   9   42.08    1.02   0
  -3   6   9   24.20    1.20   0
  -2   6   9  206.71    1.83   0
  -1   6   9    7.12    0.92   0
   0   6   9  398.16    2.27   0
   1   6   9   12.95    1.13   0
   2   6   9  749.21    2.92   0
   3   6   9    2.41    0.90   0
   4   6   9  201.02    1.73   0
   5   6   9    4.22    0.94   0
   6   6   9  155.71    1.62   0
   7   6   9    4.40    1.09   0
  -2   7   9  204.11    1.88   0
  -1   7   9   52.28    1.11   0
   0   7   9  185.02    1.64   0
   1   7   9  168.63    1.96   0
   2   7   9  447.86    2.30   0
   3   7   9  444.06    2.30   0
   4   7   9    5.56    1.05   0
   5   7   9  233.50    2.09   0
   6   7   9  153.23    1.99   0
   7   7   9    1.28    1.12   0
  -1   8   9    3.66    0.97   0
   0   8   9  166.54    1.59   0
   1   8   9    2.56    0.90   0
   2   8   9   -3.43    1.05   0
   3   8   9   21.58    1.01   0
   4   8   9  292.43    2.07   0
   5   8   9   42.69    1.24   0
   6   8   9   99.75    1.66   0
   7   8   9   13.58    0.89   0
   0   9   9  103.22    1.99   0
   1   9   9  149.10    1.67   0
   2   9   9   27.38    1.11   0
   3   9   9  401.90    2.25   0
   4   9   9  115.79    1.48   0
   5   9   9  180.95    1.70   0
   6   9   9   82.88    1.48   0
   2  10   9    3.09    1.03   0
   3  10   9    1.03    1.05   0
   4  10   9   52.62    1.19   0
   5  10   9    5.26    0.93   0
  -2  -9  10   25.92    0.94   0
  -1  -9  10   52.51    1.26   0
   0  -9  10   14.55    1.14   0
   1  -9  10   69.41    1.58   0
  -3  -8  10   88.55    1.30   0
  -2  -8  10  376.19    2.16   0
  -1  -8  10  664.24    3.15   0
   0  -8  10   19.90    1.03   0
   1  -8  10  146.30    1.77   0
   2  -8  10   84.48    1.58   0
  -4  -7  10   94.27    1.31   0
  -3  -7  10   21.07    0.99   0
  -2  -7  10    2.80    0.93   0
  -1  -7  10   16.29    0.96   0
   0  -7  10   92.11    1.30   0
   1  -7  10   51.75    1.30   0
   2  -7  10   64.88    1.43   0
   3  -7  10    2.53    0.86   0
  -4  -6  10  566.45    2.70   0
  -3  -6  10  204.50    1.74   0
  -2  -6  10  356.08    2.12   0
  -1  -6  10  193.14    1.84   0
   0  -6  10  378.28    2.25   0
   1  -6  10   47.87    1.46   0
   2  -6  10  594.44    2.98   0
   3  -6  10   49.34    1.37   0
   4  -6  10  547.39    3.33   0
  -5  -5  10   12.22    1.10   0
  -4  -5  10   13.12    1.02   0
  -3  -5  10    4.35    1.04   0
  -2  -5  10  136.37    1.42   0
  -1  -5  10  196.48    2.18   0
   0  -5  10    4.21    0.82   0
   1  -5  10   50.89    1.40   0
   2  -5  10  365.96    2.39   0
   3  -5  10   47.55    1.24   0
   4  -5  10   83.68    1.66   0
   5  -5  10    0.02    0.86   0
  -5  -4  10    7.98    1.08   0
  -4  -4  10   93.06    1.44   0
  -3  -4  10  230.67    1.76   0
  -2  -4  10   40.28    1.06   0
  -1  -4  10  401.96    2.27   0
   0  -4  10  363.85    2.22   0
   1  -4  10  278.45    2.27   0
   2  -4  10  429.66    2.59   0
   3  -4  10   31.92    1.21   0
   4  -4  10  508.35    3.20   0
   5  -4  10   33.62    1.31   0
  -5  -3  10  150.06    1.78   0
  -4  -3  10    1.82    0.84   0
  -3  -3  10  667.01    2.59   0
  -2  -3  10  163.69    1.61   0
  -1  -3  10 1023.07    4.11   0
   0  -3  10  469.59    2.37   0
   1  -3  10  134.01    1.71   0
   2  -3  10 2436.87    5.67   0
   3  -3  10   33.10    1.28   0
   4  -3  10  412.40    3.01   0
   5  -3  10   64.49    1.61   0
   6  -3  10  207.15    2.27   0
  -5  -2  10   27.60    1.00   0
  -4  -2  10    8.76    0.99   0
  -3  -2  10  198.86    1.61   0
  -2  -2  10   13.00    0.87   0
  -1  -2  10  357.37    2.07   0
   0  -2  10   34.80    1.12   0
   1  -2  10  303.13    2.37   0
   2  -2  10  295.80    2.26   0
   3  -2  10  164.62    1.79   0
   4  -2  10   46.69    1.26   0
   5  -2  10    1.28    1.07   0
   6  -2  10   78.41    1.31   0
  -5  -1  10  156.49    1.52   0
  -4  -1  10   18.04    1.11   0
  -3  -1  10 1101.45    3.32   0
  -2  -1  10   14.47    0.93   0
  -1  -1  10 1538.67    4.43   0
   0  -1  10 1433.40    3.94   0
   1  -1  10  463.18    2.47   0
   2  -1  10  168.59    1.79   0
   3  -1  10   39.07    1.14   0
   4  -1  10    8.22    1.20   0
   5  -1  10  170.36    1.62   0
   6  -1  10   84.15    1.51   0
   7  -1  10  368.42    2.53   0
  -5   0  10   31.53    1.15   0
  -4   0  10   13.83    0.93   0
  -3   0  10   55.02    1.06   0
  -2   0  10   28.07    1.04   0
  -1   0  10   59.31    1.30   0
   0   0  10  534.82    2.52   0
   1   0  10   -5.32    1.11   0
   2   0  10   32.84    1.07   0
   3   0  10    0.64    1.05   0
   4   0  10   31.85    1.16   0
   5   0  10  165.41    1.57   0
   6   0  10   71.67    1.19   0
   7   0  10  206.72    1.97   0
  -4   1  10  287.54    1.96   0
  -3   1  10  562.33    2.61   0
  -2   1  10  133.75    1.42   0
  -1   1  10  473.50    2.80   0
   0   1  10 1504.25    3.98   0
   1   1  10   72.78    1.63   0
   2   1  10  416.96    2.22   0
   3   1  10    9.79    0.94   0
   4   1  10  555.44    2.87   0
   5   1  10  346.09    2.06   0
   6   1  10   85.47    1.63   0
   7   1  10  432.38    2.59   0
  -4   2  10   95.42    1.54   0
  -3   2  10   95.16    1.43   0
  -2   2  10    6.11    0.92   0
  -1   2  10   81.54    1.53   0
   0   2  10   39.02    1.08   0
   1   2  10    4.68    0.77   0
   2   2  10  187.99    1.63   0
   3   2  10   24.54    0.96   0
   4   2  10  532.38    2.72   0
   5   2  10   21.29    0.94   0
   6   2  10  228.86    1.82   0
   7   2  10   58.84    1.28   0
  -4   3  10   11.59    0.89   0
  -3   3  10  131.97    1.39   0
  -2   3  10  211.09    1.67   0
  -1   3  10   11.36    0.96   0
   0   3  10  489.25    2.38   0
   1   3  10   55.09    1.11   0
   2   3  10  705.87    2.79   0
   3   3  10  393.08    2.19   0
   4   3  10  515.72    2.80   0
   5   3  10  949.19    3.07   0
   6   3  10  141.01    1.43   0
   7   3  10  521.53    2.45   0
  -3   4  10  185.62    1.61   0
  -2   4  10    0.13    0.87   0
  -1   4  10   64.81    1.28   0
   0   4  10 2140.28    4.72   0
   1   4  10   -1.26    0.82   0
   2   4  10  754.13    2.83   0
   3   4  10    7.64    0.95   0
   4   4  10   36.28    1.18   0
   5   4  10   12.35    1.20   0
   6   4  10  219.69    1.64   0
   7   4  10   25.48    1.18   0
  -3   5  10   13.84    0.92   0
  -2   5  10   15.11    1.02   0
  -1   5  10    2.77    0.99   0
   0   5  10  358.30    2.19   0
   1   5  10    0.38    0.83   0
   2   5  10  328.77    2.06   0
   3   5  10   51.56    1.16   0
   4   5  10  268.46    2.13   0
   5   5  10  122.41    1.72   0
   6   5  10  223.47    1.66   0
   7   5  10   38.15    1.05   0
  -2   6  10  175.04    1.65   0
  -1   6  10  173.02    1.68   0
   0   6  10  763.35    3.01   0
   1   6  10    8.40    0.99   0
   2   6  10    1.52    0.82   0
   3   6  10  203.05    1.74   0
   4   6  10   87.42    1.33   0
   5   6  10  292.02    2.33   0
   6   6  10   47.29    1.58   0
   7   6  10  160.71    1.61   0
  -1   7  10    4.99    0.89   0
   0   7  10   13.00    1.01   0
   1   7  10    1.15    0.96   0
   2   7  10   78.91    1.28   0
   3   7  10   37.57    1.07   0
   4   7  10    5.09    1.01   0
   5   7  10   65.81    1.26   0
   6   7  10   22.55    1.15   0
   7   7  10   87.31    1.37   0
   0   8  10  308.05    2.09   0
   1   8  10    5.09    0.97   0
   2   8  10  125.58    1.36   0
   3   8  10   54.21    1.21   0
   4   8  10   82.80    1.44   0
   5   8  10  212.21    1.96   0
   6   8  10   67.21    1.46   0
   1   9  10    6.79    1.02   0
   2   9  10    5.54    0.88   0
   3   9  10  118.83    1.52   0
   4   9  10   70.20    1.45   0
   5   9  10   42.71    1.47   0
  -2  -8  11   48.10    1.38   0
  -1  -8  11    7.15    1.06   0
   0  -8  11    7.57    0.93   0
   1  -8  11   32.29    1.28   0
  -3  -7  11   23.31    0.95   0
  -2  -7  11  407.95    2.28   0
  -1  -7  11  312.08    2.26   0
   0  -7  11 1031.69    3.52   0
   1  -7  11  481.34    2.96   0
   2  -7  11    3.15    0.79   0
   3  -7  11   61.11    1.51   0
  -4  -6  11  184.25    1.75   0
  -3  -6  11   10.74    0.89   0
  -2  -6  11   76.20    1.25   0
  -1  -6  11    8.16    0.96   0
   0  -6  11  137.30    1.46   0
   1  -6  11    2.80    0.96   0
   2  -6  11   -0.07    0.90   0
   3  -6  11   32.19    1.18   0
   4  -6  11    6.41    1.06   0
  -4  -5  11    3.75    0.99   0
  -3  -5  11    1.90    0.84   0
  -2  -5  11  165.28    1.56   0
  -1  -5  11  263.32    1.83   0
   0  -5  11   66.29    1.21   0
   1  -5  11  354.46    2.31   0
   2  -5  11   99.46    1.53   0
   3  -5  11  141.04    1.72   0
   4  -5  11  136.49    1.88   0
  -4  -4  11  829.10    3.17   0
  -3  -4  11  108.02    1.43   0
  -2  -4  11  206.14    1.69   0
  -1  -4  11  199.94    1.75   0
   0  -4  11  257.11    1.89   0
   1  -4  11  530.50    2.59   0
   2  -4  11  139.09    1.69   0
   3  -4  11  136.57    1.77   0
   4  -4  11  292.99    2.51   0
   5  -4  11    0.97    0.94   0
  -4  -3  11   20.94    1.09   0
  -3  -3  11    4.62    0.94   0
  -2  -3  11   68.36    1.08   0
  -1  -3  11   42.40    1.12   0
   0  -3  11   17.81    1.03   0
   1  -3  11  107.72    1.76   0
   2  -3  11  113.98    1.54   0
   3  -3  11  105.46    1.72   0
   4  -3  11  331.69    2.58   0
   5  -3  11   40.45    1.45   0
  -4  -2  11   56.10    1.09   0
  -3  -2  11    1.97    0.88   0
  -2  -2  11   87.47    1.22   0
  -1  -2  11  546.75    2.79   0
   0  -2  11   64.40    1.21   0
   1  -2  11 1303.27    4.51   0
   2  -2  11  236.51    2.03   0
   3  -2  11  262.38    2.13   0
   4  -2  11  495.00    2.87   0
   5  -2  11   14.77    1.08   0
   6  -2  11   -0.63    1.05   0
  -4  -1  11   89.42    1.33   0
  -3  -1  11    3.78    0.82   0
  -2  -1  11  130.86    1.37   0
  -1  -1  11   15.53    0.88   0
   0  -1  11   59.76    1.22   0
   1  -1  11    8.61    1.15   0
   2  -1  11  302.57    2.16   0
   3  -1  11    3.31    0.94   0
   4  -1  11  263.21    2.19   0
   5  -1  11   12.65    1.04   0
   6  -1  11   10.09    1.09   0
  -4   0  11   37.48    1.13   0
  -3   0  11  402.10    2.18   0
  -2   0  11  416.17    2.11   0
  -1   0  11 1264.79    4.34   0
   0   0  11  129.69    1.49   0
   1   0  11  940.66    4.26   0
   2   0  11 1073.82    3.49   0
   3   0  11  303.44    2.09   0
   4   0  11  560.40    2.82   0
   5   0  11  104.42    1.34   0
   6   0  11  196.73    1.72   0
  -4   1  11   48.57    1.17   0
  -3   1  11    2.63    0.98   0
  -2   1  11  194.96    1.66   0
  -1   1  11   42.48    1.44   0
   0   1  11  403.04    2.24   0
   1   1  11   55.15    1.26   0
   2   1  11   -0.07    0.81   0
   3   1  11    2.66    0.86   0
   4   1  11  232.23    1.98   0
   5   1  11   68.95    1.26   0
   6   1  11   10.73    1.06   0
   7   1  11    9.16    1.13   0
  -3   2  11  363.31    2.19   0
  -2   2  11  374.43    2.08   0
  -1   2  11  968.18    3.35   0
   0   2  11    1.82    0.78   0
   1   2  11  560.14    2.82   0
   2   2  11   94.44    1.40   0
   3   2  11   59.44    1.17   0
   4   2  11   54.04    1.21   0
   5   2  11   42.41    1.13   0
   6   2  11  170.93    1.66   0
   7   2  11  285.31    2.10   0
  -3   3  11  330.02    2.11   0
  -2   3  11    1.64    0.89   0
  -1   3  11  496.87    2.84   0
   0   3  11  180.96    1.66   0
   1   3  11  177.60    1.69   0
   2   3  11  341.59    2.05   0
   3   3  11    6.74    1.05   0
   4   3  11 1189.24    3.99   0
   5   3  11    1.12    1.14   0
   6   3  11   52.25    1.05   0
   7   3  11   11.50    1.04   0
  -3   4  11   37.11    1.08   0
  -2   4  11  126.75    1.51   0
  -1   4  11  101.06    1.49   0
   0   4  11    4.27    0.95   0
   1   4  11    4.87    0.82   0
   2   4  11   29.97    1.08   0
   3   4  11    2.48    0.83   0
   4   4  11  154.41    1.73   0
   5   4  11   41.78    1.35   0
   6   4  11   53.31    1.09   0
   7   4  11  191.35    1.76   0
  -2   5  11    5.78    0.87   0
  -1   5  11  276.25    2.10   0
   0   5  11   13.11    1.08   0
   1   5  11  144.46    1.43   0
   2   5  11  827.09    3.02   0
   3   5  11    9.12    0.98   0
   4   5  11  111.10    1.54   0
   5   5  11  189.47    2.01   0
   6   5  11    1.74    0.81   0
   7   5  11  242.29    1.90   0
  -1   6  11   44.86    1.18   0
   0   6  11  163.05    1.51   0
   1   6  11   18.96    0.94   0
   2   6  11  317.77    2.01   0
   3   6  11    2.90    1.08   0
   4   6  11   69.84    1.22   0
   5   6  11   88.67    1.49   0
   6   6  11   47.90    1.55   0
  -1   7  11   96.04    1.50   0
   0   7  11  954.17    3.29   0
   1   7  11   71.32    1.48   0
   2   7  11 1221.11    3.66   0
   3   7  11    4.15    0.89   0
   4   7  11  323.12    2.22   0
   5   7  11   34.36    1.20   0
   6   7  11  235.87    2.47   0
   0   8  11   26.98    1.15   0
   1   8  11    4.66    0.88   0
   2   8  11    6.40    0.97   0
   3   8  11   13.43    0.94   0
   4   8  11    1.45    0.85   0
   5   8  11   34.65    1.27   0
   2   9  11  266.49    1.97   0
   3   9  11    3.99    0.87   0
   4   9  11  163.69    1.95   0
  -2  -7  12   38.14    1.14   0
  -1  -7  12   53.84    1.15   0
   0  -7  12  125.94    1.52   0
   1  -7  12   45.20    1.23   0
   2  -7  12    3.53    0.85   0
  -3  -6  12   18.40    0.89   0
  -2  -6  12  149.63    1.53   0
  -1  -6  12   11.44    0.95   0
   0  -6  12  204.35    1.76   0
   1  -6  12  204.21    2.17   0
   2  -6  12  263.78    2.05   0
   3  -6  12  399.17    2.63   0
  -3  -5  12   15.13    1.02   0
  -2  -5  12  886.23    3.20   0
  -1  -5  12   74.66    1.22   0
   0  -5  12  914.96    3.33   0
   1  -5  12   17.62    1.02   0
   2  -5  12   53.03    1.16   0
   3  -5  12   53.54    1.29   0
   4  -5  12  113.54    1.84   0
  -3  -4  12   14.48    0.93   0
  -2  -4  12  152.94    1.51   0
  -1  -4  12   12.45    0.86   0
   0  -4  12  748.49    2.96   0
   1  -4  12   54.54    1.30   0
   2  -4  12   92.29    1.37   0
   3  -4  12   51.22    1.15   0
   4  -4  12   25.67    1.10   0
  -4  -3  12  304.10    1.95   0
  -3  -3  12   59.28    1.12   0
  -2  -3  12  531.38    2.39   0
  -1  -3  12   15.16    0.89   0
   0  -3  12  134.79    1.40   0
   1  -3  12   61.30    1.62   0
   2  -3  12   82.42    1.35   0
   3  -3  12  397.66    2.49   0
   4  -3  12   49.62    1.41   0
   5  -3  12  105.41    2.06   0
  -4  -2  12   13.83    0.94   0
  -3  -2  12    1.25    0.86   0
  -2  -2  12    0.87    0.79   0
  -1  -2  12   -2.83    0.90   0
   0  -2  12    7.51    0.85   0
   1  -2  12   69.09    1.30   0
   2  -2  12   10.35    0.92   0
   3  -2  12  101.14    1.42   0
   4  -2  12   26.23    1.16   0
   5  -2  12   16.44    1.29   0
  -4  -1  12  640.54    2.69   0
  -3  -1  12   10.92    0.86   0
  -2  -1  12  223.76    1.64   0
  -1  -1  12   99.92    1.31   0
   0  -1  12   44.63    1.06   0
   1  -1  12  536.53    2.96   0
   2  -1  12  126.21    1.56   0
   3  -1  12  707.74    3.17   0
   4  -1  12  430.98    2.61   0
   5  -1  12  166.02    2.09   0
   6  -1  12  780.28    3.65   0
  -3   0  12   14.67    0.88   0
  -2   0  12   83.60    1.39   0
  -1   0  12   20.61    0.93   0
   0   0  12    5.71    0.82   0
   1   0  12    2.99    0.98   0
   2   0  12  288.20    2.02   0
   3   0  12   15.44    1.10   0
   4   0  12    1.56    0.79   0
   5   0  12    8.83    1.24   0
   6   0  12    0.62    0.79   0
  -3   1  12    9.51    0.87   0
  -2   1  12   67.24    1.12   0
  -1   1  12  356.83    2.09   0
   0   1  12   68.74    1.22   0
   1   1  12 1251.15    4.26   0
   2   1  12    2.52    0.95   0
   3   1  12 1065.39    3.50   0
   4   1  12  354.03    2.23   0
   5   1  12  184.74    2.37   0
   6   1  12  108.39    1.41   0
  -3   2  12   74.51    1.25   0
  -2   2  12  720.75    2.83   0
  -1   2  12  203.42    1.90   0
   0   2  12  109.00    1.31   0
   1   2  12  290.99    1.92   0
   2   2  12  152.49    1.50   0
   3   2  12  249.99    1.89   0
   4   2  12  144.26    1.53   0
   5   2  12   19.64    1.47   0
   6   2  12  138.06    1.52   0
  -2   3  12   82.60    1.36   0
  -1   3  12  140.40    1.62   0
   0   3  12  268.89    1.85   0
   1   3  12  336.40    2.60   0
   2   3  12   15.92    0.85   0
   3   3  12  166.57    1.61   0
   4   3  12   99.61    1.29   0
   5   3  12   26.81    1.26   0
   6   3  12  117.73    1.34   0
  -2   4  12   12.96    1.00   0
  -1   4  12  212.78    1.93   0
   0   4  12   71.79    1.24   0
   1   4  12  492.53    2.72   0
   2   4  12   66.44    1.13   0
   3   4  12  262.29    1.84   0
   4   4  12  105.73    1.50   0
   5   4  12    0.11    0.99   0
   6   4  12  164.20    1.61   0
  -1   5  12   13.55    0.97   0
   0   5  12    1.01    0.79   0
   1   5  12   24.03    1.09   0
   2   5  12   19.35    0.99   0
   3   5  12    0.46    0.85   0
   4   5  12  145.68    1.58   0
   5   5  12   -0.11    0.95   0
   6   5  12  159.93    1.48   0
  -1   6  12  197.28    1.82   0
   0   6  12  223.63    1.78   0
   1   6  12  179.24    1.82   0
   2   6  12   12.78    0.89   0
   3   6  12   99.33    1.33   0
   4   6  12  998.62    3.54   0
   5   6  12   -0.57    1.00   0
   6   6  12  331.05    2.04   0
   0   7  12  165.82    1.66   0
   1   7  12   60.57    1.28   0
   2   7  12   36.61    0.98   0
   3   7  12   23.60    0.90   0
   4   7  12   10.37    0.85   0
   5   7  12    0.80    0.87   0
   2   8  12  234.18    1.87   0
   3   8  12   69.35    1.25   0
   4   8  12  318.26    2.17   0
   0  -7  13  195.62    1.72   0
  -2  -6  13   15.45    1.05   0
  -1  -6  13   85.96    1.26   0
   0  -6  13  234.51    1.86   0
   1  -6  13   18.16    1.05   0
   2  -6  13  370.79    2.46   0
  -2  -5  13  260.34    1.79   0
  -1  -5  13    9.06    0.87   0
   0  -5  13  276.42    1.97   0
   1  -5  13    1.84    0.92   0
   2  -5  13  279.65    2.10   0
   3  -5  13   40.63    1.12   0
  -3  -4  13  136.61    1.59   0
  -2  -4  13  189.79    1.67   0
  -1  -4  13   15.17    0.92   0
   0  -4  13 1298.98    3.77   0
   1  -4  13   46.32    1.24   0
   2  -4  13  172.23    1.71   0
   3  -4  13   18.26    0.95   0
   4  -4  13   17.54    1.08   0
  -3  -3  13    2.02    0.79   0
  -2  -3  13    4.31    0.91   0
  -1  -3  13    2.30    0.84   0
   0  -3  13    1.05    0.99   0
   1  -3  13    2.49    0.91   0
   2  -3  13   38.61    1.24   0
   3  -3  13   76.67    1.31   0
   4  -3  13    5.99    0.98   0
  -3  -2  13  213.90    1.82   0
  -2  -2  13  894.48    3.06   0
  -1  -2  13    0.26    0.93   0
   0  -2  13 2593.70    5.23   0
   1  -2  13   10.07    0.89   0
   2  -2  13  329.62    2.24   0
   3  -2  13   47.31    1.21   0
   4  -2  13  221.18    2.11   0
   5  -2  13  208.27    2.86   0
  -3  -1  13    2.38    0.92   0
  -2  -1  13   63.46    1.21   0
  -1  -1  13   25.09    0.95   0
   0  -1  13   31.39    1.04   0
   1  -1  13   96.14    1.26   0
   2  -1  13   21.57    0.95   0
   3  -1  13   20.72    0.99   0
   4  -1  13   21.93    1.05   0
   5  -1  13    0.79    0.87   0
  -3   0  13  185.30    1.74   0
  -2   0  13  504.00    2.50   0
  -1   0  13   40.62    1.07   0
   0   0  13    5.77    0.92   0
   1   0  13   14.58    1.17   0
   2   0  13    9.52    0.83   0
   3   0  13  522.46    2.71   0
   4   0  13   32.57    1.14   0
   5   0  13  684.78    3.55   0
   6   0  13  119.21    1.59   0
  -2   1  13   96.24    1.38   0
  -1   1  13    7.05    0.89   0
   0   1  13  769.41    2.93   0
   1   1  13   55.69    1.26   0
   2   1  13  166.26    1.58   0
   3   1  13   17.01    1.07   0
   4   1  13    2.21    0.89   0
   5   1  13   30.00    1.21   0
   6   1  13   77.25    1.21   0
  -2   2  13  106.91    1.31   0
  -1   2  13   21.73    0.97   0
   0   2  13   17.81    0.89   0
   1   2  13   97.49    1.82   0
   2   2  13  181.58    1.67   0
   3   2  13  418.18    2.32   0
   4   2  13    2.39    0.89   0
   5   2  13  334.73    2.83   0
   6   2  13  191.76    1.63   0
  -2   3  13  223.73    1.86   0
  -1   3  13   18.93    1.12   0
   0   3  13  174.47    1.59   0
   1   3  13  158.96    1.94   0
   2   3  13  279.41    1.93   0
   3   3  13  370.96    2.12   0
   4   3  13   78.99    1.29   0
   5   3  13  357.65    2.88   0
   6   3  13   18.87    1.00   0
  -1   4  13   61.45    1.30   0
   0   4  13   48.83    1.19   0
   1   4  13  158.61    1.57   0
   2   4  13   81.56    1.41   0
   3   4  13  371.87    2.19   0
   4   4  13    1.59    0.93   0
   5   4  13  151.21    1.94   0
   6   4  13   20.00    1.12   0
   0   5  13  311.34    2.17   0
   1   5  13  297.25    2.15   0
   2   5  13   35.90    0.99   0
   3   5  13  293.19    2.00   0
   4   5  13   71.49    1.31   0
   5   5  13  137.24    1.86   0
   6   5  13  265.11    1.80   0
   0   6  13   22.51    1.10   0
   1   6  13    3.50    0.92   0
   2   6  13   71.72    1.17   0
   3   6  13    9.25    0.98   0
   4   6  13  101.71    1.39   0
   5   6  13   25.99    1.21   0
   2   7  13   54.37    1.23   0
   3   7  13  200.57    1.75   0
   4   7  13    9.66    0.90   0
  -1  -5  14   98.88    1.71   0
   0  -5  14   76.67    1.19   0
   1  -5  14   22.58    1.16   0
   2  -5  14  234.02    1.91   0
  -1  -4  14    8.37    1.01   0
   0  -4  14  153.05    1.52   0
   1  -4  14   -0.58    1.00   0
   2  -4  14   14.21    1.05   0
   3  -4  14    1.37    0.86   0
  -2  -3  14    0.29    0.89   0
  -1  -3  14  381.03    2.47   0
   0  -3  14  207.38    1.72   0
   1  -3  14   23.52    1.17   0
   2  -3  14 1247.34    3.91   0
   3  -3  14   24.25    1.13   0
   4  -3  14  373.01    2.85   0
  -2  -2  14    3.85    0.92   0
  -1  -2  14   29.81    1.18   0
   0  -2  14    5.20    0.84   0
   1  -2  14    3.35    0.78   0
   2  -2  14    4.99    0.89   0
   3  -2  14   27.82    1.03   0
   4  -2  14    2.09    0.95   0
  -2  -1  14    2.82    1.00   0
  -1  -1  14  375.86    2.19   0
   0  -1  14  712.39    2.83   0
   1  -1  14   56.57    1.18   0
   2  -1  14  314.38    2.10   0
   3  -1  14    1.78    0.82   0
   4  -1  14   19.12    1.05   0
   5  -1  14   55.69    1.72   0
  -2   0  14   12.52    1.12   0
  -1   0  14  203.98    1.83   0
   0   0  14   22.38    1.02   0
   1   0  14   26.43    1.03   0
   2   0  14   67.10    1.28   0
   3   0  14    5.37    1.04   0
   4   0  14   95.57    1.52   0
   5   0  14   -0.63    0.97   0
  -1   1  14   54.48    1.31   0
   0   1  14  658.91    2.88   0
   1   1  14    2.38    0.99   0
   2   1  14   54.16    1.25   0
   3   1  14    2.08    1.07   0
   4   1  14   27.79    0.99   0
   5   1  14   98.99    1.69   0
  -1   2  14   68.13    1.53   0
   0   2  14  159.29    1.51   0
   1   2  14   22.59    0.97   0
   2   2  14  335.61    2.04   0
   3   2  14  160.95    1.61   0
   4   2  14    1.90    0.92   0
   5   2  14  151.54    2.12   0
  -1   3  14    0.08    0.99   0
   0   3  14    5.17    0.86   0
   1   3  14   16.05    1.04   0
   2   3  14   24.00    1.15   0
   3   3  14   95.05    1.36   0
   4   3  14   24.06    1.06   0
   5   3  14  294.09    2.61   0
   0   4  14 1020.17    3.43   0
   1   4  14   75.48    1.25   0
   2   4  14  836.56    3.12   0
   3   4  14  170.77    1.65   0
   4   4  14   41.00    1.15   0
   5   4  14  165.77    2.09   0
   1   5  14   -1.97    1.00   0
   2   5  14    0.75    0.84   0
   3   5  14    1.61    0.83   0
   4   5  14    3.22    0.89   0
   5   5  14   14.47    1.06   0
   2   6  14   12.25    0.86   0
   3   6  14  282.43    1.99   0
   4   6  14    4.10    0.90   0
   0  -3  15    3.82    0.87   0
   1  -3  15   27.88    1.00   0
   2  -3  15    8.45    0.93   0
  -1  -2  15   67.65    1.29   0
   0  -2  15   99.72    1.34   0
   1  -2  15  254.17    2.12   0
   2  -2  15  251.92    1.90   0
   3  -2  15   10.21    0.95   0
  -1  -1  15   52.45    1.39   0
   0  -1  15    1.67    0.97   0
   1  -1  15   68.72    1.24   0
   2  -1  15   25.77    1.27   0
   3  -1  15   31.72    1.23   0
   4  -1  15    1.42    1.27   0
  -1   0  15  201.92    1.88   0
   0   0  15    2.68    0.93   0
   1   0  15  130.47    1.73   0
   2   0  15  768.07    3.08   0
   3   0  15    3.57    0.95   0
   4   0  15  581.10    3.10   0
   0   1  15  341.70    2.08   0
   1   1  15  136.04    1.70   0
   2   1  15  118.84    1.52   0
   3   1  15    2.44    0.96   0
   4   1  15  170.64    1.70   0
   0   2  15   39.96    1.06   0
   1   2  15   88.50    1.36   0
   2   2  15  148.06    1.62   0
   3   2  15    5.86    0.91   0
   4   2  15    1.31    1.02   0
   1   3  15  161.81    1.55   0
   2   3  15   66.67    1.21   0
   3   3  15    0.84    0.88   0
   4   3  15  483.68    2.59   0
   2   4  15    7.98    0.97   0
   3   4  15    0.18    0.94   0
;
_shelx_hkl_checksum              20234
_shelx_res_file
;
TITL
    licl_5h2o_new.res
    created by SHELXL-2016/6 at 07:46:43 on 16-Jan-2018
CELL  0.71073  6.2465  9.2318 11.6775 88.344 77.53000 70.771
ZERR 4  0.00230  0.00360  0.00450  0.03100  0.02900  0.02900
LATT 1
SFAC Li O  H  Cl
UNIT 4  20  40  4
OMIT 1 -8 2
OMIT -3 70
L.S. 12
ACTA
BOND
FMAP 2
PLAN 2
DANG 1.32 0.01 H1A H1B
DANG 1.32 0.01 H2A H2B
DANG 1.32 0.01 H3A H3B
DANG 1.32 0.01 H4A H4B
DANG 1.32 0.01 H5A H5B
DANG 1.32 0.01 H6A H6B
DANG 1.32 0.01 H7A H7B
DANG 1.32 0.01 H8A H8B
DANG 1.32 0.01 H9A H9B
DANG 1.32 0.01 H10A H10B
DFIX 0.82 0.01 O1 H1A O1 H1B
DFIX 0.82 0.01 O2 H2A O2 H2B
DFIX 0.82 0.01 O3 H3A O3 H3B
DFIX 0.82 0.01 O4 H4A O4 H4B
DFIX 0.82 0.01 O5 H5A O5 H5B
DFIX 0.82 0.01 O6 H6A O6 H6B
DFIX 0.82 0.01 O7 H7A O7 H7B
DFIX 0.82 0.01 O8 H8A O8 H8B
DFIX 0.82 0.01 O9 H9A O9 H9B
DFIX 0.82 0.01 O10 H10A O10 H10B
WGHT    0.090000    1.845000
FVAR       1.29699
MOLE 1
CL1   4    0.786907    0.798854    0.662754    11.00000    0.02149    0.01590 =
         0.01554    0.00204   -0.00316   -0.00405
CL2   4    0.805509    0.230078    0.113559    11.00000    0.02016    0.01654 =
         0.01650    0.00258   -0.00340   -0.00531
O10   2    0.280818    0.869831    0.606697    11.00000    0.03008    0.02056 =
         0.01578    0.00116   -0.00172   -0.00676
O9    2    0.721881    0.673449    0.930288    11.00000    0.02589    0.02181 =
         0.01521    0.00251   -0.00404   -0.00620
O6    2    0.681912    0.487469    0.622815    11.00000    0.01968    0.01851 =
         0.01862    0.00301   -0.00405   -0.00763
O2    2    0.311966    0.100675    0.847640    11.00000    0.01913    0.01544 =
         0.02490    0.00154   -0.00458   -0.00554
O4    2    0.605365    0.176215    0.636783    11.00000    0.01931    0.01312 =
         0.01173    0.00019   -0.00144   -0.00328
O3    2    0.231871    0.492182    0.623782    11.00000    0.01801    0.01770 =
         0.01782    0.00286   -0.00265   -0.00244
O5    2    0.416687    0.394092    0.837455    11.00000    0.01941    0.01419 =
         0.01205    0.00029   -0.00007   -0.00375
O1    2    0.097256    0.191517    0.625850    11.00000    0.01924    0.01532 =
         0.01367    0.00019   -0.00260   -0.00380
O8    2    0.926397    0.373459    0.839568    11.00000    0.01917    0.01574 =
         0.01350    0.00119   -0.00291   -0.00436
O7    2    0.766214    0.088238    0.865414    11.00000    0.02209    0.01732 =
         0.02286   -0.00254   -0.00754   -0.00146
LI1   1    0.258971    0.288559    0.728188    11.00000    0.02020    0.02284 =
         0.01923   -0.00196   -0.00238   -0.00658
LI2   1    0.759355    0.289606    0.731654    11.00000    0.01901    0.01991 =
         0.01824   -0.00354   -0.00169   -0.00470
H6B   3    0.700200    0.565850    0.642227    11.00000    0.02752
H3B   3    0.125331    0.571729    0.648178    11.00000    0.03060
H3A   3    0.246020    0.486122    0.552419    11.00000    0.08603
H2B   3    0.439243    0.086094    0.863184    11.00000    0.01345
H1A   3    0.097341    0.220233    0.558644    11.00000    0.05252
H4A   3    0.632201    0.176235    0.565125    11.00000    0.03968
H1B   3    0.143137    0.097444    0.621531    11.00000    0.06003
H7B   3    0.776273    0.124152    0.926913    11.00000    0.04191
H4B   3    0.638885    0.086634    0.655870    11.00000    0.04226
H2A   3    0.295449    0.016735    0.843975    11.00000    0.04388
H9A   3    0.615491    0.728006    0.900466    11.00000    0.04968
H9B   3    0.820056    0.717344    0.919079    11.00000    0.07883
H10A  3    0.185045    0.831315    0.643248    11.00000    0.04069
H10B  3    0.391975    0.840785    0.639102    11.00000    0.04654
H6A   3    0.543054    0.503805    0.629595    11.00000    0.02863
H7A   3    0.860538    0.001063    0.855487    11.00000    0.04291
H5A   3    0.374412    0.488131    0.839953    11.00000    0.04772
H8A   3    0.875991    0.464365    0.860677    11.00000    0.06899
H5B   3    0.393235    0.366826    0.905169    11.00000    0.05374
H8B   3    0.947884    0.322879    0.896948    11.00000    0.06616
HKLF 4
REM
REM R1 =  0.0585 for    3102 Fo > 4sig(Fo)  and  0.0605 for all    3283 data
REM    207 parameters refined using     30 restraints
END
WGHT      0.1177      0.6128
REM Highest difference peak  1.426,  deepest hole -0.484,  1-sigma level  0.150
Q1    1   0.6257  0.7990  0.6602  11.00000  0.05    1.43
Q2    1   0.9552  0.2300  0.1160  11.00000  0.05    1.39
;
_shelx_res_checksum              64019
loop_
_space_group_symop_operation_xyz
'x, y, z'
'-x, -y, -z'
loop_
_atom_site_type_symbol
_atom_site_label
_atom_site_fract_x
_atom_site_fract_y
_atom_site_fract_z
_atom_site_U_iso_or_equiv
_atom_site_adp_type
_atom_site_calc_flag
_atom_site_occupancy
Cl Cl1 0.78691(10) 0.79885(7) 0.66275(5) 0.01835(17) Uani d 1
Cl Cl2 0.80551(10) 0.23008(7) 0.11356(5) 0.01806(17) Uani d 1
O O10 0.2808(4) 0.8698(2) 0.60670(17) 0.0231(4) Uani d 1
O O9 0.7219(4) 0.6734(2) 0.93029(17) 0.0215(4) Uani d 1
O O6 0.6819(3) 0.4875(2) 0.62282(16) 0.0187(4) Uani d 1
O O2 0.3120(3) 0.1007(2) 0.84764(18) 0.0199(4) Uani d 1
O O4 0.6054(3) 0.1762(2) 0.63678(15) 0.0156(3) Uani d 1
O O3 0.2319(3) 0.4922(2) 0.62378(17) 0.0190(4) Uani d 1
O O5 0.4167(3) 0.3941(2) 0.83745(15) 0.0162(4) Uani d 1
O O1 0.0973(3) 0.1915(2) 0.62585(16) 0.0167(4) Uani d 1
O O8 0.9264(3) 0.3735(2) 0.83957(15) 0.0166(4) Uani d 1
O O7 0.7662(3) 0.0882(2) 0.86541(18) 0.0215(4) Uani d 1
Li Li1 0.2590(8) 0.2886(5) 0.7282(4) 0.0211(9) Uani d 1
Li Li2 0.7594(8) 0.2896(5) 0.7317(4) 0.0198(9) Uani d 1
H H6B 0.700(5) 0.566(2) 0.642(3) 0.028(10) Uiso d 1
H H3B 0.125(5) 0.572(3) 0.648(3) 0.031(10) Uiso d 1
H H3A 0.246(9) 0.486(5) 0.5524(11) 0.09(2) Uiso d 1
H H2B 0.439(3) 0.086(3) 0.863(3) 0.013(7) Uiso d 1
H H1A 0.097(9) 0.220(5) 0.5586(17) 0.053(14) Uiso d 1
H H4A 0.632(8) 0.176(4) 0.5651(9) 0.040(12) Uiso d 1
H H1B 0.143(9) 0.0974(12) 0.622(4) 0.060(16) Uiso d 1
H H7B 0.776(7) 0.124(4) 0.927(2) 0.042(12) Uiso d 1
H H4B 0.639(8) 0.0866(18) 0.656(3) 0.042(12) Uiso d 1
H H2A 0.295(6) 0.017(2) 0.844(4) 0.044(12) Uiso d 1
H H9A 0.615(5) 0.728(4) 0.900(4) 0.050(14) Uiso d 1
H H9B 0.820(6) 0.717(5) 0.919(5) 0.08(2) Uiso d 1
H H10A 0.185(5) 0.831(5) 0.643(3) 0.041(12) Uiso d 1
H H10B 0.392(5) 0.841(5) 0.639(3) 0.047(13) Uiso d 1
H H6A 0.543(2) 0.504(4) 0.630(4) 0.029(10) Uiso d 1
H H7A 0.861(6) 0.001(2) 0.855(3) 0.043(12) Uiso d 1
H H5A 0.374(8) 0.4881(12) 0.840(4) 0.048(13) Uiso d 1
H H8A 0.876(9) 0.4644(16) 0.861(4) 0.069(17) Uiso d 1
H H5B 0.393(9) 0.367(4) 0.9052(16) 0.054(14) Uiso d 1
H H8B 0.948(10) 0.323(4) 0.897(3) 0.066(17) Uiso d 1
loop_
_atom_site_aniso_label
_atom_site_aniso_U_11
_atom_site_aniso_U_22
_atom_site_aniso_U_33
_atom_site_aniso_U_12
_atom_site_aniso_U_13
_atom_site_aniso_U_23
Cl1 0.0215(3) 0.0159(3) 0.0155(3) -0.0040(2) -0.0032(2) 0.0020(2)
Cl2 0.0202(3) 0.0165(3) 0.0165(3) -0.0053(2) -0.0034(2) 0.0026(2)
O10 0.0301(10) 0.0206(9) 0.0158(8) -0.0068(8) -0.0017(7) 0.0012(7)
O9 0.0259(10) 0.0218(9) 0.0152(8) -0.0062(8) -0.0040(7) 0.0025(7)
O6 0.0197(9) 0.0185(9) 0.0186(9) -0.0076(7) -0.0040(7) 0.0030(7)
O2 0.0191(9) 0.0154(8) 0.0249(9) -0.0055(7) -0.0046(7) 0.0015(7)
O4 0.0193(8) 0.0131(8) 0.0117(8) -0.0033(6) -0.0014(6) 0.0002(6)
O3 0.0180(8) 0.0177(9) 0.0178(9) -0.0024(7) -0.0027(7) 0.0029(7)
O5 0.0194(8) 0.0142(8) 0.0120(8) -0.0037(6) -0.0001(6) 0.0003(6)
O1 0.0192(8) 0.0153(8) 0.0137(8) -0.0038(6) -0.0026(6) 0.0002(6)
O8 0.0192(8) 0.0157(8) 0.0135(8) -0.0044(7) -0.0029(6) 0.0012(6)
O7 0.0221(9) 0.0173(9) 0.0229(9) -0.0015(7) -0.0075(7) -0.0025(7)
Li1 0.020(2) 0.023(2) 0.019(2) -0.0066(17) -0.0024(16) -0.0020(17)
Li2 0.019(2) 0.020(2) 0.018(2) -0.0047(16) -0.0017(16) -0.0035(16)
loop_
_atom_type_symbol
_atom_type_description
_atom_type_scat_dispersion_real
_atom_type_scat_dispersion_imag
_atom_type_scat_source
Li Li -0.0003 0.0001 'International Tables Vol C Tables 4.2.6.8 and 6.1.1.4'
O O 0.0106 0.0060 'International Tables Vol C Tables 4.2.6.8 and 6.1.1.4'
H H 0.0000 0.0000 'International Tables Vol C Tables 4.2.6.8 and 6.1.1.4'
Cl Cl 0.1484 0.1585 'International Tables Vol C Tables 4.2.6.8 and 6.1.1.4'
loop_
_geom_angle_atom_site_label_1
_geom_angle_atom_site_label_2
_geom_angle_atom_site_label_3
_geom_angle_site_symmetry_1
_geom_angle_site_symmetry_3
_geom_angle
Li2 O4 Li1 . . 95.93(19)
Li2 O5 Li1 . . 92.72(19)
Li1 O1 Li2 . 1_455 94.87(19)
Li2 O8 Li1 . 1_655 95.13(19)
O1 Li1 O8 . 1_455 85.01(19)
O1 Li1 O4 . . 96.9(2)
O8 Li1 O4 1_455 . 170.7(3)
O1 Li1 O2 . . 94.2(2)
O8 Li1 O2 1_455 . 84.09(19)
O4 Li1 O2 . . 86.72(19)
O1 Li1 O5 . . 178.2(3)
O8 Li1 O5 1_455 . 93.30(19)
O4 Li1 O5 . . 84.83(18)
O2 Li1 O5 . . 86.12(19)
O1 Li1 O3 . . 94.4(2)
O8 Li1 O3 1_455 . 96.8(2)
O4 Li1 O3 . . 92.09(19)
O2 Li1 O3 . . 171.4(3)
O5 Li1 O3 . . 85.29(18)
O1 Li1 Li2 . 1_455 42.72(13)
O8 Li1 Li2 1_455 1_455 42.41(13)
O4 Li1 Li2 . 1_455 139.4(2)
O2 Li1 Li2 . 1_455 91.25(19)
O5 Li1 Li2 . 1_455 135.6(2)
O3 Li1 Li2 . 1_455 95.17(19)
O1 Li1 Li2 . . 138.6(2)
O8 Li1 Li2 1_455 . 136.2(2)
O4 Li1 Li2 . . 41.90(13)
O2 Li1 Li2 . . 88.05(18)
O5 Li1 Li2 . . 43.09(13)
O3 Li1 Li2 . . 85.39(18)
Li2 Li1 Li2 1_455 . 178.5(2)
O8 Li2 O4 . . 171.7(3)
O8 Li2 O1 . 1_655 84.76(18)
O4 Li2 O1 . 1_655 94.32(19)
O8 Li2 O5 . . 94.89(19)
O4 Li2 O5 . . 86.20(18)
O1 Li2 O5 1_655 . 178.7(3)
O8 Li2 O6 . . 97.1(2)
O4 Li2 O6 . . 91.14(19)
O1 Li2 O6 1_655 . 92.15(19)
O5 Li2 O6 . . 86.64(18)
O8 Li2 O7 . . 86.84(18)
O4 Li2 O7 . . 85.14(18)
O1 Li2 O7 1_655 . 98.36(19)
O5 Li2 O7 . . 82.88(17)
O6 Li2 O7 . . 169.1(2)
O8 Li2 Li1 . 1_655 42.46(13)
O4 Li2 Li1 . 1_655 136.6(2)
O1 Li2 Li1 1_655 1_655 42.42(13)
O5 Li2 Li1 . 1_655 137.1(2)
O6 Li2 Li1 . 1_655 93.82(19)
O7 Li2 Li1 . 1_655 95.94(18)
O8 Li2 Li1 . . 138.9(2)
O4 Li2 Li1 . . 42.17(13)
O1 Li2 Li1 1_655 . 136.2(2)
O5 Li2 Li1 . . 44.19(13)
O6 Li2 Li1 . . 85.57(18)
O7 Li2 Li1 . . 84.78(17)
Li1 Li2 Li1 1_655 . 178.5(2)
loop_
_geom_bond_atom_site_label_1
_geom_bond_atom_site_label_2
_geom_bond_site_symmetry_2
_geom_bond_distance
O6 Li2 . 2.176(5)
O2 Li1 . 2.178(5)
O4 Li2 . 2.107(5)
O4 Li1 . 2.118(5)
O3 Li1 . 2.190(5)
O5 Li2 . 2.146(5)
O5 Li1 . 2.190(5)
O1 Li1 . 2.105(5)
O1 Li2 1_455 2.117(5)
O8 Li2 . 2.105(5)
O8 Li1 1_655 2.107(5)
O7 Li2 . 2.389(5)
Li1 Li2 1_455 3.109(7)
Li1 Li2 . 3.138(7)
loop_
_geom_hbond_atom_site_label_D
_geom_hbond_atom_site_label_H
_geom_hbond_atom_site_label_A
_geom_hbond_site_symmetry_A
_geom_hbond_distance_DH
_geom_hbond_distance_HA
_geom_hbond_distance_DA
_geom_hbond_angle_DHA
O8 H8B Cl2 1_556 0.815(10) 2.71(3) 3.454(2) 153(5)
O5 H5B O9 2_667 0.820(10) 1.971(14) 2.782(3) 170(5)
O8 H8A O9 . 0.818(10) 1.960(14) 2.771(3) 171(5)
O5 H5A Cl2 2_666 0.819(10) 2.494(14) 3.300(2) 168(4)
O7 H7A Cl2 2_756 0.820(10) 2.527(18) 3.304(2) 159(3)
O6 H6A O3 . 0.816(10) 1.997(11) 2.795(3) 165(3)
O10 H10B Cl1 . 0.826(10) 2.444(16) 3.218(3) 157(3)
O10 H10A Cl1 1_455 0.829(10) 2.56(2) 3.288(3) 147(3)
O9 H9B Cl2 2_766 0.827(10) 2.491(16) 3.290(2) 163(4)
O9 H9A Cl2 2_666 0.828(10) 2.57(3) 3.268(3) 143(4)
O2 H2A Cl2 2_656 0.818(10) 2.565(16) 3.364(2) 166(5)
O4 H4B Cl1 1_545 0.820(10) 2.514(14) 3.317(2) 166(3)
O7 H7B Cl2 1_556 0.823(10) 2.480(10) 3.303(2) 179(4)
O1 H1B O10 1_545 0.819(10) 1.988(11) 2.805(3) 175(5)
O4 H4A O10 2_666 0.817(10) 1.982(13) 2.787(3) 168(4)
O1 H1A Cl1 2_666 0.821(10) 2.52(2) 3.296(2) 157(4)
O2 H2B O7 . 0.821(10) 2.055(13) 2.854(3) 164(3)
O3 H3A O6 2_666 0.820(10) 2.024(19) 2.825(3) 166(6)
O3 H3B Cl1 1_455 0.820(10) 2.417(16) 3.208(2) 163(3)
O6 H6B Cl1 . 0.814(10) 2.415(12) 3.219(2) 170(4)
