#------------------------------------------------------------------------------
#$Date: 2017-07-22 08:20:02 +0300 (Sat, 22 Jul 2017) $
#$Revision: 198914 $
#$URL: file:///home/coder/svn-repositories/cod/cif/2/02/07/2020759.cif $
#------------------------------------------------------------------------------
#
# This file is available in the Crystallography Open Database (COD),
# http://www.crystallography.net/. The original data for this entry
# were provided by IUCr Journals, http://journals.iucr.org/.
#
# The file may be used within the scientific community so long as
# proper attribution is given to the journal article from which the
# data were obtained.
#
data_2020759
loop_
_publ_author_name
'Wong, Lawrence W.-Y.'
'Kan, Jack W.-H.'
'Sung, Herman H.-Y.'
'Williams, Ian D.'
_publ_section_title
;
 Chiral bis(mandelato)borate salts for resolution <i>via</i> metathesis
 crystallization
;
_journal_coeditor_code           FM3050
_journal_issue                   8
_journal_name_full               'Acta Crystallographica Section C'
_journal_page_first
;
;
_journal_paper_doi               10.1107/S2053229617009718
_journal_volume                  73
_journal_year                    2017
_chemical_formula_iupac          'N H4 +, C16 H12 B O6 -'
_chemical_formula_moiety         'H4 N +, C16 H12 B O6 -'
_chemical_formula_sum            'C16 H16 B N O6'
_chemical_formula_weight         329.11
_chemical_name_systematic
;
Ammonium bis[(<i>R</i>)-mandelato]borate
;
_space_group_crystal_system      monoclinic
_space_group_IT_number           4
_space_group_name_Hall           'P 2yb'
_space_group_name_H-M_alt        'P 1 21 1'
_symmetry_space_group_name_Hall  'P 2yb'
_symmetry_space_group_name_H-M   'P 1 21 1'
_atom_sites_solution_hydrogens   mixed
_atom_sites_solution_primary     direct
_audit_creation_method
;
Olex2 1.2
(compiled 2017.03.28 svn.r3405 for OlexSys, GUI svn.r5337)
;
_cell_angle_alpha                90
_cell_angle_beta                 92.8753(19)
_cell_angle_gamma                90
_cell_formula_units_Z            2
_cell_length_a                   7.49015(16)
_cell_length_b                   8.24219(13)
_cell_length_c                   13.2750(3)
_cell_measurement_reflns_used    2730
_cell_measurement_temperature    173.00(10)
_cell_measurement_theta_max      75.3210
_cell_measurement_theta_min      5.9280
_cell_volume                     818.50(3)
_computing_cell_refinement
;
CrysAlis PRO (Rigaku OD, 2015)
;
_computing_data_collection
;
CrysAlis PRO (Rigaku OD, 2015)
;
_computing_data_reduction
;
CrysAlis PRO (Rigaku OD, 2015)
;
_computing_molecular_graphics
;
OLEX2 (Dolomanov <i>et al.</i>,  2009)
;
_computing_publication_material
;
OLEX2 (Dolomanov <i>et al.</i>,  2009)
;
_computing_structure_refinement
;
SHELXL2014 (Sheldrick, 2015)
;
_computing_structure_solution
;
SHELXS97 (Sheldrick, 2008)
;
_diffrn_ambient_temperature      173.00(10)
_diffrn_detector_area_resol_mean 10.3577
_diffrn_measured_fraction_theta_full 0.995
_diffrn_measured_fraction_theta_max 0.965
_diffrn_measurement_device       'kappa diffractometer'
_diffrn_measurement_device_type
'Rigaku SuperNova Dual Source diffractometer with an Atlas detector'
_diffrn_measurement_method       '\w scans'
_diffrn_radiation_monochromator  mirror
_diffrn_radiation_type           CuK\a
_diffrn_radiation_wavelength     1.54178
_diffrn_reflns_av_R_equivalents  0.0168
_diffrn_reflns_limit_h_max       9
_diffrn_reflns_limit_h_min       -6
_diffrn_reflns_limit_k_max       9
_diffrn_reflns_limit_k_min       -10
_diffrn_reflns_limit_l_max       15
_diffrn_reflns_limit_l_min       -16
_diffrn_reflns_number            4618
_diffrn_reflns_theta_full        67.500
_diffrn_reflns_theta_max         75.448
_diffrn_reflns_theta_min         3.333
_exptl_absorpt_coefficient_mu    0.852
_exptl_absorpt_correction_T_max  1.00000
_exptl_absorpt_correction_T_min  0.92344
_exptl_absorpt_correction_type   multi-scan
_exptl_absorpt_process_details
;
(CrysAlis PRO; Rigaku OD, 2015)
;
_exptl_crystal_colour            colourless
_exptl_crystal_density_diffrn    1.335
_exptl_crystal_density_method    'not measured'
_exptl_crystal_description       needle
_exptl_crystal_F_000             344
_exptl_crystal_size_max          0.15
_exptl_crystal_size_mid          0.05
_exptl_crystal_size_min          0.02
_refine_diff_density_max         0.138
_refine_diff_density_min         -0.142
_refine_ls_abs_structure_details
;
Flack <i>x</i> determined using 1334 quotients [(I+)-(I-)]/[(I+)+(I-)]
(Parsons <i>et al.</i>,  2013)
;
_refine_ls_abs_structure_Flack   -0.12(8)
_refine_ls_extinction_method     none
_refine_ls_goodness_of_fit_ref   1.041
_refine_ls_hydrogen_treatment    mixed
_refine_ls_matrix_type           full
_refine_ls_number_parameters     233
_refine_ls_number_reflns         3190
_refine_ls_number_restraints     1
_refine_ls_restrained_S_all      1.041
_refine_ls_R_factor_all          0.0277
_refine_ls_R_factor_gt           0.0262
_refine_ls_shift/su_max          0.000
_refine_ls_shift/su_mean         0.000
_refine_ls_structure_factor_coef Fsqd
_refine_ls_weighting_details
'w=1/[\s^2^(Fo^2^)+(0.0320P)^2^+0.0440P] where P=(Fo^2^+2Fc^2^)/3'
_refine_ls_weighting_scheme      calc
_refine_ls_wR_factor_gt          0.0644
_refine_ls_wR_factor_ref         0.0654
_reflns_number_gt                3075
_reflns_number_total             3190
_reflns_threshold_expression     'I > 2\s(I)'
_cod_data_source_file            fm3050sup1.cif
_cod_data_source_block           jack336a
_cod_database_code               2020759
_shelx_space_group_comment
;
The symmetry employed for this shelxl refinement is uniquely defined
by the following loop, which should always be used as a source of
symmetry information in preference to the above space-group names.
They are only intended as comments.
;
_shelx_hkl_file
;
   0 -10  -2 749.409 60.9692   9
   0 -10  -3 466.799 46.9199   9
   0  -9   0 46.8655 74.1314   1
   0  -9   1 661.070 104.384   1
   0  -9   2 971.165 111.307   1
   0  -9   3 5808.32 234.489   1
   0  -9   4 504.441 85.4972   1
   0  -9   5 1896.00 127.626   1
   0  -9  -5 1905.96 99.8002   9
   0  -9  -6 3379.41 129.171   6
   0  -9   6 3338.38 152.973   1
   0  -9   7 2719.67 118.825   1
   0  -9  -7 2534.62 98.8548   6
   0  -8   0 14423.0 442.269   1
   0  -8   1 1032.96 134.146   1
   0  -8  -1 995.451 132.742   1
   0  -8   2 3261.95 212.796   1
   0  -8  -2 3273.16 207.484   1
   0  -8   3 22253.1 560.046   1
   0  -8   4 11951.4 390.359   1
   0  -8   5 748.326 112.112   1
   0  -8  -6 1073.75 87.2424   9
   0  -8   6 1180.50 127.092   1
   0  -8   7 1550.87 132.208   1
   0  -8  -8 390.253 61.9195   6
   0  -8   8 362.612 71.8440   1
   0  -8   9 82.3734 51.4765   1
   0  -8  -9 32.3217 41.6990   6
   0  -7   0 3.40173 79.2467   1
   0  -7   1 13058.0 426.740   1
   0  -7  -1 13157.0 423.591   1
   0  -7  -2 4308.05 239.204   1
   0  -7   2 3974.84 235.109   1
   0  -7   3 9602.71 359.757   1
   0  -7  -3 10023.8 362.781   1
   0  -7   4 757.283 118.518   1
   0  -7   5 27611.4 640.196   1
   0  -7   6 8168.93 322.339   1
   0  -7   7 6264.16 276.098   1
   0  -7   8 2472.09 173.848   1
   0  -7  -8 2480.58 150.219   6
   0  -7   9 3925.40 195.265   1
   0  -7  -9 4093.44 174.850   6
   0  -7  10 2830.90 151.572   1
   0  -7 -10 2767.68 131.813   6
   0  -7 -11 2700.22 112.175   6
   0  -7  11 2505.75 116.386   1
   0  -6   0 28156.3 1202.47   3
   0  -6   1 11041.0 741.630   3
   0  -6   2 3598.30 207.911   1
   0  -6   2 3419.41 191.292   5
   0  -6   2 3712.58 435.477   3
   0  -6  -2 3488.12 206.646   1
   0  -6   3 31926.2 675.294   1
   0  -6   3 32004.3 634.708   5
   0  -6  -3 32539.3 682.442   1
   0  -6   3 34074.4 1289.73   3
   0  -6  -4 31191.6 664.949   1
   0  -6   4 29644.3 651.379   1
   0  -6   4 30262.8 610.972   5
   0  -6   5 5509.73 263.945   1
   0  -6   5 5934.65 245.101   5
   0  -6   6 10930.5 331.122   5
   0  -6   6 11230.0 376.057   1
   0  -6   7 328.068 99.6378   1
   0  -6   8 2662.45 189.637   1
   0  -6  -9 6273.56 241.318   6
   0  -6   9 6433.94 273.121   1
   0  -6  10 5223.74 231.500   1
   0  -6 -10 5297.01 211.530   6
   0  -6  11 1355.12 112.740   1
   0  -6 -11 1265.71 103.845   6
   0  -6  12 1324.07 92.4264   1
   0  -6 -12 1306.13 89.6408   6
   0  -5   0 59.0715 127.153   3
   0  -5  -1 2481.83 325.498   3
   0  -5   1 2518.64 316.564   3
   0  -5   2 11517.2 669.700   3
   0  -5   3 22791.5 966.596   3
   0  -5  -3 22131.0 1072.50  11
   0  -5  -4 13973.7 878.003  11
   0  -5   4 14835.3 772.317   3
   0  -5  -5 10943.7 809.730  11
   0  -5  -6 1105.88 320.878  11
   0  -5   6 1574.21 137.566   1
   0  -5   7 2505.66 176.125   1
   0  -5  -7 1784.65 388.404  11
   0  -5   8 28144.6 619.465   1
   0  -5   9 3389.96 204.876   1
   0  -5  -9 3422.56 185.995   6
   0  -5  10 7470.39 290.155   1
   0  -5 -10 6938.49 258.537   6
   0  -5  11 14210.0 390.460   1
   0  -5 -11 13349.6 355.229   6
   0  -5  12 2598.67 151.814   1
   0  -5 -12 2796.62 147.726   6
   0  -5 -13 1318.63 92.3191   6
   0  -4   0 160097. 2669.29   3
   0  -4   1 65715.4 1505.24   3
   0  -4  -1 61825.6 1542.99  11
   0  -4  -1 61658.4 1478.51   3
   0  -4   2 2578.47 284.507   3
   0  -4  -2 2919.60 351.777  11
   0  -4  -2 2606.73 295.332   3
   0  -4  -3 44609.3 1379.21  11
   0  -4   3 44654.2 1214.09   3
   0  -4   4 28535.1 958.853   3
   0  -4  -4 27418.0 1105.59  11
   0  -4   5 14073.2 676.045   3
   0  -4  -5 14121.9 823.894  11
   0  -4  -6 24022.3 1139.29  11
   0  -4  -7 3075.84 456.263  11
   0  -4  -8 22581.2 1206.27  11
   0  -4  -8 23270.9 497.504   6
   0  -4   8 23415.7 539.325   1
   0  -4   9 12733.5 387.195   1
   0  -4  -9 12602.8 355.904   6
   0  -4  -9 12307.1 919.476  11
   0  -4  10 3583.45 207.840   1
   0  -4 -10 4387.83 209.382   6
   0  -4  11 2267.59 163.524   1
   0  -4 -11 2056.76 148.268   6
   0  -4  12 496.888 87.1223   1
   0  -4 -12 496.131 88.6421   6
   0  -4  13 980.804 97.3683   1
   0  -4 -13 985.941 97.4894   6
   0  -4 -14 2157.08 114.951   6
   0  -3   0-54.0813 100.670  11
   0  -3   0 32.2077 95.6601   3
   0  -3  -1 26642.5 819.915  11
   0  -3   1 26660.0 766.244   3
   0  -3  -1 24319.6 753.672   3
   0  -3   2 24811.7 741.092   3
   0  -3  -2 25017.6 832.864  11
   0  -3  -2 24072.5 776.046   3
   0  -3  -3 1856.76 255.771  11
   0  -3   3 1856.18 212.389   3
   0  -3   4 21827.0 727.971   3
   0  -3  -4 20998.0 849.064  11
   0  -3   5 55639.0 1263.85   3
   0  -3  -5 55653.5 1509.99  11
   0  -3  -6 15090.0 803.917  11
   0  -3   6 15206.1 647.878   3
   0  -3   6 15852.1 622.447  10
   0  -3  -7 1116.08 238.140  11
   0  -3  -8 26314.3 1184.10  11
   0  -3  -9 11906.7 336.185   6
   0  -3   9 12154.0 370.071   1
   0  -3  -9 12250.7 840.892  11
   0  -3  10 6428.03 273.832   1
   0  -3 -10 6181.00 247.326   6
   0  -3 -11 12094.9 360.775   6
   0  -3  11 13129.6 391.548   1
   0  -3  12 2809.28 175.893   1
   0  -3 -12 3005.07 179.401   6
   0  -3 -13 6152.95 236.695   6
   0  -3  13 6337.79 239.944   1
   0  -3 -14 1142.32 98.8822   6
   0  -3 -15 505.153 60.5955   6
   0  -2   0 715669. 7951.00   3
   0  -2   0 713948. 7989.60  11
   0  -2  -1 114921. 1753.17  11
   0  -2   1 111958. 1646.04   3
   0  -2   2 214821. 2792.39   3
   0  -2  -2 222130. 2972.20  11
   0  -2  -3 46408.0 1068.30  11
   0  -2   3 44426.7 912.534   3
   0  -2  -4 119679. 2074.36  11
   0  -2   4 120114. 1850.89   3
   0  -2  -5 34315.3 1029.44  11
   0  -2   5 33328.9 869.357   3
   0  -2  -6 57629.1 1463.97  11
   0  -2   6 56500.9 1237.22  10
   0  -2   6 56738.3 1256.79   3
   0  -2   7 5308.02 376.745   3
   0  -2  -7 5087.22 438.510  11
   0  -2   7 5504.40 387.067  10
   0  -2   8 1052.55 208.819  10
   0  -2  -8 1009.88 211.394  11
   0  -2  -9 25584.0 1113.48  11
   0  -2 -10 2353.28 156.472   6
   0  -2  10 2716.48 176.778   1
   0  -2  11 5223.17 244.460   1
   0  -2 -11 5014.17 228.113   6
   0  -2  12 6486.86 266.496   1
   0  -2 -12 5871.23 251.218   6
   0  -2  13 7085.69 263.947   1
   0  -2 -13 6833.49 260.515   6
   0  -2 -14 1549.03 120.046   6
   0  -2 -15 2821.19 134.694   6
   0  -1   0 43.2326 43.1750  11
   0  -1   1 13543.8 317.878   3
   0  -1  -1 14424.9 375.182  11
   0  -1  -2 18017.7 474.085  11
   0  -1   2 17364.9 397.923   3
   0  -1  -3 51281.5 999.123  11
   0  -1   3 55103.3 912.282  10
   0  -1   4 291.027 94.2650  10
   0  -1  -4 459.933 134.125  11
   0  -1   5 45824.9 993.031  10
   0  -1  -5 46523.5 1073.87  11
   0  -1  -6 7341.29 438.584  11
   0  -1   6 8276.53 436.056  10
   0  -1  -7 21689.5 810.545  11
   0  -1   7 21241.8 793.254  10
   0  -1   8 43841.9 1281.38  10
   0  -1  -8 44247.2 1285.15  11
   0  -1   9 1991.59 307.331  10
   0  -1  10 3862.36 206.830   1
   0  -1 -10 3871.97 196.163   6
   0  -1  11 12559.9 381.974   1
   0  -1 -11 12951.8 374.814   6
   0  -1 -12 22826.8 528.317   6
   0  -1  12 23000.6 537.085   1
   0  -1 -13 3605.11 200.540   6
   0  -1  13 3650.67 197.624   1
   0  -1 -14 560.672 91.7320   6
   0  -1 -15 283.532 66.2697   6
   0  -1 -16 2029.38 95.8643   6
   0   0   1 209946. 2321.20  10
   0   0   2 601.303 80.6925  10
   0   0  -2 569.891 72.0281  11
   0   0  -3 42278.8 751.425  11
   0   0   3 42392.6 794.198  10
   0   0   4 1155.18 158.595  10
   0   0  -4 1129.96 134.569  11
   0   0  -5 128.017 90.5617  11
   0   0   5 55.5418 93.6038  10
   0   0   6 36407.6 1010.27  10
   0   0  -6 36617.1 914.500  11
   0   0  -7 4318.60 327.119  11
   0   0   7 3937.00 359.662  10
   0   0   8 40535.7 1286.43  10
   0   0  -8 39864.0 1104.76  11
   0   0   9 33045.1 1257.07  10
   0   0  10 2150.20 152.876   7
   0   0  10 2589.52 399.515  10
   0   0 -10 2102.35 151.553   6
   0   0 -11 3913.39 208.034   6
   0   0 -12 315.200 85.1493   6
   0   0  12 241.242 68.2443   1
   0   0 -13 83.1089 71.8521   6
   0   0  13 29.6389 72.0244   1
   0   0 -14 6813.58 259.841   6
   0   0 -15 1362.83 108.899   6
   0   0 -16 1276.61 83.3104   6
   0   1   0-4.22387 37.4831   2
   0   1   1 13338.7 359.872  10
   0   1  -1 13775.0 295.499   2
   0   1   2 17842.2 482.049  10
   0   1  -2 17636.2 392.316   2
   0   1   3 51209.1 1007.10  10
   0   1  -4 464.779 95.9986  11
   0   1   4 376.519 123.890  10
   0   1   5 46737.5 1142.21  10
   0   1  -5 44828.5 910.257  11
   0   1   6 7843.61 488.638  10
   0   1  -6 7903.90 369.796  11
   0   1   7 21335.9 894.342  10
   0   1  -7 21163.9 673.136  11
   0   1   8 45797.9 1462.12  10
   0   1   9 1544.37 297.980  10
   0   1  10 3650.85 196.880   7
   0   1 -10 3437.77 193.565   6
   0   1  11 12890.9 391.553   7
   0   1 -11 13096.5 395.298   6
   0   1  11 12769.2 920.039  10
   0   1 -12 22583.6 543.833   6
   0   1 -13 3593.93 209.206   6
   0   1  13 3638.48 193.659   1
   0   1 -14 476.300 92.2802   6
   0   1 -15 370.129 75.5686   6
   0   1 -16 2031.64 100.339   6
   0   2   0 707915. 7791.78   2
   0   2  -1 114565. 1562.54   2
   0   2   1 111808. 1705.59  10
   0   2  -2 218284. 2687.56   2
   0   2   2 218992. 2952.82  10
   0   2  -3 44734.2 853.914   2
   0   2   3 44184.0 1058.75  10
   0   2   4 127459. 2194.75  10
   0   2   5 34468.1 1061.47  10
   0   2  -6 58264.8 1144.96  11
   0   2   6 59320.2 1562.87  10
   0   2   7 7028.83 559.739  10
   0   2   8 729.822 235.863  10
   0   2   9 25669.5 1235.07  10
   0   2  10 2684.06 469.419  10
   0   2  10 2457.47 163.969   7
   0   2 -10 2612.99 183.429   6
   0   2 -11 4602.98 241.391   6
   0   2  11 5124.99 237.495   7
   0   2  12 5886.06 257.155   7
   0   2 -12 5943.99 271.216   6
   0   2 -13 7258.85 293.525   6
   0   2 -14 1380.41 127.583   6
   0   2 -15 3016.02 150.961   6
   0   3   0 13.6837 92.7113   2
   0   3   1 25298.4 739.892   2
   0   3  -1 25694.6 672.757   2
   0   3   2 24705.4 806.149  10
   0   3  -2 25655.0 664.449   2
   0   3  -3 1882.29 180.174   2
   0   3   3 2056.66 265.473  10
   0   3   4 20833.0 847.874  10
   0   3   5 52583.0 1494.76  10
   0   3   6 15250.2 828.839  10
   0   3   7 998.383 271.303  10
   0   3   8 27908.8 1289.48  10
   0   3  -9 11705.1 374.471   6
   0   3   9 12113.6 344.738   7
   0   3  10 6130.77 252.405   7
   0   3 -10 6320.63 280.974   6
   0   3  10 6317.42 700.215  10
   0   3  11 11985.6 365.968   7
   0   3 -11 13041.7 410.905   6
   0   3  12 2387.50 162.700   7
   0   3 -12 2500.02 184.253   6
   0   3 -13 5996.44 261.278   6
   0   3 -14 1104.94 111.409   6
   0   3 -15 154.966 39.0078   4
   0   3 -15 80.6751 50.1332   6
   0   4   0 159399. 2519.43   2
   0   4  -1 61694.3 1305.71   2
   0   4   1 61839.3 1412.31   2
   0   4  -2 2923.34 253.484   2
   0   4   2 2507.92 292.199   2
   0   4  -3 44983.8 1054.24   2
   0   4   3 44639.6 1300.56   2
   0   4   4 25468.6 1037.06  10
   0   4   5 13205.7 807.850  10
   0   4   6 20578.2 1052.15  10
   0   4   7 2656.24 428.249  10
   0   4   8 23146.2 1238.11  10
   0   4  -8 23600.5 558.561   6
   0   4   9 12395.7 352.541   7
   0   4  -9 12107.3 397.275   6
   0   4  10 3993.21 199.272   7
   0   4 -10 4191.30 237.772   6
   0   4 -11 2043.53 170.555   6
   0   4  11 2243.00 151.362   7
   0   4 -12 428.186 100.531   6
   0   4  12 573.810 88.4180   7
   0   4 -13 1080.98 117.011   6
   0   4 -14 2090.21 116.399   4
   0   5   0-16.0425 97.5706   2
   0   5   1 2607.39 307.328   2
   0   5  -1 2583.46 288.121   2
   0   5   2 11948.0 682.665   2
   0   5   3 21265.0 970.530   2
   0   5   4 14054.0 829.105   2
   0   5   5 9924.24 737.681   2
   0   5  -6 1519.90 142.468   6
   0   5   6 1921.10 355.873   2
   0   5  -7 2774.36 189.205   6
   0   5   7 3056.05 496.500   2
   0   5  -8 27295.2 633.520   6
   0   5  -9 3409.10 219.692   6
   0   5 -10 6889.13 299.412   6
   0   5 -11 14572.2 424.886   6
   0   5 -11 13471.8 400.779   4
   0   5 -12 2589.39 159.177   4
   0   5 -13 1386.84 104.664   4
   0   5 -14 4826.83 143.573   4
   0   6   2 3907.15 433.116   2
   0   6  -2 3495.15 187.174   4
   0   6   3 32265.6 606.652   4
   0   6   3 31301.9 1285.66   2
   0   6  -3 32534.5 646.094   4
   0   6   4 30167.0 1330.27   2
   0   6  -4 30164.5 631.335   4
   0   6  -5 6067.48 265.070   4
   0   6   5 6251.93 644.387   2
   0   6  -6 10536.3 361.036   4
   0   6  -7 230.396 85.2985   4
   0   6  -8 2499.68 184.837   4
   0   6  -9 5947.64 268.503   4
   0   6 -10 5310.94 241.324   4
   0   6 -11 1146.75 113.063   4
   0   6 -12 1439.67 103.630   4
   0   6 -13 2202.93 98.9523   4
   0   7   0 0.50085 60.1688   4
   0   7   1 12942.0 372.190   4
   0   7  -1 12901.5 381.401   4
   0   7   2 4071.28 201.306   4
   0   7  -2 4103.93 213.772   4
   0   7  -3 9597.16 332.716   4
   0   7   3 9677.51 308.690   4
   0   7  -4 653.696 106.855   4
   0   7  -5 29107.3 632.646   4
   0   7  -6 8126.23 309.619   4
   0   7  -7 6056.06 265.359   4
   0   7  -8 2505.16 171.037   4
   0   7  -9 3645.51 190.229   4
   0   7 -10 2847.46 154.686   4
   0   7 -11 2887.62 133.909   4
   0   7 -12 2293.45 93.1334   4
   0   8   0 14031.6 386.124   4
   0   8   1 971.367 106.290   4
   0   8  -1 918.724 110.502   4
   0   8  -2 3064.89 184.079   4
   0   8   2 3235.67 173.739   4
   0   8  -3 23205.4 530.051   4
   0   8  -4 12276.2 367.250   4
   0   8  -5 699.746 102.076   4
   0   8  -6 1412.84 124.929   4
   0   8  -7 1280.34 113.312   4
   0   8  -8 390.903 75.2681   4
   0   8  -9 96.6320 49.7881   4
   0   8 -10 231.209 42.4093   4
   0   9   0 42.8120 44.9812   4
   0   9  -1 619.217 77.3875   4
   0   9  -2 1063.78 96.0315   4
   0   9  -3 5779.94 211.023   4
   0   9  -4 586.292 73.4658   4
   0   9  -5 2189.01 123.419   4
   0   9  -6 3682.74 148.614   4
   0   9  -7 2598.52 115.355   4
   0   9  -8 1717.53 79.9018   4
   1 -10  -3 159.480 34.8443   9
   1 -10  -2 2894.52 107.626   9
   1 -10  -1 352.081 51.5295   9
   1 -10   0 7845.60 191.137   9
   1 -10   1 140.772 41.9492   9
   1 -10   2 1514.49 75.9382   9
   1  -9  -7 1424.62 79.7752   6
  -1  -9   6 3305.95 136.038   1
   1  -9  -6 3399.09 133.695   6
   1  -9  -6 3108.44 111.290   9
  -1  -9   5 1113.23 92.5411   1
   1  -9  -5 1106.74 82.5032   9
  -1  -9   4 1295.32 108.529   1
   1  -9  -4 1283.03 94.7140   9
  -1  -9   3 1324.91 112.716   1
  -1  -9   2 2511.44 153.089   1
  -1  -9   1 329.491 79.5837   1
   1  -9  -1 408.024 85.2848   1
   1  -9   0 2460.00 159.048   1
   1  -9   1 2.31462 66.3338   1
   1  -9   2 676.583 97.1563   1
   1  -9   3 815.414 102.807   1
   1  -9   4 542.409 87.3766   1
   1  -9   5 2261.23 138.709   1
  -1  -9  -6 3560.04 114.009   6
   1  -9   6 3938.48 164.027   1
   1  -9   7 4618.40 159.382   1
   1  -8 -10 2047.77 88.3619   6
   1  -8  -9 3581.77 136.275   6
  -1  -8   8 365.229 65.8308   1
   1  -8  -8 419.835 69.1700   6
  -1  -8   7 9187.36 281.826   1
  -1  -8   6 1460.48 123.781   1
   1  -8  -6 1271.08 101.404   9
  -1  -8   5 827.293 112.122   1
  -1  -8   4 1770.01 154.436   1
  -1  -8   3 5433.52 258.009   1
   1  -8  -2 3663.60 212.753   1
  -1  -8   2 3537.25 212.601   1
   1  -8  -1 1766.40 165.161   1
  -1  -8   1 1710.64 157.373   1
   1  -8   0 2827.17 200.265   1
  -1  -8   0 2926.49 198.414   1
  -1  -8  -1 7765.32 313.031   1
   1  -8   1 7142.49 310.768   1
   1  -8   2 451.226 109.127   1
   1  -8   3 2034.88 170.724   1
   1  -8   4 2216.56 173.988   1
   1  -8   5 3665.93 210.693   1
   1  -8   6 3079.83 185.473   1
   1  -8   7 999.706 111.376   1
  -1  -8  -7 1091.56 84.6602   6
  -1  -8  -8 2781.50 114.824   6
   1  -8   8 3037.29 160.780   1
   1  -8   9 3308.87 146.161   1
   1  -8  10 337.047 48.1569   1
   1  -7 -11 2470.14 115.268   6
   1  -7 -10 2226.81 124.792   6
   1  -7  -9 994.707 101.603   6
  -1  -7   9 985.213 100.845   1
  -1  -7   8 3560.47 188.457   1
   1  -7  -8 3999.46 191.531   6
  -1  -7   7 1595.38 144.086   1
  -1  -7   6 5097.98 245.581   1
  -1  -7   5 8129.68 319.742   1
  -1  -7   4 28667.8 648.181   1
  -1  -7   3 7422.37 308.409   1
   1  -7  -3 7300.77 305.366   1
   1  -7  -2 1916.13 168.062   1
  -1  -7   2 1917.43 166.561   1
  -1  -7   1 8146.79 329.869   1
   1  -7  -1 8169.96 331.112   1
   1  -7   0 8272.68 335.258   1
  -1  -7   0 8748.80 340.593   1
  -1  -7  -1 4154.76 237.634   1
   1  -7   1 3955.12 217.839   5
   1  -7   1 3690.99 228.518   1
   1  -7   2 6328.93 274.456   5
   1  -7   2 6628.33 299.596   1
  -1  -7  -2 6748.84 294.810   1
   1  -7   3 7405.20 294.124   5
   1  -7   3 7339.90 317.441   1
   1  -7   4 101.139 78.8497   5
   1  -7   4 28.9087 82.5170   1
   1  -7   5 2687.69 177.832   5
   1  -7   5 3101.11 208.918   1
   1  -7   6 5230.66 266.090   1
   1  -7   6 5740.46 241.344   5
   1  -7   7 4712.17 248.695   1
   1  -7   8 6585.39 275.080   1
  -1  -7  -8 6471.47 219.395   6
   1  -7   9 2281.96 155.411   1
  -1  -7  -9 2309.30 121.146   6
   1  -7  10 48.3936 58.2865   1
   1  -7  11 3574.51 144.807   1
   1  -6 -13 486.426 53.4782   6
   1  -6 -12 1567.16 103.313   6
   1  -6 -11 5582.46 206.898   6
   1  -6 -10 3683.53 183.111   6
   1  -6  -9 18324.4 441.346   6
  -1  -6   9 17936.4 448.402   1
  -1  -6   8 17015.2 453.015   1
  -1  -6   7 7166.91 291.002   1
  -1  -6   6 7826.31 306.490   1
  -1  -6   5 2694.15 437.195   3
  -1  -6   5 2928.88 189.643   1
   1  -6  -4 3358.86 200.735   1
  -1  -6   4 3096.86 192.138   1
  -1  -6   4 3177.37 441.600   3
  -1  -6   3 10240.0 349.051   1
   1  -6  -3 9938.63 341.909   1
  -1  -6   3 10820.2 782.238   3
  -1  -6   2 807.401 116.595   1
  -1  -6   2 724.683 262.565   3
   1  -6  -2 786.643 109.087   1
  -1  -6   1 6476.65 593.577   3
  -1  -6   0 1572.65 295.403   3
  -1  -6  -1 6270.73 274.166   1
  -1  -6  -1 6557.03 604.515   3
   1  -6   1 6496.41 260.896   5
   1  -6   1 6197.34 274.137   1
   1  -6   2 32178.8 675.192   1
  -1  -6  -2 31524.0 672.576   1
   1  -6   2 32103.0 641.954   5
  -1  -6  -3 10146.1 360.739   1
   1  -6   3 10507.3 343.267   5
   1  -6   3 9940.18 351.174   1
   1  -6   4 19247.3 504.938   1
   1  -6   4 18627.0 475.493   5
  -1  -6  -4 18379.9 1138.55  11
   1  -6   5 3003.72 200.450   1
   1  -6   5 3206.46 192.131   5
  -1  -6  -5 2814.57 477.331  11
   1  -6   6 26779.3 577.563   5
   1  -6   6 26990.7 626.038   1
   1  -6   7 26768.7 561.310   5
   1  -6   7 25972.1 616.964   1
   1  -6   8 9362.89 347.046   1
  -1  -6  -8 9401.35 291.257   6
  -1  -6  -9 1019.74 101.473   6
   1  -6   9 1015.21 130.716   1
   1  -6  10 2330.11 164.446   1
  -1  -6 -10 2254.87 131.541   6
   1  -6  11 683.077 94.6577   1
   1  -6  12 1331.98 98.1883   1
   1  -5 -14 2903.56 113.861   6
   1  -5 -13 1036.05 91.0759   6
   1  -5 -12 135.443 65.4630   6
   1  -5 -11 1205.78 119.740   6
   1  -5 -10 1469.91 131.362   6
   1  -5  -9 6141.46 251.543   6
  -1  -5   9 6176.24 258.137   1
  -1  -5   8 5089.74 236.428   1
  -1  -5   7 8030.99 296.902   1
  -1  -5   6 21686.0 1044.81   3
  -1  -5   6 19572.1 480.989   1
  -1  -5   5 25381.2 1117.66   3
  -1  -5   4 5125.32 490.522   3
  -1  -5   3 5706.44 510.633   3
  -1  -5   2 18411.9 912.860   3
  -1  -5   1 57625.9 1698.98   3
  -1  -5   0 11015.8 701.059   3
  -1  -5  -1 5965.33 519.211  11
  -1  -5  -1 5281.52 487.301   3
   1  -5   2 5140.64 408.451   3
  -1  -5  -2 5831.04 545.042  11
  -1  -5  -2 6024.62 523.245   3
  -1  -5  -3 10943.6 760.256  11
  -1  -5  -4 5235.62 562.209  11
  -1  -5  -5 29855.8 1374.84  11
   1  -5   6 8635.91 320.453   1
   1  -5   6 8597.54 297.717   5
  -1  -5  -6 8551.44 766.808  11
   1  -5   7 470.434 99.2859   1
  -1  -5  -7 986.419 349.016  11
   1  -5   8 20657.1 533.440   1
  -1  -5  -8 21200.3 466.611   6
   1  -5   9 11668.0 386.214   1
  -1  -5  -9 11095.4 321.483   6
   1  -5  10 6247.44 274.378   1
  -1  -5 -10 6188.27 230.499   6
   1  -5  11 3792.47 203.948   1
  -1  -5 -11 3548.28 164.555   6
   1  -5  12 606.191 88.7521   1
   1  -5  13 502.712 67.7436   1
   1  -4 -15 1463.27 79.7095   6
   1  -4 -14 998.462 89.4450   6
   1  -4 -13 5607.50 215.486   6
   1  -4 -12 1301.62 127.517   6
   1  -4 -11 8276.31 293.729   6
   1  -4 -10 216.108 84.3899   6
   1  -4  -9 32818.5 635.866   6
   1  -4  -8 10802.4 323.289   6
   1  -4  -7 12121.7 830.348  11
  -1  -4   7 13174.7 765.578   3
   1  -4  -6 2006.66 352.347  11
  -1  -4   6 2090.80 317.950   3
  -1  -4   5 6177.10 492.220   3
   1  -4  -5 5028.79 498.316  11
  -1  -4   4 14579.8 737.721   3
  -1  -4   3 1823.20 266.564   3
  -1  -4   2 11400.2 629.637   3
  -1  -4   1 3515.20 362.117   3
  -1  -4   0 24237.1 876.906  11
  -1  -4   0 25878.2 955.078   3
  -1  -4  -1 5409.98 434.303  11
  -1  -4  -1 5016.23 417.568   3
   1  -4   1 5011.47 358.624   3
  -1  -4  -2 64680.5 1589.58   3
  -1  -4  -2 65404.2 1656.72  11
   1  -4   2 63050.0 1355.18   3
  -1  -4  -3 65865.9 1750.09  11
  -1  -4  -3 68033.6 1675.99   3
   1  -4   3 66831.3 1389.28   3
  -1  -4  -4 16560.4 871.998  11
  -1  -4  -5 9516.19 692.462  11
  -1  -4  -6 14417.5 902.738  11
  -1  -4  -7 30496.6 1387.51  11
   1  -4   8 12677.0 396.986   1
  -1  -4  -8 12972.7 344.709   6
  -1  -4  -8 12860.3 938.713  11
  -1  -4  -9 1395.27 118.957   6
   1  -4   9 1467.85 148.331   1
  -1  -4 -10 14987.4 383.879   6
   1  -4  10 15166.0 445.000   1
  -1  -4 -11 366.261 80.1970   6
   1  -4  11 309.477 89.2479   1
   1  -4  12 2001.45 154.736   1
  -1  -4 -12 2372.84 137.566   6
   1  -4  13 1072.65 104.049   1
   1  -4  14 271.443 57.1836   1
   1  -3 -15 2571.22 122.840   6
   1  -3 -14 3779.30 173.568   6
   1  -3 -13 273.247 82.4403   6
   1  -3 -12 11162.1 346.283   6
   1  -3 -11 8260.62 296.330   6
   1  -3 -10 4950.02 226.359   6
   1  -3  -9 6109.39 242.961   6
   1  -3  -8 913.880 246.689  11
  -1  -3   8 807.536 182.792  10
  -1  -3   8 1198.17 249.851   3
  -1  -3   7 10303.5 636.998   3
  -1  -3   7 9883.86 603.815  10
   1  -3  -7 10013.7 667.083  11
  -1  -3   6 4075.35 366.198  10
   1  -3  -6 3710.64 402.759  11
  -1  -3   6 3928.08 380.534   3
  -1  -3   5 949.539 202.672   3
   1  -3  -5 836.144 214.761  11
  -1  -3   4 2701.62 288.520   3
   1  -3  -4 2571.09 303.831  11
  -1  -3   3 33276.3 983.486   3
   1  -3  -3 35176.4 1070.12  11
  -1  -3   2 61217.8 1363.37   3
  -1  -3   1 261832. 3633.88   3
  -1  -3   1 259728. 3446.39  11
   1  -3   0 19232.7 623.784   3
  -1  -3   0 18428.6 683.980   3
  -1  -3   0 18433.0 647.262  11
   1  -3   1 82797.1 1439.83   3
  -1  -3  -1 84845.4 1635.73  11
  -1  -3  -1 85147.0 1668.21   3
  -1  -3  -2 105007. 1958.60  11
   1  -3   2 103282. 1644.20   3
  -1  -3  -2 101671. 1885.63   3
  -1  -3  -3 95807.9 1852.49   3
  -1  -3  -3 98845.7 1984.86  11
   1  -3   3 99679.4 1599.36   3
  -1  -3  -4 10092.9 602.921  11
   1  -3   4 8957.29 377.851   3
  -1  -3  -5 2337.36 344.820  11
  -1  -3  -6 14374.6 811.765  11
  -1  -3  -7 29618.7 1246.53  11
  -1  -3  -8 6290.08 616.999  11
  -1  -3  -9 6590.98 668.816  11
   1  -3   9 7516.50 299.860   1
  -1  -3  -9 7381.77 256.636   6
  -1  -3 -10 8982.87 822.565  11
  -1  -3 -10 8913.43 289.530   6
   1  -3  10 9227.73 339.281   1
   1  -3  11 35449.1 725.953   1
  -1  -3 -11 36404.6 662.955   6
   1  -3  12 15078.5 423.869   1
  -1  -3 -12 14755.8 374.041   6
   1  -3  13 2013.76 148.795   1
   1  -3  14 1109.77 100.117   1
   1  -3  15 2844.87 111.824   1
   1  -2 -16 1199.08 75.6868   6
   1  -2 -15 6470.72 213.567   6
   1  -2 -14 4645.37 204.803   6
   1  -2 -13 736.581 107.478   6
   1  -2 -12 28460.0 602.640   6
   1  -2 -11 18045.1 457.170   6
   1  -2 -10 264.919 79.0625   6
  -1  -2   9 792.768 197.526  10
  -1  -2   9 1371.13 267.638   3
  -1  -2   8 27119.1 1044.05  10
   1  -2  -8 30111.8 1082.09  11
  -1  -2   8 28894.2 1093.05   3
  -1  -2   7 7009.78 484.537  10
  -1  -2   7 6864.16 492.990   3
   1  -2  -7 7178.88 498.013  11
   1  -2  -6 16025.0 708.202  11
  -1  -2   6 15796.0 698.006   3
  -1  -2   6 16087.4 694.223  10
  -1  -2   5 26502.3 858.489   3
   1  -2  -5 27049.0 880.318  11
   1  -2  -4 9146.78 474.687  11
  -1  -2   4 9638.23 469.926   3
  -1  -2   3 28987.6 803.058   3
   1  -2  -3 30006.9 842.598  11
   1  -2  -2 7937.62 400.545  11
  -1  -2   2 8242.17 391.903   3
  -1  -2   1 207700. 2605.51  11
  -1  -2   0 48489.0 943.582  11
  -1  -2  -1 151356. 2213.90  11
   1  -2   1 155604. 1994.17   3
   1  -2   2 48327.5 814.466   3
  -1  -2  -2 47164.3 1008.12   3
  -1  -2  -2 47235.2 1059.32  11
  -1  -2  -3 51626.1 1196.32  11
   1  -2   3 50992.7 836.406   3
  -1  -2  -3 50130.9 1081.49   3
   1  -2   3 52132.4 736.759  10
  -1  -2  -4 11632.3 572.105  11
   1  -2   4 12204.1 356.683   3
   1  -2   4 12039.3 327.414  10
   1  -2   5 21771.3 542.396   3
  -1  -2  -5 21720.6 852.846  11
   1  -2   5 22833.2 554.359  10
  -1  -2  -6 33609.0 1141.94  11
  -1  -2  -7 26100.4 1076.45  11
  -1  -2  -8 21505.8 1033.06  11
  -1  -2  -9 23642.7 1148.00  11
   1  -2  10 15764.3 445.606   1
  -1  -2 -10 15635.7 393.412   6
  -1  -2 -11 4206.32 203.772   6
   1  -2  11 4224.15 229.451   1
  -1  -2 -12 25988.0 539.565   6
   1  -2  12 25593.1 587.034   1
  -1  -2 -13 907.399 98.2095   6
   1  -2  13 705.746 103.261   1
   1  -2  14 1511.01 121.471   1
   1  -2  15 243.180 53.5618   1
   1  -1 -16 2636.10 119.572   6
   1  -1 -15 2328.70 136.920   6
   1  -1 -14 789.082 108.630   6
   1  -1 -13 557.313 103.152   6
   1  -1 -12 7394.62 289.494   6
   1  -1 -11 3306.70 194.652   6
  -1  -1  10 2954.90 405.577  10
  -1  -1  10 2587.19 368.539   3
   1  -1 -10 2611.61 163.810   6
  -1  -1   9 13312.9 787.966  10
  -1  -1   8 3247.83 373.889  10
  -1  -1   7 486.411 163.938  10
   1  -1  -7 632.766 132.805  11
  -1  -1   6 33739.2 996.834  10
   1  -1  -6 34262.9 916.976  11
  -1  -1   5 51371.1 1168.78  10
   1  -1  -5 49579.7 1075.26  11
   1  -1  -4 50703.1 1016.32  11
  -1  -1   4 49925.6 1069.11  10
   1  -1  -3 198838. 2589.07  11
   1  -1  -2 11674.4 380.758  11
  -1  -1   1 290392. 3205.03  11
  -1  -1   0 297343. 3405.30  11
  -1  -1  -1 195746. 2455.98  11
  -1  -1  -1 194837. 2407.26   3
  -1  -1  -2 120128. 1702.32  11
  -1  -1  -2 116180. 1561.98   3
   1  -1   3 31171.5 478.526   3
   1  -1   3 32343.4 542.168  10
  -1  -1  -3 31091.1 788.797  11
   1  -1   4 16446.6 433.425  10
  -1  -1  -4 16379.1 610.083  11
   1  -1   4 15941.9 364.908   3
  -1  -1  -5 26740.6 860.690  11
   1  -1   5 26587.4 661.035  10
  -1  -1  -6 957.547 206.030  11
   1  -1   6 1095.89 159.001  10
   1  -1   7 7138.04 421.603  10
  -1  -1  -7 7116.50 516.791  11
  -1  -1  -8 14281.9 779.320  11
  -1  -1  -9 20906.8 999.953  11
   1  -1  10 3786.80 210.590   1
  -1  -1 -10 3891.02 194.348   6
   1  -1  11 64710.1 1067.84   1
  -1  -1 -11 64107.7 998.361   6
  -1  -1 -12 13468.4 373.457   6
   1  -1  12 13244.2 406.787   1
   1  -1  13 7044.20 282.467   1
  -1  -1 -13 7023.50 258.244   6
   1  -1  14 1206.38 117.981   1
  -1  -1 -14 1248.65 109.748   6
   1  -1  15 1166.43 92.8995   1
   1   0 -16 1896.94 107.547   6
   1   0 -15 3179.76 164.662   6
   1   0 -14 3153.31 186.844   6
   1   0 -13 1456.85 142.680   6
   1   0 -12 1213.41 139.823   6
  -1   0  11 376.898 278.237  10
   1   0 -11-27.2437 70.9719   6
   1   0 -10 428.469 88.3932   6
  -1   0  10 299.071 196.971  10
  -1   0   9 17455.5 929.015  10
  -1   0   8 110930. 2383.57  10
  -1   0   7 7311.49 505.887  10
   1   0  -6 29079.0 688.791  11
  -1   0   6 27685.5 906.402  10
   1   0  -5 181680. 2368.51  11
  -1   0   5 196737. 2801.50  10
  -1   0   4 23658.0 686.863  10
   1   0  -4 24216.7 504.526  11
  -1   0   3 284592. 3565.26  10
   1   0  -3 291664. 3243.58  11
  -1   0   2 1353.37 138.182  10
   1   0  -1 250758. 2895.45   2
   1   0   0 11115.8 261.659   2
  -1   0  -1 1929.66 80.3622   3
   1   0   1 2078.88 112.119   2
   1   0   2 2912.98 157.179  10
  -1   0  -2 2847.22 193.183  11
  -1   0  -3 45537.8 922.786  11
   1   0   3 44739.6 827.494  10
  -1   0  -4 1059.15 170.458  11
   1   0   4 890.268 137.886  10
  -1   0  -5 95295.7 1712.23  11
   1   0   5 91899.2 1614.66  10
   1   0   6 91942.3 1745.65  10
  -1   0  -6 96116.0 1831.06  11
   1   0   7 40241.2 1140.21  10
  -1   0  -7 39885.5 1171.70  11
  -1   0  -8 2532.61 322.148  11
   1   0   8 2272.74 294.665  10
  -1   0  -9 387.110 163.855  11
   1   0   9 286.160 164.259  10
   1   0  10 815.562 108.718   7
  -1   0 -10 613.166 100.446   6
  -1   0 -11 315.838 80.5465   6
   1   0  11 332.190 86.7514   7
  -1   0 -12 8473.98 299.389   6
   1   0  12 8433.22 321.273   1
   1   0  13 3113.65 189.394   1
  -1   0 -13 3217.18 180.612   6
   1   0  14 1443.66 122.883   1
  -1   0 -14 1512.90 122.415   6
   1   0  15 291.780 60.8905   1
   1   1 -16 2701.04 123.329   6
   1   1 -15 2351.03 143.279   6
   1   1 -14 1110.68 126.629   6
   1   1 -13 489.058 104.237   6
   1   1 -12 7869.44 311.001   6
  -1   1  11 2367.54 444.454  10
   1   1 -11 3041.81 195.106   6
   1   1 -10 2756.59 173.606   6
  -1   1  10 3137.44 474.774  10
  -1   1   9 13430.4 854.617  10
  -1   1   8 3334.14 397.176  10
  -1   1   7 724.868 216.044  10
  -1   1   6 34284.6 1073.34  10
  -1   1   5 51132.6 1235.27  10
  -1   1   4 49643.2 1107.15  10
   1   1  -3 207339. 2740.78   2
  -1   1   3 208911. 2792.57  10
  -1   1   2 10916.2 379.053  10
   1   1  -2 10747.3 376.449   2
  -1   1   1 286049. 3320.06  10
   1   1  -1 288850. 3415.78   2
  -1   1   0 297797. 3271.73  10
   1   1   0 297312. 3494.92   2
   1   1   1 197235. 2489.29   2
   1   1   2 120411. 1754.00  10
   1   1   3 31928.5 792.943  10
   1   1   4 16567.1 597.999  10
   1   1   5 22195.8 780.637  10
  -1   1  -5 28880.6 810.782  11
   1   1   6 952.405 195.632  10
  -1   1  -6 1201.69 194.661  11
  -1   1  -7 7078.40 459.232  11
   1   1   7 6976.04 494.055  10
   1   1   8 13355.4 752.985  10
  -1   1  -8 13358.4 675.701  11
   1   1   9 19387.4 971.109  10
   1   1  10 4184.83 480.734  10
   1   1  10 3825.18 203.316   7
  -1   1 -10 3713.29 198.671   6
  -1   1 -11 63880.0 1025.98   6
   1   1  11 64337.1 1064.44   7
   1   1  12 12782.7 400.450   7
  -1   1 -12 12481.2 378.054   6
  -1   1 -13 7051.88 268.509   6
   1   1  14 1257.75 117.471   1
  -1   1 -14 1320.05 112.101   6
   1   1  15 1094.29 90.2424   1
   1   2 -16 1360.66 84.0665   6
   1   2 -15 6320.11 223.195   6
   1   2 -14 4701.32 218.560   6
   1   2 -13 605.675 113.390   6
   1   2 -12 28339.6 637.870   6
   1   2 -11 17924.6 488.632   6
  -1   2  10 743.425 293.243  10
   1   2 -10 355.161 94.3947   6
  -1   2   9 1043.63 288.859  10
  -1   2   8 29044.2 1244.40  10
  -1   2   7 7519.02 580.205  10
  -1   2   6 16855.8 800.120  10
  -1   2   5 27397.5 948.609  10
   1   2  -4 9593.02 450.454   2
  -1   2   4 10143.7 523.131  10
   1   2  -3 29628.9 779.362   2
  -1   2   3 29835.0 841.841  10
   1   2  -2 8059.61 369.300   2
  -1   2   2 8049.87 378.231  10
  -1   2   1 207502. 2689.15  10
   1   2  -1 207508. 2768.23   2
   1   2   0 50365.1 1011.57   2
  -1   2   0 50588.3 852.305  10
   1   2   1 154140. 2232.84   2
  -1   2  -1 151648. 1743.61   2
   1   2   2 46912.8 1053.81   2
   1   2   3 50580.9 1174.92  10
   1   2   4 11269.8 558.380  10
   1   2   5 21749.7 840.824  10
   1   2   6 32469.7 1127.24  10
  -1   2  -6 34699.4 992.813  11
  -1   2  -7 24819.1 881.855  11
   1   2   7 24030.8 1027.65  10
   1   2   8 20740.7 1017.76  10
   1   2   9 22327.2 1120.24  10
   1   2  10 14876.7 958.099  10
  -1   2 -10 15679.5 431.350   6
   1   2  10 16542.4 434.969   7
  -1   2 -11 4052.76 219.864   6
   1   2  11 4170.80 220.978   7
   1   2  12 26050.0 589.777   7
  -1   2 -12 25792.5 576.552   6
  -1   2 -13 747.194 101.669   6
   1   2  14 1645.21 124.075   1
  -1   2 -14 1613.85 123.191   6
   1   2  15 112.286 45.9597   1
   1   3 -15 2454.48 130.192   6
   1   3 -14 3985.11 195.302   6
   1   3 -13 516.534 106.527   6
   1   3 -12 11525.2 387.966   6
   1   3 -11 8268.99 330.165   6
  -1   3  10 4982.03 657.938  10
   1   3 -10 5324.17 267.354   6
   1   3  -9 5712.44 264.637   6
  -1   3   9 5824.48 630.262  10
  -1   3   8 840.551 275.368  10
  -1   3   7 10644.8 752.325  10
  -1   3   6 4229.05 458.515  10
  -1   3   5 740.192 202.414  10
  -1   3   4 2702.77 321.022  10
   1   3  -4 2903.76 279.771   2
  -1   3   3 34412.1 1029.18  10
   1   3  -3 33663.3 927.326   2
   1   3  -2 62577.2 1307.26   2
  -1   3   2 62827.1 1351.74  10
  -1   3   1 259157. 3473.16  10
   1   3  -1 269302. 3587.31   2
  -1   3   0 18935.6 521.314   2
   1   3   0 18644.4 661.696   2
   1   3   1 84496.1 1618.25   2
  -1   3  -1 80618.7 1197.29   2
   1   3   2 101806. 1920.64   2
  -1   3  -2 101653. 1338.28   2
   1   3   3 94685.5 1914.16   2
   1   3   4 9299.36 571.536  10
   1   3   5 1437.46 271.866  10
   1   3   6 15090.0 822.188  10
   1   3   7 29284.8 1229.25  10
   1   3   8 5561.54 578.351  10
   1   3   9 7351.05 695.021  10
   1   3   9 7465.50 274.111   7
  -1   3  -9 7230.55 283.489   6
   1   3  10 9624.86 323.965   7
  -1   3 -10 9057.18 329.730   6
   1   3  11 36347.3 708.665   7
  -1   3 -11 36464.5 727.460   6
   1   3  12 14356.4 406.562   7
  -1   3 -12 15096.1 419.506   6
  -1   3 -13 2246.50 152.137   6
   1   3  13 1985.47 144.862   7
  -1   3 -14 864.551 88.7088   6
   1   3  15 3046.27 117.460   1
   1   4 -14 858.420 93.7660   6
   1   4 -13 5211.51 199.537   4
   1   4 -13 5368.04 235.786   6
   1   4 -12 1100.77 115.563   4
   1   4 -12 1127.68 137.105   6
   1   4 -11 8185.22 330.695   6
   1   4 -10 195.922 94.7589   6
   1   4  -9 31876.4 693.099   6
  -1   4   9 32737.1 1556.67  10
  -1   4   8 10373.3 850.675  10
   1   4  -8 10821.0 365.013   6
  -1   4   7 11951.4 861.097  10
  -1   4   6 2165.09 366.504  10
  -1   4   5 4684.09 489.711  10
   1   4  -4 14991.7 685.585   2
  -1   4   4 15030.0 788.122  10
   1   4  -3 2333.64 274.834   2
  -1   4   3 1707.27 258.457  10
   1   4  -2 11603.2 576.567   2
  -1   4   2 11744.4 566.631   2
  -1   4   2 11357.1 596.072  10
   1   4  -1 3375.72 324.793   2
  -1   4   1 4200.83 318.523   2
  -1   4   0 23959.5 693.198   2
   1   4   0 25233.8 883.225   2
   1   4   1 5168.95 418.389   2
   1   4   2 63588.7 1600.52   2
   1   4   3 67595.0 1722.69   2
   1   4   4 15877.8 829.537   2
   1   4   5 8916.10 656.335   2
   1   4   6 15027.0 904.659   2
   1   4   7 30598.0 1373.86   2
   1   4   8 11669.1 903.400   2
   1   4   8 13161.6 374.501   7
  -1   4  -8 12315.9 383.248   6
   1   4   9 1481.97 131.557   7
  -1   4  -9 1401.09 143.846   6
   1   4  10 15108.4 413.771   7
  -1   4 -10 15122.4 439.002   6
   1   4  11 349.095 80.3384   7
  -1   4 -11 204.442 88.4844   6
   1   4  12 2122.55 147.229   7
  -1   4 -12 2113.72 159.241   6
   1   4  13 962.062 97.7398   7
  -1   4 -14 285.591 58.1638   4
   1   5 -13 822.385 74.1106   4
   1   5 -12 112.366 55.6167   4
   1   5 -12 217.910 84.9665   6
   1   5 -11 1056.66 128.273   6
   1   5 -11 980.916 113.701   4
   1   5 -10 1312.96 134.038   4
   1   5 -10 1330.02 153.219   6
   1   5  -9 5933.57 286.779   6
   1   5  -9 6536.76 278.868   4
   1   5  -8 4955.94 241.902   4
   1   5  -8 5316.19 267.441   6
   1   5  -7 8469.63 327.099   6
   1   5  -7 8670.85 316.030   4
  -1   5   6 18955.0 1094.63  10
   1   5  -6 20607.9 495.877   4
   1   5  -6 20365.4 509.338   6
  -1   5   5 24569.4 1178.65  10
  -1   5   4 5232.35 488.287   2
   1   5  -4 5139.69 440.158   2
   1   5  -3 4915.37 424.841   2
  -1   5   3 5594.53 473.024   2
   1   5  -2 16738.5 773.797   2
  -1   5   2 16491.7 751.846   2
   1   5  -1 53057.5 1484.55   2
   1   5   0 10565.3 638.753   2
   1   5   1 4990.52 455.671   2
   1   5   2 6181.44 528.841   2
   1   5   3 11090.9 780.610   2
   1   5   4 4225.16 485.877   2
   1   5   5 30876.1 1363.11   2
   1   5   6 7950.11 720.808   2
   1   5   6 8587.94 288.954   7
   1   5   7 373.153 214.548   2
   1   5   7 593.610 90.9896   7
   1   5   8 20572.4 488.808   7
   1   5   9 11800.9 356.259   7
   1   5  10 6275.75 250.176   7
   1   5  11 3043.63 169.908   7
   1   5  12 540.201 79.3537   7
  -1   5 -12 659.328 95.2809   4
  -1   5 -13 333.737 63.7355   4
  -1   5 -14 2012.05 93.6471   4
   1   6 -12 1382.09 95.8698   4
   1   6 -11 5617.99 214.684   4
   1   6 -10 3613.24 189.929   4
   1   6  -9 17875.9 463.460   4
   1   6  -8 16978.6 463.184   4
   1   6  -7 7401.01 298.104   4
   1   6  -6 7504.88 297.645   4
   1   6  -5 2979.90 184.255   4
   1   6  -4 3092.61 185.949   4
   1   6  -3 9795.01 326.462   4
   1   6  -2 707.415 91.8615   4
   1   6  -1 6573.65 542.385   2
   1   6  -1 6220.43 248.170   4
   1   6   0 1460.26 275.046   2
   1   6   1 6822.00 590.526   2
   1   6   1 6767.91 256.010   4
   1   6   2 30879.1 1306.21   2
   1   6   2 32013.4 617.030   4
  -1   6  -2 31645.4 623.198   4
   1   6   2 30690.3 618.564   7
   1   6   3 10443.3 325.045   7
  -1   6  -3 10224.3 332.478   4
   1   6   3 10281.4 319.161   4
   1   6   3 10855.4 791.871   2
   1   6   4 18931.8 1103.76   2
   1   6   4 19027.9 458.581   7
  -1   6  -4 19383.8 486.381   4
   1   6   5 2994.10 173.041   7
  -1   6  -5 3033.37 193.503   4
   1   6   5 3025.99 459.106   2
   1   6   6 26301.1 565.245   7
  -1   6  -6 27746.6 620.425   4
  -1   6  -7 26929.7 621.146   4
   1   6   7 26325.0 562.347   7
   1   6   8 9294.61 304.576   7
  -1   6  -8 8869.39 337.116   4
   1   6   9 939.989 102.506   7
  -1   6  -9 788.645 115.082   4
  -1   6 -10 2201.53 162.580   4
   1   6  10 2293.67 138.199   7
   1   6  11 523.404 70.3741   7
  -1   6 -11 540.971 88.6024   4
  -1   6 -12 1224.16 98.3406   4
  -1   6 -13 1933.22 91.9152   4
   1   7 -11 2382.94 114.726   4
   1   7 -10 2344.09 133.335   4
   1   7  -9 727.701 94.4946   4
   1   7  -8 4012.96 203.269   4
   1   7  -7 1422.34 135.730   4
   1   7  -6 4807.31 236.821   4
   1   7  -5 8251.36 312.670   4
   1   7  -4 28821.5 624.982   4
   1   7  -3 7463.26 293.968   4
   1   7  -2 2014.51 155.492   4
  -1   7   1 8543.49 285.126   4
   1   7  -1 8707.38 313.402   4
   1   7   0 8803.68 312.294   4
  -1   7   0 8706.89 296.740   4
   1   7   1 3938.71 205.303   4
  -1   7  -1 3365.31 185.955   4
  -1   7  -2 6428.16 262.032   4
   1   7   2 6288.84 256.160   7
   1   7   2 6377.85 257.629   4
   1   7   3 7141.88 275.818   4
  -1   7  -3 7643.53 292.837   4
   1   7   3 7312.42 271.412   7
   1   7   4 6.68391 57.6849   7
  -1   7  -4 42.7379 62.1855   4
  -1   7  -5 2943.75 188.679   4
   1   7   5 2905.64 169.962   7
   1   7   6 5193.44 220.747   7
  -1   7  -6 5341.34 249.640   4
  -1   7  -7 4682.74 233.369   4
   1   7   7 4767.62 202.945   7
   1   7   8 6381.46 222.533   7
  -1   7  -8 6621.85 266.717   4
  -1   7  -9 2436.49 156.007   4
  -1   7 -10 12.7589 50.3482   4
  -1   7 -11 3759.75 148.179   4
  -1   7 -12 3379.38 110.493   4
   1   8 -10 2184.71 93.9872   4
   1   8  -9 3680.56 147.362   4
   1   8  -8 368.004 68.5387   4
   1   8  -7 9428.76 290.128   4
   1   8  -6 1231.68 117.642   4
   1   8  -5 917.416 111.066   4
   1   8  -4 1684.68 140.941   4
   1   8  -3 5216.26 237.936   4
   1   8  -2 3500.11 192.588   4
   1   8  -1 1625.34 135.556   4
   1   8  -1 1656.89 137.281   7
  -1   8   1 1450.59 116.216   4
   1   8   0 2948.09 173.674   7
  -1   8   0 2897.47 161.937   4
   1   8   0 2656.53 169.241   4
   1   8   1 7224.98 271.841   4
  -1   8  -1 7982.29 275.848   4
   1   8   1 7729.08 271.855   7
   1   8   2 500.067 84.2871   7
   1   8   2 474.235 89.0040   4
  -1   8  -2 391.070 81.1586   4
  -1   8  -3 2063.93 147.313   4
   1   8   3 2036.77 133.265   7
   1   8   4 2246.30 136.844   7
  -1   8  -4 2345.68 155.271   4
  -1   8  -5 3599.57 189.165   4
  -1   8  -6 2780.78 161.165   4
  -1   8  -7 949.892 98.6809   4
  -1   8  -8 2800.16 145.433   4
  -1   8  -9 3235.94 137.362   4
  -1   8 -10 457.224 49.1701   4
   1   9  -8 1445.24 70.7222   4
   1   9  -7 1374.19 82.7411   4
   1   9  -6 3632.66 144.924   4
   1   9  -6 2896.36 120.393   7
   1   9  -5 991.011 81.4217   7
   1   9  -5 1284.75 97.1786   4
   1   9  -4 1675.79 112.691   4
   1   9  -4 1289.43 94.9524   7
   1   9  -3 1236.54 96.3231   7
   1   9  -3 1240.93 104.029   4
   1   9  -2 2447.17 141.025   4
   1   9  -2 2400.85 127.595   7
   1   9  -1 366.623 69.0362   4
   1   9  -1 341.283 59.6796   7
  -1   9   0 2376.61 121.317   4
   1   9   0 2726.57 145.725   4
  -1   9  -1 74.8836 46.2530   4
  -1   9  -2 793.022 78.3223   4
  -1   9  -3 996.292 86.0237   4
  -1   9  -4 700.413 73.2855   4
  -1   9  -5 2007.82 111.162   4
  -1   9  -6 4006.66 146.105   4
  -1   9  -7 4709.91 143.778   4
   2 -10  -2 1344.12 69.5190   9
   2 -10  -1 1175.81 67.4429   9
   2 -10   0 4922.15 134.290   9
   2 -10   1 70.0751 32.3605   9
   2  -9  -7 52.6088 33.7840   6
   2  -9  -6 2172.39 102.161   6
   2  -9  -6 2027.05 89.8685   9
   2  -9  -5-16.1209 42.3159   9
   2  -9  -4 1556.37 101.440   9
   2  -9  -3 1407.39 104.257   9
   2  -9  -2 1004.69 95.4877   9
   2  -9  -1 5870.73 208.371   9
   2  -9   0 4134.36 188.860   1
   2  -9   1 5281.02 212.508   1
   2  -9   2 2516.59 150.742   1
   2  -9   3 2392.64 114.782   9
   2  -9   3 2532.95 146.743   1
   2  -9   4 20.4820 54.3514   1
   2  -9   4 49.0344 37.3827   9
   2  -9   5 3531.35 158.273   1
   2  -9   6 1275.68 89.4606   1
   2  -9   7 139.327 42.4883   1
   2  -8 -10 4457.67 124.373   6
   2  -8  -9 2302.31 107.343   6
   2  -8  -8 4985.22 173.427   6
   2  -8  -7 667.519 70.2186   9
   2  -8  -7 804.203 89.6810   6
   2  -8  -6 380.853 70.3833   9
  -2  -8   5 7565.62 257.164   1
   2  -8  -5 8071.62 256.175   9
   2  -8  -4 3502.24 181.748   9
  -2  -8   4 3072.79 171.692   1
  -2  -8   3 5017.18 226.739   1
  -2  -8   2 7202.04 278.042   1
   2  -8  -2 6906.94 276.340   1
   2  -8  -1 1427.99 137.453   1
  -2  -8   1 1471.19 141.411   1
   2  -8   0 2261.60 169.952   1
   2  -8   1 7559.73 304.494   1
   2  -8   2 1440.02 143.822   1
   2  -8   3 1104.72 135.058   1
   2  -8   4-20.1593 75.3860   1
   2  -8   5 760.408 108.810   1
   2  -8   6 357.508 86.3254   1
   2  -8   7 3667.78 182.792   1
   2  -8   8 3349.62 158.992   1
   2  -8   9 275.845 55.4184   1
   2  -7 -11 622.561 65.0574   6
   2  -7 -10 5494.87 189.136   6
   2  -7  -9 10543.3 289.737   6
   2  -7  -8 3862.74 184.999   6
   2  -7  -7 7696.58 249.165   9
   2  -7  -6 8626.06 282.002   9
  -2  -7   5 285.256 77.6509   1
   2  -7  -5 439.531 87.8548   9
  -2  -7   4 1482.67 136.834   1
  -2  -7   3 6687.86 283.507   1
   2  -7  -3 6734.44 281.509   1
  -2  -7   2 5581.35 263.181   1
   2  -7  -2 5480.36 258.378   1
   2  -7  -1 9961.01 334.149   5
   2  -7  -1 9007.94 340.350   1
  -2  -7   1 9633.50 347.432   1
   2  -7   0 1360.58 145.279   1
   2  -7   0 1415.04 146.418   5
  -2  -7   0 1430.12 148.001   1
   2  -7   1 1846.28 166.727   1
  -2  -7  -1 1763.64 157.116   1
   2  -7   1 1787.16 155.100   5
   2  -7   2 4309.62 242.556   1
   2  -7   2 4292.08 230.451   5
   2  -7   3 27835.5 619.795   5
   2  -7   3 29001.2 662.680   1
   2  -7   4 589.143 108.353   5
   2  -7   4 565.296 112.660   1
   2  -7   5 8875.11 341.654   1
   2  -7   5 8860.50 319.289   5
   2  -7   6 3713.01 198.013   5
   2  -7   6 3684.99 219.507   1
   2  -7   7 1907.98 138.130   5
   2  -7   7 2240.68 168.890   1
   2  -7   8 1141.27 126.041   1
   2  -7   8 1048.45 98.9994   5
   2  -7   9 951.493 107.835   1
   2  -7  10 686.505 83.2319   1
   2  -7  11 1204.26 85.7895   1
   2  -6 -13 1331.40 75.4953   6
   2  -6 -12 1721.93 104.921   6
   2  -6 -11 1560.91 114.576   6
   2  -6 -10 1872.42 135.396   6
   2  -6  -9 2219.47 151.584   6
   2  -6  -8 48.3286 68.7808   6
   2  -6  -7 4704.51 203.328   9
   2  -6  -6 2176.62 146.961   9
  -2  -6   5 578.183 278.320   3
  -2  -6   4 1111.88 307.257   3
   2  -6  -4 1395.43 133.616   1
  -2  -6   4 1493.68 136.265   1
  -2  -6   3 208.391 84.6182   1
  -2  -6   3 101.171 182.938   3
   2  -6  -3 246.154 88.1001   1
   2  -6  -2 4403.33 224.360   1
  -2  -6   2 4242.13 223.919   1
  -2  -6   2 4429.48 539.088   3
   2  -6  -2 4386.09 208.203   5
   2  -6  -1 2574.28 169.079   5
  -2  -6   1 2556.33 178.285   1
  -2  -6   1 2447.29 415.065   3
   2  -6  -1 2842.72 182.167   1
  -2  -6   0 699.370 247.978   3
   2  -6   0 510.434 97.1254   1
   2  -6   0 499.004 99.9528   5
  -2  -6   0 653.970 103.043   1
  -2  -6  -1 6335.47 273.865   1
   2  -6   1 5982.28 268.561   1
   2  -6   1 6298.66 263.408   5
  -2  -6  -1 5445.30 574.366   3
   2  -6   2 7553.28 294.837   5
   2  -6   2 8105.15 312.955   1
  -2  -6  -2 8556.60 727.817   3
  -2  -6  -2 7947.76 309.264   1
  -2  -6  -2 7061.58 664.224  11
   2  -6   3 10978.5 362.568   5
   2  -6   3 11515.9 382.459   1
  -2  -6  -3 11249.2 870.284  11
  -2  -6  -4 2194.19 466.659  11
   2  -6   4 1976.75 163.485   5
   2  -6   4 1910.81 162.966   1
   2  -6   5 275.408 97.7199   5
   2  -6   5 119.993 81.8374   1
   2  -6   6 5321.01 266.388   1
   2  -6   6 5292.33 249.645   5
   2  -6   7 5768.43 250.908   5
   2  -6   7 5931.64 277.875   1
   2  -6   8 5225.83 222.757   5
   2  -6   8 5080.32 259.230   1
   2  -6   9 462.383 106.650   1
   2  -6  10 4117.32 207.182   1
   2  -6  11 1008.53 100.950   1
   2  -6  12 648.260 70.7527   1
   2  -5 -14 1395.69 79.4087   6
   2  -5 -13 2627.57 129.101   6
   2  -5 -12 942.742 100.085   6
   2  -5 -11 551.365 94.6146   6
   2  -5 -10 11170.7 341.291   6
   2  -5  -9 42840.4 763.789   6
   2  -5  -8 1927.45 150.668   6
   2  -5  -7 7891.19 264.000   9
  -2  -5   7 8930.78 747.307   3
  -2  -5   6 584.362 217.257   3
   2  -5  -6 776.722 94.7804   9
  -2  -5   5 2228.89 382.245   3
  -2  -5   4 13333.2 850.303   3
  -2  -5   3 16757.1 938.763   3
  -2  -5   2 8855.74 675.083   3
  -2  -5   1 12175.8 786.372   3
  -2  -5   0 45078.2 1552.86   3
  -2  -5   0 39720.0 1327.99  11
  -2  -5  -1 5826.94 540.886   3
  -2  -5  -1 5474.46 511.370  11
  -2  -5  -2 1699.74 324.426   3
  -2  -5  -2 1270.12 279.711  11
  -2  -5  -3 48136.5 1694.33  11
  -2  -5  -3 49983.0 1637.90   3
  -2  -5  -4 1637.68 344.007  11
   2  -5   5 8279.54 304.655   5
   2  -5   5 8419.63 313.217   1
   2  -5   6 14550.1 412.056   5
   2  -5   6 14199.5 428.111   1
  -2  -5  -6 14366.9 1021.85  11
   2  -5   7 2696.52 181.231   5
   2  -5   7 2349.28 181.166   1
   2  -5   8 16617.3 433.216   5
   2  -5   8 16675.6 478.296   1
   2  -5   9 6387.09 288.597   1
   2  -5  10 2664.86 189.803   1
   2  -5  11 9660.99 320.460   1
   2  -5  12 3912.61 183.426   1
   2  -5  13 872.591 78.9887   1
   2  -4 -15 4938.69 140.648   6
   2  -4 -14 597.090 73.7032   6
   2  -4 -13 1359.32 114.031   6
   2  -4 -12 1747.00 141.830   6
   2  -4 -11 1343.56 129.449   6
   2  -4 -10 9382.23 317.394   6
   2  -4  -9 1601.55 139.723   6
  -2  -4   8 7454.52 670.293   3
  -2  -4   8 7281.05 636.237  10
   2  -4  -8 6513.45 251.751   6
  -2  -4   7 3127.17 409.072  10
  -2  -4   7 3011.95 420.691   3
  -2  -4   6 13490.1 833.549   3
  -2  -4   5 6642.66 564.687   3
  -2  -4   4 1623.82 303.807   3
  -2  -4   3 340.910 166.827   3
  -2  -4   2 74353.6 1847.82   3
  -2  -4   1 34626.0 1186.22   3
  -2  -4   1 33702.6 1006.39  11
  -2  -4   0 10265.4 629.947   3
  -2  -4   0 10744.2 580.286  11
  -2  -4  -1 8415.99 580.591   3
  -2  -4  -1 6791.06 499.685  11
  -2  -4  -2 71205.3 1803.10  11
  -2  -4  -2 71731.0 1781.18   3
  -2  -4  -3 7376.30 586.885  11
  -2  -4  -3 7196.86 530.227   3
  -2  -4  -4 11741.9 696.689   3
  -2  -4  -4 12049.8 772.354  11
  -2  -4  -5 901.665 277.369  11
  -2  -4  -6 339.956 228.055  11
   2  -4   7 5910.49 243.425   5
   2  -4   7 5803.05 264.971   1
  -2  -4  -7 5181.40 609.514  11
  -2  -4  -8 3495.95 541.434  11
   2  -4   8 2723.38 194.012   1
   2  -4   9 513.021 109.033   1
   2  -4  10 5868.05 274.542   1
   2  -4  11 3252.06 204.727   1
   2  -4  12 293.478 79.7869   1
   2  -4  13 245.714 67.1835   1
   2  -4  14 4268.24 152.953   1
   2  -3 -15 345.617 59.2606   6
   2  -3 -14 323.895 71.4729   6
   2  -3 -13 8670.94 288.482   6
   2  -3 -12 1154.01 126.868   6
   2  -3 -11 722.632 109.922   6
   2  -3 -10 9884.56 327.237   6
   2  -3  -9 7961.16 282.598   6
  -2  -3   9 7892.42 662.784  10
  -2  -3   9 7762.09 672.156   3
  -2  -3   8 9050.45 663.527  10
   2  -3  -8 8769.61 285.233   6
  -2  -3   8 9819.59 713.370   3
  -2  -3   7 14019.6 805.707  10
  -2  -3   7 15889.1 871.040   3
  -2  -3   6 39375.5 1342.99   3
  -2  -3   5 76824.6 1868.13   3
  -2  -3   4 81175.2 1856.82   3
  -2  -3   3 21710.4 863.053   3
  -2  -3   2 1672.40 174.270  11
  -2  -3   2 1535.85 238.268   3
  -2  -3   1 22934.2 835.859   3
  -2  -3   1 22639.8 693.014  11
  -2  -3   0 37498.5 1009.32  11
  -2  -3   0 39621.1 1110.96   3
  -2  -3  -1 3470.50 324.456   3
  -2  -3  -1 3363.62 318.293  11
  -2  -3  -2 19062.4 783.561  11
  -2  -3  -2 20579.0 793.746   3
  -2  -3  -3 230875. 3464.98   3
  -2  -3  -3 228216. 3638.32  11
  -2  -3  -4 15853.7 705.159   3
  -2  -3  -4 16379.6 820.507  11
  -2  -3  -5 3726.44 430.087  11
  -2  -3  -6 25554.1 1156.56  11
  -2  -3  -7 3419.93 464.325  11
  -2  -3  -8 7301.56 698.129  11
   2  -3   8 7525.62 302.568   1
   2  -3   9 15282.0 451.208   1
  -2  -3  -9 13998.0 995.694  11
   2  -3  10 2448.14 185.487   1
   2  -3  11 5796.66 272.321   1
   2  -3  12 4362.47 227.938   1
   2  -3  13 903.450 105.551   1
   2  -3  14 4.69345 49.3559   1
   2  -3  15 113.678 38.1140   1
   2  -2 -16 1756.88 86.7175   6
   2  -2 -15 8225.76 240.080   6
   2  -2 -14 413.377 79.7568   6
   2  -2 -13 31.4464 76.1339   6
   2  -2 -12 2127.32 163.882   6
   2  -2 -11 1465.10 143.150   6
  -2  -2  10 446.747 208.480   3
  -2  -2  10 672.913 288.824  10
   2  -2 -10 501.468 91.3467   6
  -2  -2   9 6285.11 579.693   3
   2  -2  -9 5695.58 232.567   6
  -2  -2   8 13284.1 796.999   3
  -2  -2   8 13047.5 778.033  10
  -2  -2   7 21291.1 960.033   3
  -2  -2   7 22231.7 970.220  10
  -2  -2   6 39204.0 1229.18  10
  -2  -2   6 38859.0 1247.18   3
  -2  -2   5 1932.44 284.853   3
  -2  -2   4 31063.8 986.818   3
  -2  -2   3 1138.10 205.478   3
  -2  -2   2 20642.2 471.140  11
  -2  -2   2 20340.0 712.389   3
  -2  -2   1 8478.79 437.524   3
  -2  -2   1 8443.46 342.802  11
  -2  -2   0 31264.3 849.810   3
  -2  -2   0 31183.2 779.237  11
  -2  -2  -1 46563.8 1078.57  11
  -2  -2  -1 46577.2 1059.08   3
  -2  -2  -2 9847.59 494.479  11
  -2  -2  -2 10359.8 471.217   3
  -2  -2  -3 7280.54 462.520  11
  -2  -2  -3 6673.50 375.182   3
  -2  -2  -4 36256.8 1123.70  11
  -2  -2  -5 4571.62 433.046  11
  -2  -2  -6 34749.1 1252.93  11
  -2  -2  -7 7858.87 633.211  11
  -2  -2  -8 6146.99 587.094  11
  -2  -2  -9 4006.64 521.927  11
   2  -2   9 4005.67 224.124   1
   2  -2  10 1078.69 135.261   1
  -2  -2 -10 1202.74 391.495  11
   2  -2  11 61896.0 1059.65   1
   2  -2  12 2223.61 174.189   1
   2  -2  13 165.426 81.3303   1
   2  -2  14 1758.71 127.678   1
   2  -2  15 3400.21 135.997   1
   2  -1 -16 585.736 64.3010   6
   2  -1 -15 736.326 90.2738   6
   2  -1 -14 885.934 115.806   6
   2  -1 -13 11115.8 353.300   6
   2  -1 -12 14096.1 410.405   6
   2  -1 -11 2646.77 178.898   6
  -2  -1  10 14238.8 890.120   3
   2  -1 -10 13971.8 389.801   6
  -2  -1  10 13226.1 905.672  10
  -2  -1   9 3851.65 474.157  10
  -2  -1   8 16389.0 860.621  10
  -2  -1   7 1906.63 292.670  10
  -2  -1   6 78516.6 1784.08  10
  -2  -1   5 40115.7 1130.99  10
  -2  -1   2 77534.9 1038.43  11
  -2  -1   2 80552.9 1427.62   3
  -2  -1   1 14587.8 401.409  11
  -2  -1   1 14236.5 493.311   3
  -2  -1   0 57776.8 1041.20  11
  -2  -1   0 57662.9 1068.03   3
  -2  -1  -1 405.691 110.856  11
  -2  -1  -1 364.438 101.295   3
  -2  -1  -2 338.843 124.462  11
  -2  -1  -2 479.619 99.8940   3
   2  -1   2 359.575 38.4585   2
   2  -1   3 167270. 1980.09   2
  -2  -1  -3 165982. 2235.68   3
  -2  -1  -3 167491. 2581.42  11
  -2  -1  -4 37587.3 1072.33  11
   2  -1   4 38525.7 717.128   2
  -2  -1  -5 15162.9 702.246  11
  -2  -1  -6 34531.6 1173.29  11
  -2  -1  -7 932.543 238.286  11
  -2  -1  -8 5857.89 555.428  11
   2  -1   9 6307.80 253.397   7
  -2  -1  -9 5743.27 584.665  11
  -2  -1 -10 293.695 199.966  11
   2  -1  10 752.241 115.191   1
   2  -1  11 3791.82 219.746   1
   2  -1  12 2827.37 194.918   1
   2  -1  13 445.695 99.9898   1
   2  -1  14 540.341 87.5869   1
   2  -1  15 1150.05 89.6147   1
   2   0 -16 141.840 49.5208   6
   2   0 -15 695.228 89.6919   6
   2   0 -14-19.4955 74.2302   6
   2   0 -13 415.992 103.355   6
   2   0 -12 67.8792 75.6429   6
   2   0 -11 9114.23 323.476   6
  -2   0  10 150.892 220.860  10
   2   0 -10 134.211 66.2898   6
  -2   0   9 4421.01 502.436  10
  -2   0   8 32070.5 1242.41  10
  -2   0   7 11304.2 679.632  10
  -2   0   6 15747.7 724.875  10
  -2   0   5 70928.2 1553.68  10
  -2   0   4 9119.47 468.585  10
  -2   0   3 189299. 2684.93  10
   2   0  -2 999999. 10976.8   2
   2   0  -1 16721.8 478.879   2
  -2   0   0 266870. 3168.01   3
   2   0   0 266879. 3201.94   2
   2   0   1 40727.4 761.287   2
  -2   0  -1 42193.3 693.473   3
  -2   0  -2 64.5630 40.9176   3
   2   0   2 113.642 70.0645   2
   2   0   3 1370.50 151.538   2
  -2   0  -3 1246.27 192.113  11
  -2   0  -4 4685.56 358.230  11
   2   0   5 45539.5 1008.20  10
  -2   0  -5 44106.3 1223.04  11
   2   0   6 1827.55 213.979  10
  -2   0  -6 1734.29 285.944  11
  -2   0  -7 223.686 132.912  11
  -2   0  -8 39310.5 1375.99  11
  -2   0  -9 5664.67 545.158  11
   2   0  10 3452.03 199.443   7
   2   0  11 61926.9 1031.81   7
   2   0  12 10308.5 362.199   1
   2   0  13 6571.58 278.440   1
   2   0  14 662.833 92.5680   1
   2   0  15 16.6413 47.0475   1
   2   1 -16 612.241 70.5413   6
   2   1 -15 620.756 86.6765   6
   2   1 -14 738.475 108.588   6
   2   1 -13 11087.9 364.161   6
   2   1 -12 13694.8 414.920   6
   2   1 -11 2567.08 180.431   6
   2   1 -10 13735.4 400.942   6
  -2   1  10 14340.4 987.081  10
  -2   1   9 4392.87 526.989  10
  -2   1   8 16583.7 910.269  10
  -2   1   7 1699.87 307.934  10
  -2   1   6 76306.0 1785.36  10
  -2   1   5 38356.0 1099.61  10
  -2   1   4 76122.5 1527.64  10
   2   1  -3 90879.3 1636.49   2
  -2   1   3 92498.5 1607.78  10
   2   1  -2 78634.1 1421.03   2
  -2   1   2 80922.9 1361.44  10
   2   1  -1 14765.7 509.666   2
  -2   1   1 14873.1 435.752  10
   2   1   0 58962.1 1113.94   2
  -2   1   0 57399.1 883.562  10
  -2   1  -1 268.233 43.0527  10
   2   1   1 241.223 101.171   2
   2   1   2 329.370 105.901   2
   2   1   3 168614. 2517.97   2
   2   1   4 37774.3 1015.72   2
  -2   1  -5 15582.3 694.894  11
   2   1   6 33593.1 1049.31  10
  -2   1  -6 33319.4 1098.78  11
   2   1   7 1222.50 219.945  10
  -2   1  -7 1623.52 275.584  11
   2   1   8 6069.35 489.915  10
  -2   1  -8 5249.37 489.923  11
   2   1   9 6496.59 254.792   7
  -2   1  -9 5933.42 547.379  11
   2   1  10 746.805 109.675   7
   2   1  11 3641.53 210.469   7
   2   1  12 3140.22 198.042   7
   2   1  13 532.593 99.4964   1
   2   1  14 686.978 94.8478   1
   2   1  15 1147.56 90.9528   1
   2   2 -16 1596.65 87.5239   6
   2   2 -15 8448.95 253.070   6
   2   2 -14 478.538 91.1589   6
   2   2 -13-89.4457 96.6784   6
   2   2 -12 2126.31 173.367   6
   2   2 -11 1121.54 133.308   6
  -2   2  10 681.228 299.557  10
   2   2 -10 539.948 103.727   6
  -2   2   9 5752.57 635.538  10
   2   2  -9 5716.06 250.184   6
  -2   2   8 11864.6 810.217  10
  -2   2   7 20418.9 988.189  10
  -2   2   6 36628.4 1245.39  10
  -2   2   5 1905.18 285.033  10
  -2   2   4 30278.6 952.031  10
   2   2  -4 28735.3 928.495   2
  -2   2   3 1253.64 194.994  10
   2   2  -3 1288.95 206.355   2
   2   2  -2 19855.2 685.426   2
  -2   2   2 19852.2 627.097  10
   2   2  -1 8528.09 437.779   2
  -2   2   1 7848.31 339.037  10
   2   2   0 31019.9 859.922   2
  -2   2   0 31534.6 614.818  10
   2   2   1 46866.6 1116.81   2
   2   2   2 11208.1 531.851   2
   2   2   3 7163.89 450.960   2
   2   2   4 36697.3 1114.32   2
   2   2   5 5178.87 439.124   2
  -2   2  -6 34876.6 1158.05  11
  -2   2  -7 7817.72 558.792  11
  -2   2  -8 5785.41 519.714  11
   2   2   9 4291.31 212.461   7
   2   2  10 1070.11 125.661   7
   2   2  10 795.429 333.565   2
   2   2  11 62310.7 1032.09   7
   2   2  12 1941.84 157.668   7
   2   2  13 207.199 79.5929   7
   2   2  14 1680.67 127.148   1
   2   2  15 3576.86 142.513   1
   2   3 -15 349.744 62.0295   6
   2   3 -14 420.168 83.4303   6
   2   3 -13 8464.88 306.059   6
   2   3 -12 1194.15 138.305   6
   2   3 -11 756.413 120.824   6
   2   3 -10 9482.77 347.036   6
   2   3  -9 7961.89 311.036   6
  -2   3   9 8941.46 790.622  10
  -2   3   8 9047.27 760.451  10
  -2   3   7 15365.2 919.865  10
  -2   3   6 38538.3 1392.42  10
   2   3  -5 73931.9 1751.98   2
  -2   3   5 75309.5 1877.23  10
   2   3  -4 80082.9 1763.22   2
  -2   3   4 77655.0 1808.55  10
   2   3  -3 22750.8 841.736   2
  -2   3   3 21665.0 812.395  10
  -2   3   2 1731.25 219.190  10
   2   3  -2 1723.21 248.981   2
  -2   3   1 22608.6 673.215  10
   2   3  -1 21790.6 806.196   2
   2   3   0 38114.9 1087.54   2
   2   3   1 3185.48 329.713   2
   2   3   2 18652.2 787.966   2
   2   3   3 234292. 3698.95   2
   2   3   4 16374.2 807.511   2
   2   3   5 3707.18 415.130   2
   2   3   6 26474.4 1147.10   2
  -2   3  -7 4029.98 428.428  11
   2   3   7 3620.34 455.408   2
   2   3   8 8347.22 712.699   2
   2   3   8 8155.56 288.708   7
   2   3   9 14432.9 991.025   2
   2   3   9 16296.1 434.559   7
   2   3  10 2597.44 175.381   7
   2   3  11 6077.54 261.565   7
   2   3  12 4159.96 216.633   7
   2   3  13 986.628 112.851   7
   2   3  15 33.3157 34.9480   1
   2   4 -14 677.299 84.5132   6
   2   4 -13 1447.13 127.602   6
   2   4 -12 1550.98 148.354   6
   2   4 -11 1460.36 151.283   6
   2   4 -10 9431.47 308.616   4
   2   4 -10 9145.43 350.251   6
   2   4  -9 1558.18 138.166   4
   2   4  -9 1734.71 161.676   6
   2   4  -8 6606.19 261.490   4
   2   4  -8 6874.61 289.573   6
  -2   4   7 2686.43 429.487  10
   2   4  -7 3104.67 192.152   6
  -2   4   6 14005.3 881.322  10
   2   4  -5 6124.47 513.926   2
  -2   4   5 6207.42 546.102  10
  -2   4   4 1358.42 253.459  10
   2   4  -4 1342.97 251.026   2
  -2   4   3 839.321 198.953  10
   2   4  -3 491.478 174.125   2
  -2   4   2 70201.9 1574.34  10
   2   4  -2 72785.3 1734.98   2
   2   4  -1 34174.3 1142.56   2
   2   4   0 9371.86 592.455   2
   2   4   1 7996.40 562.028   2
   2   4   2 72163.5 1830.90   2
   2   4   3 7694.36 584.765   2
   2   4   4 11507.5 751.648   2
   2   4   5 1168.59 289.130   2
   2   4   6-51.9549 165.053   2
   2   4   7 5739.75 622.043   2
   2   4   7 5726.24 243.185   7
   2   4   8 2781.32 178.111   7
  -2   4  -8 2533.10 170.033   6
   2   4   8 2852.51 481.634   2
   2   4   9 581.180 100.909   7
  -2   4  -9 469.152 96.3801   6
   2   4  10 5560.49 248.106   7
   2   4  11 3658.25 199.448   7
   2   4  12 423.083 84.4442   7
   2   4  13 70.3932 52.5802   7
   2   5 -11 513.115 75.4976   4
   2   5 -11 650.146 113.014   6
   2   5 -10 11510.2 337.946   4
   2   5 -10 10873.0 378.352   6
   2   5  -9 42043.4 761.313   4
   2   5  -9 40727.0 814.555   6
   2   5  -8 1728.53 143.747   4
   2   5  -8 1895.53 171.426   6
  -2   5   7 8566.90 776.507  10
   2   5  -7 8303.54 299.474   4
   2   5  -7 8401.54 324.673   6
  -2   5   6 1011.15 303.978  10
   2   5  -6 865.380 105.714   4
   2   5  -6 711.346 113.364   6
  -2   5   5 2645.77 375.594  10
   2   5  -5 2510.03 159.526   4
   2   5  -5 2388.96 355.260   2
  -2   5   4 12033.2 769.201  10
   2   5  -4 13077.0 779.110   2
   2   5  -3 16035.5 851.764   2
   2   5  -2 9498.64 650.783   2
   2   5  -1 10246.2 683.816   2
   2   5   0 41845.5 1444.46   2
   2   5   1 5308.36 521.927   2
   2   5   2 1544.29 319.909   2
   2   5   3 48335.7 1668.99   2
   2   5   4 2004.21 361.428   2
   2   5   5 8514.63 295.950   7
   2   5   5 8247.92 733.230   2
   2   5   6 13818.5 970.652   2
   2   5   6 14679.4 405.270   7
   2   5   7 2671.54 178.278   7
   2   5   8 16517.7 445.141   7
   2   5   9 6846.33 273.451   7
   2   5  10 2620.83 167.715   7
   2   5  11 8726.43 283.533   7
   2   5  12 3451.59 162.486   7
   2   5  13 797.362 72.8305   7
  -2   5 -13 895.858 81.6144   4
   2   6 -13 553.309 56.3196   8
   2   6 -11 1609.71 103.322   4
   2   6 -10 1600.71 117.467   4
   2   6  -9 2076.57 146.469   4
   2   6  -8 4.07919 61.9821   4
   2   6  -7 4847.99 229.670   4
   2   6  -6 2032.57 160.036   4
   2   6  -5 560.130 94.7836   4
   2   6  -4 1247.25 126.668   4
   2   6  -3 238.862 71.6963   4
   2   6  -3-53.1590 186.834   2
   2   6  -2 4781.89 221.729   4
   2   6  -2 3926.11 479.417   2
   2   6  -1 2178.60 367.364   2
   2   6  -1 2611.22 166.612   4
   2   6   0 492.521 81.7406   4
   2   6   0 739.792 268.025   2
   2   6   1 5695.50 602.333   2
   2   6   1 6276.63 250.672   4
   2   6   2 7701.94 696.676   2
  -2   6  -2 7712.35 275.611   4
   2   6   2 7444.21 286.790   7
   2   6   2 7898.55 284.729   4
   2   6   3 11469.4 349.014   4
   2   6   3 11416.1 357.775   7
  -2   6  -3 11209.5 346.783   4
   2   6   4 1912.16 151.163   7
  -2   6  -4 1811.04 145.453   4
   2   6   5 55.1754 65.1771   7
  -2   6  -5 111.644 69.1715   4
   2   6   6 5111.53 236.224   7
  -2   6  -6 5075.37 250.605   4
   2   6   7 5527.43 243.592   7
  -2   6  -7 5523.69 261.094   4
  -2   6  -8 5155.77 252.763   4
   2   6   8 5523.84 241.092   7
   2   6   9 331.182 76.7615   7
  -2   6  -9 322.030 82.0082   4
   2   6  10 3803.25 177.131   7
  -2   6 -10 3924.20 198.290   4
   2   6  11 814.821 83.8642   7
  -2   6 -11 969.727 98.3735   4
   2   6  12 438.114 53.7371   7
  -2   6 -12 508.628 64.0976   4
   2   7 -11 444.384 45.6529   4
   2   7 -10 4329.42 164.159   8
   2   7 -10 5427.78 176.237   4
   2   7  -9 9183.47 267.491   8
   2   7  -9 10419.1 285.087   4
   2   7  -8 3763.23 184.948   4
   2   7  -7 7691.54 276.899   4
   2   7  -6 8341.31 299.355   4
   2   7  -5 411.474 88.3562   4
   2   7  -4 1487.44 138.149   4
   2   7  -3 6713.40 275.197   4
   2   7  -2 5371.58 247.364   4
   2   7  -1 9533.91 329.767   4
   2   7   0 1633.23 141.250   4
   2   7   1 1798.40 143.797   4
   2   7   1 1769.55 146.716   7
   2   7   2 4614.07 223.639   4
  -2   7  -2 4747.16 213.581   4
   2   7   2 4574.24 226.285   7
  -2   7  -3 28597.1 593.051   4
   2   7   3 29343.9 615.333   7
   2   7   4 577.280 93.8357   7
  -2   7  -4 717.373 100.251   4
   2   7   5 8574.50 300.684   7
  -2   7  -5 8781.52 307.631   4
   2   7   6 3826.30 193.822   7
  -2   7  -6 3380.10 191.308   4
   2   7   7 1902.24 135.311   7
  -2   7  -7 2174.16 154.990   4
   2   7   8 1059.56 99.0093   7
  -2   7  -8 1073.87 107.993   4
   2   7   9 866.931 83.8533   7
  -2   7  -9 841.333 91.9593   4
   2   7  10 635.233 65.2469   7
  -2   7 -10 740.385 77.7714   4
  -2   7 -11 1048.04 73.0310   4
   2   8  -9 2352.42 102.677   4
   2   8  -8 5036.58 176.342   4
   2   8  -7 724.027 82.4910   4
   2   8  -6 360.003 72.3366   4
   2   8  -5 8037.96 274.512   4
   2   8  -4 3345.32 182.471   4
   2   8  -3 5280.60 230.369   4
   2   8  -2 7014.71 268.453   4
   2   8  -1 1547.16 133.629   4
   2   8  -1 1435.49 132.991   7
   2   8   0 2000.84 145.345   4
   2   8   0 1841.69 144.038   7
   2   8   1 7437.94 274.844   4
   2   8   1 7290.40 272.026   7
  -2   8  -2 1631.00 121.342   4
   2   8   2 1386.41 122.344   7
   2   8   3 1139.41 111.127   7
  -2   8  -3 897.000 93.3917   4
   2   8   4-11.6544 54.3548   7
  -2   8  -4 21.9053 50.3498   4
   2   8   5 809.052 86.2530   7
  -2   8  -5 784.788 90.1651   4
   2   8   6 299.674 60.5807   7
  -2   8  -6 224.546 57.5061   4
   2   8   7 3329.48 141.349   7
  -2   8  -7 3587.79 155.579   4
   2   8   8 2718.42 110.750   7
  -2   8  -8 2882.08 127.866   4
  -2   8  -9 204.182 40.0405   4
   2   9  -7 46.3743 32.6214   7
   2   9  -7 53.4899 28.9376   4
   2   9  -6 2136.65 102.404   4
   2   9  -6 1931.25 101.588   7
   2   9  -5 21.0938 40.0604   7
   2   9  -5 63.2178 42.5470   4
   2   9  -4 1579.51 104.245   4
   2   9  -4 1367.38 99.1903   7
   2   9  -3 1391.49 102.757   4
   2   9  -3 1293.94 98.1496   7
   2   9  -2 996.725 92.2277   4
   2   9  -2 846.324 84.4020   7
   2   9  -1 5886.73 209.622   4
   2   9  -1 5589.12 200.304   7
   2   9   0 3889.44 164.665   7
   2   9   1 5113.83 185.558   7
   2   9   2 2540.95 127.872   7
   2   9   3 2195.81 113.936   7
   2   9   4 75.8433 41.0336   7
  -2   9  -5 3414.53 116.699   4
   3  -9  -6 1676.28 75.5733   6
   3  -9  -5 325.955 49.5364   9
   3  -9  -5 319.608 46.3374   6
   3  -9  -4 132.093 50.8210   9
   3  -9  -3 838.928 78.7595   9
   3  -9  -2 1176.52 89.3710   9
   3  -9  -1 2736.53 130.626   9
   3  -9   0 535.875 69.4600   9
   3  -9   1 3766.63 151.205   1
   3  -9   1 3661.78 142.097   9
   3  -9   2 585.696 60.7996   9
   3  -9   2 603.441 70.3406   1
   3  -9   3 580.883 67.4549   1
   3  -9   4 374.544 58.8223   1
   3  -9   5 313.414 51.9054   1
   3  -8  -9 2644.47 98.7836   6
   3  -8  -8 1234.29 80.8162   6
   3  -8  -7 3641.88 140.844   9
   3  -8  -7 3718.11 147.453   6
   3  -8  -6 5274.97 185.626   9
   3  -8  -6 5090.39 184.739   6
   3  -8  -5 2590.96 142.772   9
   3  -8  -4 3937.71 182.921   9
   3  -8  -3 30.9835 65.6908   9
   3  -8  -2 5584.86 224.387   9
   3  -8  -1 946.447 110.128   9
   3  -8  -1 989.915 104.226   1
   3  -8   0 470.054 85.4280   9
   3  -8   0 478.859 88.5370   1
   3  -8   1 5998.12 245.841   1
   3  -8   1 6177.85 228.511   9
   3  -8   2 9556.81 276.560   9
   3  -8   2 9490.96 315.175   1
   3  -8   2 10212.6 320.598   5
   3  -8   3 2185.98 153.847   1
   3  -8   3 2272.01 124.614   9
   3  -8   3 2359.67 159.558   5
   3  -8   4 1504.01 127.759   1
   3  -8   4 1618.97 132.320   5
   3  -8   5 114.423 65.5845   1
   3  -8   5 69.5958 68.5871   5
   3  -8   6 4427.27 190.854   1
   3  -8   7 2467.70 133.594   1
   3  -8   8 870.416 76.0086   1
   3  -7 -11 429.175 48.1778   6
   3  -7 -10 4947.51 162.769   6
   3  -7  -9 1658.71 109.059   6
   3  -7  -8 2446.48 138.174   6
   3  -7  -8 2150.50 119.694   9
   3  -7  -7 4760.55 192.560   9
   3  -7  -7 4488.20 193.733   6
   3  -7  -6 7403.28 257.079   9
   3  -7  -5 239.873 82.5760   9
   3  -7  -4 4909.36 223.248   9
   3  -7  -3 10341.4 330.489   9
   3  -7  -2 1557.10 135.302   1
   3  -7  -1 5429.48 245.597   1
   3  -7  -1 5675.14 248.475   5
   3  -7   0 1717.85 149.117   1
   3  -7   0 1829.92 157.328   5
   3  -7   1 9458.79 334.787   5
   3  -7   1 9073.16 332.125   1
   3  -7   2 321.676 95.7540   1
   3  -7   2 429.050 109.988   5
   3  -7   3 10258.3 352.117   5
   3  -7   3 9499.94 343.593   1
   3  -7   4 3090.13 195.841   5
   3  -7   4 3037.80 195.428   1
   3  -7   5 2950.39 221.640   5
   3  -7   5 2120.88 166.330   1
   3  -7   6 108.722 74.4121   5
   3  -7   6 174.397 85.0986   1
   3  -7   7 1753.25 127.780   5
   3  -7   7 1864.51 148.329   1
   3  -7   8 230.318 62.6912   5
   3  -7   8 320.311 79.4076   1
   3  -7   9 2010.86 128.952   1
   3  -7  10 983.496 82.4700   1
   3  -6 -12 808.145 70.0887   6
   3  -6 -11 443.551 70.3437   6
   3  -6 -10 3854.66 172.302   6
   3  -6  -9 723.084 96.7934   6
   3  -6  -8 3153.28 163.573   9
   3  -6  -8 2964.05 169.270   6
   3  -6  -7 11011.5 322.952   9
   3  -6  -6 3470.03 187.265   9
   3  -6  -5 46.6040 71.9904   9
   3  -6  -4 3496.14 194.492   9
   3  -6  -3 3908.33 193.387   5
   3  -6  -2 3765.51 198.596   5
  -3  -6   2 3603.76 534.869   3
   3  -6  -1 3115.29 189.418   1
  -3  -6   1 3638.65 519.114   3
   3  -6  -1 3104.25 188.338   5
  -3  -6   0 3247.87 486.702   3
   3  -6   0 4034.09 216.053   1
   3  -6   0 3818.99 213.709   5
  -3  -6   0 3942.86 210.693   1
   3  -6   1 2809.88 186.665   5
   3  -6   1 2875.52 188.004   1
  -3  -6  -1 2915.29 443.734   3
   3  -6   2 82202.0 1265.24   1
   3  -6   2 81196.2 1258.41   5
  -3  -6  -2 84285.1 2426.46   3
   3  -6   3 8296.25 323.799   5
   3  -6   3 8237.26 319.689   1
   3  -6   4 30349.6 662.698   5
   3  -6   4 30706.3 666.309   1
   3  -6   5 11550.0 382.275   5
   3  -6   5 11016.4 376.852   1
   3  -6   6 883.369 129.551   5
   3  -6   6 958.055 124.405   1
   3  -6   7 6456.04 267.993   5
   3  -6   7 6430.17 282.718   1
   3  -6   8 2537.34 179.664   1
   3  -6   8 2768.92 167.022   5
   3  -6   9 353.505 68.6027   5
   3  -6   9 421.917 92.7807   1
   3  -6  10 5813.79 227.292   1
   3  -6  11 1455.78 106.210   1
   3  -6  12 1188.48 77.0707   1
   3  -5 -13 855.746 74.3563   6
   3  -5 -12 370.649 72.5717   6
   3  -5 -11 2525.87 149.171   6
   3  -5 -10 3646.33 186.954   6
   3  -5  -9 10679.6 328.216   6
   3  -5  -8 8939.99 284.624   9
   3  -5  -8 8546.10 294.680   6
   3  -5  -7 3580.12 186.583   9
  -3  -5   6 879.254 272.277   3
   3  -5  -6 1790.04 139.629   9
  -3  -5   5 337.715 205.842   3
   3  -5  -5 629.594 95.8165   9
   3  -5  -4 14170.6 381.481   9
  -3  -5   4 14124.4 938.585   3
  -3  -5   3 10218.0 786.270   3
  -3  -5   2 6669.63 629.629   3
  -3  -5   1 1757.32 356.711   3
  -3  -5   0 8328.50 706.830   3
  -3  -5  -1 2185.80 370.631   3
  -3  -5  -1 2455.15 363.833  11
   3  -5   2 9404.37 318.401   5
  -3  -5  -2 8878.98 694.976   3
  -3  -5  -2 9433.41 716.070  11
  -3  -5  -3 1027.90 272.255   3
   3  -5   3 1071.95 131.582   5
   3  -5   3 980.101 117.269   1
  -3  -5  -3 437.850 241.015  11
   3  -5   4 6479.91 278.190   5
   3  -5   4 7007.10 283.290   1
  -3  -5  -4 6419.18 660.593  11
   3  -5   5 4349.95 231.752   5
   3  -5   5 4316.80 227.255   1
  -3  -5  -5 4305.20 573.673  11
   3  -5   6 7787.54 305.669   5
   3  -5   6 7732.19 309.859   1
   3  -5   7 6486.78 275.116   5
   3  -5   7 6471.10 289.967   1
   3  -5   8 4226.25 215.027   5
   3  -5   8 4357.33 237.728   1
   3  -5   9 17.6497 72.3494   5
   3  -5   9 134.952 86.9713   1
   3  -5  10 2839.31 184.412   1
   3  -5  11 1259.72 117.763   1
   3  -5  12 637.590 80.1271   1
   3  -5  13 2256.84 104.854   1
   3  -4 -14 447.292 57.5237   6
   3  -4 -13 3566.02 159.734   6
   3  -4 -12 1944.48 137.797   6
   3  -4 -11 7080.81 263.340   6
   3  -4 -10 4431.20 213.922   6
   3  -4  -9 18064.0 448.048   6
   3  -4  -8 226.151 75.2603   9
   3  -4  -8 230.130 77.7957   6
  -3  -4   7 7450.98 714.943   3
   3  -4  -7 6944.47 251.529   9
   3  -4  -7 6615.05 251.734   6
  -3  -4   7 6849.76 650.479  10
   3  -4  -6 292.233 75.1275   9
  -3  -4   6 216.021 169.733   3
  -3  -4   5 3101.53 420.899   3
  -3  -4   4 5280.24 543.554   3
  -3  -4   3 10500.6 730.061   3
  -3  -4   2 5708.93 528.066   3
  -3  -4   1 16630.5 883.123   3
  -3  -4   0 5763.76 512.525   3
  -3  -4   0 6569.94 479.079  11
  -3  -4  -1 14940.6 824.268   3
  -3  -4  -1 14855.9 774.294  11
  -3  -4  -2 29979.2 1168.78   3
  -3  -4  -2 27318.9 1132.02  11
  -3  -4  -3 480.188 178.045   3
  -3  -4  -3 224.676 179.282  11
  -3  -4  -4 4967.81 482.325   3
  -3  -4  -4 5129.43 544.427  11
   3  -4   5 1184.66 135.403   5
  -3  -4  -5 1148.94 340.101  11
   3  -4   6 445.421 102.570   5
   3  -4   6 351.505 99.4138   1
  -3  -4  -6 613.570 279.790  11
   3  -4   7 923.841 121.329   5
   3  -4   7 971.016 128.195   1
  -3  -4  -7 748.065 326.999  11
   3  -4   8 16993.7 441.816   5
   3  -4   8 17087.4 480.830   1
   3  -4   9 472.775 137.307   5
   3  -4   9 435.277 96.3729   1
   3  -4  10 596.228 115.206   1
   3  -4  11 1117.77 127.605   1
   3  -4  12 12.9504 61.1848   1
   3  -4  13 3468.44 154.406   1
   3  -4  14 5708.65 156.501   1
   3  -3 -15 2310.26 102.767   6
   3  -3 -14 3192.92 147.595   6
   3  -3 -13 96.0873 65.3319   6
   3  -3 -12 355.665 83.3486   6
   3  -3 -11 1060.80 124.520   6
   3  -3 -10 2172.58 159.937   6
   3  -3  -9 16644.2 425.972   6
  -3  -3   9 16114.6 1041.66   3
  -3  -3   8 2350.23 412.252   3
  -3  -3   8 2699.90 424.661  10
   3  -3  -8 2461.11 154.867   6
  -3  -3   7 3166.33 440.407   3
  -3  -3   7 3195.27 454.969  10
  -3  -3   6 20056.3 1036.84   3
  -3  -3   5 1887.30 322.754   3
  -3  -3   4 42851.0 1412.60   3
  -3  -3   3 17115.4 842.545   3
  -3  -3   2 7911.71 554.521   3
  -3  -3   1 7875.50 419.579  11
  -3  -3   1 7026.15 515.292   3
  -3  -3   0 30138.1 939.186  11
  -3  -3   0 29324.9 1037.45   3
  -3  -3  -1 7451.62 493.361  11
  -3  -3  -1 7467.87 511.424   3
  -3  -3  -2 13426.9 684.988   3
  -3  -3  -2 12729.9 696.249  11
  -3  -3  -3 3860.91 365.660   3
  -3  -3  -3 3915.61 424.890  11
  -3  -3  -4 10024.2 690.518  11
  -3  -3  -4 11117.2 613.618   3
  -3  -3  -5 18444.6 992.823  11
  -3  -3  -6 7723.37 676.332  11
   3  -3   7 4620.25 237.560   1
   3  -3   7 4563.92 214.797   5
  -3  -3  -7 4425.65 557.197  11
   3  -3   8 2066.34 148.969   5
   3  -3   8 1663.02 160.590   1
  -3  -3  -8 1764.11 398.874  11
   3  -3   9 14176.8 439.667   1
   3  -3   9 14966.0 395.009   5
   3  -3  10 12298.5 404.465   1
   3  -3  11 3057.21 201.135   1
   3  -3  12 578.760 98.8498   1
   3  -3  13 6199.29 228.934   1
   3  -3  14 713.539 73.2578   1
   3  -2 -15 2469.42 120.474   6
   3  -2 -14 5314.75 207.270   6
   3  -2 -13 6955.59 258.639   6
   3  -2 -12 863.053 118.035   6
   3  -2 -11 1585.16 143.315   6
   3  -2 -10 15991.3 425.206   6
  -3  -2   9 67.0114 211.424  10
  -3  -2   9 154.754 175.079   3
   3  -2  -9 168.429 74.7275   6
  -3  -2   8 566.430 226.126  10
  -3  -2   8 541.068 204.583   3
  -3  -2   7 11317.0 778.237   3
  -3  -2   7 10961.6 753.364  10
  -3  -2   6 18530.8 934.152   3
  -3  -2   6 19522.2 943.234  10
  -3  -2   5 13134.6 740.465   3
  -3  -2   4 4091.93 400.036   3
  -3  -2   3 53195.7 1415.49   3
  -3  -2   2 23523.0 863.434   3
  -3  -2   1 41767.5 956.166  11
  -3  -2   1 42316.1 1157.11   3
  -3  -2   0 715.523 156.106  11
  -3  -2   0 794.533 177.538   3
  -3  -2  -1 20158.1 749.343  11
  -3  -2  -1 20218.3 734.487   3
  -3  -2  -2 2839.02 323.939  11
  -3  -2  -2 3099.44 287.702   3
  -3  -2  -3 10090.8 613.076  11
  -3  -2  -3 9192.39 477.305   3
  -3  -2  -4 23845.4 1004.14  11
  -3  -2  -4 24813.6 797.735   3
  -3  -2  -5 20046.7 972.308  11
  -3  -2  -6 12871.3 824.989  11
  -3  -2  -7 11072.7 814.945  11
   3  -2   8 6139.90 241.699   5
   3  -2   8 5909.21 269.620   1
  -3  -2  -9 1931.56 435.669  11
   3  -2   9 1636.51 156.750   1
   3  -2  10 10501.8 374.454   1
   3  -2  11 10165.3 366.843   1
   3  -2  12 2108.33 167.422   1
   3  -2  13 2466.07 159.700   1
   3  -2  14 6788.63 220.768   1
   3  -2  15 898.083 65.5590   1
   3  -1 -15 6.06196 49.8986   6
   3  -1 -14 749.441 97.8693   6
   3  -1 -13 1384.27 131.665   6
   3  -1 -12 3033.99 194.589   6
   3  -1 -11 1551.11 144.340   6
  -3  -1  10 2552.38 516.937  10
  -3  -1  10 1891.99 365.732   3
   3  -1 -10 1894.89 150.873   6
  -3  -1   9 792.945 277.133   3
  -3  -1   9 1190.57 301.013  10
   3  -1  -9 1382.02 127.250   6
  -3  -1   8 1379.93 311.070  10
  -3  -1   8 1446.03 319.687   3
  -3  -1   7 6911.84 576.787  10
  -3  -1   6 1437.27 282.743  10
  -3  -1   5 10463.1 625.620  10
  -3  -1   4 51954.8 1364.64   3
  -3  -1   3 88967.9 1789.75   3
  -3  -1   2 16193.3 648.280   3
  -3  -1   2 16739.2 481.660  11
  -3  -1   1 75957.4 1494.94   3
  -3  -1   1 75257.2 1341.01  11
  -3  -1   0 1052.45 162.813   3
  -3  -1   0 1329.08 185.094  11
  -3  -1  -1 5629.87 383.318  11
  -3  -1  -1 6187.21 342.557   3
  -3  -1  -2 1219.75 159.087   3
  -3  -1  -2 1023.66 199.982  11
  -3  -1  -3 28875.4 984.576  11
  -3  -1  -3 28094.3 698.253   3
  -3  -1  -4 3243.11 361.703  11
  -3  -1  -5 31334.9 1162.18  11
  -3  -1  -6 5590.74 519.976  11
  -3  -1  -7 962.230 280.297  11
  -3  -1  -8 2259.26 406.089  11
   3  -1   9 13570.8 388.020   7
   3  -1   9 13942.5 430.025   1
  -3  -1  -9 13634.0 970.828  11
   3  -1  10 27917.4 647.654   1
   3  -1  11 10030.3 365.005   1
   3  -1  12 2993.69 200.715   1
   3  -1  13 5630.93 243.398   1
   3  -1  14 1021.43 102.755   1
   3  -1  15 3700.54 137.095   1
   3   0 -16 10.8075 33.1128   6
   3   0 -15 314.563 68.0786   6
   3   0 -14 869.649 106.332   6
   3   0 -13 950.781 120.814   6
   3   0 -12 319.183 97.4492   6
   3   0 -11 21555.7 523.576   6
   3   0 -10 20943.8 501.658   6
  -3   0  10 22404.5 1245.73  10
   3   0  -9 131.249 68.6051   6
  -3   0   9 114.050 179.603  10
  -3   0   8 325.949 212.603  10
  -3   0   7 8280.79 621.947  10
  -3   0   6 17482.0 849.214  10
  -3   0   5 82939.5 1857.73  10
  -3   0   4 2252.16 279.659  10
  -3   0   3 28862.4 900.128  10
   3   0  -2 10824.5 481.792   2
   3   0  -1 62389.6 1226.72   2
  -3   0   0 6116.46 314.454   3
   3   0   0 6573.18 330.483   2
  -3   0  -1 47.7732 54.8161   3
   3   0   1 184.743 86.6170   2
  -3   0  -2 18089.6 704.167  11
   3   0   2 17144.3 546.062   2
  -3   0  -2 16765.0 416.819   3
   3   0   3 7752.90 367.239   2
  -3   0  -3 7395.03 485.286  11
   3   0   4 19939.6 634.796   2
  -3   0  -4 20492.7 858.817  11
   3   0   5 37266.4 960.849   2
  -3   0  -5 35492.8 1225.44  11
  -3   0  -6 54705.3 1637.86  11
  -3   0  -7 1022.97 270.082  11
  -3   0  -8 15705.2 947.137  11
  -3   0  -9 3961.84 544.185  11
   3   0   9 3080.64 181.861   7
   3   0  10 18139.8 471.979   7
   3   0  11 451.872 108.887   7
   3   0  12 29.2059 76.0607   1
   3   0  13 504.140 100.045   1
   3   0  14 2367.62 142.886   1
   3   0  15 772.303 70.4081   1
   3   1 -15-31.7734 54.5236   6
   3   1 -14 771.207 100.436   6
   3   1 -13 1395.27 137.147   6
   3   1 -12 3027.74 195.938   6
   3   1 -11 1728.64 160.260   6
  -3   1  10 1907.87 460.281  10
   3   1 -10 1950.51 157.183   6
  -3   1   9 1480.33 348.512  10
   3   1  -9 1179.01 124.598   6
  -3   1   8 1685.04 348.267  10
  -3   1   7 7106.01 595.706  10
  -3   1   6 956.846 243.230  10
  -3   1   5 9470.30 582.166  10
  -3   1   4 50176.2 1284.85  10
   3   1  -3 86244.3 1755.99   2
  -3   1   3 88617.8 1696.64  10
  -3   1   2 16548.8 596.115  10
   3   1  -2 17024.9 655.770   2
   3   1  -1 77687.6 1521.35   2
  -3   1   1 76620.6 1359.99  10
  -3   1   0 1225.49 139.512  10
   3   1   0 1127.78 177.968   2
  -3   1  -1 6115.83 234.581   3
   3   1   1 6156.58 377.914   2
  -3   1  -1 5857.09 233.159  10
   3   1   2 1149.57 183.312   2
   3   1   3 28009.7 866.071   2
   3   1   4 3266.48 305.400   2
  -3   1  -5 32524.1 1169.38  11
   3   1   5 32060.4 1038.18   2
   3   1   6 6759.65 496.538   2
  -3   1  -6 7022.42 570.722  11
   3   1   7 1316.10 246.023   2
  -3   1  -7 1211.32 276.013  11
  -3   1  -8 3011.51 456.401  11
   3   1   8 3160.27 174.566   7
   3   1   9 14111.6 394.392   7
  -3   1  -9 11877.6 852.090  11
   3   1  10 28896.3 614.569   7
   3   1  11 10140.0 346.356   7
   3   1  12 3053.15 189.994   7
   3   1  13 5505.24 241.991   1
   3   1  14 1107.36 104.516   1
   3   1  15 3749.12 138.196   1
   3   2 -15 898.775 65.4731   8
   3   2 -15 2490.44 123.418   6
   3   2 -14 5117.78 210.302   6
   3   2 -13 6663.75 266.430   6
   3   2 -12 810.844 125.135   6
   3   2 -11 1403.38 145.664   6
   3   2 -10 15535.9 441.094   6
   3   2  -9 173.226 74.1462   6
  -3   2   9 239.138 214.857  10
  -3   2   8 823.585 288.821  10
  -3   2   7 10910.4 753.637  10
  -3   2   6 18859.7 935.006  10
  -3   2   5 12090.7 686.148  10
  -3   2   4 4151.55 372.667  10
   3   2  -4 3792.69 376.983   2
   3   2  -3 51875.4 1368.66   2
  -3   2   3 51505.7 1266.42  10
  -3   2   2 22547.5 729.670  10
   3   2  -2 22615.4 838.024   2
   3   2  -1 42743.6 1165.68   2
  -3   2   1 41912.2 916.386  10
   3   2   0 779.566 181.500   2
   3   2   1 20178.8 782.312   2
   3   2   2 3089.92 325.241   2
   3   2   3 9205.61 557.276   2
   3   2   4 25007.4 982.203   2
   3   2   5 21631.9 950.611   2
   3   2   6 15085.6 829.317   2
  -3   2  -6 13590.4 812.470  11
   3   2   7 10641.7 730.736   2
  -3   2  -7 9728.06 725.266  11
   3   2   8 5525.83 564.137   2
   3   2   8 6323.50 254.524   7
  -3   2  -8 6234.66 603.108  11
   3   2   9 1845.75 146.231   7
  -3   2  -9 1378.47 411.736  11
   3   2  10 11046.0 355.202   7
   3   2  11 9749.81 336.432   7
   3   2  12 2179.84 163.228   7
   3   2  13 2179.30 147.024   7
   3   2  14 6833.85 224.017   1
   3   2  15 1095.82 72.0746   1
   3   3 -15 2446.22 108.638   6
   3   3 -14 3164.56 154.841   6
   3   3 -13 240.975 83.9212   6
   3   3 -12 461.157 105.423   6
   3   3 -11 1064.41 137.419   6
   3   3 -10 2363.89 183.937   6
   3   3  -9 16652.5 457.055   6
  -3   3   8 2151.80 403.838  10
   3   3  -8 2348.48 168.286   6
  -3   3   7 2687.05 412.386  10
  -3   3   6 18280.6 979.680  10
  -3   3   5 1854.34 303.728  10
   3   3  -5 2318.19 353.407   2
   3   3  -4 43628.4 1375.92   2
  -3   3   4 40345.1 1296.43  10
   3   3  -3 18184.6 839.885   2
  -3   3   3 17407.5 754.813  10
   3   3  -2 7448.25 527.778   2
  -3   3   2 7164.06 427.934  10
   3   3  -1 8261.77 552.089   2
   3   3   0 29505.3 1065.98   2
   3   3   1 6560.71 498.313   2
   3   3   2 13848.3 740.381   2
   3   3   3 3425.92 394.072   2
   3   3   4 11110.1 716.725   2
   3   3   5 19358.3 992.223   2
   3   3   6 7794.72 648.575   2
   3   3   7 5276.56 577.110   2
   3   3   7 4839.43 223.111   7
  -3   3  -7 4708.78 531.903  11
   3   3   8 2188.43 161.189   7
   3   3   8 1648.94 360.163   2
  -3   3  -8 1449.24 347.930  11
   3   3   9 14991.0 418.753   7
   3   3  10 12402.0 380.379   7
   3   3  11 2910.62 186.115   7
   3   3  12 386.514 88.7391   7
   3   3  13 5889.38 223.927   7
   3   3  14 920.606 84.8220   1
   3   4 -14 391.635 60.4940   8
   3   4 -13 3695.87 174.794   6
   3   4 -12 1827.36 148.074   6
   3   4 -11 6982.87 286.399   6
   3   4 -10 4346.87 234.277   6
   3   4  -9 16958.4 469.434   6
   3   4  -8 177.822 78.7673   6
   3   4  -7 6659.15 271.166   6
  -3   4   7 7128.24 690.850  10
  -3   4   6 198.122 158.687  10
  -3   4   5 3346.77 424.394  10
   3   4  -5 3812.65 455.875   2
  -3   4   4 4535.39 449.376  10
   3   4  -4 4652.02 487.878   2
   3   4  -3 10630.2 695.669   2
   3   4  -2 5668.29 510.955   2
   3   4  -1 15897.4 840.186   2
   3   4   0 6039.99 534.311   2
   3   4   1 15325.1 858.841   2
   3   4   2 28221.4 1181.53   2
   3   4   3 653.534 232.866   2
   3   4   4 4097.46 482.304   2
   3   4   5 1100.30 112.471   7
   3   4   5 1184.87 317.010   2
   3   4   6 457.725 87.8075   7
   3   4   6 83.9629 195.726   2
  -3   4  -7 1221.68 322.953  11
   3   4   7 877.577 112.803   7
   3   4   7 848.228 320.921   2
   3   4   8 16838.3 455.934   7
   3   4   9 613.328 104.755   7
   3   4  10 402.422 90.6589   7
   3   4  11 1069.95 118.164   7
   3   4  12 70.4177 59.0938   7
   3   4  13 3296.18 147.718   7
   3   4  14 6056.15 162.629   1
  -3   4 -14 5435.63 154.122   4
   3   5 -13 823.202 80.0475   8
   3   5 -10 3626.10 208.436   6
   3   5  -9 11517.7 370.504   6
   3   5  -8 8930.34 328.137   6
   3   5  -7 3679.72 186.553   4
   3   5  -7 3677.95 208.018   6
   3   5  -6 1671.29 130.871   4
   3   5  -5 583.495 84.6462   4
   3   5  -5 436.810 185.500   2
   3   5  -4 14378.5 380.592   4
   3   5  -4 14712.6 903.090   2
   3   5  -3 9202.78 704.131   2
   3   5  -2 6181.38 573.473   2
   3   5  -1 1136.00 273.591   2
   3   5   0 7733.25 664.390   2
   3   5   1 2237.41 379.065   2
   3   5   2 9044.48 730.441   2
   3   5   2 9625.19 302.201   4
   3   5   2 9670.73 323.364   7
   3   5   3 914.642 103.460   7
   3   5   3 270.780 200.827   2
   3   5   4 6272.16 646.064   2
   3   5   4 7004.95 275.573   7
   3   5   5 4549.36 224.769   7
   3   5   5 4176.04 553.876   2
   3   5   6 8173.49 305.526   7
   3   5   7 6397.54 271.386   7
   3   5   8 4253.00 221.084   7
   3   5   9 112.365 74.9485   7
   3   5  10 2942.24 175.314   7
   3   5  11 1148.62 107.692   7
   3   5  12 520.664 68.4207   7
  -3   5 -12 543.320 72.4401   4
  -3   5 -13 1962.41 93.9990   4
   3   6 -12 410.201 59.7752   8
   3   6 -11 327.986 66.9945   8
   3   6 -10 3598.34 184.374   8
   3   6  -9 614.229 76.7703   4
   3   6  -8 2782.97 155.917   4
   3   6  -7 11678.7 338.805   4
   3   6  -6 3353.63 196.414   8
   3   6  -6 3493.95 187.305   4
   3   6  -5 37.9167 71.4425   8
   3   6  -5 123.120 70.0263   4
   3   6  -4 3586.67 195.334   4
   3   6  -3 3528.72 196.925   4
   3   6  -2 3605.62 193.106   4
   3   6  -2 3744.61 502.251   2
   3   6  -1 3318.51 187.278   4
   3   6  -1 3140.98 462.156   2
   3   6   0 3747.96 198.385   4
   3   6   0 4084.25 519.246   2
   3   6   1 3188.79 183.409   4
   3   6   1 2968.75 189.184   7
   3   6   2 83982.4 1234.57   4
   3   6   2 82806.6 1267.43   7
   3   6   3 8618.98 314.281   7
   3   6   4 30363.1 643.934   7
   3   6   5 11127.0 361.389   7
  -3   6  -5 11405.8 352.841   4
   3   6   6 937.631 117.886   7
  -3   6  -6 895.700 106.412   4
   3   6   7 6688.28 270.688   7
  -3   6  -7 5849.35 253.219   4
   3   6   8 2655.03 168.868   7
  -3   6  -8 2169.61 153.388   4
   3   6   9 495.658 84.8496   7
  -3   6  -9 515.365 86.8978   4
   3   6  10 5438.18 201.896   7
  -3   6 -10 5278.55 204.815   4
   3   6  11 1182.08 88.0743   7
  -3   6 -11 1236.82 91.9039   4
   3   6  12 875.965 61.4698   7
  -3   6 -12 1054.07 65.0033   4
   3   7 -10 3439.59 129.566   8
   3   7  -9 1473.66 99.9561   8
   3   7  -9 1747.07 94.4756   4
   3   7  -8 2141.12 125.326   8
   3   7  -8 2244.39 123.911   4
   3   7  -7 4476.75 189.853   4
   3   7  -6 7243.64 258.875   4
   3   7  -5 167.710 72.1346   4
   3   7  -4 4871.28 221.967   4
   3   7  -3 10319.7 330.647   4
   3   7  -2 1330.31 126.956   4
   3   7  -1 5671.78 243.491   4
   3   7   0 1815.73 144.626   4
   3   7   0 1807.78 154.926   7
   3   7   1 8920.14 312.023   4
   3   7   1 9205.07 329.451   7
   3   7   2 351.215 86.2868   7
   3   7   3 10086.7 337.107   7
   3   7   4 2699.99 174.806   7
   3   7   5 2324.15 159.170   7
  -3   7  -5 1892.04 130.779   4
   3   7   6 120.785 69.7913   7
  -3   7  -6 40.4474 49.3117   4
   3   7   7 1977.02 137.354   7
  -3   7  -7 1622.38 116.278   4
   3   7   8 246.295 62.2571   7
  -3   7  -8 259.407 59.4808   4
   3   7   9 1894.04 110.263   7
  -3   7  -9 2051.73 111.200   4
   3   7  10 705.589 61.3137   7
  -3   7 -10 813.358 63.4588   4
   3   8  -8 1071.49 66.9586   4
   3   8  -7 3747.69 140.474   4
   3   8  -6 5219.53 183.343   4
   3   8  -5 2368.79 133.734   4
   3   8  -4 4411.77 189.422   4
   3   8  -3 25.9677 53.4088   4
   3   8  -2 5457.61 222.244   4
   3   8  -2 5422.82 236.611   7
   3   8  -1 875.004 108.488   7
   3   8  -1 949.683 103.834   4
   3   8   0 482.562 87.2725   7
   3   8   1 6611.38 254.279   7
   3   8   2 9916.66 308.156   7
   3   8   3 2254.65 144.497   7
   3   8   4 1585.26 118.571   7
   3   8   5 31.0638 50.5133   7
   3   8   6 4865.21 179.897   7
   3   8   7 2434.49 116.017   7
   3   8   8 682.111 57.0726   7
   3   9  -6 1564.63 100.733   7
   3   9  -5 352.006 55.2983   7
   3   9  -4 35.3123 44.0572   7
   3   9  -3 763.724 75.3152   7
   3   9  -2 1231.07 91.0654   7
   3   9  -1 2714.29 133.043   7
   3   9   0 505.656 68.3739   7
   3   9   1 3710.48 151.620   7
   3   9   2 641.193 68.4601   7
   3   9   3 538.888 61.2176   7
   3   9   4 367.459 48.7962   7
   4  -9  -4 2719.28 100.187   9
   4  -9  -3 954.682 68.4517   9
   4  -9  -2 1116.11 74.5011   9
   4  -9  -1 1601.16 86.5420   9
   4  -9   0-12.7190 32.7992   9
   4  -9   1 2089.57 83.9008   9
   4  -8  -7 6023.01 158.330   9
   4  -8  -7 6004.83 152.469   6
   4  -8  -6 2494.57 117.637   9
   4  -8  -6 2549.57 106.398   6
   4  -8  -5 1231.94 93.5689   9
   4  -8  -5 1224.70 81.6049   6
   4  -8  -4 3085.23 151.996   9
   4  -8  -3 886.935 90.9650   9
   4  -8  -2 1419.63 112.676   9
   4  -8  -1 2163.67 132.490   9
   4  -8   0 3812.90 169.040   9
   4  -8   1 10774.0 278.281   9
   4  -8   2 79.6417 47.5076   9
   4  -8   2 29.1574 62.3963   5
   4  -8   2 89.7030 58.8440   1
   4  -8   3 3918.97 164.591   1
   4  -8   3 4023.17 180.248   5
   4  -8   4 827.407 93.1446   5
   4  -8   4 678.889 77.2101   1
   4  -8   5 189.161 54.0017   1
   4  -8   5 109.798 54.0288   5
   4  -8   6 1121.00 79.5504   1
   4  -7  -9 134.295 44.1244   6
   4  -7  -8 679.496 69.8187   9
   4  -7  -8 625.804 67.5110   6
   4  -7  -7 2002.23 120.853   9
   4  -7  -7 1960.14 114.710   6
   4  -7  -6 3116.43 162.151   9
   4  -7  -6 3041.33 147.688   6
   4  -7  -5 5391.34 219.638   9
   4  -7  -4 7020.94 258.098   9
   4  -7  -3 3363.07 186.401   9
   4  -7  -2 1782.88 141.933   9
   4  -7  -1 575.844 95.3409   9
   4  -7  -1 560.180 95.5367   5
   4  -7   0 439.567 87.8059   9
   4  -7   0 523.295 100.635   5
   4  -7   1 21438.7 506.730   5
   4  -7   1 21811.9 473.449   9
   4  -7   2 8213.86 302.488   5
   4  -7   2 8431.47 293.580   1
   4  -7   2 8518.65 265.101   9
   4  -7   3 3325.71 196.768   5
   4  -7   3 3236.18 182.189   1
   4  -7   4 13093.7 381.849   5
   4  -7   4 13262.2 369.992   1
   4  -7   5 4893.38 222.733   5
   4  -7   5 4833.01 215.383   1
   4  -7   6 2358.50 151.068   5
   4  -7   6 2357.24 148.691   1
   4  -7   7 185.889 67.6078   5
   4  -7   7 166.677 61.3176   1
   4  -7   8 253.071 55.4179   5
   4  -7   8 282.726 61.2987   1
   4  -7   9 574.038 61.3866   1
   4  -6 -11 600.668 59.6948   6
   4  -6 -10 1125.36 87.2078   6
   4  -6  -9 2243.58 125.304   6
   4  -6  -9 2349.92 122.947   9
   4  -6  -8 3438.55 163.430   9
   4  -6  -8 3332.21 161.389   6
   4  -6  -7 3740.37 186.182   9
   4  -6  -7 3555.38 172.157   6
   4  -6  -6 1218.96 123.570   9
   4  -6  -6 872.755 95.8851   6
   4  -6  -5 1786.13 146.974   9
   4  -6  -4 9823.86 329.959   9
   4  -6  -3 14699.3 406.951   9
   4  -6  -2 194.758 79.8365   9
   4  -6  -2 296.084 88.8054   5
   4  -6  -1 9211.86 316.709   5
   4  -6  -1 9410.70 314.125   9
   4  -6   0-24.5536 68.8434   9
   4  -6   0 85.8414 88.7706   5
   4  -6   1 2367.30 180.988   5
   4  -6   1 2454.88 157.100   9
   4  -6   2 54.8191 64.6914   9
   4  -6   2 101.754 89.3452   5
   4  -6   2 135.753 79.3506   1
   4  -6   3 274.832 102.857   5
   4  -6   3 411.262 88.3619   1
   4  -6   4 494.779 108.281   5
   4  -6   4 631.885 105.833   1
   4  -6   5 2547.64 186.760   5
   4  -6   5 2690.96 180.465   1
   4  -6   6 1835.45 158.080   5
   4  -6   6 1412.10 134.038   1
   4  -6   7 2040.96 152.534   5
   4  -6   7 2095.74 152.029   1
   4  -6   8 531.608 85.9285   5
   4  -6   8 434.396 83.4610   1
   4  -6   9 1151.67 98.3745   5
   4  -6   9 734.616 92.8887   1
   4  -6  10 777.467 78.8046   1
   4  -6  11 1697.66 87.1402   1
   4  -5 -12 3287.34 129.783   6
   4  -5 -11 2879.59 139.918   6
   4  -5 -10 2822.85 151.324   6
   4  -5  -9 459.606 77.8792   9
   4  -5  -9 420.883 79.1831   6
   4  -5  -8 1690.18 132.271   9
   4  -5  -8 1705.02 132.370   6
   4  -5  -7 814.692 110.253   9
   4  -5  -7 831.544 100.170   6
   4  -5  -6 180.052 79.1702   9
   4  -5  -6 194.371 65.0280   6
   4  -5  -5 1528.41 138.361   9
   4  -5  -4 11170.2 353.077   9
   4  -5  -3 7630.57 285.960   9
  -4  -5   3 6831.33 684.767   3
   4  -5  -2 7698.21 282.025   9
  -4  -5   2 7498.55 714.935   3
   4  -5  -1 6418.31 261.626   5
   4  -5  -1 6932.83 262.547   9
  -4  -5   1 6729.72 668.408   3
   4  -5   0 8218.41 304.007   5
   4  -5   0 8737.78 290.312   9
  -4  -5   0 8307.81 729.727   3
   4  -5   1 29214.3 625.414   5
   4  -5   1 30034.0 580.052   9
  -4  -5  -1 30724.1 1385.39   3
   4  -5   2 31670.1 660.989   5
   4  -5   2 31717.4 590.502   9
  -4  -5  -2 31935.8 1388.56   3
   4  -5   3 11060.3 368.230   5
   4  -5   3 11607.3 357.454   1
   4  -5   4 13975.7 424.354   5
   4  -5   4 14537.7 412.588   1
   4  -5   5 8860.94 336.606   5
   4  -5   5 8736.07 319.569   1
   4  -5   6 14344.0 425.138   5
   4  -5   6 14093.6 417.814   1
   4  -5   7 11073.3 359.301   5
   4  -5   7 10408.2 351.227   1
   4  -5   8 206.935 81.3451   5
   4  -5   8 203.239 79.1631   1
   4  -5   9 5311.28 215.811   5
   4  -5   9 5913.34 245.009   1
   4  -5  10 392.645 66.1907   5
   4  -5  10 481.891 83.9326   1
   4  -5  11 1077.34 94.5715   1
   4  -5  12 1026.90 74.7296   1
   4  -4 -13 2037.48 104.218   6
   4  -4 -12 3776.60 161.681   6
   4  -4 -11 4109.15 184.204   6
   4  -4 -10 10866.3 318.260   6
   4  -4  -9 5230.62 215.812   9
   4  -4  -9 4801.21 213.793   6
   4  -4  -8 2333.60 154.854   9
   4  -4  -8 2170.19 148.967   6
   4  -4  -7 3116.09 183.010   9
   4  -4  -7 3289.48 174.367   6
   4  -4  -6 4314.95 210.460   9
  -4  -4   6 4207.21 538.965   3
   4  -4  -6 4229.96 195.174   6
   4  -4  -5 1038.69 117.501   9
  -4  -4   5 1285.19 344.669   3
   4  -4  -4 7402.71 270.905   9
  -4  -4   4 7823.88 698.056   3
   4  -4  -3 166.549 76.6456   9
  -4  -4   3 384.067 229.940   3
  -4  -4   2 4746.67 539.082   3
  -4  -4   1 6217.05 583.205   3
  -4  -4   0 2978.77 422.965   3
  -4  -4  -1 1817.98 327.291   3
  -4  -4  -2 12252.0 785.612   3
  -4  -4  -2 12652.4 808.644  11
  -4  -4  -3 556.922 210.651   3
   4  -4   3 716.677 111.656   5
  -4  -4  -3 347.802 187.786  11
   4  -4   4 3917.34 216.937   5
   4  -4   4 3847.03 203.932   1
   4  -4   5 856.413 120.400   5
   4  -4   5 831.333 111.846   1
   4  -4   6 396.874 92.5229   1
   4  -4   6 366.348 102.970   5
   4  -4   7 3097.42 195.476   5
   4  -4   7 2458.85 180.774   1
   4  -4   8 718.619 111.063   5
   4  -4   8 749.223 112.502   1
   4  -4   9 5301.83 229.288   5
   4  -4   9 5003.72 248.387   1
   4  -4  10 4335.47 187.221   5
   4  -4  10 4834.43 225.212   1
   4  -4  11 496.061 88.0099   1
   4  -4  12 245.946 60.7671   1
   4  -4  13 1700.14 89.8431   1
   4  -3 -14 519.008 59.0342   6
   4  -3 -13 658.782 75.0037   6
   4  -3 -12 4054.64 182.569   6
   4  -3 -11 309.437 79.9740   6
   4  -3 -10 1445.60 128.974   6
   4  -3  -9 4763.97 210.904   9
   4  -3  -9 4448.73 209.173   6
   4  -3  -8 11706.7 342.637   9
   4  -3  -8 11248.0 330.391   6
  -4  -3   7 4342.34 541.533  10
   4  -3  -7 5514.44 232.370   9
   4  -3  -7 5045.81 212.695   6
  -4  -3   7 5696.80 629.819   3
   4  -3  -6 10356.1 318.101   9
  -4  -3   6 10293.2 787.105  10
  -4  -3   6 10579.7 806.427   3
  -4  -3   5 307.623 196.894   3
  -4  -3   4 4042.63 475.095   3
  -4  -3   3 34.0306 143.114   3
  -4  -3   2 8360.02 637.786   3
  -4  -3   1 15317.1 830.818   3
  -4  -3   0 40870.1 1363.06   3
  -4  -3  -1 65810.0 1740.72   3
  -4  -3  -1 62557.3 1670.81  11
  -4  -3  -2 4307.72 434.650   3
  -4  -3  -2 4435.95 462.665  11
  -4  -3  -3 14183.9 737.818   3
  -4  -3  -3 14213.1 851.074  11
  -4  -3  -4 44750.3 1631.98  11
   4  -3   5 14471.5 407.786   5
  -4  -3  -5 15453.0 992.767  11
   4  -3   6 621.310 114.640   5
   4  -3   6 623.188 104.181   1
  -4  -3  -6 475.715 256.419  11
   4  -3   7 1069.35 123.728   5
   4  -3   7 872.072 122.568   1
   4  -3   8 5902.85 274.458   1
   4  -3   8 6004.08 256.055   5
   4  -3   9 9793.23 318.381   5
   4  -3   9 9470.62 347.570   1
   4  -3  10 2704.35 160.094   5
   4  -3  10 2624.53 184.310   1
   4  -3  11 2129.93 157.158   1
   4  -3  12 1441.07 120.236   1
   4  -3  13 547.260 73.8000   1
   4  -2 -14 624.920 73.7915   6
   4  -2 -13 2198.29 133.185   6
   4  -2 -12 2135.32 144.788   6
   4  -2 -11 3932.60 199.487   6
   4  -2 -10 4541.93 215.172   6
   4  -2  -9 8553.65 288.308   9
   4  -2  -9 8353.92 289.884   6
  -4  -2   8 10751.4 849.352   3
   4  -2  -8 9978.51 314.426   9
   4  -2  -8 9657.48 300.199   6
  -4  -2   8 10439.3 837.501  10
  -4  -2   7 13545.6 914.970   3
   4  -2  -7 14627.0 380.589   9
  -4  -2   7 13681.9 909.218  10
  -4  -2   6 1888.76 350.388  10
  -4  -2   6 1750.03 331.965   3
  -4  -2   5 7804.79 637.807   3
  -4  -2   4 24725.5 1082.79   3
  -4  -2   3 9359.98 634.820   3
  -4  -2   2 10331.5 636.512   3
  -4  -2   1 12015.1 666.458   3
  -4  -2   0 4765.80 386.537  11
  -4  -2   0 4727.55 402.215   3
  -4  -2  -1 3706.64 378.507  11
  -4  -2  -1 3573.47 346.716   3
  -4  -2  -2 982.813 192.586   3
  -4  -2  -2 1325.82 262.012  11
  -4  -2  -3 1532.46 297.526  11
  -4  -2  -4 6618.59 599.095  11
  -4  -2  -5 10025.4 758.177  11
   4  -2   6 6600.27 262.694   5
  -4  -2  -6 5664.49 614.360  11
   4  -2   7 6154.85 258.330   5
   4  -2   7 6245.54 270.738   1
  -4  -2  -7 6192.51 675.600  11
   4  -2   8 2887.90 179.990   5
   4  -2   8 2966.97 196.805   1
   4  -2   9 19042.4 509.908   1
   4  -2   9 18614.9 459.494   5
   4  -2  10 1211.72 138.602   1
   4  -2  10 983.137 107.340   5
   4  -2  11 4088.95 218.527   1
   4  -2  12 3188.69 179.953   1
   4  -2  13 418.362 77.3938   1
   4  -2  14 36.4819 37.6045   1
   4  -1 -15 2519.34 103.923   6
   4  -1 -14 588.701 76.7268   6
   4  -1 -13 1237.09 110.843   6
   4  -1 -12 1506.05 129.043   6
   4  -1 -11 5026.61 228.319   6
   4  -1 -10 2224.78 161.237   6
   4  -1  -9 529.625 84.4232   9
   4  -1  -9 854.122 110.227   6
  -4  -1   8 13184.1 922.654   3
   4  -1  -8 11819.8 344.555   9
   4  -1  -8 11566.3 328.245   6
  -4  -1   8 12331.9 879.034  10
  -4  -1   7 18821.9 1044.80   3
  -4  -1   7 17177.7 996.831  10
  -4  -1   6 16041.2 916.524   3
  -4  -1   6 16108.5 919.066  10
  -4  -1   5 3850.48 435.810   3
  -4  -1   5 3859.35 430.134  10
  -4  -1   4 37562.6 1282.10   3
  -4  -1   3 6.66290 133.253   3
  -4  -1   2 95883.3 2013.47   3
  -4  -1   1 36439.8 995.921  11
  -4  -1   1 37768.2 1102.42   3
  -4  -1   0 24031.8 854.647  11
  -4  -1   0 25322.7 848.667   3
  -4  -1  -1 81543.6 1825.12  11
  -4  -1  -1 85545.6 1645.97   3
  -4  -1  -2 14419.4 733.543  11
  -4  -1  -3 22912.0 995.170  11
  -4  -1  -4 2488.38 362.153  11
  -4  -1  -5 15457.4 905.052  11
  -4  -1  -6 7143.85 659.117  11
   4  -1   7 26845.4 566.446   5
   4  -1   7 27274.8 596.725   1
  -4  -1  -7 26991.7 1332.32  11
   4  -1   8 17818.2 449.614   5
   4  -1   8 18560.7 494.018   1
  -4  -1  -8 17478.1 1115.95  11
   4  -1   9 2352.35 159.918   5
   4  -1   9 2482.04 185.701   1
   4  -1  10 6681.83 251.827   5
   4  -1  10 6394.75 289.195   1
   4  -1  11 860.582 126.089   1
   4  -1  12 1910.60 149.978   1
   4  -1  13 834.533 96.7625   1
   4  -1  14 1357.76 92.4182   1
   4   0 -15 17.7155 36.5658   6
   4   0 -14 2949.04 146.181   6
   4   0 -13 1551.44 124.022   6
   4   0 -12 18.1931 66.4837   6
   4   0 -11 1729.88 145.218   6
   4   0 -10 5180.97 234.778   6
  -4   0   9 4840.12 624.976  10
   4   0  -9 4450.86 211.508   9
   4   0  -9 4633.62 216.202   6
  -4   0   8 3456.85 500.808  10
   4   0  -8 3307.72 184.308   9
  -4   0   7 49704.1 1687.15  10
  -4   0   6 21.4621 145.306  10
  -4   0   5 60365.2 1690.07  10
  -4   0   4 146775. 2761.32  10
  -4   0   3 763.551 188.093  10
  -4   0   2 8722.75 507.377   3
  -4   0   2 9609.31 477.389  11
  -4   0   2 9603.65 532.389  10
  -4   0   1 72518.4 1534.83   3
   4   0  -1 72406.2 1511.76   2
  -4   0   1 74987.7 1560.23  11
   4   0   0 8606.54 447.214   2
  -4   0   0 7809.80 480.125  11
  -4   0   0 8735.81 436.092   3
   4   0   1 62505.7 1299.34   2
  -4   0  -1 59307.6 1502.32  11
  -4   0  -2 144.122 153.536  11
   4   0   2 305.059 108.981   2
  -4   0  -3 10151.8 655.550  11
  -4   0  -4 12891.8 781.262  11
  -4   0  -5 3848.62 468.714  11
  -4   0  -6 36028.1 1460.79  11
   4   0   7 1319.35 121.523   5
  -4   0  -7 506.689 245.265  11
   4   0   8 6310.29 255.511   5
   4   0   8 6852.60 261.292   7
  -4   0  -8 5852.83 647.847  11
   4   0   9 12015.8 352.751   5
   4   0   9 12199.6 367.835   7
   4   0  10 1619.84 127.896   5
   4   0  10 1558.56 140.292   7
   4   0  10 1606.83 159.784   1
   4   0  11 7.82735 74.3048   1
   4   0  12 641.265 102.592   1
   4   0  13 259.601 72.3549   1
   4   0  14 1217.88 90.4605   1
   4   1 -15 2302.17 98.5619   6
   4   1 -14 509.936 73.2292   6
   4   1 -13 1037.74 92.3385   8
   4   1 -13 1191.14 111.882   6
   4   1 -12 1259.03 119.672   8
   4   1 -12 1503.85 133.745   6
   4   1 -11 5412.76 247.208   6
   4   1 -10 1783.26 152.415   6
   4   1  -9 593.116 103.435   9
   4   1  -9 818.147 112.416   6
   4   1  -8 12555.5 361.997   9
  -4   1   8 13175.2 923.290  10
  -4   1   7 17985.4 1015.54  10
  -4   1   6 16740.1 906.280  10
  -4   1   5 3541.86 382.965  10
  -4   1   4 36820.4 1186.60  10
  -4   1   3 167.754 124.940  10
   4   1  -3 1.15716 135.761   2
   4   1  -2 95630.7 1983.54   2
  -4   1   2 92969.9 1807.56  10
   4   1  -1 38023.7 1118.49   2
  -4   1   1 34687.1 930.933  10
   4   1   0 24200.4 864.474   2
   4   1   1 83247.7 1744.79   2
   4   1   2 16578.4 705.231   2
   4   1   3 23932.8 874.122   2
   4   1   4 2587.54 295.514   2
  -4   1  -4 3084.17 397.239  11
  -4   1  -5 16735.6 942.213  11
  -4   1  -6 7491.98 671.306  11
   4   1   7 27172.6 554.409   7
  -4   1  -7 26408.5 1314.08  11
   4   1   8 18110.5 451.932   5
   4   1   8 18957.2 458.145   7
   4   1   9 2255.42 156.436   5
   4   1   9 2463.50 168.049   7
   4   1  10 7137.35 254.955   5
   4   1  10 6619.24 272.342   7
   4   1  11 750.107 108.410   7
   4   1  12 1872.64 146.131   1
   4   1  13 1144.97 110.773   1
   4   1  14 1200.51 87.8021   1
   4   2 -14 408.937 54.3425   8
   4   2 -14 489.071 65.5826   6
   4   2 -13 1849.26 129.696   8
   4   2 -13 2310.50 140.077   6
   4   2 -12 1978.73 146.005   6
   4   2 -11 3183.14 188.321   6
   4   2 -10 4299.67 218.114   6
   4   2  -9 7700.30 289.619   6
   4   2  -8 9274.70 316.414   9
  -4   2   8 9828.15 818.683  10
   4   2  -7 14098.0 391.900   9
  -4   2   7 14866.2 937.975  10
  -4   2   6 1805.38 330.426  10
  -4   2   5 7577.52 590.257  10
   4   2  -4 23140.4 1024.54   2
  -4   2   4 21592.1 923.136  10
   4   2  -3 9737.34 639.522   2
  -4   2   3 9895.07 571.581  10
   4   2  -2 10474.0 636.293   2
   4   2  -1 12581.6 690.354   2
   4   2   0 4667.51 422.906   2
   4   2   1 3806.94 382.805   2
   4   2   2 987.259 219.439   2
   4   2   3 2100.85 301.222   2
   4   2   4 7957.80 585.883   2
   4   2   5 10466.4 692.140   2
  -4   2  -5 10890.5 782.718  11
   4   2   6 5802.20 529.573   2
   4   2   6 6382.88 246.319   7
  -4   2  -6 6890.52 643.488  11
   4   2   7 6394.31 256.433   7
  -4   2  -7 5507.81 606.793  11
   4   2   8 3165.37 185.098   7
   4   2   9 18641.6 454.224   5
   4   2   9 19428.7 479.779   7
   4   2  10 973.385 103.814   5
   4   2  10 1104.67 121.828   7
   4   2  11 3852.71 202.471   7
   4   2  12 2659.95 158.577   7
   4   2  13 597.596 82.7941   1
   4   2  14 49.6251 40.2513   1
   4   3 -14 333.183 51.9760   8
   4   3 -14 381.391 53.1485   6
   4   3 -13 634.001 81.0277   8
   4   3 -13 724.903 82.1573   6
   4   3 -12 3674.11 181.220   6
   4   3 -11 260.497 84.0008   6
   4   3 -10 1843.30 149.433   6
   4   3  -9 4346.50 220.482   6
  -4   3   7 4809.35 581.100  10
  -4   3   6 9932.99 746.663  10
  -4   3   5 456.788 220.458  10
   4   3  -4 4416.51 482.372   2
   4   3  -3 108.628 166.910   2
   4   3  -2 8231.04 619.561   2
   4   3  -1 15015.7 826.841   2
   4   3   0 41182.7 1394.46   2
   4   3   1 66068.8 1842.62   2
   4   3   2 3868.56 453.412   2
   4   3   3 14590.6 861.196   2
   4   3   4 47710.0 1651.33   2
   4   3   5 15477.0 928.976   2
   4   3   5 15693.7 406.741   7
   4   3   6 659.174 100.277   7
   4   3   6 885.593 260.031   2
  -4   3  -6 744.504 287.541  11
   4   3   7 1146.34 125.851   7
   4   3   7 1683.74 457.228   2
   4   3   8 5406.35 246.726   7
   4   3   9 10313.2 341.390   7
   4   3  10 2785.43 155.366   5
   4   3  10 2860.45 177.953   7
   4   3  11 1869.62 141.496   7
   4   3  12 1501.47 116.961   7
   4   3  13 472.331 68.1927   1
   4   4 -13 2099.50 117.633   8
   4   4 -12 3595.34 182.481   8
   4   4 -12 3548.19 160.033   6
   4   4 -11 3984.86 190.130   6
   4   4 -10 10907.0 334.079   6
   4   4  -9 5261.59 235.289   6
   4   4  -8 2276.86 157.988   6
   4   4  -5 919.338 120.925   8
   4   4  -5 747.557 294.021   2
   4   4  -4 7635.35 295.594   8
   4   4  -4 6364.77 612.101   2
   4   4  -3 442.265 217.841   2
   4   4  -2 4572.47 515.753   2
   4   4  -1 6590.64 599.356   2
   4   4   0 2763.14 427.868   2
   4   4   1 2340.31 406.367   2
   4   4   2 13574.8 893.029   2
   4   4   3 552.750 92.6828   7
   4   4   3 594.173 252.909   2
   4   4   4 3875.13 204.511   7
   4   4   4 3590.18 519.872   2
   4   4   5 701.246 100.659   7
   4   4   5 597.767 224.526   2
   4   4   6 480.309 90.0311   7
   4   4   7 2485.95 170.908   7
   4   4   8 583.276 104.513   7
   4   4   9 4992.28 232.372   7
   4   4  10 4540.86 181.037   5
   4   4  10 4614.67 213.027   7
   4   4  11 424.524 77.6872   7
   4   4  12 238.283 57.5592   7
   4   4  13 1748.74 90.1404   1
  -4   4 -13 1469.37 77.5512   4
   4   5 -13 183.153 40.5593   8
   4   5 -12 3318.18 148.126   8
   4   5 -11 2920.86 160.758   8
   4   5 -10 2585.79 173.172   8
   4   5  -9 496.587 100.908   8
   4   5  -8 2636.89 202.911   8
   4   5  -7 1007.71 123.310   8
   4   5  -6 284.890 93.7600   8
   4   5  -5 1624.65 148.109   8
   4   5  -4 11122.5 365.066   8
   4   5  -3 7563.31 291.219   8
   4   5  -3 7645.11 261.076   4
   4   5  -3 7614.90 692.974   2
   4   5  -2 6830.53 270.492   8
   4   5  -2 6976.57 251.542   4
   4   5  -2 6453.33 640.305   2
   4   5  -1 6605.88 245.353   4
   4   5  -1 6173.81 632.500   2
   4   5   0 8648.06 286.772   4
   4   5   0 7562.06 709.400   2
   4   5   1 29710.4 1393.44   2
   4   5   1 29737.7 631.319   7
   4   5   2 33571.7 1513.50   2
   4   5   2 32345.1 660.950   7
   4   5   3 10533.0 346.031   7
   4   5   4 14558.3 414.861   7
   4   5   5 8890.43 319.415   7
   4   5   6 14293.9 413.097   7
   4   5   7 10861.0 351.950   7
   4   5   8 207.991 80.4361   7
   4   5   9 5823.84 240.697   7
   4   5  10 523.752 81.0869   7
   4   5  11 1278.51 96.6424   7
  -4   5 -11 1208.44 88.0082   4
   4   5  12 837.662 67.7635   7
  -4   5 -12 755.064 56.4093   4
   4   6 -11 490.725 64.2408   8
   4   6 -10 1255.66 104.392   8
   4   6  -9 2345.38 145.979   8
   4   6  -8 3244.87 179.538   8
   4   6  -7 3839.92 202.267   8
   4   6  -6 1159.83 123.378   8
   4   6  -5 1691.80 139.963   8
   4   6  -5 1585.51 116.916   4
   4   6  -4 9436.36 318.537   8
   4   6  -4 9946.80 302.308   4
   4   6  -3 14205.9 374.784   4
   4   6  -2 245.955 72.4994   4
   4   6  -1 9264.31 302.569   4
   4   6   0 176.059 82.9102   7
   4   6   0 151.377 66.2154   4
   4   6   1 2766.47 181.543   7
   4   6   2 81.4445 73.4961   7
   4   6   3 581.571 102.515   7
   4   6   4 578.099 101.527   7
   4   6   5 2740.36 178.885   7
   4   6   6 1562.88 139.715   7
   4   6   7 2002.49 148.595   7
   4   6   8 529.192 87.5536   7
  -4   6  -8 440.641 69.0169   4
   4   6   9 875.120 90.2852   7
  -4   6  -9 679.200 71.2242   4
   4   6  10 834.144 76.6746   7
  -4   6 -10 569.976 56.1107   4
   4   6  11 1489.68 80.6840   7
   4   7  -9 120.695 42.1216   8
   4   7  -8 577.324 66.0877   8
   4   7  -6 3186.93 142.338   4
   4   7  -5 5295.12 196.804   4
   4   7  -4 7220.22 243.691   4
   4   7  -3 3110.77 163.355   4
   4   7  -2 1656.38 127.779   4
   4   7  -2 1599.02 142.756   7
   4   7  -1 613.382 104.898   7
   4   7   0 353.926 89.7721   7
   4   7   1 21967.2 517.387   7
   4   7   2 8119.97 294.869   7
   4   7   3 3075.45 181.337   7
   4   7   4 13232.3 373.407   7
   4   7   5 4436.62 204.143   7
   4   7   6 2317.10 141.882   7
   4   7   7 267.786 61.7337   7
   4   7   8 232.240 52.5701   7
   4   7   9 409.488 51.9054   7
   4   8  -8 2691.60 102.256   7
   4   8  -7 6007.49 183.605   7
   4   8  -6 2363.45 124.799   7
   4   8  -5 1236.56 100.381   7
   4   8  -4 3107.90 158.860   7
   4   8  -3 982.991 100.907   7
   4   8  -2 1317.42 113.876   7
   4   8  -1 2080.57 138.377   7
   4   8   0 3915.60 184.469   7
   4   8   1 11178.6 312.824   7
   4   8   2 92.3083 59.5787   7
   4   8   3 4030.25 174.734   7
   4   8   4 800.667 82.4503   7
   4   8   5 114.438 48.7340   7
   4   8   6 1068.28 78.3345   7
   4   8   7 45.1503 30.9186   7
   4   9  -4 2762.90 104.046   7
   4   9  -3 920.679 69.1756   7
   4   9  -2 990.179 71.4571   7
   4   9  -1 1803.13 94.9721   7
   4   9   0-5.03852 34.9440   7
   4   9   1 2185.26 102.840   7
   4   9   2 1100.78 71.8524   7
   4   9   3 1786.07 82.9109   7
   5  -8  -6 539.392 48.4185   9
   5  -8  -5 1244.87 78.0515   9
   5  -8  -4 5566.44 169.381   9
   5  -8  -3 510.452 65.7081   9
   5  -8  -2 140.633 51.1720   9
   5  -8  -1 1698.43 99.2472   9
   5  -8   0 760.492 69.2640   9
   5  -8   1 133.510 41.3711   9
   5  -7  -8 2291.54 95.0800   9
   5  -7  -7 1571.23 95.7409   9
   5  -7  -6 2777.42 134.348   9
   5  -7  -5 1273.30 103.392   9
   5  -7  -4 2479.40 143.847   9
   5  -7  -3 724.609 93.6156   9
   5  -7  -2 2746.80 152.214   9
   5  -7  -1 979.329 101.592   9
   5  -7  -1 667.438 81.5685   5
   5  -7   0 3070.05 155.069   9
   5  -7   0 3431.47 166.773   5
   5  -7   1 5973.84 228.109   5
   5  -7   1 5579.82 199.930   9
   5  -7   2 2522.21 152.871   5
   5  -7   3 354.555 83.1168   5
   5  -7   4 2287.32 143.409   5
   5  -7   5 950.290 101.705   5
   5  -7   6 1059.72 93.4747   5
   5  -7   7 1228.29 85.0065   5
   5  -6  -9 130.135 45.4661   9
   5  -6  -8 443.591 69.3453   9
   5  -6  -7 235.975 71.2349   9
   5  -6  -6 2135.97 144.310   9
   5  -6  -5 202.017 87.0755   9
   5  -6  -4 1149.22 124.512   9
   5  -6  -3 3440.75 190.449   9
   5  -6  -2 4162.60 207.945   9
   5  -6  -1 1390.24 125.286   5
   5  -6  -1 1511.72 134.877   9
   5  -6   0 10841.0 337.496   5
   5  -6   0 10617.6 320.517   9
   5  -6   1 5260.84 239.994   5
   5  -6   1 4903.11 207.472   9
   5  -6   2 23238.0 539.182   5
   5  -6   3 7942.41 299.594   5
   5  -6   4 4810.20 234.705   5
   5  -6   5 2593.82 178.618   5
   5  -6   6 2982.01 174.870   5
   5  -6   6 2675.11 146.771   1
   5  -6   7 6542.09 232.037   5
   5  -6   7 6500.25 213.226   1
   5  -6   8 246.469 64.5472   5
   5  -6   8 264.332 54.6461   1
   5  -6   9 194.625 46.0106   5
   5  -6   9 177.680 42.6096   1
   5  -5 -10 7100.85 194.548   9
   5  -5 -10 7347.58 193.877   6
   5  -5  -9 661.413 82.1484   9
   5  -5  -9 533.318 66.0409   6
   5  -5  -8 1432.26 117.986   9
   5  -5  -8 1446.80 105.540   6
   5  -5  -7 2630.79 164.756   9
   5  -5  -6 1857.72 150.892   9
   5  -5  -5 7391.90 289.202   9
   5  -5  -4 4558.96 229.525   9
   5  -5  -3 10498.2 345.582   9
   5  -5  -2 2637.90 175.207   9
   5  -5  -1 5308.28 233.658   5
   5  -5  -1 5470.60 238.065   9
   5  -5   0 15101.9 394.633   9
   5  -5   0 14431.3 407.130   5
   5  -5   1 10652.7 351.994   5
   5  -5   1 10612.6 315.063   9
   5  -5   2 4433.42 233.470   5
   5  -5   3 10095.5 353.535   5
   5  -5   4 4665.94 244.450   5
   5  -5   5 2911.62 195.707   5
   5  -5   6 3049.37 193.647   5
   5  -5   6 2599.82 162.444   1
   5  -5   7 2597.68 173.431   5
   5  -5   7 2589.78 155.038   1
   5  -5   8 2197.64 146.061   5
   5  -5   8 2407.69 142.082   1
   5  -5   9 3630.26 159.765   5
   5  -5   9 3400.89 153.696   1
   5  -5  10 1422.19 83.7134   5
   5  -5  10 1523.03 93.0227   1
   5  -4 -11 995.782 79.8159   6
   5  -4 -10 1171.75 97.5754   9
   5  -4 -10 1287.95 98.2573   6
   5  -4  -9 564.249 88.5806   9
   5  -4  -9 608.758 80.0372   6
   5  -4  -8 2268.05 154.088   9
   5  -4  -7 818.501 113.834   9
   5  -4  -6 1626.34 143.904   9
   5  -4  -5 1226.18 133.514   9
   5  -4  -4 7663.76 294.707   9
   5  -4  -3 12942.9 383.195   9
  -5  -4   3 13070.7 948.088   3
  -5  -4   2 624.876 225.805   3
   5  -4  -2 230.938 76.2220   9
   5  -4  -1 19628.9 461.249   5
   5  -4  -1 19202.8 458.186   9
  -5  -4   1 20047.8 1115.86   3
   5  -4   0 2753.51 176.543   5
  -5  -4   0 2689.99 438.863   3
   5  -4   0 2655.54 162.858   9
   5  -4   1 4140.25 214.602   5
   5  -4   1 3853.55 185.547   9
   5  -4   2 4298.87 223.599   5
   5  -4   3 3768.94 217.614   5
   5  -4   4 11438.0 377.259   5
   5  -4   5 11577.6 383.254   5
   5  -4   6 8744.12 327.028   5
   5  -4   6 8784.27 300.915   1
   5  -4   7 6866.77 279.674   5
   5  -4   7 6485.25 257.184   1
   5  -4   8 8272.93 293.573   5
   5  -4   8 8137.57 282.728   1
   5  -4   9 2526.07 153.240   5
   5  -4   9 2431.10 148.964   1
   5  -4  10 1855.15 115.698   5
   5  -4  10 1901.45 121.393   1
   5  -4  11 1950.34 106.307   1
   5  -3 -12 261.128 53.6761   6
   5  -3 -11 426.681 67.9660   6
   5  -3 -10 1693.17 123.447   9
   5  -3 -10 1576.22 114.965   6
   5  -3  -9 1500.79 129.204   9
   5  -3  -8 4057.85 207.456   9
   5  -3  -7 11543.9 355.588   9
   5  -3  -6 5963.77 253.871   9
   5  -3  -5 3462.72 196.983   9
  -5  -3   5 3068.03 468.909   3
   5  -3  -4 3086.66 181.533   9
  -5  -3   4 2554.09 434.959   3
   5  -3  -3 13813.4 377.074   9
  -5  -3   3 13221.3 901.520   3
   5  -3  -2 22550.3 495.386   9
  -5  -3   2 22093.2 1123.59   3
   5  -3  -1 11970.4 336.285   9
  -5  -3   1 11937.7 798.453   3
  -5  -3   0 9992.58 722.518   3
   5  -3   1 2059.56 156.080   5
   5  -3   2 16931.3 437.095   5
   5  -3   3 7266.35 285.196   5
  -5  -3  -3 7538.81 683.676  11
   5  -3   4 4834.26 238.074   5
  -5  -3  -4 4952.61 599.248  11
   5  -3   5 18283.1 481.275   5
   5  -3   6 13586.1 412.690   5
   5  -3   6 13771.6 387.819   1
   5  -3   7 28274.8 615.291   5
   5  -3   7 27898.8 592.023   1
   5  -3   8 4106.81 216.520   5
   5  -3   8 4027.59 206.613   1
   5  -3   9 5488.71 231.783   5
   5  -3   9 5270.25 229.553   1
   5  -3  10 353.516 74.1078   1
   5  -3  10 258.774 72.0580   5
   5  -3  11 2006.73 107.950   5
   5  -3  11 2160.62 128.014   1
   5  -3  12 262.053 51.2162   1
   5  -2 -13 672.075 64.0751   6
   5  -2 -12 1542.59 103.195   6
   5  -2 -11 1488.69 110.781   6
   5  -2 -10 142.349 72.6900   9
   5  -2 -10 75.6090 57.6432   6
   5  -2  -9 761.186 108.121   9
   5  -2  -8 9492.80 321.805   9
   5  -2  -7 4286.20 215.711   9
   5  -2  -6 20473.6 487.960   9
  -5  -2   6 19186.1 1130.37  10
  -5  -2   6 21130.7 1188.66   3
   5  -2  -5 31385.2 622.257   9
  -5  -2   5 30622.1 1375.28  10
   5  -2  -4 6414.57 247.648   9
  -5  -2   4 5715.88 577.596   3
  -5  -2   3 2758.02 399.524   3
  -5  -2   2 6243.62 557.204   3
  -5  -2   1 313.891 175.776   3
  -5  -2  -1 31680.9 1220.02  11
  -5  -2  -2 25391.1 1149.31  11
   5  -2   3 1616.79 134.200   5
  -5  -2  -3 2069.87 372.203  11
   5  -2   4 9159.87 319.792   5
   5  -2   4 9872.60 341.625   8
  -5  -2  -4 9074.21 746.704  11
   5  -2   5 604.966 102.220   5
  -5  -2  -5 768.332 285.472  11
   5  -2   6 1775.24 154.553   5
   5  -2   7 1369.80 130.730   1
   5  -2   7 1708.65 150.789   5
   5  -2   8 7394.04 287.404   1
   5  -2   8 7351.89 288.529   5
   5  -2   9 18036.3 457.631   1
   5  -2   9 18046.4 446.918   5
   5  -2  10 8074.47 265.228   5
   5  -2  10 8065.22 282.021   1
   5  -2  11 207.422 57.7577   5
   5  -2  11 224.596 68.9721   1
   5  -2  12 3397.08 146.314   1
   5  -2  13 3846.66 126.711   1
   5  -1 -13 1734.53 100.060   6
   5  -1 -12 605.253 77.5811   6
   5  -1 -11 2982.24 157.659   6
   5  -1 -10 983.931 113.195   9
   5  -1  -9 6108.77 258.928   9
   5  -1  -8 3011.59 186.992   9
  -5  -1   7 58283.6 2030.77   3
   5  -1  -7 58968.8 964.110   9
  -5  -1   7 55825.7 1953.17  10
  -5  -1   6 5841.24 624.049   3
   5  -1  -6 5863.38 248.843   9
  -5  -1   6 5975.52 600.920  10
  -5  -1   5 4428.57 516.362   3
   5  -1  -5 3893.01 200.548   9
  -5  -1   5 4631.17 531.860  10
  -5  -1   4 595.674 220.329  10
  -5  -1   4 545.128 215.993   3
  -5  -1   3 566.753 215.311  10
  -5  -1   3 491.727 194.202   3
  -5  -1   2 7785.48 588.531   3
  -5  -1   1 869.734 216.072   3
  -5  -1   0 3027.80 352.761  11
  -5  -1  -1-46.3618 171.964  11
  -5  -1  -2 595.048 210.534  11
  -5  -1  -3 8800.26 686.175  11
   5  -1   4 4924.37 222.262   5
   5  -1   4 4773.89 233.635   8
  -5  -1  -4 5263.31 569.240  11
   5  -1   5 2925.38 185.113   5
   5  -1   5 2873.83 196.705   8
   5  -1   6 4682.68 230.604   5
  -5  -1  -6 4361.84 566.688  11
   5  -1   7 42366.3 781.024   5
   5  -1   7 40699.1 761.373   1
   5  -1   8 23649.0 546.852   5
   5  -1   8 25154.6 563.411   1
   5  -1   9 5841.10 247.772   5
   5  -1   9 5779.30 257.676   1
   5  -1  10 2684.62 163.800   5
   5  -1  10 2358.81 161.139   1
   5  -1  11 442.405 79.0400   1
   5  -1  11 765.580 83.8456   5
   5  -1  12 548.064 76.2002   1
   5  -1  13 1722.75 92.4132   1
   5   0 -13 2126.49 112.196   6
   5   0 -12 75.7108 55.8111   6
   5   0 -10 1480.92 132.705   9
   5   0  -9-32.9122 76.4683   9
   5   0  -8 53.8529 78.6577   9
   5   0  -8 12.2605 60.0273   8
  -5   0   7 24634.8 1255.14   3
   5   0  -7 24025.3 548.069   9
   5   0  -7 24193.7 548.111   8
  -5   0   7 22712.7 1202.99  10
  -5   0   6 12852.6 867.451   3
   5   0  -6 12596.1 373.901   9
   5   0  -6 12177.6 369.208   8
  -5   0   6 11495.8 807.755  10
  -5   0   5 1244.61 293.298  10
  -5   0   5 1259.75 292.095   3
   5   0  -5 942.470 112.139   9
  -5   0   4 5051.61 504.428   3
  -5   0   4 4923.62 482.614  10
  -5   0   3-120.708 134.670  10
  -5   0   3 55.3996 162.527   3
  -5   0   2 5727.24 475.952   3
  -5   0   2 6362.10 493.196  10
  -5   0   0 14361.2 762.816  11
  -5   0  -1 757.510 227.722  11
  -5   0  -2 41.0733 168.285  11
  -5   0  -3 8721.09 697.908  11
   5   0   4 15439.7 407.899   5
   5   0   4 16032.8 441.757   8
  -5   0  -4 16390.3 991.459  11
   5   0   5 36.5914 66.9760   8
   5   0   5 50.5371 67.5070   5
  -5   0  -5 117.203 214.526  11
   5   0   6 14878.3 460.155   8
   5   0   6 15924.7 426.560   5
  -5   0  -6 14846.6 1025.50  11
   5   0   7 7686.71 291.808   5
   5   0   7 7185.69 280.607   1
   5   0   8 3575.11 202.197   5
   5   0   8 3314.11 198.104   1
   5   0   9 416.279 89.4132   5
   5   0   9 449.165 95.0941   1
   5   0  10 19340.2 439.331   5
   5   0  10 18833.8 465.214   1
   5   0  11 2860.62 143.147   5
   5   0  11 2611.80 161.007   1
   5   0  12 4971.61 194.699   1
   5   0  13 38.8960 39.3259   1
   5   1 -12 495.692 69.7469   8
   5   1 -11 2834.55 164.405   8
   5   1 -10 867.507 109.978   9
   5   1 -10 970.992 118.874   8
   5   1  -9 5799.07 256.406   9
   5   1  -9 6277.67 271.860   8
   5   1  -8 3155.96 196.851   9
   5   1  -8 2977.91 192.690   8
   5   1  -7 58906.8 986.788   9
   5   1  -7 60662.3 1018.64   8
  -5   1   7 58231.3 1974.25  10
   5   1  -6 5429.29 247.827   9
   5   1  -6 5673.78 259.218   8
  -5   1   6 5492.02 584.284  10
   5   1  -5 4388.08 218.346   9
   5   1  -5 4288.84 220.388   8
  -5   1   5 3856.32 468.369  10
  -5   1   4 168.016 137.985  10
  -5   1   3 567.431 195.878   3
   5   1  -2 7498.95 563.280   2
   5   1  -1 598.099 178.939   2
   5   1   0 2948.60 335.269   2
   5   1   1 98.7823 102.383   2
  -5   1  -1 227.022 148.323  11
  -5   1  -2 644.101 229.754  11
  -5   1  -3 10184.6 764.285  11
   5   1   4 5377.75 249.835   8
  -5   1  -4 5531.19 596.762  11
   5   1   5 2678.08 187.940   8
  -5   1  -5 2807.70 466.910  11
   5   1   6 4335.30 238.737   8
   5   1   6 4636.74 224.005   5
   5   1   7 41920.0 771.389   5
   5   1   7 41701.7 726.716   7
   5   1   8 24562.6 549.720   5
   5   1   8 24696.6 526.417   7
   5   1   9 5595.84 238.567   5
   5   1   9 5508.54 232.395   7
   5   1  10 2842.66 162.143   5
   5   1  10 2360.32 149.435   7
   5   1  10 2513.78 165.972   1
   5   1  11 613.016 74.7611   5
   5   1  11 516.851 83.0939   1
   5   1  12 433.090 70.2876   1
   5   1  13 1797.16 94.6975   1
   5   2 -13 467.335 58.9793   8
   5   2 -12 1521.60 113.686   8
   5   2 -11 1361.79 125.322   8
   5   2 -10 91.7846 72.3209   8
   5   2  -9 901.696 126.291   8
   5   2  -8 9063.01 326.676   9
   5   2  -8 9582.69 352.774   8
   5   2  -7 4533.23 237.444   9
   5   2  -7 4522.22 242.882   8
   5   2  -6 20503.5 514.412   9
   5   2  -6 21165.0 536.807   8
   5   2  -5 31271.7 656.134   9
   5   2  -5 32866.1 685.941   8
   5   2  -4 6604.06 271.172   9
   5   2  -4 6923.18 280.866   8
   5   2  -3 2478.75 377.218   2
   5   2  -2 5256.23 525.535   2
   5   2  -1 176.629 131.203   2
   5   2   0 16657.8 872.646   2
   5   2   1 31733.3 1214.93   2
   5   2   2 25583.7 1084.47   2
   5   2   3 2187.31 163.503   8
   5   2   3 1912.78 318.381   2
   5   2   4 9663.13 341.810   8
  -5   2  -4 11230.3 854.211  11
   5   2   5 817.106 117.384   8
   5   2   5 658.028 88.6423   7
   5   2   6 1835.78 165.255   8
   5   2   6 1829.02 137.627   7
   5   2   7 1328.04 125.996   7
   5   2   8 7154.86 277.512   5
   5   2   8 7465.05 273.005   7
   5   2   9 18124.6 438.616   5
   5   2   9 17980.5 435.930   7
   5   2  10 8482.05 265.254   5
   5   2  10 7815.13 266.557   7
   5   2  11 297.416 57.0238   5
   5   2  11 255.180 67.4914   1
   5   2  11 167.301 59.9448   7
   5   2  12 3631.47 153.973   1
   5   2  13 3708.12 122.974   1
   5   3 -13 500.709 58.2157   8
   5   3 -12 237.453 62.9958   8
   5   3 -11 298.665 78.4982   8
   5   3 -10 1684.20 153.388   8
   5   3  -9 1592.50 149.246   8
   5   3  -8 4167.15 235.286   8
   5   3  -7 11643.8 395.211   8
   5   3  -6 6176.24 284.397   8
   5   3  -5 3450.65 211.222   8
   5   3  -4 2948.95 194.389   8
   5   3  -4 2379.05 398.486   2
   5   3  -3 14241.0 419.954   8
   5   3  -3 13392.9 883.806   2
   5   3  -2 22666.1 541.082   8
   5   3  -2 21388.2 1101.32   2
   5   3  -1 11270.4 361.746   8
   5   3  -1 10694.1 774.386   2
   5   3   0 9325.62 327.917   8
   5   3   0 8388.79 682.552   2
   5   3   1 2419.42 168.288   8
   5   3   1 2532.07 386.965   2
   5   3   2 16598.2 452.160   8
   5   3   2 17011.9 978.915   2
   5   3   2 16709.5 410.102   7
   5   3   3 7667.26 299.802   8
   5   3   3 7341.50 646.750   2
   5   3   3 7445.80 265.204   7
   5   3   4 4572.05 231.643   8
   5   3   4 4863.04 218.008   7
   5   3   4 5315.32 577.281   2
   5   3   5 18450.8 481.809   8
   5   3   5 18444.8 453.622   7
   5   3   6 13206.2 404.643   8
   5   3   6 13038.6 376.895   7
   5   3   7 25899.3 559.010   7
   5   3   8 4321.04 208.227   7
   5   3   9 5287.20 218.310   5
   5   3   9 5086.87 218.400   7
   5   3  10 353.619 66.9206   5
   5   3  10 224.597 66.1249   7
   5   3  11 2100.65 123.628   7
   5   3  12 343.352 54.3715   1
   5   4 -12 196.929 51.5088   8
   5   4 -11 1007.45 104.597   8
   5   4 -10 1539.39 135.433   8
   5   4  -9 663.168 110.316   8
   5   4  -8 2306.48 178.431   8
   5   4  -7 671.108 115.755   8
   5   4  -6 1612.66 153.917   8
   5   4  -5 1371.44 145.725   8
   5   4  -4 7522.37 308.069   8
   5   4  -3 12799.3 406.374   8
   5   4  -2 302.834 85.9693   8
   5   4  -2 419.712 255.958   2
   5   4  -1 18916.1 492.713   8
   5   4  -1 18681.1 458.479   7
   5   4   0 2532.17 175.970   8
   5   4   0 2462.65 161.854   7
   5   4   0 2217.27 406.717   2
   5   4   1 4259.38 221.071   8
   5   4   1 4420.92 212.271   7
   5   4   1 4081.51 530.904   2
   5   4   2 4590.00 229.253   8
   5   4   2 4458.82 214.552   7
   5   4   3 3581.92 201.451   8
   5   4   3 3719.65 198.194   7
   5   4   4 11400.7 353.573   7
   5   4   5 10925.9 347.257   7
   5   4   6 8531.83 303.017   7
   5   4   7 6461.85 259.206   7
   5   4   8 7987.12 279.023   7
   5   4   9 2618.01 144.684   5
   5   4   9 2412.44 146.254   7
   5   4  10 1750.58 104.920   5
   5   4  10 1579.38 110.908   7
   5   4  11 1703.74 101.996   7
  -5   4 -11 1273.17 76.0977   4
   5   5 -12 420.491 49.2807   8
   5   5 -11 3202.24 141.266   8
   5   5 -10 8129.06 257.041   8
   5   5  -9 468.157 88.4959   8
   5   5  -8 1238.73 125.348   8
   5   5  -7 2740.99 181.706   8
   5   5  -6 2151.57 167.673   8
   5   5  -5 6988.16 293.050   8
   5   5  -4 4367.91 231.235   8
   5   5  -3 10539.1 356.757   8
   5   5  -2 2343.97 167.934   8
   5   5  -1 5500.53 248.372   8
   5   5  -1 4964.99 236.916   7
   5   5   0 14783.2 412.995   8
   5   5   0 14513.5 409.829   7
   5   5   1 11104.1 352.831   7
   5   5   2 4238.15 213.527   7
   5   5   3 10108.1 336.166   7
   5   5   4 4529.81 221.925   7
   5   5   5 2945.40 179.954   7
   5   5   6 3037.83 179.206   7
   5   5   7 2654.27 160.455   7
   5   5   8 2083.74 135.996   7
   5   5   9 3706.55 150.498   5
   5   5   9 3505.54 157.781   7
   5   5  10 1531.12 82.4930   5
   5   5  10 1430.39 93.9240   7
   5   5  11 267.167 40.2451   7
   5   6 -10 1251.19 82.7469   8
   5   6  -9 176.971 57.2091   8
   5   6  -8 481.987 76.4427   8
   5   6  -7 230.999 69.6623   8
   5   6  -6 2267.14 147.531   8
   5   6  -5 162.624 66.1235   8
   5   6  -4 904.482 106.408   8
   5   6  -3 3324.76 182.967   8
   5   6  -2 3983.44 207.650   7
   5   6  -1 1452.10 132.908   7
   5   6   0 10412.6 339.422   7
   5   6   1 5181.60 234.980   7
   5   6   2 22944.1 522.576   7
   5   6   3 7746.97 283.696   7
   5   6   4 4485.21 210.775   7
   5   6   5 2443.12 153.078   7
   5   6   6 2895.04 160.416   7
   5   6   7 6823.07 227.297   7
   5   6   8 362.451 62.1196   7
   5   6   9 109.818 35.7576   5
   5   6   9 73.3448 38.8102   7
   5   7  -8 2061.62 92.9536   7
   5   7  -7 1343.60 91.3044   7
   5   7  -6 2573.03 132.310   7
   5   7  -5 1149.10 100.145   7
   5   7  -4 2499.05 146.682   7
   5   7  -3 554.589 83.1165   7
   5   7  -2 2683.86 157.265   7
   5   7  -1 882.928 101.811   7
   5   7   0 3297.44 175.441   7
   5   7   1 5957.76 230.594   7
   5   7   2 2769.03 156.549   7
   5   7   3 382.552 75.2906   7
   5   7   4 2505.93 140.542   7
   5   7   5 1018.76 92.9954   7
   5   7   6 890.932 80.8015   7
   5   7   7 1228.08 80.5817   7
   5   7   8 1071.28 62.4041   7
   5   8  -5 1162.17 73.8334   7
   5   8  -4 5586.38 171.268   7
   5   8  -3 489.800 62.6681   7
   5   8  -2 175.353 50.1173   7
   5   8  -1 1742.73 106.556   7
   5   8   0 743.936 76.7006   7
   5   8   1 173.452 47.7186   7
   5   8   2 804.800 73.9332   7
   5   8   3 435.722 58.3558   7
   5   8   4 1952.00 95.5896   7
   5   8   5 1422.46 73.7458   7
   6  -7  -6 2230.87 96.4024   9
   6  -7  -5 175.083 47.5764   9
   6  -7  -4 803.960 74.2285   9
   6  -7  -3 194.360 49.8503   9
   6  -7  -2 1717.53 104.205   9
   6  -7  -1 1655.85 98.5521   9
   6  -7   0 73.8073 44.4519   9
   6  -7   1 1626.69 96.1716   5
   6  -7   2 745.715 73.1776   5
   6  -7   3 189.632 50.7144   5
   6  -7   4 1141.35 80.8945   5
   6  -7   5 1264.09 76.4293   5
   6  -6  -8 2253.87 101.798   9
   6  -6  -7 42.5860 50.0129   9
   6  -6  -6 1384.34 104.377   9
   6  -6  -5 3253.12 160.204   9
   6  -6  -4 4579.66 192.793   9
   6  -6  -3 243.930 71.2949   9
   6  -6  -2 3622.76 171.101   9
   6  -6  -1 5674.74 210.350   9
   6  -6   0 861.147 88.8042   9
   6  -6   0 816.173 91.6273   5
   6  -6   1 5042.65 203.804   5
   6  -6   2 1274.73 115.049   5
   6  -6   3 552.141 89.7590   5
   6  -6   4 4408.44 190.442   5
   6  -6   5 2359.09 138.207   5
   6  -6   6 92.6625 56.2645   5
   6  -6   7 1571.79 93.1975   5
   6  -5  -9 1052.20 80.6178   9
   6  -5  -8 2904.69 142.626   9
   6  -5  -7 3219.45 164.096   9
   6  -5  -6 3845.71 188.216   9
   6  -5  -5 7956.99 280.582   9
   6  -5  -4 7608.11 278.279   9
   6  -5  -3 1693.28 140.524   9
   6  -5  -2 1137.31 121.115   9
   6  -5  -1 4918.85 215.731   9
   6  -5   0 2016.93 144.843   5
   6  -5   0 1529.63 122.167   9
   6  -5   1 3600.15 198.255   5
   6  -5   1 3813.61 171.219   9
   6  -5   2 5991.31 253.216   5
   6  -5   3 3260.51 189.549   5
   6  -5   4 3079.33 185.789   5
   6  -5   5 2016.98 150.856   5
   6  -5   6 2438.99 155.953   5
   6  -5   7 1121.96 103.454   5
   6  -5   8 1594.78 104.695   5
   6  -5   9 587.349 56.3938   5
   6  -4 -10 189.303 52.5128   9
   6  -4  -9 2155.33 127.129   9
   6  -4  -8 3573.07 177.002   9
   6  -4  -7 2619.05 164.336   9
   6  -4  -6 3123.53 189.500   9
   6  -4  -5 5652.34 252.483   9
   6  -4  -4 5480.26 248.589   9
   6  -4  -3 5602.91 247.684   9
   6  -4  -2 7060.82 272.895   9
   6  -4  -1 7293.97 269.230   9
   6  -4   0 3127.81 180.366   5
   6  -4   0 3062.80 168.787   9
   6  -4   1 19366.0 477.294   5
   6  -4   2 10092.7 337.757   5
   6  -4   3 10938.2 355.394   5
   6  -4   4 4258.30 223.615   5
   6  -4   5 2799.11 186.707   5
   6  -4   6 695.986 116.757   5
   6  -4   7 636.340 102.156   5
   6  -4   8 2044.85 137.468   5
   6  -4   9 920.254 88.5720   5
   6  -4  10 711.606 59.4462   5
   6  -3 -10 3151.10 147.819   9
   6  -3  -9 8686.87 274.096   9
   6  -3  -8 12320.4 354.952   9
   6  -3  -7 2934.83 182.865   9
   6  -3  -6 5501.48 248.756   9
   6  -3  -5 1012.00 129.866   9
   6  -3  -4 8376.27 310.010   9
   6  -3  -3 2064.42 160.228   9
   6  -3  -2 7631.96 283.721   9
   6  -3  -1 7153.43 267.554   9
   6  -3   0 956.109 105.877   9
   6  -3   0 991.693 112.935   5
   6  -3   1 4685.33 225.159   5
   6  -3   2 11910.2 368.716   5
   6  -3   3 835.912 118.217   5
   6  -3   4 8695.90 320.061   5
   6  -3   5 7470.58 297.591   5
   6  -3   6 979.154 128.604   5
   6  -3   7 1431.59 141.494   5
   6  -3   8 1396.80 125.575   5
   6  -3   9 1572.75 119.440   5
   6  -3  10 220.791 55.2065   5
   6  -2 -10 128.697 62.3949   9
   6  -2  -9 5367.03 227.171   9
   6  -2  -8 5328.78 239.526   9
   6  -2  -7 5200.59 245.252   9
   6  -2  -6 1480.91 143.754   9
   6  -2  -5 32932.6 667.062   9
   6  -2  -4 18389.2 465.758   9
   6  -2  -3 2687.73 175.367   9
   6  -2  -2 2754.54 174.682   9
   6  -2  -1 2314.57 158.970   9
   6  -2   0 4619.50 208.498   9
   6  -2   0 4015.59 199.675   5
   6  -2   0 4258.52 217.853   8
   6  -2   1 9095.05 312.139   5
   6  -2   1 9550.73 331.376   8
   6  -2   2 10699.8 348.008   5
   6  -2   2 10702.7 362.682   8
   6  -2   3 2970.59 187.966   5
   6  -2   3 2805.78 193.949   8
   6  -2   4 31914.2 667.429   5
   6  -2   4 33093.3 701.917   8
   6  -2   5 4740.38 237.959   5
   6  -2   6 10321.2 351.254   5
   6  -2   7 9821.30 334.823   5
   6  -2   8 1963.26 148.462   5
   6  -2   9 980.772 107.598   5
   6  -2  10 131.568 60.3197   5
   6  -2  11 858.948 64.8379   5
   6  -1 -11 696.156 80.7255   9
   6  -1 -10 5757.82 221.762   9
   6  -1  -9 3808.37 200.838   9
   6  -1  -8 14132.9 403.682   9
   6  -1  -7 6171.03 266.225   9
   6  -1  -6 4400.30 238.209   9
   6  -1  -5 467.697 98.3525   9
   6  -1  -4 7735.63 292.755   9
   6  -1  -3 421.736 95.5434   9
   6  -1  -3 268.943 84.1217   8
   6  -1  -2 3976.56 203.853   9
   6  -1  -2 3786.26 206.973   8
   6  -1  -1 8331.15 289.647   9
   6  -1  -1 8399.70 309.659   8
   6  -1   0 9608.76 304.681   9
   6  -1   0 9336.31 302.745   5
   6  -1   0 9293.17 331.778   8
   6  -1   1 1328.53 131.236   5
   6  -1   1 1176.39 132.661   8
   6  -1   2 1421.08 141.857   8
   6  -1   2 1212.97 130.186   5
   6  -1   3 1385.95 144.857   8
   6  -1   3 1333.45 134.287   5
  -6  -1  -3 1369.98 426.946  11
   6  -1   4 3612.84 206.460   5
   6  -1   4 3441.88 216.991   8
   6  -1   5 12585.8 386.126   5
   6  -1   5 11937.3 409.611   8
   6  -1   6 1588.13 145.140   5
   6  -1   7 17240.8 454.506   5
   6  -1   8 4926.74 228.899   5
   6  -1   9 762.538 99.1984   5
   6  -1  10 1249.59 104.016   5
   6  -1  10 1024.43 85.9303   1
   6  -1  11 406.135 55.4658   5
   6   0 -10 4733.10 204.398   9
   6   0  -9 3626.56 199.741   9
   6   0  -8 385.071 99.8769   9
   6   0  -8 506.815 86.5269   8
   6   0  -7 5102.74 247.870   9
   6   0  -7 5284.85 241.737   8
   6   0  -6 2133.45 171.403   9
   6   0  -6 2055.80 158.585   8
   6   0  -5 38197.3 742.909   9
   6   0  -5 38035.5 746.960   8
   6   0  -4 20075.2 498.435   9
   6   0  -4 19509.6 500.643   8
   6   0  -3 14016.0 398.162   9
   6   0  -3 14027.8 412.916   8
   6   0  -2 20682.6 491.025   9
   6   0  -2 20386.6 512.438   8
   6   0  -1 5620.49 238.525   9
   6   0  -1 5653.75 258.109   8
   6   0   0 2012.05 147.050   9
   6   0   0 2063.12 152.294   5
   6   0   0 2160.24 171.455   8
   6   0   1 158.753 86.8638   8
   6   0   1-1.04003 71.3877   5
   6   0   2 3869.08 201.917   5
   6   0   2 4086.91 230.411   8
  -6   0  -2 3771.12 513.145  11
   6   0   3 11.0710 72.4061   8
   6   0   3-36.1483 78.8165   5
  -6   0  -3 270.871 270.319  11
   6   0   4 64682.7 1052.19   5
   6   0   4 67046.2 1119.13   8
   6   0   5 3137.79 192.649   5
   6   0   5 3385.97 222.814   8
   6   0   6 10884.2 354.674   5
   6   0   6 10399.0 387.899   8
   6   0   7 17076.8 446.362   5
   6   0   8 3372.61 190.964   5
   6   0   9 3604.87 182.326   5
   6   0  10 253.540 64.4894   5
   6   0  10 197.577 52.7105   1
   6   0  11 40.3062 43.6737   5
   6   0  11 91.9573 43.1924   1
   6   1 -11 771.686 74.2581   8
   6   1 -10 5637.77 218.487   8
   6   1  -9 3327.92 190.970   9
   6   1  -9 3741.42 194.875   8
   6   1  -8 13804.3 405.997   9
   6   1  -8 13946.2 408.155   8
   6   1  -7 6730.50 287.527   9
   6   1  -7 6637.25 283.786   8
   6   1  -6 3774.58 225.259   9
   6   1  -6 3905.78 220.946   8
   6   1  -5 558.278 115.374   9
   6   1  -5 382.277 93.5585   8
   6   1  -4 7795.77 307.537   9
   6   1  -4 8948.01 335.948   8
   6   1  -3 355.136 96.1708   9
   6   1  -3 361.351 95.5871   8
   6   1  -2 4109.85 215.136   9
   6   1  -2 4157.96 226.617   8
   6   1  -1 8986.92 306.491   9
   6   1  -1 8337.63 322.047   8
   6   1   0 9771.77 312.120   9
   6   1   0 9211.78 295.828   5
   6   1   0 9358.95 343.358   8
   6   1   1 1278.30 138.429   8
   6   1   1 943.909 103.448   5
  -6   1  -1 878.358 303.027  11
   6   1   2 1177.93 140.103   8
   6   1   2 1177.61 121.046   5
  -6   1  -2 1285.28 357.218  11
   6   1   3 1643.52 156.068   8
   6   1   3 1342.96 133.128   5
   6   1   4 3420.44 215.157   8
   6   1   4 3326.12 195.438   5
   6   1   5 12532.9 414.943   8
   6   1   5 12053.3 373.962   5
   6   1   6 1579.72 162.088   8
   6   1   6 1507.89 144.684   5
   6   1   7 16769.0 438.151   5
   6   1   8 4793.80 220.374   5
   6   1   9 972.916 106.365   5
   6   1  10 1190.15 97.0807   5
   6   1  10 923.442 83.8506   1
   6   1  11 389.600 54.1026   5
   6   2 -12 410.188 50.6928   8
   6   2 -11 378.098 68.0368   8
   6   2 -10 174.411 65.8406   8
   6   2  -9 5732.98 244.905   8
   6   2  -8 5202.93 248.987   8
   6   2  -7 4973.69 247.358   9
   6   2  -7 5352.87 260.048   8
   6   2  -6 1464.63 154.094   9
   6   2  -6 1284.90 142.735   8
   6   2  -5 32266.6 688.969   9
   6   2  -5 33167.6 713.354   8
   6   2  -4 18528.8 492.577   9
   6   2  -4 19196.5 519.864   8
   6   2  -3 2688.81 189.146   9
   6   2  -3 2665.03 192.643   8
   6   2  -2 2890.81 188.946   9
   6   2  -2 2879.83 194.402   8
   6   2  -1 2696.33 178.607   9
   6   2  -1 2792.63 193.754   8
   6   2  -1 2717.58 422.759   2
   6   2   0 4268.36 233.404   8
  -6   2   0 3659.59 523.291  11
   6   2   1 9666.58 351.859   8
  -6   2  -1 8385.23 749.041  11
   6   2   2 10678.6 374.537   8
   6   2   3 2878.03 195.897   8
   6   2   4 32124.4 699.790   8
   6   2   5 4842.73 252.137   8
   6   2   5 4676.48 228.766   5
   6   2   6 9545.52 362.095   8
   6   2   6 9954.98 333.898   5
   6   2   7 9624.68 318.241   5
   6   2   8 2401.33 157.611   5
   6   2   9 875.034 97.1867   5
   6   2  10 215.283 54.6866   5
   6   2  11 848.137 63.5798   5
   6   3 -12 765.003 60.6526   8
   6   3 -11 1294.14 100.519   8
   6   3 -10 3287.79 172.205   8
   6   3  -9 8760.48 302.461   8
   6   3  -8 13326.1 400.677   8
   6   3  -7 3227.33 205.237   8
   6   3  -6 5467.29 265.211   8
   6   3  -5 1183.45 141.436   8
   6   3  -4 8941.22 344.701   8
   6   3  -3 2229.04 176.654   8
   6   3  -2 8267.63 332.839   8
   6   3  -1 7915.23 322.538   8
   6   3   0 1050.15 129.907   8
   6   3   1 4895.69 251.062   8
   6   3   2 11984.2 393.641   8
   6   3   3 616.419 104.930   8
   6   3   4 9165.80 335.726   8
   6   3   5 7577.12 302.325   8
   6   3   5 7794.96 260.758   7
   6   3   6 830.426 116.680   8
   6   3   6 842.033 96.5929   7
   6   3   7 1289.71 124.613   5
   6   3   7 1191.31 101.746   7
   6   3   8 1349.87 116.718   5
   6   3   8 1263.89 100.950   7
   6   3   9 1588.54 111.306   5
   6   3   9 1329.51 93.9692   7
   6   3  10 126.073 45.3925   5
   6   3  10 98.7805 39.6455   7
   6   4 -11 1212.31 84.5712   8
   6   4 -10 415.346 71.5526   8
   6   4  -9 2377.92 150.139   8
   6   4  -8 3044.75 180.486   8
   6   4  -7 2495.98 173.678   8
   6   4  -6 3083.69 198.145   8
   6   4  -5 5154.47 252.858   8
   6   4  -4 5070.09 252.445   8
   6   4  -3 5163.66 255.590   8
   6   4  -2 7167.28 301.462   8
   6   4  -1 7296.38 302.316   8
   6   4   0 3133.41 197.994   8
   6   4   1 19815.5 510.350   8
   6   4   1 20453.9 457.669   7
   6   4   2 8940.75 327.323   8
   6   4   2 9641.17 298.485   7
   6   4   3 11174.8 357.522   8
   6   4   3 11578.5 331.349   7
   6   4   4 4185.40 209.105   8
   6   4   4 4406.91 199.347   7
   6   4   5 2664.78 164.032   8
   6   4   5 2827.27 156.186   7
   6   4   6 819.173 91.4996   7
   6   4   7 630.856 93.2329   5
   6   4   7 583.410 74.1121   7
   6   4   8 3147.86 149.983   5
   6   4   8 1739.98 109.473   7
   6   4   9 990.391 80.5334   5
   6   4   9 863.112 71.7153   7
   6   5 -10 3396.44 130.460   8
   6   5  -9 1130.42 93.0915   8
   6   5  -8 3030.58 156.746   8
   6   5  -7 3052.23 168.798   8
   6   5  -6 3648.23 191.203   8
   6   5  -5 7940.92 291.321   8
   6   5  -4 7436.32 284.890   8
   6   5  -4 6704.70 234.539   7
   6   5  -3 1844.17 151.277   8
   6   5  -3 1839.31 126.228   7
   6   5  -2 1315.00 129.097   8
   6   5  -2 1064.42 104.281   7
   6   5  -1 5334.63 240.668   8
   6   5  -1 5206.60 215.829   7
   6   5   0 1610.74 139.075   8
   6   5   0 1895.14 136.214   7
   6   5   1 3659.40 192.160   8
   6   5   1 3885.87 185.817   7
   6   5   2 5779.89 226.862   7
   6   5   3 3780.27 182.823   7
   6   5   4 2796.75 153.360   7
   6   5   5 1787.87 123.918   7
   6   5   6 2033.03 122.841   7
   6   5   7 988.116 92.3157   5
   6   5   7 1397.40 111.953   7
   6   5   8 1499.85 93.4981   5
   6   5   8 1229.74 81.1530   7
   6   5   9 617.187 52.5454   5
   6   6  -8 2161.56 103.176   8
   6   6  -7 17.9819 38.9383   8
   6   6  -6 1222.32 94.8047   8
   6   6  -6 1192.29 81.2247   7
   6   6  -5 3051.78 150.883   8
   6   6  -5 3172.72 136.909   7
   6   6  -4 4366.75 186.179   8
   6   6  -4 4303.97 169.943   7
   6   6  -3 230.235 63.5269   8
   6   6  -3 331.118 61.4297   7
   6   6  -2 3156.76 159.611   8
   6   6  -2 3203.49 156.252   7
   6   6  -1 5927.12 215.409   7
   6   6   0 895.869 93.9534   7
   6   6   1 4673.74 191.471   7
   6   6   2 1224.13 100.589   7
   6   6   3 511.616 74.2887   7
   6   6   4 3994.84 166.821   7
   6   6   5 2260.23 118.564   7
   6   6   6 73.2085 42.9029   7
   6   6   7 1559.30 85.5014   5
   6   6   7 1309.86 75.0510   7
   6   7  -5 77.5451 33.6425   7
   6   7  -4 838.758 65.7323   7
   6   7  -3 225.532 46.0599   7
   6   7  -2 1609.80 94.2512   7
   6   7  -1 1705.81 101.815   7
   6   7   0 62.5233 39.9212   7
   6   7   1 1889.32 105.388   7
   6   7   2 857.418 75.2719   7
   6   7   3 239.748 48.4508   7
   6   7   4 1033.63 69.9706   7
   6   7   5 1058.02 63.0245   7
   7  -6  -6 31.9712 33.5318   9
   7  -6  -5 28.4159 38.0980   9
   7  -6  -4 1298.33 85.2565   9
   7  -6  -3 4264.71 148.683   9
   7  -6  -2 6012.02 175.078   9
   7  -6  -1 1770.09 91.9286   9
   7  -6   2 2321.20 102.760   5
   7  -6   3 4542.94 142.168   5
   7  -6   4 4448.48 135.645   5
   7  -5  -8 3185.41 110.918   9
   7  -5  -7 1338.19 89.2631   9
   7  -5  -6 1715.18 107.580   9
   7  -5  -5 5164.24 191.117   9
   7  -5  -4 588.623 86.6679   9
   7  -5  -3 2320.61 134.773   9
   7  -5  -2 2472.55 136.366   9
   7  -5  -1 240.532 61.1770   9
   7  -5   0 2064.51 113.393   9
   7  -5   1 152.326 59.8628   5
   7  -5   2 285.518 71.3225   5
   7  -5   3 5867.36 205.153   5
   7  -5   4 4770.32 181.691   5
   7  -5   5 693.828 76.9194   5
   7  -5   6 824.170 75.1270   5
   7  -5   7 2283.42 93.4242   5
   7  -4  -9 107.657 42.9941   9
   7  -4  -8 1127.73 90.8479   9
   7  -4  -7 37.7582 65.8400   9
   7  -4  -6 3161.32 167.348   9
   7  -4  -5 444.733 83.1255   9
   7  -4  -4 2030.04 143.436   9
   7  -4  -3 13010.7 350.430   9
   7  -4  -2 6135.23 233.409   9
   7  -4  -1 455.252 82.7516   9
   7  -4   0 2487.80 140.430   9
   7  -4   1 3741.36 181.090   5
   7  -4   2 3423.12 174.891   5
   7  -4   3 5103.06 213.244   5
   7  -4   4 3589.94 179.609   5
   7  -4   5 1311.81 113.929   5
   7  -4   6 2999.36 151.680   5
   7  -4   7 203.304 62.1540   5
   7  -4   8 127.926 42.8546   5
   7  -3 -10 22.4559 34.1928   9
   7  -3  -9 81.5997 54.3969   9
   7  -3  -8 3074.85 157.109   9
   7  -3  -7 445.194 89.3066   9
   7  -3  -6 1196.09 124.380   9
   7  -3  -5 557.760 99.3290   9
   7  -3  -4 1868.47 150.630   9
   7  -3  -3 3422.46 190.329   9
   7  -3  -2 552.075 97.7681   9
   7  -3  -1 920.366 104.978   9
   7  -3   0 1326.27 115.766   9
   7  -3   1 4348.85 204.238   5
   7  -3   2 1858.22 146.183   5
   7  -3   3 994.084 116.674   5
   7  -3   4 553.268 98.8815   5
   7  -3   5 2846.43 168.349   5
   7  -3   6 2205.38 144.163   5
   7  -3   7 3946.47 175.153   5
   7  -3   8 1088.76 90.4406   5
   7  -3   9 351.762 50.8518   5
   7  -2 -10 878.416 76.5221   9
   7  -2  -9 1745.59 118.972   9
   7  -2  -8 3338.31 173.625   9
   7  -2  -7 8552.29 293.854   9
   7  -2  -6 2728.73 180.631   9
   7  -2  -5 5235.53 242.640   9
   7  -2  -4 8224.43 300.816   9
   7  -2  -3 3370.58 194.592   9
   7  -2  -2 7481.21 279.023   9
   7  -2  -1 3189.57 183.619   9
   7  -2   0 8217.11 274.500   9
   7  -2   0 8808.70 304.587   8
   7  -2   1 6781.84 258.908   5
   7  -2   1 6920.46 276.280   8
   7  -2   2 7796.75 283.385   5
   7  -2   2 7355.27 293.871   8
   7  -2   3 11949.2 360.505   5
   7  -2   4 221.726 85.7032   5
   7  -2   5 1515.77 136.474   5
   7  -2   6 3624.96 188.142   5
   7  -2   7 1708.01 130.028   5
   7  -2   8 680.702 83.3306   5
   7  -2   9 245.785 55.0062   5
   7  -1 -10 349.030 64.0273   9
   7  -1  -9 744.582 92.7579   9
   7  -1  -8 1373.78 126.098   9
   7  -1  -7 1007.87 121.406   9
   7  -1  -6 1527.65 145.494   9
   7  -1  -5 1722.21 149.135   9
   7  -1  -4 13.7217 86.9667   9
   7  -1  -4 86.9216 91.4611   8
   7  -1  -3 456.618 105.296   9
   7  -1  -3 631.222 98.5854   8
   7  -1  -2 2664.70 174.082   9
   7  -1  -2 2485.69 166.414   8
   7  -1  -1 1057.34 119.591   9
   7  -1  -1 1169.86 127.765   8
   7  -1   0 1235.50 116.713   9
   7  -1   0 1010.52 123.209   8
   7  -1   1 1453.57 128.925   5
   7  -1   1 1433.18 140.603   8
   7  -1   2 2984.96 179.803   5
   7  -1   2 2916.06 193.197   8
   7  -1   3 2650.21 171.962   5
   7  -1   3 2829.37 195.037   8
   7  -1   4 24087.1 538.304   5
   7  -1   4 23273.9 570.133   8
   7  -1   5 13089.3 378.592   5
   7  -1   6 1090.27 117.489   5
   7  -1   7 1841.55 137.106   5
   7  -1   8 1365.00 112.014   5
   7  -1   9 90.7788 55.1568   5
   7  -1  10 664.862 57.6392   5
   7   0  -9 2350.72 143.574   9
   7   0  -8 263.377 87.6559   9
   7   0  -7 1011.73 124.597   9
   7   0  -7 812.640 92.6583   8
   7   0  -6 7836.82 296.887   9
   7   0  -6 7227.85 270.970   8
   7   0  -5 2930.42 189.182   9
   7   0  -5 2980.14 183.089   8
   7   0  -4 392.682 101.038   9
   7   0  -4 268.654 79.7193   8
   7   0  -3 1195.48 136.973   9
   7   0  -3 1055.26 127.596   8
   7   0  -2 7513.07 288.813   9
   7   0  -2 7265.42 300.150   8
   7   0  -1 196.408 77.2599   9
   7   0  -1 243.392 88.3253   8
   7   0   0 4318.29 205.984   9
   7   0   0 4110.87 230.382   8
   7   0   1 19168.8 454.792   5
   7   0   1 18852.9 506.317   8
   7   0   2 10280.4 329.937   5
   7   0   2 10389.8 365.857   8
   7   0   3 18796.5 463.827   5
   7   0   3 18585.6 503.157   8
   7   0   4 5457.10 243.822   5
   7   0   4 5437.08 270.651   8
   7   0   5 296.768 99.9661   8
   7   0   5 65.9505 75.9320   5
   7   0   6 3426.31 189.111   5
   7   0   7 3574.40 180.445   5
   7   0   8 5727.47 208.939   5
   7   0   9 3104.53 137.276   5
   7   0  10 145.798 42.4242   5
   7   1  -9 707.078 73.9536   8
   7   1  -8 1275.44 109.865   8
   7   1  -7 873.614 118.015   9
   7   1  -7 984.246 107.336   8
   7   1  -6 1404.53 142.904   9
   7   1  -6 1321.17 129.885   8
   7   1  -5 1690.14 154.116   9
   7   1  -5 1649.78 149.547   8
   7   1  -4 122.957 93.9007   9
   7   1  -4-19.5715 78.4452   8
   7   1  -3 353.239 97.8202   9
   7   1  -3 408.608 98.2058   8
   7   1  -2 2726.52 182.327   9
   7   1  -2 2537.27 187.905   8
   7   1  -1 910.877 115.664   9
   7   1  -1 954.147 129.559   8
   7   1   0 1073.40 114.994   9
   7   1   0 994.671 130.009   8
   7   1   1 1340.58 121.733   5
   7   1   1 1334.19 145.859   8
   7   1   2 2864.09 174.351   5
   7   1   2 2915.91 202.351   8
   7   1   3 2809.32 176.435   5
   7   1   3 2814.97 197.753   8
   7   1   4 24665.5 543.354   5
   7   1   4 25172.0 593.537   8
   7   1   5 13237.7 376.745   5
   7   1   5 13643.1 423.196   8
   7   1   6 1075.80 116.833   5
   7   1   7 2162.57 144.746   5
   7   1   8 1078.30 100.381   5
   7   1   9 98.2728 49.0033   5
   7   1  10 807.966 60.0061   5
   7   2 -10 875.522 71.8557   8
   7   2  -9 1903.08 121.365   8
   7   2  -8 3096.72 167.558   8
   7   2  -7 8863.40 303.123   8
   7   2  -6 2649.00 177.197   8
   7   2  -5 5463.42 256.628   8
   7   2  -4 8131.00 320.203   8
   7   2  -3 3510.97 215.194   8
   7   2  -2 7729.10 316.695   8
   7   2  -1 3223.08 210.849   8
   7   2   0 8084.36 325.373   8
   7   2   1 6932.77 254.308   5
   7   2   1 6693.95 295.842   8
   7   2   2 7815.87 278.620   5
   7   2   2 7930.98 319.597   8
   7   2   3 12274.5 360.255   5
   7   2   3 12509.4 396.915   8
   7   2   4 244.271 87.9730   8
   7   2   4 294.873 79.9975   5
   7   2   5 1445.23 128.643   5
   7   2   5 1455.46 143.038   8
   7   2   6 3648.86 187.079   5
   7   2   7 1837.29 128.283   5
   7   2   8 715.238 82.1962   5
   7   2   9 198.066 50.8657   5
   7   3 -10 12.8798 34.8288   8
   7   3  -9 26.1611 45.0384   8
   7   3  -8 3192.04 164.187   8
   7   3  -7 571.735 90.4732   8
   7   3  -6 1216.63 125.598   8
   7   3  -5 595.290 106.185   8
   7   3  -4 1615.13 150.919   8
   7   3  -3 3250.84 204.624   8
   7   3  -2 599.054 106.103   8
   7   3  -1 921.777 124.198   8
   7   3   0 1366.84 111.222   5
   7   3   0 1525.42 148.343   8
   7   3   1 4285.38 194.869   5
   7   3   1 4217.11 229.527   8
   7   3   2 1682.20 152.237   8
   7   3   2 1716.97 135.241   5
   7   3   3 881.035 111.170   8
   7   3   3 835.890 108.453   5
   7   3   4 561.946 92.4616   8
   7   3   4 501.159 88.4265   5
   7   3   5 2837.29 171.387   8
   7   3   5 3100.38 168.944   5
   7   3   6 2112.67 137.589   5
   7   3   7 4191.61 171.925   5
   7   3   8 1083.49 83.5545   5
   7   3   9 463.501 51.2913   5
   7   4  -9 171.059 49.0261   8
   7   4  -8 1238.56 100.141   8
   7   4  -7 80.2222 63.3828   8
   7   4  -6 3176.98 171.993   8
   7   4  -5 411.947 85.0501   8
   7   4  -4 1882.39 148.177   8
   7   4  -3 12866.2 379.443   8
   7   4  -2 6228.56 262.638   8
   7   4  -1 550.809 99.9924   8
   7   4   0 2456.89 137.114   5
   7   4   0 2514.10 167.610   8
   7   4   1 3681.15 199.393   8
   7   4   1 3555.41 169.705   5
   7   4   2 3641.98 186.823   8
   7   4   2 3209.98 165.199   5
   7   4   3 4934.71 211.498   8
   7   4   3 5222.02 209.615   5
   7   4   4 3625.09 174.296   8
   7   4   4 3804.69 176.870   5
   7   4   5 1282.51 108.349   5
   7   4   6 3027.87 143.863   5
   7   4   7 234.644 54.8177   5
   7   4   8 166.820 38.9576   5
   7   5  -8 3207.20 117.728   8
   7   5  -7 1468.72 93.9056   8
   7   5  -6 1760.33 110.736   8
   7   5  -5 5175.28 195.396   8
   7   5  -4 509.713 75.4150   8
   7   5  -3 2381.41 144.009   8
   7   5  -2 2782.02 155.280   8
   7   5  -1 197.750 64.4810   8
   7   5   0 1668.33 120.884   8
   7   5   1 124.974 55.6927   8
   7   5   1 174.152 51.3085   5
   7   5   2 244.829 63.3000   8
   7   5   2 359.911 62.6577   5
   7   5   3 6165.69 200.651   5
   7   5   4 5279.53 180.763   5
   7   5   5 706.430 70.9407   5
   7   5   6 866.641 71.1591   5
   7   5   7 2286.06 89.4415   5
   7   6  -4 1338.45 77.3840   8
   7   6  -3 3978.21 137.120   8
   7   6   1 353.468 48.3537   5
   7   6   2 2271.63 99.0630   5
   7   6   3 4593.29 140.008   5
   7   6   4 4553.12 132.649   5
   8  -4  -6 600.283 60.8546   9
   8  -4  -5 1643.34 97.8516   9
   8  -4  -4 712.764 71.8181   9
   8  -4  -3 2504.93 117.326   9
   8  -4  -2 112.063 45.7037   9
   8  -4   3 3269.79 121.044   5
   8  -4   4 391.220 52.3209   5
   8  -3  -7 2735.95 121.652   9
   8  -3  -6 337.819 67.9828   9
   8  -3  -5 628.031 84.0404   9
   8  -3  -4 973.478 93.3616   9
   8  -3  -3 808.943 88.2013   9
   8  -3  -2 1277.00 99.5452   9
   8  -3  -1 1178.37 90.4444   9
   8  -3   2 169.024 53.7388   5
   8  -3   3 213.763 56.0253   5
   8  -3   4 2673.53 126.191   5
   8  -3   5 471.487 63.0009   5
   8  -3   6 3028.35 116.188   5
   8  -2  -8 934.885 78.6791   9
   8  -2  -7 3265.29 149.258   9
   8  -2  -6 1076.79 102.899   9
   8  -2  -5 347.358 78.7612   9
   8  -2  -4 1001.99 104.581   9
   8  -2  -3 101.377 64.1035   9
   8  -2  -2 948.628 95.8421   9
   8  -2  -1 725.454 84.3875   9
   8  -2   2 1274.29 99.9184   5
   8  -2   3 2853.23 143.042   5
   8  -2   4 3611.64 157.163   5
   8  -2   5 1843.59 114.189   5
   8  -2   6 2994.72 128.248   5
   8  -2   7 82.1081 40.1036   5
   8  -1  -8 5677.11 183.865   9
   8  -1  -7 126.134 62.5822   9
   8  -1  -6 292.359 78.1052   9
   8  -1  -5 289.286 79.1219   9
   8  -1  -4 213.674 73.3236   9
   8  -1  -3 3132.20 171.261   9
   8  -1  -3 3207.88 159.167   8
   8  -1  -2 1297.22 112.240   9
   8  -1  -2 1326.37 113.360   8
   8  -1  -1 7475.21 239.331   9
   8  -1  -1 7712.45 266.296   8
   8  -1   0 265.290 69.3931   8
   8  -1   1 56.8369 65.5536   8
   8  -1   2 1263.20 104.590   5
   8  -1   2 1173.65 119.469   8
   8  -1   3 4284.31 182.519   5
   8  -1   4 4516.32 183.048   5
   8  -1   5 2162.82 127.120   5
   8  -1   6 515.504 70.8824   5
   8  -1   7 711.765 67.6050   5
   8   0  -6 831.476 101.532   9
   8   0  -5 809.485 101.341   9
   8   0  -5 827.159 86.3128   8
   8   0  -4 3898.38 188.657   9
   8   0  -4 3641.72 176.744   8
   8   0  -3 13.8183 67.8986   9
   8   0  -3 19.5298 54.9367   8
   8   0  -2 25.7945 57.3592   9
   8   0  -2 75.5846 62.0120   8
   8   0  -1 4276.42 182.178   9
   8   0  -1 4146.31 206.215   8
   8   0   0 18.3006 64.3483   8
   8   0   1 294.025 84.6327   8
   8   0   2 2318.28 134.189   5
   8   0   2 2230.56 160.975   8
   8   0   3 1967.82 130.550   5
   8   0   3 2009.06 150.739   8
   8   0   4 1164.21 101.670   5
   8   0   5 10927.0 286.446   5
   8   0   6 1425.46 102.382   5
   8   0   7-22.4691 42.5821   5
   8   0   8 504.148 50.4982   5
   8   1  -7 119.788 45.3740   8
   8   1  -6 274.724 60.2036   8
   8   1  -5 394.883 75.4292   8
   8   1  -4 113.964 65.0482   8
   8   1  -3 3271.69 182.754   8
   8   1  -2 1310.26 127.166   8
   8   1  -1 7713.90 289.368   8
   8   1   0 280.484 88.1408   8
   8   1   1 174.371 78.2055   8
   8   1   2 986.650 92.6552   5
   8   1   2 1022.19 117.359   8
   8   1   3 4439.10 182.788   5
   8   1   3 4562.51 213.416   8
   8   1   4 4946.41 191.114   5
   8   1   4 4407.44 210.025   8
   8   1   5 2030.16 123.763   5
   8   1   6 452.115 64.7312   5
   8   1   7 582.797 64.9260   5
   8   2  -8 701.984 59.8762   8
   8   2  -7 3178.85 137.917   8
   8   2  -6 994.419 91.2759   8
   8   2  -5 302.035 69.6111   8
   8   2  -4 815.084 99.3623   8
   8   2  -3 124.242 71.8617   8
   8   2  -2 831.310 105.208   8
   8   2  -1 589.373 95.9654   8
   8   2   0 150.579 71.2661   8
   8   2   1 702.321 101.853   8
   8   2   2 1138.26 92.9955   5
   8   2   2 1203.54 119.622   8
   8   2   3 2961.18 142.319   5
   8   2   3 2822.11 163.739   8
   8   2   4 3657.04 156.017   5
   8   2   4 3830.77 180.953   8
   8   2   5 1809.73 109.883   5
   8   2   6 3204.00 131.740   5
   8   2   7 98.8911 37.8496   5
   8   3  -7 2807.05 122.869   8
   8   3  -6 316.735 60.6015   8
   8   3  -5 646.897 81.9840   8
   8   3  -4 984.608 102.572   8
   8   3  -3 832.492 100.647   8
   8   3  -2 1430.05 120.539   8
   8   3  -1 1272.33 115.713   8
   8   3   0 2447.64 152.463   8
   8   3   1 972.459 104.626   8
   8   3   2 215.871 66.2360   8
   8   3   2 180.427 49.5863   5
   8   3   3 254.600 66.6699   8
   8   3   3 228.740 53.2225   5
   8   3   4 2637.44 122.121   5
   8   3   5 364.859 55.0294   5
   8   3   6 3062.32 112.390   5
   8   4  -6 533.276 59.9670   8
   8   4  -5 1712.67 100.831   8
   8   4  -4 711.331 76.7372   8
   8   4  -3 2612.94 135.822   8
   8   4  -2 30.7915 50.7047   8
   8   4  -1 4377.99 177.255   8
   8   4   0 3218.51 149.032   8
   8   4   1 1785.67 112.066   8
   8   4   2 710.289 73.1351   8
   8   4   2 609.806 57.5869   5
   8   4   3 3504.36 121.115   5
   8   4   4 347.707 46.0812   5
   8   5  -2 1660.39 84.4667   8
   9   0  -2 497.237 59.1638   8
   9   0  -1 723.529 74.1626   8
   9   0   0 557.802 66.6828   8
   9   1  -3 208.553 44.8696   8
   9   1  -2 390.247 57.2563   8
   9   1  -1 169.913 49.1740   8
   9   1   0 2823.55 131.599   8
   9   1   1 1438.12 97.4179   8
   9   2  -3 457.905 54.4205   8
   9   2  -2 144.705 43.3524   8
   9   2  -1 72.5451 41.3860   8
   9   2   0 168.720 47.7389   8
   9   2   1 357.095 57.9921   8
   9   3  -1 1832.39 86.1816   8
   0   0   0    0.00    0.00   0
TITL jack336a in P2(1)
REM P2(1) (#4 in standard setting)
CELL 1.54184   7.490149   8.242188  13.274997  90.0000  92.8753  90.0000
ZERR    4.00   0.000158   0.000135   0.000303   0.0000   0.0019   0.0000
LATT -1
SYMM -x, y+1/2,-z
SFAC C H N O
UNIT 44.00 40.00 4.00 4.00
TREF
HKLF 4
END
;
_shelx_hkl_checksum              97129
_shelx_res_file
;
    jack336a.res created by SHELXL-2014/7
TITL jack336 in P2(1) B(Mand)2.NH4
CELL 1.54178 7.490149 8.242188 13.274997 90 92.8753 90
ZERR 2 0.000158 0.000135 0.000303 0 0.0019 0
LATT -1
SYMM -X,0.5+Y,-Z
SFAC C H B N O
UNIT 32 32 2 2 12
EQIV $1 +X,-1+Y,+Z
EQIV $2 1-X,-0.5+Y,1-Z
EQIV $3 -X,-0.5+Y,1-Z
L.S. 8
PLAN  20
TEMP -100
HTAB N1 O10_$1
HTAB N1 O12
HTAB N1 O20_$3
HTAB N1 O22_$2
CONF
BOND
MORE -1
BOND $H
fmap 2
acta 135
OMIT -2 6 13
OMIT -6 5 10
OMIT -3 7 10
OMIT 0 -3 15
REM <olex2.extras>
REM <HklSrc "%.\\jack336a.hkl">
REM </olex2.extras>
WGHT    0.032000    0.044000
FVAR       8.81745
N1    4    0.416567    0.249731    0.629639    11.00000    0.02699    0.02245 =
         0.03189   -0.00311   -0.00035   -0.00005
B1    3    0.299797    0.704866    0.593051    11.00000    0.02662    0.02198 =
         0.02713   -0.00064   -0.00053   -0.00063
O10   5    0.560586    0.968494    0.740917    11.00000    0.05370    0.02804 =
         0.03300    0.00139   -0.00883   -0.01284
O11   5    0.383545    0.864618    0.616393    11.00000    0.03454    0.02305 =
         0.02634    0.00328   -0.00539   -0.00433
O12   5    0.391790    0.591724    0.661072    11.00000    0.03406    0.01995 =
         0.02637   -0.00226   -0.00657    0.00169
O20   5   -0.154441    0.677602    0.524042    11.00000    0.02556    0.04175 =
         0.03771    0.00989   -0.00040   -0.00103
O21   5    0.103787    0.717206    0.611588    11.00000    0.02835    0.02882 =
         0.02614   -0.00051    0.00124    0.00215
O22   5    0.303531    0.662617    0.487491    11.00000    0.02352    0.03839 =
         0.02414   -0.00473   -0.00213   -0.00010
C11   1    0.487955    0.853942    0.699550    11.00000    0.03236    0.02370 =
         0.02406    0.00163   -0.00078   -0.00318
C12   1    0.497082    0.677608    0.735316    11.00000    0.02734    0.02252 =
         0.02638   -0.00099   -0.00421    0.00090
AFIX  13
H12   2    0.623509    0.638597    0.735411    11.00000   -1.20000
AFIX   0
C13   1    0.427928    0.658809    0.839886    11.00000    0.03246    0.01974 =
         0.02713    0.00109   -0.00494   -0.00141
C14   1    0.264727    0.726483    0.862725    11.00000    0.03619    0.02637 =
         0.02725    0.00303   -0.00310    0.00376
AFIX  43
H14   2    0.196816    0.784657    0.812304    11.00000   -1.20000
AFIX   0
C15   1    0.199962    0.710017    0.958287    11.00000    0.04118    0.03772 =
         0.03210   -0.00066    0.00260    0.00263
AFIX  43
H15   2    0.088985    0.757759    0.973355    11.00000   -1.20000
AFIX   0
C16   1    0.298082    0.623370    1.031940    11.00000    0.05028    0.04823 =
         0.02598    0.00560   -0.00014   -0.00418
AFIX  43
H16   2    0.254743    0.612353    1.097632    11.00000   -1.20000
AFIX   0
C17   1    0.458321    0.553569    1.009334    11.00000    0.05069    0.05295 =
         0.03250    0.01641   -0.00744    0.00677
AFIX  43
H17   2    0.524214    0.492701    1.059306    11.00000   -1.20000
AFIX   0
C18   1    0.524421    0.571552    0.913816    11.00000    0.03768    0.04014 =
         0.03475    0.01017   -0.00405    0.00734
AFIX  43
H18   2    0.635730    0.524078    0.899134    11.00000   -1.20000
AFIX   0
C21   1    0.008263    0.672570    0.531215    11.00000    0.02673    0.02199 =
         0.02929    0.00454    0.00014   -0.00155
C22   1    0.130435    0.615883    0.449628    11.00000    0.02621    0.02246 =
         0.02706   -0.00235   -0.00368   -0.00012
AFIX  13
H22   2    0.124902    0.494910    0.444641    11.00000   -1.20000
AFIX   0
C23   1    0.074661    0.688685    0.348279    11.00000    0.02477    0.02548 =
         0.02460   -0.00202   -0.00001    0.00157
C24   1    0.107024    0.851591    0.327504    11.00000    0.03335    0.02471 =
         0.03202   -0.00371   -0.00293   -0.00019
AFIX  43
H24   2    0.178573    0.915068    0.373601    11.00000   -1.20000
AFIX   0
C25   1    0.034475    0.920858    0.239310    11.00000    0.03821    0.02798 =
         0.03747    0.00434    0.00227    0.00521
AFIX  43
H25   2    0.055788    1.032082    0.225483    11.00000   -1.20000
AFIX   0
C26   1   -0.069067    0.828447    0.171206    11.00000    0.03547    0.04303 =
         0.02668    0.00330    0.00030    0.00821
AFIX  43
H26   2   -0.120829    0.876781    0.111690    11.00000   -1.20000
AFIX   0
C27   1   -0.096442    0.665529    0.190512    11.00000    0.03859    0.04422 =
         0.02586   -0.00519   -0.00520   -0.00450
AFIX  43
H27   2   -0.164947    0.601418    0.143335    11.00000   -1.20000
AFIX   0
C28   1   -0.024098    0.595228    0.278687    11.00000    0.03588    0.02964 =
         0.02797   -0.00229   -0.00167   -0.00598
AFIX  43
H28   2   -0.042335    0.483127    0.291260    11.00000   -1.20000
AFIX   0
H1A   2    0.405739    0.357435    0.645240    11.00000    0.04291
H1B   2    0.517795    0.236952    0.588590    11.00000    0.04281
H1C   2    0.445092    0.189201    0.685767    11.00000    0.04872
H1D   2    0.320204    0.220951    0.591477    11.00000    0.04538
HKLF 4
REM  jack336 in P2(1) B(Mand)2.NH4
REM R1 =  0.0262 for    3075 Fo > 4sig(Fo)  and  0.0277 for all    3190 data
REM    233 parameters refined using      1 restraints
END
WGHT      0.0316      0.0444
REM Highest difference peak  0.138,  deepest hole -0.142,  1-sigma level  0.029
Q1    1   0.1078  0.6595  0.3994  11.00000  0.05    0.14
Q2    1   0.0674  0.6499  0.4833  11.00000  0.05    0.11
Q3    1  -0.0015  0.6551  0.3179  11.00000  0.05    0.11
Q4    1   0.4714  0.6131  0.8787  11.00000  0.05    0.10
Q5    1   0.5158  0.7659  0.7184  11.00000  0.05    0.10
Q6    1   0.3085  0.4841  0.6954  11.00000  0.05    0.10
Q7    1   0.5418  0.4147  1.0371  11.00000  0.05    0.09
Q8    1   0.3128  0.6460  0.8440  11.00000  0.05    0.09
Q9    1   0.3198  0.5423  0.4957  11.00000  0.05    0.09
Q10   1   0.2605  0.7839  0.4616  11.00000  0.05    0.08
Q11   1   0.4972  0.3185  1.0394  11.00000  0.05    0.08
Q12   1  -0.1043  0.4948  0.3084  11.00000  0.05    0.08
Q13   1  -0.2965  0.7361  0.0737  11.00000  0.05    0.08
Q14   1   0.0295  1.2114  0.1578  11.00000  0.05    0.08
Q15   1   0.0748  0.7805  0.3420  11.00000  0.05    0.08
Q16   1   0.3581  0.6433  0.6282  11.00000  0.05    0.08
Q17   1   0.0433  0.6076  0.2044  11.00000  0.05    0.08
Q18   1  -0.1968  0.7100  0.5992  11.00000  0.05    0.08
Q19   1   0.6780  1.0530  0.7064  11.00000  0.05    0.08
Q20   1   0.0697  0.8762  0.2799  11.00000  0.05    0.08
;
_shelx_res_checksum              83818
loop_
_space_group_symop_operation_xyz
'x, y, z'
'-x, y+1/2, -z'
loop_
_atom_site_type_symbol
_atom_site_label
_atom_site_fract_x
_atom_site_fract_y
_atom_site_fract_z
_atom_site_U_iso_or_equiv
_atom_site_adp_type
_atom_site_calc_flag
_atom_site_occupancy
N N1 0.4166(2) 0.24973(19) 0.62964(13) 0.0272(3) Uani d 1
B B1 0.2998(3) 0.7049(2) 0.59305(15) 0.0253(4) Uani d 1
O O10 0.5606(2) 0.96849(17) 0.74092(11) 0.0386(3) Uani d 1
O O11 0.38354(17) 0.86462(15) 0.61639(10) 0.0282(3) Uani d 1
O O12 0.39179(17) 0.59172(15) 0.66107(9) 0.0271(3) Uani d 1
O O20 -0.15444(17) 0.67760(19) 0.52404(11) 0.0351(3) Uani d 1
O O21 0.10379(17) 0.71721(16) 0.61159(9) 0.0278(3) Uani d 1
O O22 0.30353(16) 0.66262(17) 0.48749(9) 0.0288(3) Uani d 1
C C11 0.4880(2) 0.8539(2) 0.69955(13) 0.0268(4) Uani d 1
C C12 0.4971(2) 0.6776(2) 0.73532(13) 0.0256(3) Uani d 1
H H12 0.6235 0.6386 0.7354 0.031 Uiso calc 1
C C13 0.4279(2) 0.6588(2) 0.83989(13) 0.0267(4) Uani d 1
C C14 0.2647(3) 0.7265(2) 0.86272(14) 0.0301(4) Uani d 1
H H14 0.1968 0.7847 0.8123 0.036 Uiso calc 1
C C15 0.2000(3) 0.7100(3) 0.95829(16) 0.0370(4) Uani d 1
H H15 0.0890 0.7578 0.9734 0.044 Uiso calc 1
C C16 0.2981(3) 0.6234(3) 1.03194(16) 0.0416(5) Uani d 1
H H16 0.2547 0.6124 1.0976 0.050 Uiso calc 1
C C17 0.4583(3) 0.5536(3) 1.00933(16) 0.0457(5) Uani d 1
H H17 0.5242 0.4927 1.0593 0.055 Uiso calc 1
C C18 0.5244(3) 0.5716(3) 0.91382(15) 0.0377(4) Uani d 1
H H18 0.6357 0.5241 0.8991 0.045 Uiso calc 1
C C21 0.0083(2) 0.6726(2) 0.53122(14) 0.0260(3) Uani d 1
C C22 0.1304(2) 0.6159(2) 0.44963(13) 0.0254(4) Uani d 1
H H22 0.1249 0.4949 0.4446 0.030 Uiso calc 1
C C23 0.0747(2) 0.6887(2) 0.34828(13) 0.0250(3) Uani d 1
C C24 0.1070(3) 0.8516(2) 0.32750(14) 0.0302(4) Uani d 1
H H24 0.1786 0.9151 0.3736 0.036 Uiso calc 1
C C25 0.0345(3) 0.9209(3) 0.23931(17) 0.0345(4) Uani d 1
H H25 0.0558 1.0321 0.2255 0.041 Uiso calc 1
C C26 -0.0691(3) 0.8284(3) 0.17121(14) 0.0351(4) Uani d 1
H H26 -0.1208 0.8768 0.1117 0.042 Uiso calc 1
C C27 -0.0964(3) 0.6655(3) 0.19051(15) 0.0365(4) Uani d 1
H H27 -0.1649 0.6014 0.1433 0.044 Uiso calc 1
C C28 -0.0241(3) 0.5952(2) 0.27869(14) 0.0313(4) Uani d 1
H H28 -0.0423 0.4831 0.2913 0.038 Uiso calc 1
H H1A 0.406(4) 0.357(4) 0.645(2) 0.043(7) Uiso d 1
H H1B 0.518(4) 0.237(4) 0.589(2) 0.043(7) Uiso d 1
H H1C 0.445(4) 0.189(4) 0.686(2) 0.049(8) Uiso d 1
H H1D 0.320(4) 0.221(4) 0.591(2) 0.045(7) Uiso d 1
loop_
_atom_site_aniso_label
_atom_site_aniso_U_11
_atom_site_aniso_U_22
_atom_site_aniso_U_33
_atom_site_aniso_U_12
_atom_site_aniso_U_13
_atom_site_aniso_U_23
N1 0.0270(8) 0.0225(8) 0.0319(8) -0.0001(6) -0.0003(6) -0.0031(6)
B1 0.0266(9) 0.0220(9) 0.0271(9) -0.0006(7) -0.0005(7) -0.0006(7)
O10 0.0537(9) 0.0280(7) 0.0330(7) -0.0128(6) -0.0088(6) 0.0014(6)
O11 0.0345(7) 0.0231(6) 0.0263(6) -0.0043(5) -0.0054(5) 0.0033(5)
O12 0.0341(7) 0.0199(5) 0.0264(6) 0.0017(5) -0.0066(5) -0.0023(5)
O20 0.0256(6) 0.0418(8) 0.0377(7) -0.0010(6) -0.0004(5) 0.0099(6)
O21 0.0284(6) 0.0288(6) 0.0261(6) 0.0021(5) 0.0012(5) -0.0005(5)
O22 0.0235(6) 0.0384(7) 0.0241(6) -0.0001(5) -0.0021(5) -0.0047(5)
C11 0.0324(9) 0.0237(8) 0.0241(8) -0.0032(7) -0.0008(7) 0.0016(7)
C12 0.0273(8) 0.0225(8) 0.0264(8) 0.0009(7) -0.0042(6) -0.0010(7)
C13 0.0325(9) 0.0197(7) 0.0271(8) -0.0014(7) -0.0049(7) 0.0011(6)
C14 0.0362(9) 0.0264(8) 0.0273(9) 0.0038(7) -0.0031(7) 0.0030(7)
C15 0.0412(10) 0.0377(10) 0.0321(10) 0.0026(8) 0.0026(8) -0.0007(8)
C16 0.0503(12) 0.0482(12) 0.0260(9) -0.0042(10) -0.0001(8) 0.0056(8)
C17 0.0507(13) 0.0529(13) 0.0325(10) 0.0068(10) -0.0074(9) 0.0164(10)
C18 0.0377(10) 0.0401(11) 0.0347(10) 0.0073(9) -0.0041(8) 0.0102(9)
C21 0.0267(8) 0.0220(7) 0.0293(8) -0.0016(6) 0.0001(6) 0.0045(6)
C22 0.0262(8) 0.0225(8) 0.0271(8) -0.0001(6) -0.0037(7) -0.0024(6)
C23 0.0248(8) 0.0255(9) 0.0246(8) 0.0016(7) 0.0000(6) -0.0020(7)
C24 0.0334(9) 0.0247(9) 0.0320(9) -0.0002(7) -0.0029(7) -0.0037(7)
C25 0.0382(10) 0.0280(9) 0.0375(11) 0.0052(7) 0.0023(8) 0.0043(7)
C26 0.0355(10) 0.0430(11) 0.0267(9) 0.0082(8) 0.0003(7) 0.0033(8)
C27 0.0386(10) 0.0442(11) 0.0259(8) -0.0045(9) -0.0052(7) -0.0052(8)
C28 0.0359(10) 0.0296(9) 0.0280(9) -0.0060(8) -0.0017(7) -0.0023(7)
loop_
_atom_type_symbol
_atom_type_description
_atom_type_scat_dispersion_real
_atom_type_scat_dispersion_imag
_atom_type_scat_source
C C 0.0181 0.0091 'International Tables Vol C Tables 4.2.6.8 and 6.1.1.4'
H H 0.0000 0.0000 'International Tables Vol C Tables 4.2.6.8 and 6.1.1.4'
B B 0.0090 0.0039 'International Tables Vol C Tables 4.2.6.8 and 6.1.1.4'
N N 0.0311 0.0180 'International Tables Vol C Tables 4.2.6.8 and 6.1.1.4'
O O 0.0492 0.0322 'International Tables Vol C Tables 4.2.6.8 and 6.1.1.4'
loop_
_geom_angle_atom_site_label_1
_geom_angle_atom_site_label_2
_geom_angle_atom_site_label_3
_geom_angle
H1A N1 H1B 108(3)
H1A N1 H1C 111(3)
H1A N1 H1D 108(2)
H1B N1 H1C 104(2)
H1B N1 H1D 107(2)
H1C N1 H1D 118(3)
O11 B1 O21 108.15(14)
O12 B1 O11 104.96(14)
O12 B1 O21 112.29(15)
O22 B1 O11 112.80(15)
O22 B1 O12 114.68(15)
O22 B1 O21 103.97(14)
C11 O11 B1 109.94(14)
C12 O12 B1 110.00(13)
C21 O21 B1 110.25(14)
C22 O22 B1 110.29(14)
O10 C11 O11 124.13(17)
O10 C11 C12 126.13(16)
O11 C11 C12 109.72(14)
O12 C12 C11 104.10(13)
O12 C12 H12 109.5
O12 C12 C13 112.44(15)
C11 C12 H12 109.5
C13 C12 C11 111.71(15)
C13 C12 H12 109.5
C14 C13 C12 120.25(16)
C18 C13 C12 120.72(17)
C18 C13 C14 119.02(18)
C13 C14 H14 119.6
C15 C14 C13 120.77(18)
C15 C14 H14 119.6
C14 C15 H15 120.1
C14 C15 C16 119.8(2)
C16 C15 H15 120.1
C15 C16 H16 120.1
C17 C16 C15 119.8(2)
C17 C16 H16 120.1
C16 C17 H17 119.8
C16 C17 C18 120.50(19)
C18 C17 H17 119.8
C13 C18 C17 120.1(2)
C13 C18 H18 119.9
C17 C18 H18 119.9
O20 C21 O21 123.96(17)
O20 C21 C22 126.02(17)
O21 C21 C22 110.02(14)
O22 C22 C21 103.60(14)
O22 C22 H22 109.1
O22 C22 C23 114.44(15)
C21 C22 H22 109.1
C23 C22 C21 111.17(14)
C23 C22 H22 109.1
C24 C23 C22 120.99(16)
C28 C23 C22 119.09(16)
C28 C23 C24 119.67(17)
C23 C24 H24 120.1
C25 C24 C23 119.88(18)
C25 C24 H24 120.1
C24 C25 H25 119.8
C24 C25 C26 120.4(2)
C26 C25 H25 119.8
C25 C26 H26 120.2
C27 C26 C25 119.64(18)
C27 C26 H26 120.2
C26 C27 H27 119.8
C26 C27 C28 120.31(19)
C28 C27 H27 119.8
C23 C28 C27 120.07(19)
C23 C28 H28 120.0
C27 C28 H28 120.0
loop_
_geom_bond_atom_site_label_1
_geom_bond_atom_site_label_2
_geom_bond_distance
N1 H1A 0.92(3)
N1 H1B 0.96(3)
N1 H1C 0.91(3)
N1 H1D 0.89(3)
B1 O11 1.484(2)
B1 O12 1.448(2)
B1 O21 1.504(2)
B1 O22 1.446(2)
O10 C11 1.208(2)
O11 C11 1.323(2)
O12 C12 1.420(2)
O20 C21 1.218(2)
O21 C21 1.307(2)
O22 C22 1.420(2)
C11 C12 1.529(2)
C12 H12 1.0000
C12 C13 1.514(3)
C13 C14 1.391(3)
C13 C18 1.390(2)
C14 H14 0.9500
C14 C15 1.387(3)
C15 H15 0.9500
C15 C16 1.391(3)
C16 H16 0.9500
C16 C17 1.378(4)
C17 H17 0.9500
C17 C18 1.392(3)
C18 H18 0.9500
C21 C22 1.526(3)
C22 H22 1.0000
C22 C23 1.513(2)
C23 C24 1.394(3)
C23 C28 1.388(3)
C24 H24 0.9500
C24 C25 1.389(3)
C25 H25 0.9500
C25 C26 1.389(3)
C26 H26 0.9500
C26 C27 1.384(3)
C27 H27 0.9500
C27 C28 1.391(3)
C28 H28 0.9500
loop_
_geom_hbond_atom_site_label_D
_geom_hbond_atom_site_label_H
_geom_hbond_atom_site_label_A
_geom_hbond_site_symmetry_A
_geom_hbond_distance_DH
_geom_hbond_distance_HA
_geom_hbond_distance_DA
_geom_hbond_angle_DHA
N1 H1A O12 . 0.92(3) 1.95(3) 2.857(2) 173(3)
N1 H1B O22 2_646 0.96(3) 1.82(3) 2.767(2) 167(3)
N1 H1C O10 1_545 0.91(3) 2.13(3) 2.926(2) 145(3)
N1 H1D O20 2_546 0.89(3) 1.96(3) 2.823(2) 163(3)
loop_
_geom_torsion_atom_site_label_1
_geom_torsion_atom_site_label_2
_geom_torsion_atom_site_label_3
_geom_torsion_atom_site_label_4
_geom_torsion
B1 O11 C11 O10 -173.32(18)
B1 O11 C11 C12 5.2(2)
B1 O12 C12 C11 -8.54(18)
B1 O12 C12 C13 112.55(17)
B1 O21 C21 O20 -176.66(18)
B1 O21 C21 C22 2.90(19)
B1 O22 C22 C21 13.94(18)
B1 O22 C22 C23 135.14(16)
O10 C11 C12 O12 -179.55(19)
O10 C11 C12 C13 58.9(3)
O11 B1 O12 C12 11.54(19)
O11 B1 O21 C21 125.71(15)
O11 B1 O22 C22 -129.40(15)
O11 C11 C12 O12 2.0(2)
O11 C11 C12 C13 -119.59(16)
O12 B1 O11 C11 -10.3(2)
O12 B1 O21 C21 -118.95(16)
O12 B1 O22 C22 110.51(17)
O12 C12 C13 C14 -67.6(2)
O12 C12 C13 C18 111.27(19)
O20 C21 C22 O22 169.16(18)
O20 C21 C22 C23 45.8(2)
O21 B1 O11 C11 109.80(16)
O21 B1 O12 C12 -105.73(16)
O21 B1 O22 C22 -12.48(18)
O21 C21 C22 O22 -10.39(19)
O21 C21 C22 C23 -133.76(15)
O22 B1 O11 C11 -135.78(16)
O22 B1 O12 C12 135.88(16)
O22 B1 O21 C21 5.59(18)
O22 C22 C23 C24 -43.2(2)
O22 C22 C23 C28 142.58(17)
C11 C12 C13 C14 49.1(2)
C11 C12 C13 C18 -132.11(19)
C12 C13 C14 C15 179.98(18)
C12 C13 C18 C17 -179.2(2)
C13 C14 C15 C16 -0.7(3)
C14 C13 C18 C17 -0.4(3)
C14 C15 C16 C17 -0.4(3)
C15 C16 C17 C18 1.2(4)
C16 C17 C18 C13 -0.7(4)
C18 C13 C14 C15 1.1(3)
C21 C22 C23 C24 73.7(2)
C21 C22 C23 C28 -100.49(19)
C22 C23 C24 C25 -171.65(18)
C22 C23 C28 C27 171.71(18)
C23 C24 C25 C26 -0.5(3)
C24 C23 C28 C27 -2.6(3)
C24 C25 C26 C27 -1.5(3)
C25 C26 C27 C28 1.4(3)
C26 C27 C28 C23 0.6(3)
C28 C23 C24 C25 2.5(3)

_cod_database_fobs_code 2020759
