#------------------------------------------------------------------------------
#$Date: 2016-08-27 04:13:13 +0300 (Sat, 27 Aug 2016) $
#$Revision: 186035 $
#$URL: file:///home/coder/svn-repositories/cod/cif/2/02/05/2020572.cif $
#------------------------------------------------------------------------------
#
# This file is available in the Crystallography Open Database (COD),
# http://www.crystallography.net/. The original data for this entry
# were provided by IUCr Journals, http://journals.iucr.org/.
#
# The file may be used within the scientific community so long as
# proper attribution is given to the journal article from which the
# data were obtained.
#
data_2020572
loop_
_publ_author_name
'Moon, Dohyun'
'Hong, Yong Pyo'
'Choi, Jong-Ha'
_publ_section_title
;
 Spectroscopic characterization and molecular structure of
 3,14-dimethyl-2,6,13,17-tetraazapentacyclo[16.4.0.1^2,17^.1^6,13^.0^7,12^]tetracosane
;
_journal_coeditor_code           EG3206
_journal_issue                   9
_journal_name_full               'Acta Crystallographica Section C'
_journal_page_first
;
;
_journal_paper_doi               10.1107/S2053229616013280
_journal_volume                  72
_journal_year                    2016
_chemical_formula_iupac          'C22 H40 N4'
_chemical_formula_moiety         'C22 H40 N4'
_chemical_formula_sum            'C22 H40 N4'
_chemical_formula_weight         360.58
_chemical_name_systematic
3,14-Dimethyl-2,6,13,17-tetraazapentacyclo[16.4.0.1^2,17^.1^6,13^.0^7,12^]tetracosane
_space_group_crystal_system      triclinic
_space_group_IT_number           2
_space_group_name_Hall           '-P 1'
_space_group_name_H-M_alt        'P -1'
_symmetry_space_group_name_Hall  '-P 1'
_symmetry_space_group_name_H-M   'P -1'
_atom_sites_solution_hydrogens   geom
_audit_creation_method           SHELXL-2014/7
_cell_angle_alpha                92.30(3)
_cell_angle_beta                 90.10(3)
_cell_angle_gamma                99.61(3)
_cell_formula_units_Z            1
_cell_length_a                   5.2990(11)
_cell_length_b                   9.0720(18)
_cell_length_c                   10.604(2)
_cell_measurement_reflns_used    13155
_cell_measurement_temperature    101(2)
_cell_measurement_theta_max      33.55
_cell_measurement_theta_min      0.36
_cell_volume                     502.18(18)
_computing_cell_refinement
;
<i>HKL3000sm</i> (Otwinowski & Minor, 1997)
;
_computing_data_collection
;
<i>PAL BL2D-SMDC Program</i> (Shin <i>et al.</i>,  2016)
;
_computing_data_reduction
;
<i>HKL3000sm</i> (Otwinowski & Minor, 1997)
;
_computing_molecular_graphics
;
<i>DIAMOND</i> (Putz & Brandenburg, 2014)
;
_computing_publication_material
;
<i>publCIF</i> (Westrip, 2010)
;
_computing_structure_refinement
;
<i>SHELXL2014</i> (Sheldrick, 2015b)
;
_computing_structure_solution
;
<i>SHELXT2014</i> (Sheldrick, 2015a)
;
_diffrn_ambient_temperature      101(2)
_diffrn_measured_fraction_theta_full 0.950
_diffrn_measured_fraction_theta_max 0.934
_diffrn_measurement_device_type  'ADSC Q210 CCD area detector'
_diffrn_measurement_method       'omega scan'
_diffrn_radiation_type           synchrotron
_diffrn_radiation_wavelength     0.63001
_diffrn_reflns_av_R_equivalents  0.0386
_diffrn_reflns_limit_h_max       7
_diffrn_reflns_limit_h_min       -7
_diffrn_reflns_limit_k_max       12
_diffrn_reflns_limit_k_min       -12
_diffrn_reflns_limit_l_max       14
_diffrn_reflns_limit_l_min       -14
_diffrn_reflns_number            5243
_diffrn_reflns_theta_full        22.210
_diffrn_reflns_theta_max         25.999
_diffrn_reflns_theta_min         2.020
_exptl_absorpt_coefficient_mu    0.056
_exptl_absorpt_correction_T_max  0.999
_exptl_absorpt_correction_T_min  0.994
_exptl_absorpt_correction_type   empirical
_exptl_absorpt_process_details
;
<i>HKL3000sm SCALEPACK</i>; Otwinowski & Minor, 1997)
;
_exptl_crystal_colour            colourless
_exptl_crystal_density_diffrn    1.192
_exptl_crystal_description       plate
_exptl_crystal_F_000             200
_exptl_crystal_size_max          0.100
_exptl_crystal_size_mid          0.050
_exptl_crystal_size_min          0.010
_refine_diff_density_max         0.408
_refine_diff_density_min         -0.347
_refine_ls_extinction_coef       0.17(4)
_refine_ls_extinction_expression Fc^*^=kFc[1+0.001xFc^2^\l^3^/sin(2\q)]^-1/4^
_refine_ls_extinction_method
;
SHELXL2014 (Sheldrick, 2015b)
;
_refine_ls_goodness_of_fit_ref   0.972
_refine_ls_hydrogen_treatment    constr
_refine_ls_matrix_type           full
_refine_ls_number_parameters     120
_refine_ls_number_reflns         2661
_refine_ls_number_restraints     0
_refine_ls_restrained_S_all      0.972
_refine_ls_R_factor_all          0.0978
_refine_ls_R_factor_gt           0.0623
_refine_ls_shift/su_max          0.000
_refine_ls_shift/su_mean         0.000
_refine_ls_structure_factor_coef Fsqd
_refine_ls_weighting_details
'w=1/[\s^2^(Fo^2^)+(0.1256P)^2^] where P=(Fo^2^+2Fc^2^)/3'
_refine_ls_weighting_scheme      calc
_refine_ls_wR_factor_gt          0.1628
_refine_ls_wR_factor_ref         0.1890
_reflns_number_gt                1732
_reflns_number_total             2661
_reflns_threshold_expression     'I > 2\s(I)'
_cod_data_source_file            eg3206sup1.cif
_cod_data_source_block           I
_cod_database_code               2020572
_shelx_space_group_comment
;
The symmetry employed for this shelxl refinement is uniquely defined
by the following loop, which should always be used as a source of
symmetry information in preference to the above space-group names.
They are only intended as comments.
;
_shelx_estimated_absorpt_t_min   0.994
_shelx_estimated_absorpt_t_max   0.999
_shelx_hkl_file
;
   0   0  -6    1.23    1.52
   0   0  -7   77.64    5.08
   0   0  -8    7.16    2.19
   0   0  -9   26.13    2.22
   0   0 -10    1.52    1.42
   0   0 -11    1.56    1.77
   0   0 -12    8.99    1.74
   0   0 -13    1.52    1.69
   0   0 -14   -0.62    2.10
   0   0  14   -2.58    2.32
   0   0 -15    2.06    1.85
   0   0  15   -0.16    1.56
   0   0 -16   -1.58    1.38
   0   1  16    0.81    1.41
   0  -1 -16    4.57    1.61
   0   1  15   12.47    1.48
   0  -1 -15    9.26    2.15
   0   1  14    1.70    1.80
   0  -1 -14    3.23    1.71
   0   1  13   14.10    1.91
   0  -1 -13   14.42    2.06
   0   1  12    0.63    1.71
   0  -1 -12    2.75    1.58
   0   1  11    3.81    1.32
   0  -1 -11    0.88    1.42
   0   1  10   11.18    1.55
   0  -1 -10   12.29    1.69
   0   1   9   24.63    1.97
   0  -1  -9   25.30    2.13
   0   1   8  171.23    7.18
   0  -1  -8  179.19    7.79
   0   1   7  358.34   11.45
   0  -1  -7  378.57   11.93
   0   1   6   49.82    2.61
   0  -1  -6   53.21    2.68
   0   1   5  258.87    7.16
   0  -1  -5  269.97    7.46
   0   1   4  309.63    9.52
   0  -1  -4  315.28    9.61
   0   1   3  109.44    3.89
   0  -1  -3  113.66    3.83
   0   1   2   13.27    0.99
   0  -1  -2   15.50    1.12
   0   1   1   41.94    1.40
   0  -1  -1   41.21    1.25
   0  -1   0  174.31    5.66
   0   1  -1  850.35   26.73
   0  -1   1  882.40   20.14
   0   1  -2   16.20    0.89
   0  -1   2   18.96    1.00
   0   1  -3   50.62    2.12
   0  -1   3   51.08    2.08
   0   1  -4   67.52    2.62
   0  -1   4   64.26    2.66
   0   1  -5  337.14    9.45
   0  -1   5  333.29    9.11
   0   1  -6   31.32    1.85
   0  -1   6   30.28    1.77
   0   1  -7   57.30    2.94
   0  -1   7   56.64    3.08
   0   1  -8  161.92    6.65
   0  -1   8  152.42    6.17
   0   1  -9  135.36    6.11
   0  -1   9  125.13    5.61
   0   1 -10    3.94    1.36
   0  -1  10    4.17    1.27
   0   1 -11    3.01    1.60
   0  -1  11   -0.77    1.32
   0   1 -12   16.46    1.87
   0  -1  12   18.64    1.99
   0   1 -13    1.97    1.59
   0  -1  13    1.99    1.41
   0   1 -14    0.19    1.93
   0  -1  14   -0.11    1.52
   0   1 -15    7.69    1.84
   0  -1  15    7.78    1.52
   0   1 -16    0.06    0.90
   0  -1  16    0.71    3.40
   0   2  16   -0.83    1.57
   0  -2 -16   -0.29    1.15
   0   2  15    2.93    2.09
   0  -2 -15    9.60    2.20
   0   2  14    1.75    2.02
   0  -2 -14    6.21    1.85
   0   2  13    2.85    1.92
   0  -2 -13    2.85    1.75
   0   2  12    8.87    1.72
   0  -2 -12    7.53    1.50
   0   2  11    1.19    1.34
   0  -2 -11   -0.97    1.43
   0   2  10    9.49    1.52
   0  -2 -10    8.36    1.77
   0   2   9    0.07    1.32
   0  -2  -9    0.42    1.41
   0   2   8   38.22    2.51
   0  -2  -8   41.04    2.40
   0   2   7   13.58    1.33
   0  -2  -7   16.72    1.64
   0   2   6   28.30    1.75
   0  -2  -6   30.33    1.87
   0   2   5  433.54   12.63
   0  -2  -5  443.13   13.19
   0   2   4  252.82    7.34
   0  -2  -4  257.40    7.44
   0   2   3    5.66    0.73
   0  -2  -3    5.88    0.78
   0   2   2  698.47   17.25
   0  -2  -2  751.30   18.91
   0   2   1   28.03    1.25
   0  -2  -1   26.78    1.27
   0   2   0  110.31    2.86
   0  -2   0  113.97    2.93
   0   2  -1 1013.26   23.35
   0  -2   1 1023.22   23.70
   0   2  -2    2.18    0.52
   0  -2   2    3.11    0.52
   0   2  -3   -0.65    0.56
   0  -2   3    0.20    0.55
   0   2  -4  616.80   15.11
   0  -2   4  617.71   15.20
   0   2  -5  339.65    9.42
   0  -2   5  343.41    9.44
   0   2  -6   18.18    1.30
   0  -2   6   17.56    1.29
   0   2  -7   21.37    1.69
   0  -2   7   20.83    1.53
   0   2  -8   10.63    1.51
   0  -2   8   11.11    1.41
   0   2  -9    3.80    1.38
   0  -2   9    4.51    1.45
   0   2 -10   19.16    2.10
   0  -2  10   18.14    1.80
   0   2 -11    3.41    1.52
   0  -2  11    3.29    1.50
   0   2 -12    0.64    1.82
   0  -2  12    0.50    1.71
   0   2 -13    1.49    2.06
   0  -2  13    0.97    1.45
   0   2 -14   -0.96    1.94
   0  -2  14   -0.48    1.81
   0   2 -15    0.62    1.61
   0  -2  15    4.65    1.91
   0   2 -16   -0.38    2.08
   0  -2  16   -0.41    1.14
   0  -3 -16    1.02    2.42
   0   3  15    3.37    1.76
   0  -3 -15    2.49    1.98
   0   3  14   28.22    2.39
   0  -3 -14   27.83    2.12
   0   3  13    0.91    2.08
   0  -3 -13    1.95    1.96
   0   3  12    7.31    2.12
   0  -3 -12    3.87    2.09
   0   3  11    3.75    1.82
   0  -3 -11    2.99    1.71
   0   3  10   17.16    1.77
   0  -3 -10   19.61    1.98
   0   3   9  150.95    6.40
   0  -3  -9  156.25    6.89
   0   3   8    1.03    1.37
   0  -3  -8    0.09    1.35
   0   3   7    7.23    1.37
   0  -3  -7   10.28    1.42
   0   3   6   24.17    1.87
   0  -3  -6   28.45    1.90
   0   3   5    0.23    0.92
   0  -3  -5    0.50    0.94
   0   3   4  556.04   15.19
   0  -3  -4  535.91   15.30
   0   3   3  258.23    7.67
   0  -3  -3  287.62    8.54
   0   3   2   80.06    2.61
   0  -3  -2   74.62    2.52
   0   3   1   39.45    1.96
   0  -3  -1   43.43    1.58
   0   3   0   48.03    1.40
   0  -3   0   46.02    1.38
   0   3  -1   87.42    2.62
   0  -3   1   93.30    2.74
   0   3  -2  388.75    9.80
   0  -3   2  393.82    9.95
   0   3  -3    8.66    0.79
   0  -3   3    6.86    0.76
   0   3  -4  459.75   12.48
   0  -3   4  478.15   12.95
   0   3  -5   18.96    1.31
   0  -3   5   20.06    1.34
   0   3  -6    9.27    1.15
   0  -3   6   10.80    1.27
   0   3  -7   29.48    1.94
   0  -3   7   31.41    1.88
   0   3  -8   65.59    3.05
   0  -3   8   66.48    3.10
   0   3  -9  121.32    5.18
   0  -3   9  117.14    5.06
   0   3 -10   17.53    1.91
   0  -3  10   18.33    1.94
   0   3 -11   -0.81    1.38
   0  -3  11   -0.63    1.24
   0   3 -12   11.51    1.74
   0  -3  12   12.15    1.63
   0   3 -13   48.40    2.65
   0  -3  13   46.85    2.44
   0   3 -14    0.49    2.00
   0  -3  14   -0.16    1.70
   0   3 -15   -0.24    1.33
   0  -3  15    1.26    1.64
   0   3 -16    1.08    2.75
   0  -3  16    0.13    1.20
   0   4  15    1.21    1.61
   0  -4 -15    7.23    2.92
   0  -4 -14   16.73    2.34
   0   4  13   42.23    2.68
   0  -4 -13   45.64    2.62
   0   4  12   -0.23    2.89
   0  -4 -12   -2.32    2.11
   0   4  11    0.85    1.80
   0  -4 -11    0.90    1.69
   0   4  10    7.76    1.67
   0  -4 -10    8.37    1.80
   0   4   9   54.85    2.89
   0  -4  -9   56.72    3.40
   0   4   8   13.01    1.86
   0  -4  -8   16.22    1.96
   0   4   7    0.74    1.07
   0  -4  -7   -0.12    1.15
   0   4   6    1.80    1.04
   0  -4  -6    0.39    1.09
   0   4   5    2.02    1.00
   0  -4  -5    2.89    0.95
   0   4   4  112.34    4.16
   0  -4  -4  121.74    4.21
   0   4   3  113.68    3.83
   0  -4  -3  116.50    3.97
   0   4   2    2.31    0.61
   0  -4  -2    2.72    0.60
   0   4   1    0.76    0.40
   0  -4  -1    0.30    0.41
   0   4   0   81.55    2.32
   0  -4   0   79.24    2.26
   0   4  -1   60.55    1.90
   0  -4   1   62.06    1.90
   0   4  -2   41.65    1.57
   0  -4   2   43.95    1.54
   0   4  -3  141.61    5.38
   0  -4   3  142.33    4.14
   0   4  -4   88.30    2.99
   0  -4   4   90.35    3.06
   0   4  -5  656.56   16.30
   0  -4   5  679.36   16.90
   0   4  -6   25.43    1.80
   0  -4   6   24.09    1.67
   0   4  -7   42.19    2.41
   0  -4   7   41.84    2.54
   0   4  -8   45.77    2.56
   0  -4   8   46.32    2.66
   0   4  -9    0.01    1.36
   0  -4   9   -0.50    1.14
   0   4 -10    7.16    1.69
   0  -4  10    9.27    1.66
   0   4 -11    2.67    1.55
   0  -4  11    2.09    1.78
   0   4 -12   -0.27    1.65
   0  -4  12   -0.29    1.67
   0   4 -13    0.52    1.91
   0  -4  13    0.70    1.85
   0   4 -14    3.82    2.11
   0  -4  14    3.59    2.01
   0   4 -15   12.63    2.44
   0  -4  15    7.57    1.81
   0  -5 -15   -0.09    1.38
   0   5  14   10.31    2.03
   0  -5 -14    6.74    1.89
   0   5  13    1.31    1.69
   0  -5 -13   -0.61    2.14
   0   5  12    7.16    1.79
   0  -5 -12    5.18    2.03
   0   5  11   33.63    2.58
   0  -5 -11   32.69    2.62
   0   5  10   -0.26    1.78
   0  -5 -10   -0.47    1.79
   0   5   9    3.41    1.46
   0  -5  -9    4.22    1.78
   0   5   8    3.41    1.46
   0  -5  -8    4.00    1.51
   0   5   7    5.49    1.49
   0  -5  -7    4.76    1.58
   0   5   6    1.15    1.19
   0  -5  -6   -0.96    1.24
   0   5   5   71.16    3.26
   0  -5  -5   74.79    3.47
   0   5   4  141.62    4.98
   0  -5  -4  143.38    4.97
   0   5   3   54.97    2.37
   0  -5  -3   50.01    2.33
   0   5   2   47.43    2.11
   0  -5  -2   42.61    1.89
   0   5   1    8.72    0.78
   0  -5  -1    8.49    0.71
   0   5   0   67.36    2.22
   0  -5   0   68.37    2.18
   0   5  -1   24.62    0.94
   0  -5   1   26.28    1.04
   0   5  -2   29.59    1.35
   0  -5   2   32.74    1.36
   0   5  -3    6.60    0.80
   0  -5   3    5.16    0.79
   0   5  -4   33.65    1.70
   0  -5   4   36.06    1.72
   0   5  -5   -0.47    0.99
   0  -5   5   -0.50    0.89
   0   5  -6   25.93    1.76
   0  -5   6   29.94    1.82
   0   5  -7   79.47    3.07
   0  -5   7   83.03    3.38
   0   5  -8    3.03    1.35
   0  -5   8    7.16    1.38
   0   5  -9    4.31    1.59
   0  -5   9    2.69    1.44
   0   5 -10   -0.92    1.75
   0  -5  10    0.28    1.52
   0   5 -11    1.12    1.46
   0  -5  11    0.13    1.65
   0   5 -12   22.47    2.12
   0  -5  12   29.64    2.67
   0   5 -13    9.60    3.34
   0  -5  13    9.85    2.43
   0   5 -14   27.24    4.17
   0  -5  14   31.37    2.97
   0   5 -15    0.07    1.82
   0  -5  15    0.94    2.00
   0   5 -16    6.70    1.88
   0  -5  16    0.23    1.16
   0   6  14   -1.36    2.05
   0  -6 -14    0.14    2.11
   0   6  13   47.65    2.81
   0  -6 -13   53.19    2.78
   0   6  12    6.52    2.46
   0  -6 -12    8.78    2.17
   0   6  11    4.85    3.52
   0  -6 -11    8.16    2.58
   0   6  10    0.80    2.21
   0  -6 -10   -0.01    2.10
   0   6   9    6.16    1.84
   0  -6  -9    6.20    1.98
   0   6   8    2.45    1.62
   0  -6  -8    0.47    1.60
   0   6   7   54.85    2.76
   0  -6  -7   58.00    2.95
   0   6   6    2.34    1.31
   0  -6  -6    2.22    1.35
   0   6   5   53.37    3.06
   0  -6  -5   49.26    3.07
   0   6   4   71.48    2.90
   0  -6  -4   59.18    2.52
   0   6   3    6.07    0.99
   0  -6  -3    5.57    0.93
   0   6   2    1.23    0.60
   0  -6  -2    1.01    0.59
   0   6   1    3.87    0.56
   0  -6  -1    3.41    0.52
   0   6   0   16.86    0.91
   0  -6   0   18.27    0.90
   0   6  -1    1.08    0.40
   0  -6   1    1.69    0.40
   0   6  -2    6.94    0.60
   0  -6   2    9.04    0.71
   0   6  -3    9.86    0.82
   0  -6   3   11.47    0.85
   0   6  -4    5.31    0.86
   0  -6   4    7.96    0.94
   0   6  -5    3.39    1.02
   0  -6   5    2.98    1.02
   0   6  -6    2.59    1.93
   0  -6   6    0.91    1.11
   0   6  -7   34.69    2.02
   0  -6   7   34.36    2.07
   0   6  -8    3.61    1.58
   0  -6   8    4.24    1.60
   0   6  -9    3.75    1.66
   0  -6   9    3.38    1.63
   0   6 -10    0.58    1.72
   0  -6  10   -0.88    1.77
   0   6 -11    7.20    1.78
   0  -6  11    9.47    1.83
   0   6 -12    1.72    2.11
   0  -6  12    3.84    1.98
   0   6 -13   27.86    2.63
   0  -6  13   28.46    2.64
   0   6 -14   -0.21    2.04
   0  -6  14    1.00    1.91
   0   6 -15   -1.47    2.90
   0  -6  15    4.38    1.92
   0   7  14   -0.81    2.07
   0   7  13   -1.35    2.13
   0  -7 -13   -1.85    2.48
   0   7  12    1.47    2.33
   0  -7 -12    3.45    2.29
   0   7  11    0.14    2.33
   0  -7 -11    0.70    2.80
   0   7  10    8.12    2.31
   0  -7 -10    6.41    2.51
   0   7   9   31.73    2.81
   0  -7  -9   29.18    2.85
   0   7   8    1.02    1.89
   0  -7  -8   -0.75    1.79
   0   7   7    5.66    1.72
   0  -7  -7    3.64    1.74
   0   7   6   34.23    1.93
   0  -7  -6   33.22    2.17
   0   7   5   28.78    2.02
   0  -7  -5   27.45    2.11
   0   7   4  180.88    5.59
   0  -7  -4  174.46    5.15
   0   7   3    1.83    0.94
   0  -7  -3    2.66    0.88
   0   7   2   16.32    1.08
   0  -7  -2   15.74    1.02
   0   7   1   10.38    0.73
   0  -7  -1   11.06    0.70
   0   7   0   16.37    0.95
   0  -7   0   14.56    1.39
   0   7  -1    0.40    0.61
   0  -7   1   -0.18    0.48
   0   7  -2    5.44    0.60
   0  -7   2    6.30    0.64
   0   7  -3   10.92    0.91
   0  -7   3   11.09    0.88
   0   7  -4    6.73    0.94
   0  -7   4    5.68    0.89
   0   7  -5    2.35    1.10
   0  -7   5    1.65    1.06
   0   7  -6   24.13    1.70
   0  -7   6   23.24    1.74
   0   7  -7    7.56    1.51
   0  -7   7    9.13    1.55
   0   7  -8   -3.24    1.57
   0  -7   8   -0.90    1.65
   0   7  -9   13.44    2.92
   0  -7   9   17.54    2.05
   0   7 -10    4.86    2.69
   0  -7  10    3.55    2.00
   0   7 -11    1.21    1.83
   0  -7  11    2.82    1.94
   0   7 -12   -0.11    1.97
   0  -7  12    0.01    2.11
   0   7 -13    4.39    1.76
   0  -7  13    2.91    2.95
   0   7 -14   13.07    2.62
   0  -7  14   12.27    2.63
   0   7 -15    8.51    2.55
   0  -7  15   11.88    2.40
   0   8  13    0.50    1.16
   0   8  12    8.69    2.47
   0  -8 -12   -0.23    1.84
   0   8  11    8.95    2.79
   0  -8 -11    8.86    2.41
   0   8  10   16.52    2.86
   0  -8 -10   10.51    3.13
   0   8   9  105.33    3.69
   0  -8  -9   97.93    3.89
   0   8   8   40.85    2.87
   0  -8  -8   39.46    3.30
   0   8   7   19.13    2.25
   0  -8  -7   12.44    2.13
   0   8   6    1.35    1.68
   0  -8  -6    1.03    1.55
   0   8   5   14.36    1.70
   0  -8  -5   14.34    1.81
   0   8   4    4.62    1.24
   0  -8  -4    6.37    1.21
   0   8   3    6.29    1.02
   0  -8  -3    4.26    0.92
   0   8   2   54.66    2.12
   0  -8  -2   58.67    2.12
   0   8   1    1.47    0.58
   0  -8  -1    1.62    0.51
   0   8   0    3.78    0.85
   0  -8   0    3.44    0.66
   0   8  -1    7.32    0.71
   0  -8   1    6.82    0.66
   0   8  -2    2.41    0.62
   0  -8   2    2.77    0.56
   0   8  -3    2.43    0.81
   0  -8   3    2.72    0.82
   0   8  -4   24.79    1.50
   0  -8   4   23.43    1.35
   0   8  -5   54.16    2.65
   0  -8   5   56.36    2.66
   0   8  -6    3.03    1.61
   0  -8   6    1.72    1.52
   0   8  -7    6.65    1.79
   0  -8   7    2.93    1.81
   0   8  -8   21.16    2.17
   0  -8   8   23.56    2.16
   0   8  -9    4.49    1.92
   0  -8   9    3.12    2.01
   0   8 -10    8.16    2.10
   0  -8  10    8.32    2.01
   0   8 -11   -0.74    1.78
   0  -8  11    0.60    2.05
   0   8 -12    1.32    3.03
   0  -8  12   -3.99    2.62
   0   8 -13    1.35    3.15
   0  -8  13   -1.16    2.51
   0   8 -14   -0.22    1.77
   0  -8  14    1.27    2.02
   0  -8  15    0.60    2.10
   0  -9 -14   -0.51    2.47
   0  -9 -13   21.96    3.60
   0   9  12   -0.16    2.23
   0  -9 -12    0.04    2.17
   0   9  11    3.67    2.11
   0  -9 -11    3.96    2.07
   0   9  10    0.87    2.68
   0  -9 -10    1.26    2.69
   0   9   9   -0.72    2.49
   0  -9  -9    3.04    2.34
   0   9   8    0.81    2.02
   0  -9  -8    1.52    1.92
   0   9   7    3.34    1.99
   0  -9  -7    3.53    1.87
   0   9   6    5.31    2.57
   0  -9  -6    3.14    1.58
   0   9   5    0.69    1.35
   0  -9  -5    0.03    1.39
   0   9   4    1.26    1.37
   0  -9  -4    1.86    1.23
   0   9   3    2.91    1.04
   0  -9  -3    3.95    0.99
   0   9   2  114.56    3.22
   0  -9  -2  124.13    3.39
   0   9  -2    8.17    0.65
   0  -9   2    7.21    0.62
   0   9  -3    0.41    0.89
   0  -9   3    1.95    0.77
   0   9  -4   24.07    1.39
   0  -9   4   28.21    1.42
   0   9  -5   16.40    1.56
   0  -9   5   15.51    1.54
   0   9  -6    0.47    1.60
   0  -9   6   -0.10    1.55
   0   9  -7    1.60    1.78
   0  -9   7   -0.09    1.82
   0   9  -8    5.81    1.75
   0  -9   8    5.16    1.63
   0   9  -9    2.07    2.16
   0  -9   9    3.73    2.06
   0   9 -10    5.41    2.20
   0  -9  10    3.34    2.16
   0   9 -11    8.25    2.46
   0  -9  11    0.17    1.38
   0   9 -12    0.24    2.71
   0  -9  12   -0.20    1.79
   0   9 -13    5.75    3.10
   0  -9  13    6.48    2.39
   0  -9  14   -0.22    1.63
   0  10  11   -2.77    3.19
   0 -10 -11    1.33    2.20
   0  10  10    8.00    2.31
   0 -10 -10    9.78    2.21
   0  10   9    6.67    2.36
   0 -10  -9    5.91    2.62
   0  10   8   14.40    2.60
   0 -10  -8    9.64    2.39
   0  10   7    1.93    2.07
   0 -10  -7    1.44    1.68
   0  10   6    0.77    2.37
   0 -10  -6    0.92    2.05
   0  10   5   -0.31    1.59
   0 -10  -5   -1.03    1.53
   0  10   4    3.75    1.17
   0 -10  -4    3.47    1.10
   0  10   3    0.54    1.09
   0 -10  -3    0.96    1.08
   0  10  -4    1.23    1.20
   0  10  -5    7.74    1.31
   0 -10   5    9.35    1.36
   0  10  -6   11.03    1.68
   0 -10   6   10.47    1.66
   0  10  -7    4.28    2.50
   0 -10   7    2.23    2.39
   0  10  -8   10.10    2.28
   0 -10   8   10.88    1.99
   0  10  -9    5.48    2.51
   0 -10   9    5.91    1.67
   0  10 -10    5.18    2.30
   0 -10  10    3.26    3.67
   0  10 -11    0.29    1.55
   0 -10  11    1.68    1.72
   0  10 -12    0.36    1.84
   0  10 -13   -0.23    1.10
   0  11   8    4.56    3.71
   0 -11  -8    3.59    3.41
   0  11   7    6.23    3.36
   0 -11  -7    4.18    1.82
   0  11   6   18.90    1.95
   0 -11  -6   19.42    2.53
   0  11   5    0.69    2.53
   0 -11  -5    3.32    2.84
   0  11   4   -0.62    1.28
   0 -11  -4    0.22    1.63
   0  11  -5    3.44    1.32
   0 -11   5    3.16    1.52
   0  11  -6    3.79    1.41
   0 -11   6    7.97    1.38
   0  11  -7    0.11    1.38
   0 -11   7    0.68    1.47
   0  11  -8    3.08    1.63
   0 -11   8    0.31    1.69
   0  11  -9    0.36    1.60
   0  11 -10   -0.14    1.62
   0  11 -11    5.71    2.26
   0  12   7   50.37    2.79
   0 -12  -7    5.37    3.18
   0  12   6   20.99    3.19
   0  12  -8    5.73    4.93
   0 -12   8   -0.16    4.37
   0  12  -9   12.33    3.40
   1  11  -9    5.36    2.00
  -1 -11   8    0.60    3.27
   1  11  -8    4.33    3.91
  -1 -11   7   18.63    2.52
   1  11  -7   21.55    2.74
  -1 -11  -7   12.84    2.46
   1  11   7   15.19    2.36
  -1 -10  11    7.63    2.24
  -1 -10  10   -0.88    2.09
  -1 -10   9    5.80    1.87
   1  10  -9   12.94    4.08
  -1 -10   8    6.47    3.22
   1  10  -8    6.53    2.22
   1  10  -7   -1.05    2.36
  -1 -10   6   12.03    1.26
   1  10  -6   17.72    1.54
  -1 -10  -5    0.21    0.88
   1  10   5    0.49    0.84
  -1 -10  -7   -0.14    2.56
   1  10   7   -0.74    2.62
  -1 -10  -8    5.10    4.35
   1  10   8    1.23    3.62
  -1 -10  -9    7.87    4.04
   1  10   9    4.70    1.91
  -1 -10 -10   10.13    3.61
   1  10  10    4.04    4.41
  -1  -9  14   -0.50    1.56
  -1  -9  13   -0.57    1.93
  -1  -9  12   -1.31    2.94
   1   9 -12   -2.41    2.51
  -1  -9  11    3.84    2.61
   1   9 -11   -0.49    1.82
  -1  -9  10   10.16    2.16
   1   9 -10    7.62    1.75
  -1  -9   9   -0.22    1.72
   1   9  -9   -0.52    2.25
  -1  -9   8    3.08    1.94
   1   9  -8    3.12    2.01
  -1  -9   7    4.60    1.81
   1   9  -7    2.41    1.82
  -1  -9   6    0.73    1.22
   1   9  -6   -0.10    1.19
  -1  -9   5    0.23    0.96
   1   9  -5   -0.75    1.08
   1   9   4    3.48    1.07
  -1  -9  -5   -0.08    1.83
   1   9   5    0.60    1.59
  -1  -9  -6   12.16    1.66
   1   9   6   10.41    1.46
  -1  -9  -7    6.59    3.39
   1   9   7    5.37    1.61
  -1  -9  -8   22.48    2.33
   1   9   8   29.84    2.15
  -1  -9  -9    0.40    2.28
   1   9   9    0.38    2.21
  -1  -9 -10    9.21    2.98
   1   9  10   19.69    3.18
  -1  -8  15    0.34    1.70
   1   8 -14   10.05    2.87
  -1  -8  13    2.50    2.10
   1   8 -13   -0.81    1.94
  -1  -8  12    0.37    1.98
   1   8 -12    1.12    2.41
  -1  -8  11    5.19    3.59
   1   8 -11   -0.96    3.30
  -1  -8  10    1.20    2.21
   1   8 -10    1.90    2.10
  -1  -8   9    8.89    2.31
   1   8  -9    9.05    3.75
  -1  -8   8    4.93    1.72
   1   8  -8    5.62    1.65
  -1  -8   7   27.44    2.17
   1   8  -7   27.17    2.12
  -1  -8   6   14.49    1.61
   1   8  -6   12.74    1.65
  -1  -8   5   57.09    2.20
   1   8  -5   53.70    1.93
  -1  -8   4   22.40    1.74
   1   8  -4   26.40    1.15
  -1  -8  -3   72.69    2.61
   1   8   3   66.97    2.44
  -1  -8  -4    0.30    0.83
   1   8   4   -0.54    1.00
  -1  -8  -5   -0.84    1.05
   1   8   5    0.05    1.14
  -1  -8  -6    0.04    1.41
   1   8   6    1.11    1.36
  -1  -8  -7    0.29    1.18
   1   8   7    0.10    1.50
  -1  -8  -8   -0.96    1.93
   1   8   8    1.25    2.15
  -1  -8  -9    1.62    2.16
   1   8   9    0.31    2.33
  -1  -8 -10    1.61    2.54
   1   8  10    0.56    2.35
  -1  -8 -11   -0.77    1.88
   1   8  11    0.39    2.82
  -1  -8 -12    2.93    3.04
   1   8  12   -1.45    2.10
  -1  -7  15   -0.12    2.19
   1   7 -15   -1.57    2.68
  -1  -7  14    3.71    1.60
   1   7 -14    9.65    3.22
  -1  -7  13    6.04    2.69
   1   7 -13    1.14    1.93
  -1  -7  12    1.02    3.49
   1   7 -12    1.08    1.96
  -1  -7  11    2.87    2.14
   1   7 -11    3.36    2.03
  -1  -7  10    4.39    2.02
   1   7 -10    4.49    1.96
  -1  -7   9   20.91    1.92
   1   7  -9   21.78    2.00
  -1  -7   8    1.92    1.70
   1   7  -8    1.90    1.74
  -1  -7   7    8.59    1.66
   1   7  -7    7.85    1.60
  -1  -7   6    4.79    1.48
   1   7  -6    1.98    1.35
  -1  -7   5    0.28    1.16
   1   7  -5   -0.24    1.14
  -1  -7   4  109.93    3.27
   1   7  -4  110.19    3.29
  -1  -7   3   13.87    0.69
   1   7  -3   13.45    0.66
  -1  -7  -3    1.40    1.16
   1   7   3    0.39    0.76
  -1  -7  -4   35.38    1.86
   1   7   4   35.26    1.90
  -1  -7  -5    1.39    1.04
   1   7   5    1.65    1.16
  -1  -7  -6   -0.24    1.29
   1   7   6    0.03    1.25
  -1  -7  -7   -0.61    1.53
   1   7   7   -0.52    1.53
  -1  -7  -8   14.08    2.16
   1   7   8   19.25    2.29
  -1  -7  -9   23.46    2.58
   1   7   9   25.40    2.50
  -1  -7 -10    1.52    2.18
   1   7  10    0.64    2.32
  -1  -7 -11   32.70    3.17
   1   7  11   30.17    2.95
  -1  -7 -12    2.05    2.26
   1   7  12    0.57    2.28
  -1  -7 -13   -0.50    3.66
   1   7  13   -1.35    2.05
  -1  -7 -14   -1.25    2.37
   1   7  14    0.40    1.32
  -1  -6  15    0.75    2.53
   1   6 -15   -1.77    2.81
  -1  -6  14    2.75    2.95
   1   6 -14    7.53    2.51
  -1  -6  13   -1.15    1.93
   1   6 -13    1.66    2.35
  -1  -6  12    3.76    2.44
   1   6 -12    1.82    2.49
  -1  -6  11    6.01    2.12
   1   6 -11    2.98    2.42
  -1  -6  10    0.18    2.13
   1   6 -10    0.75    2.09
  -1  -6   9    3.31    1.96
   1   6  -9   -0.61    1.71
  -1  -6   8   -0.98    1.64
   1   6  -8   -1.04    1.66
  -1  -6   7    6.12    1.50
   1   6  -7    5.34    1.43
  -1  -6   6   50.10    2.56
   1   6  -6   49.88    2.68
  -1  -6   5   23.38    1.64
   1   6  -5   22.27    1.62
  -1  -6   4   43.76    2.00
   1   6  -4   41.68    2.09
  -1  -6   3   12.45    0.88
   1   6  -3   11.63    0.87
  -1  -6  -2   26.10    0.98
   1   6   2   27.45    1.10
  -1  -6  -3    0.03    0.59
   1   6   3    1.47    0.71
  -1  -6  -4    2.94    0.87
   1   6   4    0.78    0.92
  -1  -6  -5  131.05    4.71
   1   6   5  129.52    4.98
  -1  -6  -6    1.48    1.17
   1   6   6    1.46    1.42
  -1  -6  -7    4.96    1.38
   1   6   7    3.99    1.57
  -1  -6  -8   29.07    2.28
   1   6   8   31.57    2.40
  -1  -6  -9   28.69    2.53
   1   6   9   27.35    2.42
  -1  -6 -10    8.36    2.42
   1   6  10   10.02    2.14
  -1  -6 -11    4.38    2.37
   1   6  11    2.11    2.35
  -1  -6 -12    4.28    2.50
   1   6  12    3.42    2.50
  -1  -6 -13   -0.11    1.74
   1   6  13   -1.40    1.16
  -1  -6 -14   -0.79    1.69
   1   6  14    5.81    1.87
   1   6  15    0.80    1.26
  -1  -5  16    8.06    2.33
   1   5 -16   -1.50    1.68
  -1  -5  15    1.68    1.43
   1   5 -15    0.56    2.52
  -1  -5  14   21.69    2.33
   1   5 -14   18.21    2.99
  -1  -5  13   12.19    2.65
   1   5 -13   19.79    2.78
  -1  -5  12    9.77    2.64
   1   5 -12    9.33    2.40
  -1  -5  11    2.10    2.16
   1   5 -11   -0.09    2.25
  -1  -5  10    2.10    1.90
   1   5 -10    0.43    1.84
  -1  -5   9    1.01    1.73
   1   5  -9    2.24    1.66
  -1  -5   8    4.62    1.45
   1   5  -8    5.32    1.42
  -1  -5   7   76.51    3.11
   1   5  -7   78.14    3.34
  -1  -5   6  191.06    6.32
   1   5  -6  197.52    6.60
  -1  -5   5    2.20    1.08
   1   5  -5    3.11    1.13
  -1  -5   4    2.37    0.87
   1   5  -4    1.77    0.85
  -1  -5   3   15.86    1.09
   1   5  -3   15.15    1.11
  -1  -5   2    2.22    0.41
   1   5  -2    1.69    0.38
  -1  -5  -2    1.07    0.76
   1   5   2    0.31    0.48
  -1  -5  -3    1.48    0.62
   1   5   3    0.23    0.68
  -1  -5  -4  309.65    9.10
   1   5   4  315.04    9.30
  -1  -5  -5   61.83    2.80
   1   5   5   64.54    2.84
  -1  -5  -6  275.18    8.61
   1   5   6  264.54    8.19
  -1  -5  -7    0.46    1.45
   1   5   7    0.92    1.48
  -1  -5  -8    4.77    1.53
   1   5   8    5.62    1.47
  -1  -5  -9    0.46    1.57
   1   5   9    1.18    1.59
  -1  -5 -10   11.55    2.04
   1   5  10   14.21    2.10
  -1  -5 -11    3.62    1.90
   1   5  11    5.65    2.35
  -1  -5 -12    1.06    2.13
   1   5  12    1.71    2.16
  -1  -5 -13    3.28    2.24
   1   5  13    1.95    2.34
   1   5  14    3.28    3.35
   1   5  15   -0.08    1.36
  -1  -4  16    1.22    3.54
  -1  -4  15   -1.05    1.75
   1   4 -15    1.93    2.22
  -1  -4  14    8.80    2.67
   1   4 -14   11.97    2.85
  -1  -4  13   82.42    3.16
   1   4 -13   79.14    4.21
  -1  -4  12   -0.88    2.14
   1   4 -12    0.03    2.39
  -1  -4  11   30.12    2.95
   1   4 -11   33.85    2.63
  -1  -4  10    2.88    1.63
   1   4 -10    3.26    1.70
  -1  -4   9   16.35    1.72
   1   4  -9   14.90    1.80
  -1  -4   8   20.83    1.90
   1   4  -8   18.62    1.82
  -1  -4   7   36.11    2.01
   1   4  -7   37.74    2.08
  -1  -4   6   29.27    1.82
   1   4  -6   31.37    1.81
  -1  -4   5   96.02    3.41
   1   4  -5   96.59    3.45
  -1  -4   4    6.87    0.93
   1   4  -4    7.07    1.01
  -1  -4   3   16.43    1.11
   1   4  -3   14.40    1.06
  -1  -4   2   36.86    1.54
   1   4  -2   36.04    1.46
  -1  -4  -1   11.80    0.51
   1   4   1   12.85    0.93
  -1  -4  -2    4.26    0.55
   1   4   2    4.15    0.58
  -1  -4  -3   16.54    1.11
   1   4   3   13.64    1.09
  -1  -4  -4   12.06    1.12
   1   4   4   11.39    1.17
  -1  -4  -5  110.49    4.32
   1   4   5  106.08    4.39
  -1  -4  -6    6.88    1.26
   1   4   6    6.37    1.14
  -1  -4  -7   34.60    2.30
   1   4   7   33.09    2.11
  -1  -4  -8   -1.07    1.41
   1   4   8    1.21    1.27
  -1  -4  -9   11.77    1.77
   1   4   9   15.46    1.84
  -1  -4 -10    7.95    1.91
   1   4  10    4.42    1.67
  -1  -4 -11    0.88    1.78
   1   4  11    3.51    1.72
  -1  -4 -12    1.99    2.11
   1   4  12    0.61    2.13
  -1  -4 -13   58.34    2.70
   1   4  13   58.04    3.18
  -1  -4 -14   -0.73    1.84
   1   4  14   -0.89    2.18
  -1  -4 -15    0.28    2.87
   1   4  15   -1.04    4.00
  -1  -3  16    0.33    2.89
  -1  -3  15    0.45    1.98
   1   3 -15   -0.02    1.83
  -1  -3  14    0.91    2.29
   1   3 -14    0.04    2.75
  -1  -3  13    2.35    2.13
   1   3 -13    3.37    2.26
  -1  -3  12   -0.11    2.11
   1   3 -12   -1.46    1.93
  -1  -3  11    0.63    1.77
   1   3 -11    1.13    1.85
  -1  -3  10    1.75    1.73
   1   3 -10    1.19    1.54
  -1  -3   9   35.10    2.48
   1   3  -9   37.22    2.63
  -1  -3   8   17.00    1.71
   1   3  -8   17.91    1.79
  -1  -3   7    2.22    1.00
   1   3  -7    2.60    1.16
  -1  -3   6   18.48    1.41
   1   3  -6   19.25    1.60
  -1  -3   5  148.77    6.89
   1   3  -5  157.24    5.41
  -1  -3   4  248.18    7.13
   1   3  -4  244.17    7.33
  -1  -3   3   49.70    2.06
   1   3  -3   47.07    2.12
  -1  -3   2  185.56    5.04
   1   3  -2  192.31    5.33
  -1  -3   1   29.15    1.08
   1   3  -1   31.07    1.08
  -1  -3   0  101.22    2.44
   1   3   0  101.43    2.46
  -1  -3  -1  158.08    4.17
   1   3   1  158.67    4.24
  -1  -3  -2   13.99    0.85
   1   3   2   12.54    0.93
  -1  -3  -3  107.36    4.22
   1   3   3   97.91    4.10
  -1  -3  -4   43.56    1.88
   1   3   4   42.65    1.93
  -1  -3  -5  118.19    4.33
   1   3   5  112.27    4.15
  -1  -3  -6   -0.11    1.11
   1   3   6    0.34    0.99
  -1  -3  -7   16.97    1.62
   1   3   7   13.17    1.44
  -1  -3  -8    0.16    1.33
   1   3   8    1.62    1.31
  -1  -3  -9    9.82    1.71
   1   3   9    4.57    1.62
  -1  -3 -10    4.93    1.63
   1   3  10    2.85    1.27
  -1  -3 -11   12.62    1.95
   1   3  11   12.82    1.85
  -1  -3 -12   -0.12    1.66
   1   3  12    1.79    1.60
  -1  -3 -13    2.42    2.15
   1   3  13    0.80    2.11
  -1  -3 -14   15.23    2.73
   1   3  14   14.90    2.96
  -1  -3 -15    3.19    1.97
   1   3  15    2.17    2.33
  -1  -3 -16    0.90    2.52
   1   3  16    0.58    3.34
  -1  -2  16    1.53    1.00
   1   2 -16    0.21    1.07
  -1  -2  15    1.24    1.16
   1   2 -15    7.99    2.53
  -1  -2  14    0.04    1.07
   1   2 -14    1.21    3.36
  -1  -2  13    0.54    1.91
   1   2 -13    2.17    2.16
  -1  -2  12   15.23    2.28
   1   2 -12   11.83    1.99
  -1  -2  11    8.79    1.75
   1   2 -11    7.08    1.62
  -1  -2  10    0.60    1.33
   1   2 -10    0.02    1.39
  -1  -2   9   29.88    2.40
   1   2  -9   29.12    2.22
  -1  -2   8   65.06    3.71
   1   2  -8   69.16    3.88
  -1  -2   7   31.94    2.17
   1   2  -7   32.08    2.16
  -1  -2   6    2.63    1.04
   1   2  -6    2.35    0.99
  -1  -2   5  136.14    5.16
   1   2  -5  136.74    5.31
  -1  -2   4  209.03    6.76
   1   2  -4  222.30    7.34
  -1  -2   3  195.35    5.73
   1   2  -3  201.51    6.09
  -1  -2   2   32.02    1.46
   1   2  -2   35.23    1.59
  -1  -2   1   20.56    0.91
   1   2  -1   21.69    0.93
  -1  -2   0  300.84   10.37
   1   2   0  307.37    7.29
  -1  -2  -1    7.82    0.50
   1   2   1    6.80    0.53
  -1  -2  -2  115.11    3.68
   1   2   2  118.34    3.91
  -1  -2  -3  303.50    9.12
   1   2   3  287.04    9.01
  -1  -2  -4  218.56    7.60
   1   2   4  209.07    7.44
  -1  -2  -5    1.85    1.01
   1   2   5    2.80    0.90
  -1  -2  -6   37.42    2.48
   1   2   6   35.56    2.33
  -1  -2  -7   25.87    2.06
   1   2   7   25.17    1.87
  -1  -2  -8  158.46    6.48
   1   2   8  151.38    6.03
  -1  -2  -9   22.57    2.14
   1   2   9   20.45    2.12
  -1  -2 -10   51.60    2.80
   1   2  10   46.62    2.42
  -1  -2 -11    0.83    1.32
   1   2  11   -0.79    1.25
  -1  -2 -12    1.95    1.81
   1   2  12    1.53    1.77
  -1  -2 -13   30.76    2.56
   1   2  13   25.95    2.39
  -1  -2 -14   20.03    2.41
   1   2  14   19.09    2.55
  -1  -2 -15   32.97    2.55
   1   2  15   31.14    2.75
  -1  -2 -16    8.67    2.14
   1   2  16   10.31    2.34
  -1  -1  16    5.29    1.90
   1   1 -16    0.49    1.47
  -1  -1  15   -2.76    2.25
   1   1 -15   -0.72    1.60
  -1  -1  14    0.30    1.94
   1   1 -14    0.74    1.98
  -1  -1  13    3.42    2.14
   1   1 -13    5.93    2.06
  -1  -1  12    2.50    1.60
   1   1 -12    3.10    1.64
  -1  -1  11    5.84    1.70
   1   1 -11    6.19    1.72
  -1  -1  10   12.89    1.66
   1   1 -10   13.06    1.71
  -1  -1   9  197.72    7.07
   1   1  -9  206.26    7.88
  -1  -1   8    6.11    1.40
   1   1  -8    5.47    1.47
  -1  -1   7   38.40    2.40
   1   1  -7   39.95    2.53
  -1  -1   6    0.99    0.94
   1   1  -6   -0.03    0.99
  -1  -1   5    1.06    0.95
   1   1  -5    0.93    1.00
  -1  -1   4  763.60   19.71
   1   1  -4  751.96   20.39
  -1  -1   3   36.75    1.82
   1   1  -3   36.15    1.91
  -1  -1   2  285.73    8.37
   1   1  -2  292.16    8.60
  -1  -1   1  162.82    4.37
   1   1  -1  160.61    4.32
  -1  -1   0   34.36    1.33
   1   1   0   35.35    1.39
  -1  -1  -1  995.27   23.40
   1   1   1 1002.25   23.41
  -1  -1  -2   45.76    2.02
   1   1   2   43.10    2.05
  -1  -1  -3   21.36    1.42
   1   1   3   19.34    1.40
  -1  -1  -4   21.16    1.59
   1   1   4   18.61    1.47
  -1  -1  -5    0.63    0.91
   1   1   5   -0.11    0.80
  -1  -1  -6   19.10    1.68
   1   1   6   19.80    1.63
  -1  -1  -7   13.52    1.67
   1   1   7   14.60    1.67
  -1  -1  -8  136.58    5.70
   1   1   8  127.54    5.22
  -1  -1  -9  295.83    9.02
   1   1   9  282.94    8.34
  -1  -1 -10    8.15    1.49
   1   1  10    4.76    1.42
  -1  -1 -11    8.70    1.62
   1   1  11    8.86    1.50
  -1  -1 -12    1.73    1.87
   1   1  12    4.78    1.89
  -1  -1 -13    5.79    2.21
   1   1  13    7.00    2.10
  -1  -1 -14   14.41    2.14
   1   1  14   11.95    2.02
  -1  -1 -15    3.10    1.88
   1   1  15    1.78    2.12
  -1  -1 -16    3.77    3.26
   1   1  16    7.21    3.63
   1   0 -16    0.53    2.85
  -1   0  15    3.21    2.13
   1   0 -15   -0.43    1.69
  -1   0  14    1.11    1.63
   1   0 -14    0.45    1.55
  -1   0  13    7.64    2.01
   1   0 -13    8.01    3.18
  -1   0  12    9.32    1.93
   1   0 -12   12.00    2.08
  -1   0  11    1.98    1.75
   1   0 -11    3.12    1.76
  -1   0  10    0.27    1.40
   1   0 -10   -0.72    1.41
  -1   0   9   -0.56    1.26
   1   0  -9    0.77    1.36
  -1   0   8  197.97    7.09
   1   0  -8  210.60    7.36
  -1   0   7   15.88    1.61
   1   0  -7   16.32    1.75
  -1   0   6  508.88   15.36
   1   0  -6  524.69   16.38
  -1   0   5   -0.98    0.89
   1   0  -5    0.34    0.99
  -1   0   4   13.85    1.35
   1   0  -4   14.59    1.37
  -1   0   3    6.93    0.88
   1   0  -3    7.46    1.09
  -1   0   2   27.77    1.39
   1   0  -2   28.46    1.47
  -1   0   1   94.20    3.08
   1   0  -1   94.37    3.11
  -1   0   0 1033.30   24.22
   1   0   0  995.39   23.14
  -1   0  -1  578.05   14.14
   1   0   1  568.73   14.90
  -1   0  -2  116.47    3.96
   1   0   2  108.23    3.92
  -1   0  -3    3.83    0.73
   1   0   3    5.91    0.74
  -1   0  -4   12.08    1.09
   1   0   4   13.24    1.12
  -1   0  -5   47.44    2.80
   1   0   5   48.11    2.83
  -1   0  -6   71.78    3.30
   1   0   6   67.75    3.10
  -1   0  -7    6.75    1.28
   1   0   7    4.93    1.17
  -1   0  -8   64.35    3.46
   1   0   8   64.33    3.32
  -1   0  -9    0.41    1.12
   1   0   9    0.36    1.18
  -1   0 -10    7.85    1.43
   1   0  10    9.64    1.47
  -1   0 -11    1.61    1.52
   1   0  11    0.54    1.45
  -1   0 -12    0.26    1.83
   1   0  12   -0.09    1.59
  -1   0 -13   19.10    2.42
   1   0  13   16.15    2.24
  -1   0 -14    2.02    1.76
   1   0  14    3.41    1.72
  -1   0 -15   -2.04    1.85
   1   0  15    0.10    2.09
  -1   0 -16    0.47    2.67
   1   0  16   -0.05    2.61
   1  -1 -16   -2.01    2.78
  -1   1  15    0.00    1.21
   1  -1 -15    0.04    1.55
  -1   1  14    2.24    1.57
   1  -1 -14    0.31    1.51
  -1   1  13    8.25    1.70
   1  -1 -13    7.87    1.56
  -1   1  12   14.19    1.77
   1  -1 -12    9.93    1.77
  -1   1  11    5.62    1.65
   1  -1 -11    3.87    1.58
  -1   1  10    3.04    1.47
   1  -1 -10    1.95    1.44
  -1   1   9   68.85    5.52
   1  -1  -9   69.54    3.46
  -1   1   8  103.44    7.90
   1  -1  -8  114.47    5.10
  -1   1   7    0.54    1.84
   1  -1  -7    0.68    1.24
  -1   1   6  189.51   12.36
   1  -1  -6  192.40    7.86
  -1   1   5    6.85    1.58
   1  -1  -5    6.21    1.08
  -1   1   4   92.69    5.58
   1  -1  -4   92.03    3.59
  -1   1   3  151.43    8.43
   1  -1  -3  109.47    6.73
  -1   1   2    3.26    1.15
   1  -1  -2    1.90    1.05
   1  -1  -1 1075.07   36.38
   1  -1   0  447.91   15.31
   1  -1   2  310.81   12.43
   1  -1   3    3.44    0.93
   1  -1   4    5.10    1.14
   1  -1   5    8.04    1.13
   1  -1   6   96.14    5.07
   1  -1   7   38.57    2.47
   1  -1   8   19.21    1.87
   1  -1   9   54.37    3.15
   1  -1  10    9.52    1.50
   1  -1  11    1.38    1.22
   1  -1  12    1.05    1.62
   1  -1  13    6.75    1.76
   1  -1  14    1.18    1.69
   1  -1  15   -0.01    1.77
   1  -1  16   15.15    1.94
   1  -2 -16    9.56    3.42
  -1   2  15    1.26    1.66
   1  -2 -15   -0.06    1.53
  -1   2  14    1.09    1.64
   1  -2 -14    1.84    1.87
  -1   2  13   -0.54    1.71
   1  -2 -13   -0.83    1.82
  -1   2  12    0.51    1.59
   1  -2 -12    2.57    1.80
  -1   2  11    4.39    1.23
   1  -2 -11    3.60    1.50
  -1   2  10    1.31    1.27
   1  -2 -10    2.82    1.44
  -1   2   9   -0.54    1.41
   1  -2  -9    2.69    1.67
  -1   2   8    9.99    1.28
   1  -2  -8    9.83    1.55
  -1   2   7   12.84    1.56
   1  -2  -7   11.11    1.58
  -1   2   6   83.89    3.74
   1  -2  -6   81.75    4.01
  -1   2   5  105.34    4.13
   1  -2  -5  100.39    4.12
  -1   2   4   95.94    3.92
   1  -2  -4   94.12    3.69
  -1   2   3    5.24    0.94
   1  -2  -3    4.45    0.91
  -1   2   2   64.55    2.64
   1  -2  -2   65.95    2.70
  -1   2   1  451.99   11.02
   1  -2  -1  441.96   10.82
  -1   2  -1   86.87    2.69
   1  -2   1   87.15    2.82
  -1   2  -2   30.10    1.54
   1  -2   2   29.83    1.71
  -1   2  -3   11.31    0.94
   1  -2   3   10.77    0.87
  -1   2  -4   44.78    1.79
   1  -2   4   42.68    1.86
  -1   2  -5    9.75    1.23
   1  -2   5    9.41    1.22
  -1   2  -6   83.45    3.97
   1  -2   6   85.32    3.87
  -1   2  -7    2.13    1.30
   1  -2   7    2.40    1.21
  -1   2  -8   22.15    2.02
   1  -2   8   20.40    1.95
  -1   2  -9  172.91    6.27
   1  -2   9  165.40    5.65
  -1   2 -10    2.05    1.65
   1  -2  10    0.99    1.40
  -1   2 -11    9.24    1.70
   1  -2  11   11.68    1.65
  -1   2 -12    1.52    1.42
   1  -2  12   -0.22    1.19
  -1   2 -13    2.61    1.75
   1  -2  13    3.29    1.91
  -1   2 -14    2.91    1.80
   1  -2  14    3.95    1.74
  -1   2 -15    0.56    2.26
   1  -2  15    1.73    1.55
   1  -2  16    7.13    1.78
  -1   3  16    3.45    2.96
   1  -3 -16   -1.04    1.83
  -1   3  15    7.82    2.13
   1  -3 -15   13.76    3.56
  -1   3  14    2.24    1.84
   1  -3 -14    0.79    1.26
  -1   3  13   28.57    2.44
   1  -3 -13   33.14    2.29
  -1   3  12   -0.05    2.10
   1  -3 -12    1.49    1.93
  -1   3  11    1.99    1.49
   1  -3 -11    1.35    1.58
  -1   3  10    1.42    1.52
   1  -3 -10    3.29    1.58
  -1   3   9   19.71    1.78
   1  -3  -9   19.37    2.10
  -1   3   8  238.30    7.73
   1  -3  -8  232.05    8.31
  -1   3   7   51.63    2.77
   1  -3  -7   47.82    2.68
  -1   3   6   25.68    1.94
   1  -3  -6   27.31    2.21
  -1   3   5   65.57    2.97
   1  -3  -5   69.30    3.11
  -1   3   4 1056.99   26.01
   1  -3  -4 1036.11   26.63
  -1   3   3   49.91    2.41
   1  -3  -3   49.73    2.45
  -1   3   2   12.46    0.92
   1  -3  -2   10.40    1.02
  -1   3   1  284.78    7.85
   1  -3  -1  300.51    8.26
  -1   3   0    1.89    0.48
   1  -3   0    2.57    0.57
  -1   3  -1  681.49   17.03
   1  -3   1  674.46   17.02
  -1   3  -2   81.67    3.06
   1  -3   2   83.11    2.92
  -1   3  -3   10.06    0.89
   1  -3   3    9.87    0.91
  -1   3  -4   11.61    1.08
   1  -3   4   12.21    1.07
  -1   3  -5    1.91    0.95
   1  -3   5    2.31    0.93
  -1   3  -6   18.97    1.44
   1  -3   6   19.19    1.58
  -1   3  -7   -1.57    1.07
   1  -3   7    0.82    1.09
  -1   3  -8   -0.50    1.12
   1  -3   8    1.18    1.08
  -1   3  -9    1.82    1.34
   1  -3   9    4.94    1.35
  -1   3 -10   -2.00    2.33
   1  -3  10    0.88    1.31
  -1   3 -11    0.77    1.48
   1  -3  11    1.63    1.43
  -1   3 -12    1.35    1.28
   1  -3  12    1.30    1.28
  -1   3 -13   15.84    1.73
   1  -3  13   19.56    2.13
  -1   3 -14   35.13    2.20
   1  -3  14   40.01    2.58
  -1   3 -15   -0.74    2.18
   1  -3  15    0.03    1.66
   1  -3  16    6.38    1.37
  -1   4  15   27.69    3.03
   1  -4 -15   29.20    3.25
  -1   4  14   -1.74    3.82
   1  -4 -14    3.54    3.90
  -1   4  13   24.53    3.53
   1  -4 -13   24.40    3.76
  -1   4  12    6.97    2.41
   1  -4 -12   10.95    2.10
  -1   4  11    0.98    1.65
   1  -4 -11   -0.16    1.88
  -1   4  10    3.71    1.65
   1  -4 -10    3.86    1.74
  -1   4   9   21.30    2.20
   1  -4  -9   16.65    2.04
  -1   4   8   79.46    3.95
   1  -4  -8   72.15    3.93
  -1   4   7    8.74    1.63
   1  -4  -7    9.40    1.65
  -1   4   6    1.85    1.15
   1  -4  -6    3.23    1.28
  -1   4   5  165.96    5.54
   1  -4  -5  161.20    5.24
  -1   4   4   17.02    1.37
   1  -4  -4   13.33    1.39
  -1   4   3   25.20    1.38
   1  -4  -3   24.22    1.40
  -1   4   2   94.62    3.44
   1  -4  -2   88.32    3.29
  -1   4   1    3.30    0.58
   1  -4  -1    2.88    0.58
  -1   4   0    6.66    0.56
   1  -4   0    6.06    0.61
  -1   4  -1    0.24    0.53
   1  -4   1   -0.18    0.53
  -1   4  -2   19.14    1.00
   1  -4   2   22.23    1.11
  -1   4  -3   28.92    1.60
   1  -4   3   32.75    1.58
  -1   4  -4  334.89    8.60
   1  -4   4  337.34    8.95
  -1   4  -5  269.50    8.14
   1  -4   5  274.54    8.25
  -1   4  -6   24.94    2.43
   1  -4   6   24.95    1.94
  -1   4  -7   42.54    2.77
   1  -4   7   41.35    2.57
  -1   4  -8   49.04    2.61
   1  -4   8   51.18    2.82
  -1   4  -9    0.66    1.32
   1  -4   9    1.95    1.39
  -1   4 -10   55.64    2.54
   1  -4  10   51.46    2.81
  -1   4 -11    0.79    1.77
   1  -4  11    0.98    1.73
  -1   4 -12    1.89    1.40
   1  -4  12    5.29    1.45
  -1   4 -13    5.20    2.14
   1  -4  13   10.78    2.66
  -1   4 -14    6.96    1.97
   1  -4  14    8.56    2.24
  -1   4 -15   -0.27    1.42
   1  -4  15    0.34    1.63
   1  -4  16   -0.43    1.11
  -1   5  15    5.22    2.11
   1  -5 -15    7.95    2.18
  -1   5  14   -1.35    3.59
   1  -5 -14    0.19    1.24
  -1   5  13    5.84    2.34
   1  -5 -13    8.34    2.61
  -1   5  12    0.58    1.31
   1  -5 -12    1.87    2.14
  -1   5  11   28.47    2.37
   1  -5 -11   24.66    2.37
  -1   5  10   17.72    2.03
   1  -5 -10   16.99    2.39
  -1   5   9    2.55    1.98
   1  -5  -9    2.90    1.76
  -1   5   8    5.84    1.59
   1  -5  -8    5.01    1.63
  -1   5   7    4.58    1.24
   1  -5  -7    5.04    1.36
  -1   5   6    2.69    1.41
   1  -5  -6    4.54    1.49
  -1   5   5    3.47    1.13
   1  -5  -5    1.87    1.12
  -1   5   4  219.08    7.04
   1  -5  -4  192.55    6.19
  -1   5   3  304.66    8.23
   1  -5  -3  297.33    7.74
  -1   5   2   23.78    1.44
   1  -5  -2   21.87    1.34
  -1   5   1   53.97    2.53
   1  -5  -1   53.69    2.27
  -1   5   0   35.84    1.34
   1  -5   0   33.98    1.31
  -1   5  -1   37.53    1.55
   1  -5   1   36.04    1.56
  -1   5  -2   60.34    2.13
   1  -5   2   59.95    1.98
  -1   5  -3   10.15    0.93
   1  -5   3    9.87    0.84
  -1   5  -4   95.53    3.20
   1  -5   4  101.61    3.40
  -1   5  -5   75.77    2.44
   1  -5   5   77.79    2.71
  -1   5  -6  105.84    3.75
   1  -5   6  107.61    3.65
  -1   5  -7    5.13    1.17
   1  -5   7    5.54    1.24
  -1   5  -8   -0.19    1.70
   1  -5   8   -0.48    1.21
  -1   5  -9   18.48    1.97
   1  -5   9   20.27    2.08
  -1   5 -10   -0.37    1.69
   1  -5  10    1.49    1.72
  -1   5 -11    0.52    1.65
   1  -5  11    0.02    1.58
  -1   5 -12    1.10    1.67
   1  -5  12    2.07    1.47
  -1   5 -13    5.09    1.54
   1  -5  13    4.78    1.22
  -1   5 -14   -0.29    1.28
   1  -5  14   -0.03    0.73
  -1   5 -15    0.78    2.38
   1  -5  15    1.66    2.50
  -1   5 -16    0.75    1.70
   1  -5  16    0.62    1.03
  -1   6  15    1.06    2.62
   1  -6 -15   -2.75    2.26
  -1   6  14    0.16    2.54
   1  -6 -14    1.10    2.08
  -1   6  13   42.61    3.14
   1  -6 -13   55.65    3.92
  -1   6  12    1.68    2.24
   1  -6 -12    0.77    2.64
  -1   6  11    6.41    2.13
   1  -6 -11    5.73    2.25
  -1   6  10   41.52    2.41
   1  -6 -10   37.50    2.57
  -1   6   9    0.33    1.98
   1  -6  -9    1.32    1.72
  -1   6   8    1.93    1.70
   1  -6  -8    1.53    1.64
  -1   6   7    5.61    1.69
   1  -6  -7    3.58    1.64
  -1   6   6    2.17    1.48
   1  -6  -6    2.44    1.43
  -1   6   5   21.44    1.78
   1  -6  -5   18.16    1.77
  -1   6   4   -1.18    1.02
   1  -6  -4   -1.07    0.97
  -1   6   3    0.44    0.97
   1  -6  -3    1.08    1.05
  -1   6   2    2.28    0.85
   1  -6  -2    1.75    0.88
  -1   6   1   77.56    3.08
   1  -6  -1   74.80    2.82
  -1   6   0  111.89    3.67
   1  -6   0  107.33    3.30
  -1   6  -1   18.11    1.04
   1  -6   1   17.19    1.03
  -1   6  -2    5.53    0.74
   1  -6   2    7.01    1.12
  -1   6  -3    3.40    0.82
   1  -6   3    2.99    0.77
  -1   6  -4   21.55    1.49
   1  -6   4   22.86    1.48
  -1   6  -5  343.04   12.47
   1  -6   5  374.65   10.30
  -1   6  -6   -0.56    1.18
   1  -6   6    1.17    1.18
  -1   6  -7   35.80    1.97
   1  -6   7   37.44    2.11
  -1   6  -8   -0.80    1.48
   1  -6   8   -0.65    1.43
  -1   6  -9    8.01    1.65
   1  -6   9    7.47    1.66
  -1   6 -10   -0.67    1.67
   1  -6  10    0.08    1.73
  -1   6 -11    2.99    1.59
   1  -6  11    5.81    1.79
  -1   6 -12   -0.20    1.11
   1  -6  12    2.05    1.73
  -1   6 -13   -0.23    1.18
   1  -6  13    2.01    1.79
  -1   6 -14   -1.53    2.74
   1  -6  14   -0.34    2.67
  -1   6 -15    0.20    1.64
  -1   7  14   -0.38    1.02
   1  -7 -14    8.51    3.48
  -1   7  13    7.68    2.05
   1  -7 -13    4.47    1.82
  -1   7  12   28.09    2.93
   1  -7 -12   12.16    2.40
  -1   7  11    5.00    2.09
   1  -7 -11    1.69    2.34
  -1   7  10    0.36    2.23
   1  -7 -10    0.12    2.19
  -1   7   9    1.66    1.86
   1  -7  -9   -0.72    2.07
  -1   7   8   48.36    3.05
   1  -7  -8   48.10    3.14
  -1   7   7   12.57    1.67
   1  -7  -7   13.37    1.90
  -1   7   6   13.97    1.94
   1  -7  -6   11.71    1.82
  -1   7   5   25.01    2.04
   1  -7  -5   22.93    1.92
  -1   7   4   50.63    2.36
   1  -7  -4   48.76    2.21
  -1   7   3   27.76    1.83
   1  -7  -3   24.34    1.73
  -1   7   2   45.60    2.34
   1  -7  -2   43.87    2.18
  -1   7   1   10.25    1.46
   1  -7  -1   10.65    0.96
  -1   7   0   94.00    3.35
   1  -7   0   84.99    3.21
  -1   7  -1    1.88    0.67
   1  -7   1    2.12    0.64
  -1   7  -2    2.41    0.75
   1  -7   2    2.51    0.74
  -1   7  -3    9.84    1.02
   1  -7   3   10.15    1.05
  -1   7  -4    3.75    1.08
   1  -7   4    5.65    1.01
  -1   7  -5    7.01    1.16
   1  -7   5    7.98    1.33
  -1   7  -6   -0.94    1.33
   1  -7   6    1.24    1.23
  -1   7  -7   20.74    1.76
   1  -7   7   21.54    1.71
  -1   7  -8    1.85    1.63
   1  -7   8    2.29    1.45
  -1   7  -9   -0.42    1.57
   1  -7   9    2.70    1.63
  -1   7 -10    0.60    1.93
   1  -7  10    2.07    1.88
  -1   7 -11   -0.98    1.78
   1  -7  11    0.17    1.58
  -1   7 -12   15.52    2.24
   1  -7  12   13.54    1.97
  -1   7 -13    8.62    1.65
   1  -7  13   14.31    2.26
  -1   7 -14    9.64    1.77
   1  -7  14   17.25    2.01
  -1   7 -15    9.33    2.53
   1  -7  15   -1.67    2.30
  -1   8  13    0.40    1.39
   1  -8 -13   -0.39    3.20
  -1   8  12    0.40    2.38
   1  -8 -12    3.45    2.51
  -1   8  11   12.86    2.50
   1  -8 -11    5.58    2.69
  -1   8  10   15.66    2.28
   1  -8 -10   12.50    2.39
  -1   8   9   13.17    2.32
   1  -8  -9   14.43    2.45
  -1   8   8   49.10    3.40
   1  -8  -8   38.87    3.46
  -1   8   7   14.42    2.23
   1  -8  -7   11.14    2.24
  -1   8   6    5.14    1.66
   1  -8  -6    6.25    1.67
  -1   8   5    8.70    1.57
   1  -8  -5    8.33    1.72
  -1   8   4   80.64    3.48
   1  -8  -4   79.05    3.20
  -1   8   3   71.23    3.41
   1  -8  -3   71.47    3.23
  -1   8   2    1.51    0.92
   1  -8  -2    1.30    0.99
  -1   8   1   45.23    2.14
   1  -8  -1   44.21    2.03
  -1   8   0   -0.06    0.73
   1  -8   0   -0.15    0.74
  -1   8  -1   16.50    1.13
   1  -8   1   17.39    1.09
  -1   8  -2    2.14    0.79
   1  -8   2    2.56    0.77
  -1   8  -3    3.89    0.99
   1  -8   3    2.33    1.01
  -1   8  -4    1.39    1.07
   1  -8   4    1.18    1.04
  -1   8  -5    1.23    1.24
   1  -8   5   -0.29    1.08
  -1   8  -6   25.62    1.92
   1  -8   6   29.37    1.93
  -1   8  -7   15.19    1.64
   1  -8   7   14.22    1.55
  -1   8  -8    7.26    2.04
   1  -8   8    1.34    1.46
  -1   8  -9   12.56    2.30
   1  -8   9   10.92    2.05
  -1   8 -10    7.45    2.12
   1  -8  10    5.11    2.11
  -1   8 -11    0.95    2.03
   1  -8  11    1.87    2.00
  -1   8 -12   -0.28    2.12
   1  -8  12    3.35    3.11
  -1   8 -13    4.44    2.15
   1  -8  13    1.19    2.61
  -1   8 -14   -0.05    1.34
   1  -8  14   -0.53    2.31
  -1   8 -15   -0.49    2.44
   1  -8  15    0.24    2.02
   1  -9 -13   -0.65    2.32
  -1   9  12    5.56    1.81
   1  -9 -12    6.26    2.04
  -1   9  11   -0.15    2.06
   1  -9 -11   -1.25    2.11
  -1   9  10   18.96    2.94
   1  -9 -10   15.95    2.58
  -1   9   9    4.58    1.91
   1  -9  -9    3.57    2.19
  -1   9   8   52.47    2.95
   1  -9  -8   54.72    3.28
  -1   9   7    0.05    1.95
   1  -9  -7    0.81    1.90
  -1   9   6    2.50    1.79
   1  -9  -6    5.22    1.75
  -1   9   5    0.73    1.58
   1  -9  -5    0.39    1.49
  -1   9   4   14.74    1.92
   1  -9  -4   18.29    1.95
  -1   9   3    6.04    1.39
   1  -9  -3    5.54    1.23
  -1   9   2    1.25    1.11
   1  -9  -2    0.19    1.10
  -1   9   1   15.07    1.38
   1  -9  -1   15.83    1.32
  -1   9   0    2.43    0.90
   1  -9   0    2.65    0.86
  -1   9  -1   31.79    1.76
   1  -9   1   31.42    1.82
  -1   9  -2    5.85    1.08
   1  -9   2    6.32    0.98
  -1   9  -3    1.35    1.02
   1  -9   3    1.46    1.00
  -1   9  -4    0.33    1.13
   1  -9   4   -1.46    1.11
  -1   9  -5    4.86    1.54
   1  -9   5    1.69    1.31
  -1   9  -6    0.28    1.50
   1  -9   6    1.21    1.53
  -1   9  -7   22.40    2.41
   1  -9   7   22.35    2.05
  -1   9  -8   -1.64    1.97
   1  -9   8   -0.02    1.83
  -1   9  -9   23.84    2.57
   1  -9   9   27.68    2.33
  -1   9 -10    1.06    2.16
   1  -9  10   -0.27    1.39
  -1   9 -11    1.62    3.52
   1  -9  11   -3.36    3.17
  -1   9 -12    0.64    1.99
   1  -9  12   -0.01    2.41
  -1   9 -13    0.38    1.70
  -1   9 -14   10.21    2.62
   1  -9  14   12.14    3.57
   1 -10 -11   -2.27    2.23
  -1  10  10    0.89    2.10
   1 -10 -10    2.72    1.46
  -1  10   9   15.81    2.43
   1 -10  -9    9.39    1.87
  -1  10   8   12.33    2.03
   1 -10  -8   11.58    2.09
  -1  10   7   -1.18    2.60
   1 -10  -7   -0.42    2.15
  -1  10   6    2.26    2.86
   1 -10  -6    3.32    1.68
  -1  10   5    2.15    1.61
   1 -10  -5    0.73    1.52
  -1  10   4   -0.22    0.83
   1 -10  -4    0.83    2.15
  -1  10   3   -0.62    1.28
   1 -10  -3   -0.61    1.31
  -1  10   2   -0.33    1.06
   1 -10  -2    1.04    1.00
  -1  10   1    5.44    1.21
   1 -10  -1    5.70    1.18
  -1  10   0   17.42    1.58
   1 -10   0   12.15    2.02
  -1  10  -1    0.81    1.09
   1 -10   1   -0.02    1.13
  -1  10  -2   19.71    1.39
   1 -10   2   19.99    1.39
  -1  10  -3   -1.16    1.24
   1 -10   3    1.07    1.41
  -1  10  -4    7.59    1.18
   1 -10   4    8.54    1.31
  -1  10  -5    0.88    1.41
   1 -10   5    2.19    1.52
  -1  10  -6   -0.38    1.86
   1 -10   6   -0.33    1.54
  -1  10  -7   19.88    2.76
   1 -10   7   19.52    2.47
  -1  10  -8    6.82    2.17
   1 -10   8    7.35    2.14
  -1  10  -9   10.82    2.13
   1 -10   9    8.13    2.03
  -1  10 -10   21.73    2.54
   1 -10  10   16.99    2.33
  -1  10 -11    1.84    2.09
   1 -10  11    0.74    2.30
  -1  10 -12   10.14    3.84
  -1  10 -13    2.17    2.90
   1 -11  -9   -1.95    2.91
  -1  11   8    1.06    1.97
   1 -11  -8   -0.94    2.15
  -1  11   7    3.30    1.96
   1 -11  -7    3.76    2.26
  -1  11   6    4.75    2.03
   1 -11  -6    1.65    2.24
  -1  11   5   -0.41    2.01
   1 -11  -5    1.16    1.81
  -1  11   4    3.05    1.37
   1 -11  -4    0.98    1.43
  -1  11   3   -0.05    1.23
   1 -11  -3    0.29    1.28
  -1  11   2   11.45    1.58
   1 -11  -2    7.63    1.41
  -1  11   1   17.37    1.58
   1 -11  -1   17.44    1.53
  -1  11   0   10.79    1.46
   1 -11   0   10.62    1.34
  -1  11  -1   18.08    1.46
   1 -11   1   16.77    1.32
  -1  11  -2   14.78    1.48
   1 -11   2   14.01    1.49
  -1  11  -3    2.43    1.56
   1 -11   3    3.54    1.31
  -1  11  -4    3.71    1.45
   1 -11   4    3.12    1.34
  -1  11  -5    2.79    1.60
   1 -11   5    0.81    1.73
  -1  11  -6    3.10    2.20
   1 -11   6    3.81    3.14
  -1  11  -7    9.97    2.16
   1 -11   7   12.50    2.35
  -1  11  -8   -0.84    2.12
   1 -11   8    1.14    2.04
  -1  11  -9    2.76    4.36
   1 -11   9   -1.71    4.05
  -1  12   7   -0.82    2.65
   1 -12  -7    0.32    2.10
  -1  12   6   16.52    2.69
   1 -12  -6   10.27    2.65
  -1  12   5   -0.13    3.40
   1 -12  -5    1.07    1.85
   1 -12  -4    7.99    2.02
  -1  12   3    2.39    1.91
   1 -12  -3    2.17    1.33
  -1  12   2    2.04    1.53
   1 -12  -2    0.12    1.32
  -1  12   1   28.40    1.63
   1 -12  -1   32.85    2.65
   1 -12   0   46.02    2.62
  -1  12  -1   24.34    1.78
   1 -12   1   28.72    1.73
  -1  12  -2    3.83    1.14
   1 -12   2    2.39    0.99
  -1  12  -3    7.15    1.86
   1 -12   3    6.32    1.81
  -1  12  -4    5.23    3.57
   1 -12   4    5.57    2.70
  -1  12  -5    1.01    2.57
   1 -12   7    0.32    2.72
  -1  12  -8    0.42    2.22
   1 -12  11    0.55    1.27
   1 -13  -4    2.02    2.18
  -1  13  -5    2.11    2.81
   1 -13   5    0.06    2.11
   1 -13   6    3.22    2.40
   1 -13   7   -1.14    2.14
   2  10 -11    1.38    2.50
  -2 -10   9    5.10    3.78
   2  10  -9    1.78    4.08
  -2 -10   8    8.73    2.15
   2  10  -8    7.38    1.93
   2  10  -7   -0.34    1.27
  -2 -10  -8    3.08    2.18
   2  10   8    1.24    2.67
  -2 -10  -9    3.65    2.29
   2  10   9    4.24    2.57
   2  10  10    4.72    2.37
   2   9 -10   12.52    2.99
  -2  -9   9    1.28    1.19
   2   9  -9   11.40    2.93
  -2  -9   8   -1.19    2.07
   2   9  -8   -0.62    2.25
  -2  -9   7   50.94    4.09
   2   9  -7   56.97    4.25
  -2  -9   6    0.56    1.57
   2   9  -6   -1.24    1.29
  -2  -9  -6    3.44    1.57
   2   9   6    3.09    1.98
  -2  -9  -7   11.82    2.05
   2   9   7   12.62    1.94
  -2  -9  -8    1.74    1.90
   2   9   8    1.60    1.97
  -2  -9  -9    6.94    3.04
   2   9   9    0.43    1.79
  -2  -9 -10    1.58    2.52
   2   9  10    3.84    1.94
   2   9  11   16.06    3.62
   2   8 -11    0.68    1.56
  -2  -8  10   -0.18    2.18
   2   8 -10   -1.91    2.38
  -2  -8   9    1.41    1.78
   2   8  -9    1.09    1.90
  -2  -8   8    2.49    2.01
   2   8  -8    3.73    2.21
  -2  -8   7    7.82    1.69
   2   8  -7    5.08    1.72
  -2  -8   6   -0.70    2.10
   2   8  -6    0.34    1.99
  -2  -8   5    0.26    1.06
   2   8  -5   -0.16    1.03
  -2  -8  -4    0.86    0.61
   2   8   4    2.51    0.98
  -2  -8  -5    0.85    0.97
   2   8   5    2.80    1.13
  -2  -8  -6    5.08    1.33
   2   8   6    2.52    1.98
  -2  -8  -7    1.41    1.35
   2   8   7    1.57    2.36
  -2  -8  -8    1.43    1.51
   2   8   8    0.52    2.77
  -2  -8  -9    7.44    2.71
   2   8   9   17.25    3.73
  -2  -8 -10    1.56    2.59
  -2  -8 -11    0.16    2.89
  -2  -7  14    0.01    1.49
   2   7 -13    1.03    2.20
  -2  -7  12    1.75    2.63
   2   7 -12    2.97    2.39
  -2  -7  11   -0.24    3.14
   2   7 -11    3.78    2.38
  -2  -7  10   32.98    3.49
   2   7 -10   27.64    2.86
  -2  -7   9   10.32    2.77
   2   7  -9    5.11    2.42
  -2  -7   8   16.33    2.55
   2   7  -8   18.96    2.42
  -2  -7   7    1.00    1.81
   2   7  -7    0.25    1.59
  -2  -7   6   21.45    1.95
   2   7  -6   22.02    1.78
  -2  -7   5    2.38    1.19
   2   7  -5    3.04    1.20
  -2  -7   4   24.09    1.39
   2   7  -4   27.32    1.33
  -2  -7  -3    0.39    0.51
   2   7   3    0.00    0.76
  -2  -7  -4    1.12    0.88
   2   7   4   -0.28    1.38
  -2  -7  -5    5.18    1.14
   2   7   5    4.99    1.27
  -2  -7  -6    0.66    1.31
   2   7   6    1.41    1.39
  -2  -7  -7    7.85    1.81
   2   7   7   10.59    1.76
  -2  -7  -8   21.64    3.80
   2   7   8   14.74    2.04
  -2  -7  -9    5.87    3.47
   2   7   9    4.86    1.90
  -2  -7 -10   18.14    2.82
   2   7  10   17.78    2.65
  -2  -7 -11    5.14    2.26
   2   7  11    5.37    2.41
  -2  -7 -12    0.23    2.13
   2   7  12   -0.74    1.78
  -2  -7 -13   15.87    3.03
   2   7  13   -0.14    2.20
  -2  -6  14   -0.64    2.71
  -2  -6  13   -0.21    1.68
   2   6 -13   -1.63    4.31
  -2  -6  12   -0.25    2.48
   2   6 -12    0.84    2.39
  -2  -6  11   -0.81    1.81
   2   6 -11   -0.50    2.48
  -2  -6  10   -1.16    2.21
   2   6 -10   -0.92    2.20
  -2  -6   9   -1.82    1.98
   2   6  -9   -1.07    1.89
  -2  -6   8    0.51    2.03
   2   6  -8   -0.75    1.84
  -2  -6   7   -0.02    1.56
   2   6  -7   -0.15    1.56
  -2  -6   6   18.40    2.36
   2   6  -6   20.40    1.86
  -2  -6   5  192.61    8.32
   2   6  -5  219.93    6.66
  -2  -6   4   18.10    1.91
   2   6  -4   20.53    1.32
  -2  -6   3  119.59    3.39
   2   6  -3  119.74    3.28
  -2  -6  -2  311.45    7.31
   2   6   2  312.44    7.19
  -2  -6  -3  105.54    3.27
   2   6   3  107.50    3.24
  -2  -6  -4    6.26    0.99
   2   6   4    7.06    1.08
  -2  -6  -5    4.54    0.99
   2   6   5    4.19    1.14
  -2  -6  -6    0.87    1.22
   2   6   6   -0.57    1.38
  -2  -6  -7   31.76    4.08
   2   6   7   31.06    2.35
  -2  -6  -8    0.44    1.57
   2   6   8    0.06    1.70
  -2  -6  -9    2.80    1.71
   2   6   9    1.20    2.02
  -2  -6 -10    3.69    1.84
   2   6  10    2.07    1.90
  -2  -6 -11    2.30    2.15
   2   6  11    0.37    2.13
  -2  -6 -12    0.18    3.08
   2   6  12    0.94    1.36
  -2  -6 -13    2.46    1.96
   2   6  13    0.07    2.24
  -2  -6 -14   -0.15    2.61
   2   6  14    1.05    1.78
  -2  -5  15    6.76    2.30
  -2  -5  14    1.33    1.68
   2   5 -14   -0.75    3.09
  -2  -5  13   12.16    2.81
   2   5 -13   10.69    3.00
  -2  -5  12   15.26    2.80
   2   5 -12   14.25    2.50
  -2  -5  11    2.02    2.22
   2   5 -11    1.52    2.04
  -2  -5  10    1.01    1.90
   2   5 -10   -0.04    1.87
  -2  -5   9    2.01    1.90
   2   5  -9    2.67    1.83
  -2  -5   8    0.82    1.60
   2   5  -8    1.62    1.66
  -2  -5   7    7.31    1.59
   2   5  -7    8.43    1.66
  -2  -5   6   60.79    2.74
   2   5  -6   60.10    2.89
  -2  -5   5  121.30    3.91
   2   5  -5  123.38    4.10
  -2  -5   4  131.34    4.42
   2   5  -4  137.84    4.58
  -2  -5   3   30.86    1.47
   2   5  -3   29.96    1.47
  -2  -5   2  110.63    4.98
   2   5  -2  111.29    3.12
  -2  -5   1   20.24    0.81
   2   5  -1   18.77    0.82
  -2  -5  -1    0.62    0.44
   2   5   1   -0.14    0.76
  -2  -5  -2    7.90    0.65
   2   5   2    7.80    0.73
  -2  -5  -3    0.75    0.72
   2   5   3    1.63    1.43
  -2  -5  -4   67.42    2.68
   2   5   4   63.54    2.75
  -2  -5  -5    6.24    1.14
   2   5   5    6.85    1.29
  -2  -5  -6   40.41    3.22
   2   5   6   37.95    2.09
  -2  -5  -7    3.05    1.25
   2   5   7    4.34    1.43
  -2  -5  -8    2.09    1.61
   2   5   8    3.17    1.51
  -2  -5  -9    8.76    1.83
   2   5   9    7.01    1.72
  -2  -5 -10    2.22    1.95
   2   5  10    2.79    2.19
  -2  -5 -11   23.88    2.58
   2   5  11   25.34    2.40
  -2  -5 -12    5.22    2.27
   2   5  12    5.62    2.26
  -2  -5 -13    0.31    1.56
   2   5  13   -0.52    1.32
  -2  -5 -14    0.15    2.38
  -2  -5 -15    1.22    2.02
   2   5  15   -0.70    1.96
  -2  -4  15   -2.70    3.19
   2   4 -15    1.73    2.54
  -2  -4  14    1.86    2.51
   2   4 -14    0.83    3.87
  -2  -4  13   29.22    2.45
   2   4 -13   25.67    2.61
  -2  -4  12   14.95    2.15
   2   4 -12    8.11    1.90
  -2  -4  11    1.27    2.03
   2   4 -11    1.11    2.06
  -2  -4  10    3.01    1.82
   2   4 -10    2.28    1.84
  -2  -4   9    4.67    1.80
   2   4  -9    6.93    1.87
  -2  -4   8    2.21    1.54
   2   4  -8    1.31    1.45
  -2  -4   7   25.53    2.02
   2   4  -7   25.40    2.12
  -2  -4   6    2.14    1.36
   2   4  -6    1.77    1.20
  -2  -4   5    4.84    1.20
   2   4  -5    6.73    1.20
  -2  -4   4  134.26    4.65
   2   4  -4  142.73    5.03
  -2  -4   3    5.59    0.86
   2   4  -3    5.63    0.82
  -2  -4   2   60.25    2.20
   2   4  -2   66.19    2.31
  -2  -4   1    8.60    0.65
   2   4  -1    8.22    0.67
  -2  -4   0  271.74    7.34
   2   4   0  271.01    7.29
  -2  -4  -1    1.28    0.48
   2   4   1    1.02    0.50
  -2  -4  -2    0.80    0.56
   2   4   2    1.24    0.95
  -2  -4  -3   72.31    2.75
   2   4   3   67.97    2.68
  -2  -4  -4   32.45    1.69
   2   4   4   30.94    1.78
  -2  -4  -5  257.93    7.96
   2   4   5  242.77    7.52
  -2  -4  -6   10.75    1.35
   2   4   6   12.23    1.41
  -2  -4  -7  122.58    5.39
   2   4   7  118.16    4.90
  -2  -4  -8    3.12    1.48
   2   4   8    2.80    1.63
  -2  -4  -9    8.14    1.77
   2   4   9    6.33    1.77
  -2  -4 -10    4.09    1.81
   2   4  10    2.64    1.81
  -2  -4 -11    1.81    2.23
   2   4  11    0.07    2.02
  -2  -4 -12    1.37    2.22
   2   4  12    0.25    1.85
  -2  -4 -13   -0.99    2.38
   2   4  13    1.22    1.75
  -2  -4 -14    1.04    1.69
   2   4  14    1.00    2.29
  -2  -4 -15    0.56    1.66
   2   4  15    7.22    2.09
  -2  -3  16    0.26    2.26
   2   3 -16    0.57    1.63
  -2  -3  15   -0.72    3.16
   2   3 -15   -0.79    1.85
  -2  -3  14   10.83    2.53
   2   3 -14    4.89    2.43
  -2  -3  13    1.47    2.14
   2   3 -13    0.42    1.80
  -2  -3  12   16.29    2.39
   2   3 -12   13.33    2.40
  -2  -3  11    5.94    1.96
   2   3 -11    3.29    1.86
  -2  -3  10   -1.30    1.75
   2   3 -10    1.32    1.74
  -2  -3   9   23.65    2.12
   2   3  -9   24.27    2.20
  -2  -3   8   62.41    3.25
   2   3  -8   61.42    3.45
  -2  -3   7   49.51    2.95
   2   3  -7   53.44    3.10
  -2  -3   6    5.70    1.33
   2   3  -6    4.97    1.24
  -2  -3   5   50.36    2.75
   2   3  -5   52.03    2.91
  -2  -3   4   63.60    2.57
   2   3  -4   70.40    3.00
  -2  -3   3   49.72    2.39
   2   3  -3   53.17    2.57
  -2  -3   2    0.35    0.69
   2   3  -2    0.47    0.66
  -2  -3   1   12.72    0.82
   2   3  -1   13.28    0.78
  -2  -3   0   77.48    2.55
   2   3   0   76.10    2.62
  -2  -3  -1  186.01    5.77
   2   3   1  183.57    7.20
  -2  -3  -2    0.12    0.54
   2   3   2    0.34    0.55
  -2  -3  -3   23.01    1.30
   2   3   3   22.24    1.29
  -2  -3  -4  127.64    4.48
   2   3   4  124.83    4.49
  -2  -3  -5   68.46    2.85
   2   3   5   62.18    2.49
  -2  -3  -6  215.15    7.36
   2   3   6  206.83    6.88
  -2  -3  -7   18.03    1.68
   2   3   7   17.36    1.60
  -2  -3  -8    4.75    1.45
   2   3   8    4.63    1.47
  -2  -3  -9    2.49    1.61
   2   3   9    0.87    1.59
  -2  -3 -10   21.87    2.31
   2   3  10   23.26    2.18
  -2  -3 -11    6.35    1.84
   2   3  11    6.25    1.63
  -2  -3 -12   11.49    2.70
   2   3  12    0.95    2.10
  -2  -3 -13   12.70    2.98
   2   3  13    7.44    2.34
  -2  -3 -14    1.07    1.02
   2   3  14    1.26    1.72
  -2  -3 -15   15.94    2.64
   2   3  15   19.37    3.86
  -2  -2  16   -1.71    2.46
   2   2 -16    6.39    2.05
  -2  -2  15   12.85    1.97
   2   2 -15    6.40    1.63
  -2  -2  14   20.90    2.14
   2   2 -14   16.43    2.30
  -2  -2  13   13.36    2.59
   2   2 -13    8.28    2.27
  -2  -2  12    2.90    1.93
   2   2 -12    1.35    1.78
  -2  -2  11    8.98    1.76
   2   2 -11   10.93    1.84
  -2  -2  10    0.26    1.54
   2   2 -10   -1.54    1.58
  -2  -2   9    4.69    1.56
   2   2  -9    6.54    1.59
  -2  -2   8   16.57    1.77
   2   2  -8   15.51    1.82
  -2  -2   7   93.35    4.06
   2   2  -7   93.66    4.27
  -2  -2   6   -0.01    1.05
   2   2  -6    0.60    1.12
  -2  -2   5    1.67    1.14
   2   2  -5   -1.11    0.90
  -2  -2   4   60.18    2.58
   2   2  -4   66.04    2.99
  -2  -2   3   11.40    1.04
   2   2  -3   12.05    1.14
  -2  -2   2   32.41    1.73
   2   2  -2   35.84    1.82
  -2  -2   1  104.95    3.24
   2   2  -1  108.74    3.44
  -2  -2   0  586.75   14.15
   2   2   0  620.68   14.84
  -2  -2  -1   50.56    1.91
   2   2   1   51.77    1.95
  -2  -2  -2  517.31   13.86
   2   2   2  509.31   13.76
  -2  -2  -3    4.99    0.78
   2   2   3    5.17    0.78
  -2  -2  -4   71.72    2.79
   2   2   4   65.78    2.72
  -2  -2  -5   75.74    3.50
   2   2   5   73.07    3.25
  -2  -2  -6   11.88    1.20
   2   2   6    8.49    1.06
  -2  -2  -7  128.30    4.77
   2   2   7  122.80    4.73
  -2  -2  -8   30.45    2.10
   2   2   8   29.10    2.11
  -2  -2  -9    2.67    1.52
   2   2   9    1.70    1.58
  -2  -2 -10    5.38    1.73
   2   2  10    5.74    1.72
  -2  -2 -11   -0.79    1.72
   2   2  11   -0.97    1.63
  -2  -2 -12   -0.29    2.19
   2   2  12    1.78    1.92
  -2  -2 -13   14.85    2.47
   2   2  13   14.12    2.13
  -2  -2 -14    2.44    2.66
   2   2  14   -0.12    2.03
  -2  -2 -15    0.72    1.31
   2   2  15    0.73    1.64
  -2  -1  16   -0.66    1.58
   2   1 -16    0.65    1.31
  -2  -1  15   -0.07    1.76
   2   1 -15    1.21    1.58
  -2  -1  14   11.05    2.90
   2   1 -14    9.54    2.33
  -2  -1  13    3.21    2.10
   2   1 -13    0.36    2.02
  -2  -1  12    5.15    2.05
   2   1 -12    3.74    1.92
  -2  -1  11    5.16    1.75
   2   1 -11    3.94    1.65
  -2  -1  10   -1.85    1.49
   2   1 -10   -0.22    1.38
  -2  -1   9   67.03    3.26
   2   1  -9   72.94    3.40
  -2  -1   8    3.43    1.54
   2   1  -8    3.54    1.60
  -2  -1   7    1.92    1.43
   2   1  -7    2.13    1.51
  -2  -1   6    1.96    1.16
   2   1  -6    2.82    1.16
  -2  -1   5    8.43    1.29
   2   1  -5    8.47    1.29
  -2  -1   4   25.51    1.72
   2   1  -4   27.64    1.94
  -2  -1   3    0.18    0.90
   2   1  -3    0.23    0.95
  -2  -1   2  148.50    5.28
   2   1  -2  150.95    5.49
  -2  -1   1   63.71    2.36
   2   1  -1   63.12    2.43
  -2  -1   0   14.03    0.81
   2   1   0   13.53    0.84
  -2  -1  -1  675.22   16.44
   2   1   1  660.57   16.46
  -2  -1  -2   11.29    0.87
   2   1   2   12.13    0.98
  -2  -1  -3  116.33    4.39
   2   1   3  111.79    4.37
  -2  -1  -4   99.65    4.43
   2   1   4  101.97    4.19
  -2  -1  -5   12.53    1.34
   2   1   5   11.18    1.13
  -2  -1  -6    5.09    1.18
   2   1   6    3.95    1.05
  -2  -1  -7   17.01    1.54
   2   1   7   14.50    1.50
  -2  -1  -8    0.12    1.47
   2   1   8   -0.21    1.42
  -2  -1  -9  218.32    7.59
   2   1   9  198.66    7.16
  -2  -1 -10   -0.20    1.57
   2   1  10    1.40    1.57
  -2  -1 -11    7.91    1.74
   2   1  11    7.86    1.71
  -2  -1 -12   -1.02    1.96
   2   1  12   -0.78    1.84
  -2  -1 -13   -2.19    3.93
   2   1  13    0.80    2.00
  -2  -1 -14   52.92    3.24
   2   1  14   53.56    2.59
  -2  -1 -15   -0.92    1.79
   2   1  15    0.65    1.75
  -2  -1 -16    4.74    1.25
   2   1  16    8.76    1.58
  -2   0  16   -0.39    1.35
   2   0 -16   -2.85    3.55
  -2   0  15   -0.72    2.27
   2   0 -15    1.56    1.77
  -2   0  14   -0.27    2.58
   2   0 -14    1.31    2.02
  -2   0  13    0.19    2.27
   2   0 -13    3.46    2.21
  -2   0  12    0.06    1.86
   2   0 -12    1.41    1.88
  -2   0  11    3.25    1.59
   2   0 -11    2.33    1.63
  -2   0  10    1.10    1.72
   2   0 -10   -1.61    1.69
  -2   0   9   94.65    4.20
   2   0  -9   85.68    4.21
  -2   0   8   96.40    4.12
   2   0  -8   92.98    4.13
  -2   0   7    6.46    1.37
   2   0  -7    6.20    1.47
  -2   0   6    2.70    1.21
   2   0  -6    1.49    1.30
  -2   0   5   32.15    2.18
   2   0  -5   36.03    2.54
  -2   0   4    2.51    1.00
   2   0  -4    3.63    1.03
  -2   0   3   39.97    2.00
   2   0  -3   40.79    2.14
  -2   0   2   17.71    1.33
   2   0  -2   20.49    1.51
  -2   0   1    1.63    0.66
   2   0  -1    0.97    0.62
  -2   0   0    0.22    0.57
   2   0   0   -0.14    0.59
  -2   0  -1  128.33    3.96
   2   0   1  124.78    3.98
  -2   0  -2   38.76    1.97
   2   0   2   40.37    1.95
  -2   0  -3   -0.41    0.70
   2   0   3    0.16    0.65
  -2   0  -4    5.59    0.88
   2   0   4    4.89    0.86
  -2   0  -5    5.90    1.09
   2   0   5    4.30    1.07
  -2   0  -6    2.45    1.83
   2   0   6    0.76    1.07
  -2   0  -7    5.68    1.35
   2   0   7    6.59    1.24
  -2   0  -8   21.02    1.80
   2   0   8   20.04    1.76
  -2   0  -9   36.15    2.52
   2   0   9   34.61    2.58
  -2   0 -10   68.54    3.57
   2   0  10   63.75    3.32
  -2   0 -11    7.09    1.65
   2   0  11    5.14    1.57
  -2   0 -12    3.57    2.00
   2   0  12    1.13    1.45
  -2   0 -13   -0.07    0.74
   2   0  13    0.58    0.63
  -2   0 -14   -0.38    1.87
   2   0  14    0.44    1.61
  -2   0 -15    6.45    2.30
   2   0  15    6.93    1.38
  -2   0 -16   -0.23    1.20
   2   0  16    0.51    1.58
  -2   1  16    6.46    1.96
  -2   1  15    2.36    1.70
   2  -1 -15    1.64    1.51
  -2   1  14    2.83    2.17
   2  -1 -14    2.32    2.24
  -2   1  13   -0.23    2.41
   2  -1 -13   -1.55    2.05
  -2   1  12   13.88    2.20
   2  -1 -12   11.58    2.05
  -2   1  11    1.90    1.58
   2  -1 -11   -0.72    1.60
  -2   1  10    1.22    1.61
   2  -1 -10    2.07    1.79
  -2   1   9   80.59    3.64
   2  -1  -9   70.80    3.30
  -2   1   8   -0.65    1.54
   2  -1  -8    0.11    1.44
  -2   1   7  160.53    5.98
   2  -1  -7  159.34    6.12
  -2   1   6   12.97    1.45
   2  -1  -6   11.46    1.67
  -2   1   5  121.42    4.16
   2  -1  -5  124.82    4.39
  -2   1   4    4.16    0.98
   2  -1  -4    5.12    1.09
  -2   1   3   14.99    1.21
   2  -1  -3   14.71    1.32
  -2   1   2   38.28    1.98
   2  -1  -2   40.97    2.13
  -2   1   1  115.36    3.66
   2  -1  -1  117.90    3.79
  -2   1   0    2.93    0.66
   2  -1   0    3.45    0.66
  -2   1  -1   39.31    1.75
   2  -1   1   38.85    1.73
  -2   1  -2   36.66    1.66
   2  -1   2   36.41    1.58
  -2   1  -3    2.28    0.69
   2  -1   3    1.51    0.68
  -2   1  -4    5.89    1.00
   2  -1   4    4.56    0.99
  -2   1  -5    0.40    0.84
   2  -1   5    0.42    0.79
  -2   1  -6   14.94    1.70
   2  -1   6   16.78    1.56
  -2   1  -7   15.03    2.37
   2  -1   7   12.82    1.48
  -2   1  -8    8.56    1.55
   2  -1   8    6.61    1.50
  -2   1  -9   73.06    3.31
   2  -1   9   70.41    3.17
  -2   1 -10   48.96    3.02
   2  -1  10   46.85    2.66
  -2   1 -11   16.10    2.03
   2  -1  11   13.16    1.93
  -2   1 -12    0.33    1.59
   2  -1  12   -0.92    1.37
  -2   1 -13    3.15    3.97
   2  -1  13    1.53    1.63
  -2   1 -14   -0.65    1.92
   2  -1  14    0.80    1.34
  -2   1 -15    1.04    1.58
   2  -1  15   -0.40    1.22
  -2   1 -16    0.25    1.45
   2  -1  16   -0.41    1.09
  -2   2  15   -1.42    2.41
  -2   2  14   12.16    2.27
   2  -2 -14   15.17    2.49
  -2   2  13   17.12    2.40
   2  -2 -13   15.83    2.50
  -2   2  12   27.43    2.54
   2  -2 -12   22.84    2.41
  -2   2  11    1.81    1.61
   2  -2 -11    0.93    1.85
  -2   2  10   15.71    1.94
   2  -2 -10   10.89    1.74
  -2   2   9   11.57    1.79
   2  -2  -9   10.88    1.81
  -2   2   8  142.82    5.45
   2  -2  -8  136.05    5.89
  -2   2   7   42.01    2.84
   2  -2  -7   41.64    3.04
  -2   2   6   97.80    4.30
   2  -2  -6   94.46    3.96
  -2   2   5   82.56    3.72
   2  -2  -5   82.21    3.90
  -2   2   4    2.41    0.94
   2  -2  -4    0.60    1.09
  -2   2   3    0.78    0.83
   2  -2  -3   -0.37    0.81
  -2   2   2   90.38    3.26
   2  -2  -2   90.71    3.51
  -2   2   1    1.50    0.62
   2  -2  -1    1.66    0.62
  -2   2   0  812.17   20.25
   2  -2   0  862.00   20.88
  -2   2  -1    8.39    0.84
   2  -2   1    7.44    0.70
  -2   2  -2    1.41    0.88
   2  -2   2    1.26    0.64
  -2   2  -3   21.85    2.21
   2  -2   3   23.56    1.47
  -2   2  -4   21.46    1.53
   2  -2   4   18.89    1.34
  -2   2  -5    6.04    1.07
   2  -2   5    4.23    1.07
  -2   2  -6    6.96    1.09
   2  -2   6    3.91    1.06
  -2   2  -7   11.49    1.45
   2  -2   7    8.45    1.35
  -2   2  -8   29.07    1.88
   2  -2   8   25.64    1.77
  -2   2  -9   15.35    2.58
   2  -2   9   13.90    1.63
  -2   2 -10   61.67    3.19
   2  -2  10   54.81    3.08
  -2   2 -11    2.45    1.74
   2  -2  11    0.07    1.69
  -2   2 -12    1.92    1.14
   2  -2  12    2.60    1.47
  -2   2 -13    4.61    2.40
   2  -2  13    5.62    1.53
  -2   2 -14    3.07    2.56
   2  -2  14   -1.09    1.75
  -2   2 -15    8.00    1.82
   2  -2  15    1.17    1.27
   2  -2  16   -1.53    1.52
  -2   3  15   -0.26    1.14
   2  -3 -15   -0.28    1.08
  -2   3  14    1.29    1.81
   2  -3 -14    4.18    2.19
  -2   3  13   -0.40    1.51
   2  -3 -13   -0.86    1.80
  -2   3  12    5.56    2.07
   2  -3 -12    5.62    2.18
  -2   3  11    1.52    1.63
   2  -3 -11    0.39    1.81
  -2   3  10    1.29    1.43
   2  -3 -10    0.72    1.64
  -2   3   9    4.81    1.56
   2  -3  -9    2.90    1.61
  -2   3   8   51.00    2.77
   2  -3  -8   49.22    3.21
  -2   3   7   48.92    2.69
   2  -3  -7   48.55    2.94
  -2   3   6    2.63    1.05
   2  -3  -6    3.01    1.29
  -2   3   5   94.81    3.86
   2  -3  -5   86.64    3.48
  -2   3   4   68.13    3.12
   2  -3  -4   67.71    3.13
  -2   3   3   15.62    1.37
   2  -3  -3   15.34    1.24
  -2   3   2   43.95    1.97
   2  -3  -2   40.79    1.90
  -2   3   1    1.87    0.77
   2  -3  -1    2.84    0.81
  -2   3   0  601.66   15.08
   2  -3   0  615.15   15.03
  -2   3  -1  664.62   15.57
   2  -3   1  671.54   15.52
  -2   3  -2   15.29    1.16
   2  -3   2   17.17    1.14
  -2   3  -3    5.52    0.96
   2  -3   3    4.20    0.91
  -2   3  -4   -0.73    0.93
   2  -3   4   -0.04    0.86
  -2   3  -5   15.61    1.46
   2  -3   5   16.87    1.36
  -2   3  -6    8.94    1.25
   2  -3   6    8.89    1.31
  -2   3  -7    2.95    1.16
   2  -3   7    2.44    1.17
  -2   3  -8   23.32    2.14
   2  -3   8   19.52    1.96
  -2   3  -9    3.59    1.73
   2  -3   9    1.21    1.30
  -2   3 -10    3.52    1.64
   2  -3  10    4.04    1.45
  -2   3 -11    2.87    1.60
   2  -3  11    1.85    1.40
  -2   3 -12   -0.15    2.82
   2  -3  12   -2.03    1.98
  -2   3 -13    7.67    2.04
   2  -3  13    8.28    2.23
  -2   3 -14   27.97    2.41
   2  -3  14   33.85    2.46
  -2   3 -15    2.87    2.01
   2  -3  15    2.12    1.75
  -2   4  15    1.64    1.53
   2  -4 -15    1.76    2.02
  -2   4  14   12.50    2.33
   2  -4 -14    9.54    2.32
  -2   4  13   24.78    2.51
   2  -4 -13   23.12    2.46
  -2   4  12   27.81    2.12
   2  -4 -12   32.29    2.13
  -2   4  11    7.45    2.35
   2  -4 -11   11.08    1.99
  -2   4  10   -0.62    1.57
   2  -4 -10   -0.60    1.67
  -2   4   9    5.76    1.62
   2  -4  -9    5.63    1.62
  -2   4   8   10.69    1.72
   2  -4  -8    9.23    1.69
  -2   4   7  100.77    4.35
   2  -4  -7   95.96    4.42
  -2   4   6    0.45    1.21
   2  -4  -6   -0.46    1.30
  -2   4   5    7.74    1.24
   2  -4  -5    8.99    1.27
  -2   4   4   91.90    3.79
   2  -4  -4   87.85    3.60
  -2   4   3   42.26    2.05
   2  -4  -3   44.75    2.22
  -2   4   2  207.03    6.22
   2  -4  -2  207.41    6.40
  -2   4   1    2.07    0.77
   2  -4  -1    2.10    0.88
  -2   4   0   75.95    2.67
   2  -4   0   70.67    2.63
  -2   4  -1   52.95    1.95
   2  -4   1   53.97    2.00
  -2   4  -2  143.82    4.58
   2  -4   2  139.38    4.60
  -2   4  -3    5.45    0.84
   2  -4   3    5.02    0.86
  -2   4  -4   29.40    1.84
   2  -4   4   29.15    1.85
  -2   4  -5   71.08    3.17
   2  -4   5   73.78    3.06
  -2   4  -6   53.52    2.76
   2  -4   6   53.08    2.57
  -2   4  -7   15.91    1.62
   2  -4   7   17.02    1.56
  -2   4  -8   29.71    2.07
   2  -4   8   26.97    2.09
  -2   4  -9   30.68    2.45
   2  -4   9   26.94    2.58
  -2   4 -10    2.17    1.63
   2  -4  10   -0.94    1.44
  -2   4 -11    0.51    1.76
   2  -4  11    2.10    1.97
  -2   4 -12    1.45    1.76
   2  -4  12    0.70    1.53
  -2   4 -13   -0.08    2.25
   2  -4  13    2.73    2.08
  -2   4 -14    1.97    2.06
   2  -4  14    1.63    2.49
  -2   4 -15   15.15    2.29
   2  -4  15   16.46    2.25
  -2   5  15   -0.76    2.26
   2  -5 -15    7.14    2.75
  -2   5  14    0.43    1.74
   2  -5 -14    2.07    1.63
  -2   5  13    1.44    2.07
   2  -5 -13    0.32    2.06
  -2   5  12    6.01    2.05
   2  -5 -12    4.96    1.92
  -2   5  11    1.31    1.77
   2  -5 -11   -0.59    1.69
  -2   5  10    6.38    1.69
   2  -5 -10    7.51    1.73
  -2   5   9    5.18    1.47
   2  -5  -9    3.56    1.53
  -2   5   8    9.42    1.81
   2  -5  -8    6.59    1.66
  -2   5   7    2.06    1.29
   2  -5  -7    3.08    1.48
  -2   5   6   30.15    2.12
   2  -5  -6   27.37    2.16
  -2   5   5   24.94    2.02
   2  -5  -5   25.86    1.98
  -2   5   4  505.01   13.13
   2  -5  -4  463.74   12.00
  -2   5   3    1.85    0.84
   2  -5  -3    1.37    1.11
  -2   5   2    2.19    0.79
   2  -5  -2    1.89    0.83
  -2   5   1   22.22    1.39
   2  -5  -1   21.27    1.31
  -2   5   0   22.57    1.36
   2  -5   0   20.55    1.13
  -2   5  -1  299.78    7.59
   2  -5   1  311.72    8.32
  -2   5  -2    3.87    0.84
   2  -5   2    3.07    0.80
  -2   5  -3   29.85    1.39
   2  -5   3   30.80    1.47
  -2   5  -4    5.66    1.01
   2  -5   4    6.21    1.08
  -2   5  -5   74.24    2.57
   2  -5   5   82.27    2.47
  -2   5  -6    1.07    1.31
   2  -5   6   -0.09    1.12
  -2   5  -7   10.46    1.38
   2  -5   7   11.76    1.38
  -2   5  -8   29.87    2.18
   2  -5   8   29.72    2.09
  -2   5  -9    2.72    1.39
   2  -5   9    3.95    1.64
  -2   5 -10    3.65    1.75
   2  -5  10    1.65    1.55
  -2   5 -11    4.68    1.62
   2  -5  11    4.37    1.66
  -2   5 -12   -0.40    1.53
   2  -5  12   -1.44    1.39
  -2   5 -13    7.71    1.75
   2  -5  13   12.49    2.22
  -2   5 -14    6.66    2.00
   2  -5  14    9.21    2.21
  -2   5 -15    1.40    1.58
   2  -5  15   -1.09    1.86
  -2   6  14    1.02    1.45
   2  -6 -14   -0.18    1.85
  -2   6  13    0.20    1.81
   2  -6 -13    0.75    1.56
  -2   6  12   14.20    1.84
   2  -6 -12    8.20    1.59
  -2   6  11   10.73    2.04
   2  -6 -11    6.86    1.86
  -2   6  10    2.23    1.91
   2  -6 -10    2.39    1.85
  -2   6   9    2.26    1.88
   2  -6  -9   -0.12    1.87
  -2   6   8    1.72    1.77
   2  -6  -8   -0.55    1.79
  -2   6   7   40.44    2.86
   2  -6  -7   37.79    2.66
  -2   6   6   14.75    1.85
   2  -6  -6   13.62    1.89
  -2   6   5   -0.61    1.27
   2  -6  -5   -0.81    1.44
  -2   6   4   10.00    1.45
   2  -6  -4    8.32    1.33
  -2   6   3  124.09    4.49
   2  -6  -3  120.30    4.32
  -2   6   2    5.37    1.00
   2  -6  -2    7.81    1.12
  -2   6   1   17.00    1.30
   2  -6  -1   16.67    1.19
  -2   6   0   96.13    3.06
   2  -6   0  101.53    3.17
  -2   6  -1   39.75    1.78
   2  -6   1   41.96    1.83
  -2   6  -2    5.76    0.94
   2  -6   2    5.66    0.87
  -2   6  -3   24.81    1.56
   2  -6   3   27.55    1.51
  -2   6  -4  113.56    3.73
   2  -6   4  121.46    3.67
  -2   6  -5  220.74    6.42
   2  -6   5  236.92    6.58
  -2   6  -6    3.37    1.24
   2  -6   6    4.57    1.29
  -2   6  -7   -2.79    2.02
   2  -6   7    0.10    1.19
  -2   6  -8   31.15    2.22
   2  -6   8   31.00    2.17
  -2   6  -9    0.60    1.66
   2  -6   9    0.13    1.41
  -2   6 -10    4.79    1.86
   2  -6  10    5.20    1.63
  -2   6 -11    1.01    2.02
   2  -6  11    1.08    1.67
  -2   6 -12    6.86    1.81
   2  -6  12    5.95    1.68
  -2   6 -13   19.33    1.55
   2  -6  13   14.48    3.63
  -2   6 -14    2.02    1.73
   2  -6  14    1.00    3.32
  -2   6 -15    0.10    1.60
   2  -7 -14   -0.75    1.78
  -2   7  13    0.91    1.99
   2  -7 -13    2.02    1.54
  -2   7  12   11.59    2.21
   2  -7 -12    6.82    1.70
  -2   7  11   -1.33    1.93
   2  -7 -11    2.45    2.02
  -2   7  10    0.43    1.93
   2  -7 -10   -0.54    1.72
  -2   7   9    5.10    2.16
   2  -7  -9    5.23    2.12
  -2   7   8   -0.05    1.91
   2  -7  -8   -0.16    2.08
  -2   7   7    7.47    1.69
   2  -7  -7    6.84    1.75
  -2   7   6   22.38    2.13
   2  -7  -6   20.54    1.95
  -2   7   5    7.94    1.58
   2  -7  -5    8.94    1.61
  -2   7   4   27.77    2.02
   2  -7  -4   26.66    1.86
  -2   7   3  166.41    5.38
   2  -7  -3  143.67    4.85
  -2   7   2   61.70    2.67
   2  -7  -2   56.60    2.47
  -2   7   1   27.24    1.40
   2  -7  -1   26.13    1.54
  -2   7   0  124.83    4.22
   2  -7   0  130.56    4.29
  -2   7  -1   88.36    3.16
   2  -7   1   88.66    2.90
  -2   7  -2    6.44    0.93
   2  -7   2    5.52    0.89
  -2   7  -3    1.51    1.04
   2  -7   3    0.45    0.96
  -2   7  -4   10.26    1.25
   2  -7   4   11.07    1.18
  -2   7  -5  191.91    5.65
   2  -7   5  199.39    5.69
  -2   7  -6  231.34    7.00
   2  -7   6  239.44    6.99
  -2   7  -7   20.43    1.84
   2  -7   7   24.10    1.76
  -2   7  -8    4.62    1.60
   2  -7   8    5.32    1.66
  -2   7  -9    1.40    1.82
   2  -7   9    0.70    1.46
  -2   7 -10   -0.45    0.98
   2  -7  10    0.85    1.29
  -2   7 -11    1.12    1.29
   2  -7  11    0.40    1.62
  -2   7 -12    0.31    1.51
   2  -7  12    1.69    1.54
  -2   7 -13    3.80    1.69
   2  -7  13    0.36    1.65
  -2   7 -14   -0.17    1.42
   2  -7  14    0.43    1.70
   2  -8 -13   12.23    1.99
  -2   8  12   -0.87    1.74
   2  -8 -12    1.82    1.38
  -2   8  11    1.26    2.00
   2  -8 -11    1.41    1.86
  -2   8  10   15.53    2.91
   2  -8 -10   20.39    2.36
  -2   8   9    3.86    2.21
   2  -8  -9    2.04    2.10
  -2   8   8    6.43    2.12
   2  -8  -8   11.96    2.30
  -2   8   7   44.08    3.29
   2  -8  -7   41.45    2.92
  -2   8   6    0.45    1.77
   2  -8  -6    1.42    1.58
  -2   8   5    0.50    1.63
   2  -8  -5   -0.15    1.57
  -2   8   4   13.33    1.57
   2  -8  -4   15.62    1.64
  -2   8   3   25.32    2.10
   2  -8  -3   25.33    2.04
  -2   8   2   42.30    1.97
   2  -8  -2   38.17    2.00
  -2   8   1   47.92    1.91
   2  -8  -1   43.60    2.07
  -2   8   0   -0.20    0.89
   2  -8   0   -0.37    0.78
  -2   8  -1   32.60    1.73
   2  -8   1   33.77    1.75
  -2   8  -2    2.61    0.99
   2  -8   2    1.50    0.85
  -2   8  -3   -0.52    1.10
   2  -8   3    0.46    1.04
  -2   8  -4    2.89    1.36
   2  -8   4    1.27    1.23
  -2   8  -5   34.53    1.99
   2  -8   5   37.18    2.14
  -2   8  -6    1.44    1.38
   2  -8   6    1.35    1.37
  -2   8  -7    0.07    1.52
   2  -8   7   -1.65    1.47
  -2   8  -8    2.42    1.79
   2  -8   8    0.76    1.79
  -2   8  -9   28.29    2.32
   2  -8   9   34.72    2.34
  -2   8 -10    2.73    2.05
   2  -8  10    2.91    2.03
  -2   8 -11    0.87    1.39
   2  -8  11    3.70    1.65
  -2   8 -12   -0.72    2.70
   2  -8  12   -1.10    2.27
   2  -9 -13   -0.27    1.34
   2  -9 -12   -0.46    2.05
  -2   9  11   -1.17    2.46
   2  -9 -11    0.13    0.99
  -2   9  10   -1.37    2.03
   2  -9 -10    6.76    2.30
  -2   9   9   12.30    2.49
   2  -9  -9    2.56    2.40
  -2   9   8    0.74    1.87
   2  -9  -8    0.87    1.94
  -2   9   7    2.68    1.90
   2  -9  -7    3.62    2.10
  -2   9   6    0.80    2.07
   2  -9  -6   -0.86    1.80
  -2   9   5   16.52    1.90
   2  -9  -5   17.78    1.97
  -2   9   4    0.50    1.50
   2  -9  -4    1.13    1.55
  -2   9   3    0.37    1.34
   2  -9  -3   -0.02    1.33
  -2   9   2    1.26    1.32
   2  -9  -2    0.59    1.20
  -2   9   1    4.53    1.12
   2  -9  -1    1.88    1.11
  -2   9   0    8.53    1.28
   2  -9   0    6.50    1.21
  -2   9  -1  153.82    5.12
   2  -9   1  151.20    5.35
  -2   9  -2    7.70    1.22
   2  -9   2    9.07    1.12
  -2   9  -3    1.13    1.06
   2  -9   3    0.90    1.04
  -2   9  -4    5.29    1.42
   2  -9   4    5.43    1.42
  -2   9  -5   -0.41    1.59
   2  -9   5    1.40    1.51
  -2   9  -6    7.99    1.71
   2  -9   6   11.07    1.71
  -2   9  -7   -0.86    1.81
   2  -9   7   -0.72    1.78
  -2   9  -8   -0.02    1.88
   2  -9   8    1.65    2.05
  -2   9  -9    1.52    1.88
   2  -9   9    1.20    2.18
  -2   9 -10   -1.09    1.92
   2  -9  10    3.44    2.07
  -2   9 -11    2.62    2.21
   2  -9  11    0.34    2.13
  -2   9 -12   -0.57    2.27
  -2   9 -13    0.36    2.40
  -2   9 -14    0.08    1.35
   2  -9  14   -0.57    2.15
  -2  10  10    4.66    2.06
   2 -10 -10    1.17    1.88
  -2  10   9   20.83    2.93
   2 -10  -9    7.50    2.20
  -2  10   8    8.57    2.00
   2 -10  -8   12.29    2.26
  -2  10   7    1.84    1.83
   2 -10  -7    0.16    1.50
  -2  10   6   13.08    2.24
   2 -10  -6   10.10    2.38
  -2  10   5    0.26    1.84
   2 -10  -5   -0.33    1.69
  -2  10   4    6.44    1.73
   2 -10  -4    5.29    1.68
  -2  10   3   16.31    2.21
   2 -10  -3   14.79    1.61
  -2  10   2    1.59    1.27
   2 -10  -2    0.97    1.35
  -2  10   1    3.73    1.41
   2 -10  -1    2.94    1.38
  -2  10   0    2.35    1.31
   2 -10   0    3.51    1.21
  -2  10  -1   15.89    1.73
   2 -10   1   14.72    1.62
  -2  10  -2   20.52    1.89
   2 -10   2   21.18    1.78
  -2  10  -3    6.37    1.48
   2 -10   3    5.26    1.27
  -2  10  -4    0.57    1.40
   2 -10   4    1.59    1.57
  -2  10  -5    2.94    1.38
   2 -10   5    1.08    1.34
  -2  10  -6   -0.41    0.88
   2 -10   6    2.68    1.39
  -2  10  -7    6.21    1.98
   2 -10   7    6.89    1.82
  -2  10  -8   26.00    2.52
   2 -10   8   30.33    2.67
  -2  10  -9   17.47    1.99
   2 -10   9   21.59    2.32
  -2  10 -10   20.98    2.66
   2 -10  10   27.40    2.72
   2 -11 -10   13.63    4.27
  -2  11   9    1.91    1.91
   2 -11  -9    9.47    4.45
  -2  11   8   21.84    3.27
   2 -11  -8   27.39    3.36
  -2  11   7    1.87    2.34
   2 -11  -7   -0.61    2.11
  -2  11   5    0.43    1.71
   2 -11  -5   -0.31    1.43
  -2  11   4    0.77    1.66
   2 -11  -4    1.77    1.90
  -2  11   3    8.69    1.49
   2 -11  -3    7.31    1.46
  -2  11   2    0.33    1.19
   2 -11  -2    0.24    1.08
  -2  11   1    0.93    1.43
   2 -11  -1    1.29    1.45
  -2  11   0   -0.45    1.46
   2 -11   0    0.15    1.45
  -2  11  -1   -1.21    1.46
   2 -11   1   -1.20    1.71
  -2  11  -2   28.32    2.18
   2 -11   2   27.15    2.30
  -2  11  -3    8.18    1.70
   2 -11   3    9.70    1.52
  -2  11  -4    0.03    1.56
   2 -11   4    0.45    1.21
  -2  11  -5    1.13    1.44
   2 -11   5    3.44    2.35
  -2  11  -6    2.43    1.80
   2 -11   6    4.61    2.36
  -2  11  -7    3.20    2.29
   2 -11   7    0.70    2.20
  -2  11  -8   13.39    2.31
   2 -11   8    9.25    2.52
  -2  11  -9   -0.11    2.26
   2 -11   9    2.02    2.44
  -2  11 -10   14.19    4.05
   2 -11  10   16.31    4.58
  -2  12   8   17.89    2.24
  -2  12   7    0.74    2.70
   2 -12  -7   -2.47    3.35
  -2  12   5   -1.38    1.86
   2 -12  -5    6.08    3.32
  -2  12   4    2.11    1.69
   2 -12  -4   -0.01    1.99
   2 -12  -3    2.33    1.74
  -2  12   2    3.86    1.85
   2 -12  -2    2.47    1.73
  -2  12   1   -0.63    1.62
   2 -12  -1   -1.26    2.06
  -2  12   0    1.84    1.72
   2 -12   0    3.40    2.15
  -2  12  -1    0.07    2.27
   2 -12   1    4.65    1.55
  -2  12  -2   -0.10    1.81
   2 -12   2   -0.13    1.28
  -2  12  -3   -0.16    3.18
   2 -12   3    0.19    1.41
  -2  12  -4    1.18    1.63
   2 -12   4   -0.01    1.64
  -2  12  -5   -0.19    2.50
   2 -12   5   -0.85    1.48
   2 -12   6    2.02    2.00
  -2  12  -7   -0.74    3.20
   2 -12   7    0.45    2.14
  -2  12  -8   -1.55    3.32
  -2  13   6    3.68    1.58
  -2  13   1   10.19    2.40
   2 -13   0   15.67    2.49
  -2  13  -1   11.25    2.83
  -2  13  -2    0.00    1.63
  -2  13  -3    7.92    2.17
   2 -13   4    3.71    1.31
   3   9 -11   -1.97    2.55
   3   9 -10    8.12    2.45
   3   9  -9    0.35    1.73
  -3  -9   7   19.89    2.84
  -3  -9  -6    1.85    1.61
   3   9   6    0.07    1.81
   3   9   7    2.99    1.29
   3   9   8    2.10    2.42
  -3  -8  10    2.78    3.16
   3   8 -10    1.36    1.70
  -3  -8   9    0.52    2.95
   3   8  -9   -0.82    2.85
  -3  -8   8    3.41    2.80
   3   8  -8    4.36    2.11
  -3  -8   7    2.57    1.96
   3   8  -7    1.36    1.83
  -3  -8   6   22.70    2.24
   3   8  -6   26.19    1.99
  -3  -8   5    7.24    1.04
   3   8   4    0.76    0.86
  -3  -8  -5    9.98    1.70
   3   8   5   14.53    2.13
  -3  -8  -6    3.03    1.98
   3   8   6    1.84    2.98
  -3  -8  -7    4.09    3.78
   3   8   7    1.76    1.64
  -3  -8  -8   -1.52    4.62
  -3  -8  -9    7.76    4.81
   3   8   9    1.67    2.51
  -3  -8 -10   13.37    2.00
   3   8  10   15.40    2.21
  -3  -8 -11    1.80    1.50
   3   8  11   10.20    1.97
  -3  -8 -12   -0.34    1.93
   3   8  12   -0.03    1.33
   3   7 -12    5.66    2.30
  -3  -7  11   -0.93    1.33
   3   7 -10    6.37    1.70
   3   7  -9    1.50    1.70
  -3  -7   8    2.29    1.90
   3   7  -8    2.64    2.53
  -3  -7   7   14.73    2.16
   3   7  -7   18.87    2.34
  -3  -7   6   12.98    1.93
   3   7  -6   14.14    1.86
  -3  -7   5    0.66    1.26
   3   7  -5    1.83    1.44
  -3  -7   4    4.76    1.98
   3   7  -4    7.36    1.08
  -3  -7   3    1.67    0.98
  -3  -7  -3   23.16    1.45
   3   7   3   23.25    1.43
  -3  -7  -4   31.06    1.96
   3   7   4   33.18    1.97
  -3  -7  -5    0.42    1.27
   3   7   5    0.76    1.44
  -3  -7  -6   10.25    1.84
   3   7   6    9.44    1.86
  -3  -7  -7    1.77    1.73
   3   7   7    3.26    1.74
  -3  -7  -8   51.21    3.85
   3   7   8   49.91    3.32
  -3  -7  -9    2.29    2.41
   3   7   9    2.39    2.50
  -3  -7 -10    0.85    1.78
   3   7  10    2.13    2.19
  -3  -7 -11   12.93    2.53
   3   7  11   23.68    4.37
  -3  -7 -12    8.30    3.01
   3   7  12   -0.14    1.32
  -3  -7 -13    0.08    1.76
   3   7  13   -0.92    2.00
  -3  -6  15    7.63    1.85
  -3  -6  14   -0.40    1.32
   3   6 -14   -1.70    3.25
  -3  -6  13    0.92    3.44
   3   6 -13   -0.46    3.85
  -3  -6  12    2.05    2.17
   3   6 -12   -3.53    2.75
  -3  -6  11   27.46    4.70
   3   6 -11   24.54    2.13
  -3  -6  10   -0.29    1.85
   3   6 -10   -1.65    1.63
  -3  -6   9    3.49    1.97
   3   6  -9    1.44    2.32
  -3  -6   8    0.02    1.95
   3   6  -8    1.39    1.64
  -3  -6   7    2.73    1.78
   3   6  -7    2.77    1.66
  -3  -6   6   15.44    1.99
   3   6  -6   12.52    1.94
  -3  -6   5    2.18    1.35
   3   6  -5    3.22    1.43
  -3  -6   4   32.09    2.02
   3   6  -4   34.01    1.83
  -3  -6   3   -0.40    0.98
   3   6  -3    0.40    0.91
  -3  -6   2    0.44    0.86
   3   6  -2    0.44    0.80
  -3  -6   1    4.50    0.74
   3   6  -1    4.31    0.74
  -3  -6   0   37.18    1.75
   3   6   0   35.39    1.71
  -3  -6  -1   18.86    1.13
   3   6   1   19.18    1.11
  -3  -6  -2   47.48    2.83
   3   6   2   51.23    2.01
  -3  -6  -3   84.99    3.16
   3   6   3   83.12    4.38
  -3  -6  -4    0.34    1.07
   3   6   4    2.27    1.15
  -3  -6  -5    3.44    1.17
   3   6   5    2.72    1.32
  -3  -6  -6   11.22    1.60
   3   6   6   10.90    1.69
  -3  -6  -7   -0.16    1.84
   3   6   7    1.97    1.87
  -3  -6  -8   22.18    2.50
   3   6   8   23.08    2.15
  -3  -6  -9   12.92    2.26
   3   6   9   12.55    2.26
  -3  -6 -10    5.21    2.33
   3   6  10    8.83    2.42
  -3  -6 -11    0.00    1.94
   3   6  11    2.14    2.15
  -3  -6 -12   -1.74    2.88
   3   6  12    1.31    1.87
  -3  -6 -13   -0.34    1.38
   3   6  13    2.63    3.05
  -3  -5  13    2.33    2.06
   3   5 -13   -1.80    4.05
  -3  -5  12    0.63    2.19
   3   5 -12    0.27    1.86
  -3  -5  11    1.15    2.24
   3   5 -11    0.87    2.06
  -3  -5  10    5.56    1.81
   3   5 -10    9.79    2.30
  -3  -5   9   -1.11    1.43
   3   5  -9   -0.08    1.62
  -3  -5   8    3.72    1.84
   3   5  -8    3.04    1.80
  -3  -5   7    1.46    1.73
   3   5  -7    0.41    1.82
  -3  -5   6    3.42    1.46
   3   5  -6    3.92    1.66
  -3  -5   5   31.14    2.16
   3   5  -5   34.72    2.35
  -3  -5   4  199.00    5.84
   3   5  -4  216.34    6.31
  -3  -5   3    8.63    1.06
   3   5  -3    8.34    0.94
  -3  -5   2   65.96    2.50
   3   5  -2   67.93    2.73
  -3  -5   1   12.21    1.10
   3   5  -1   13.46    1.18
  -3  -5   0   15.90    1.29
   3   5   0   15.46    1.84
  -3  -5  -1   89.06    3.44
   3   5   1   82.41    3.21
  -3  -5  -2    1.58    0.76
   3   5   2    1.64    0.83
  -3  -5  -3   44.88    2.14
   3   5   3   40.64    1.98
  -3  -5  -4    1.38    1.04
   3   5   4    3.51    1.08
  -3  -5  -5   17.08    1.60
   3   5   5   16.52    1.61
  -3  -5  -6    0.67    1.20
   3   5   6    1.38    1.44
  -3  -5  -7    6.90    1.61
   3   5   7    5.15    1.71
  -3  -5  -8    3.03    1.85
   3   5   8    3.60    2.04
  -3  -5  -9   -1.43    1.88
   3   5   9   -0.02    2.03
  -3  -5 -10    4.65    1.96
   3   5  10    2.38    2.08
  -3  -5 -11   12.26    2.21
   3   5  11   13.80    2.04
  -3  -5 -12    1.39    1.53
   3   5  12    3.19    2.14
  -3  -5 -13    0.25    2.60
   3   5  13    1.57    1.77
   3   5  14    8.53    1.83
  -3  -4  14   -0.42    3.87
   3   4 -14    0.57    3.12
  -3  -4  13   -0.45    1.91
   3   4 -13    0.10    1.92
  -3  -4  12   13.81    2.83
   3   4 -12   13.52    3.02
  -3  -4  11    3.59    3.06
   3   4 -11    3.27    2.82
  -3  -4  10   11.36    1.74
   3   4 -10    9.62    2.30
  -3  -4   9    0.13    1.66
   3   4  -9    0.75    1.91
  -3  -4   8    1.97    1.66
   3   4  -8    1.67    1.82
  -3  -4   7    8.85    1.66
   3   4  -7    8.65    1.72
  -3  -4   6   51.96    2.87
   3   4  -6   55.05    3.01
  -3  -4   5    6.86    1.45
   3   4  -5    7.18    1.41
  -3  -4   4    1.04    1.13
   3   4  -4    0.05    0.94
  -3  -4   3   76.85    3.17
   3   4  -3   85.59    3.27
  -3  -4   2    5.13    0.88
   3   4  -2    6.23    0.82
  -3  -4   1   66.67    4.66
   3   4  -1   64.44    2.76
  -3  -4   0   17.83    1.28
   3   4   0   20.37    1.40
  -3  -4  -1   56.01    2.35
   3   4   1   59.45    3.21
  -3  -4  -2   36.74    1.73
   3   4   2   34.85    1.63
  -3  -4  -3   49.07    2.13
   3   4   3   46.99    2.18
  -3  -4  -4  128.50    4.19
   3   4   4  120.34    4.20
  -3  -4  -5   16.24    1.61
   3   4   5   16.28    1.43
  -3  -4  -6    4.58    1.36
   3   4   6    3.81    1.28
  -3  -4  -7   -0.85    1.37
   3   4   7   -0.04    1.56
  -3  -4  -8    0.40    1.52
   3   4   8    2.21    1.59
  -3  -4  -9   -0.13    1.64
   3   4   9    0.35    1.72
  -3  -4 -10    2.64    2.04
   3   4  10   -0.77    1.85
  -3  -4 -11   18.74    2.20
   3   4  11   15.48    2.23
  -3  -4 -12   -0.64    2.25
   3   4  12    1.74    1.92
  -3  -4 -13    1.57    2.29
   3   4  13    0.71    2.07
  -3  -4 -14   -1.46    2.32
   3   4  14    3.31    1.49
   3   4  15    6.28    2.52
  -3  -3  15   -0.87    3.01
   3   3 -15   -0.44    2.08
  -3  -3  14    2.37    2.12
   3   3 -14    1.44    1.47
  -3  -3  13    6.48    3.01
   3   3 -13    8.04    3.37
  -3  -3  12    1.21    2.29
   3   3 -12   -2.32    2.64
  -3  -3  11    2.37    2.17
   3   3 -11    7.32    2.58
  -3  -3  10    1.67    1.71
   3   3 -10   -1.21    1.98
  -3  -3   9    0.79    1.68
   3   3  -9    2.26    1.90
  -3  -3   8    1.95    1.70
   3   3  -8    0.42    1.77
  -3  -3   7    1.36    1.60
   3   3  -7    1.47    1.54
  -3  -3   6  148.83    5.39
   3   3  -6  152.60    5.50
  -3  -3   5   55.79    3.00
   3   3  -5   58.02    3.15
  -3  -3   4   95.74    4.03
   3   3  -4  101.95    4.10
  -3  -3   3  122.00    4.18
   3   3  -3  124.42    4.40
  -3  -3   2  137.08    7.88
   3   3  -2  139.99    4.85
  -3  -3   1    0.66    0.75
   3   3  -1    0.60    0.65
  -3  -3   0   11.71    0.95
   3   3   0   11.89    0.89
  -3  -3  -1   13.92    1.00
   3   3   1   13.79    1.07
  -3  -3  -2    0.70    0.63
   3   3   2    0.22    0.74
  -3  -3  -3   23.00    1.49
   3   3   3   22.52    1.48
  -3  -3  -4    2.89    0.84
   3   3   4    2.29    1.03
  -3  -3  -5    6.43    1.05
   3   3   5    6.08    1.17
  -3  -3  -6   48.87    2.48
   3   3   6   45.49    2.38
  -3  -3  -7    1.72    1.36
   3   3   7    0.16    1.38
  -3  -3  -8    5.83    1.49
   3   3   8    3.87    1.45
  -3  -3  -9   24.94    2.14
   3   3   9   23.12    2.14
  -3  -3 -10   -0.01    1.64
   3   3  10   -0.41    1.69
  -3  -3 -11   -0.25    2.91
   3   3  11    0.40    2.17
  -3  -3 -12    6.58    1.90
   3   3  12    5.64    1.94
  -3  -3 -13    4.84    1.85
   3   3  13    4.79    2.25
  -3  -3 -14    0.62    1.81
   3   3  14    2.41    1.74
  -3  -3 -15    0.53    1.93
   3   3  15   -0.05    2.66
  -3  -2  15    2.59    3.44
   3   2 -15    0.88    3.50
  -3  -2  14    5.55    2.79
   3   2 -14   10.90    3.36
  -3  -2  13   57.90    2.83
   3   2 -13   53.44    3.27
  -3  -2  12    0.26    1.76
   3   2 -12    1.43    1.92
  -3  -2  11    1.92    2.10
   3   2 -11    0.85    2.29
  -3  -2  10   -0.43    1.56
   3   2 -10    1.28    1.62
  -3  -2   9    0.61    1.46
   3   2  -9   -0.19    1.87
  -3  -2   8    5.30    1.50
   3   2  -8    5.90    1.58
  -3  -2   7    4.26    1.71
   3   2  -7    6.60    1.53
  -3  -2   6    0.23    1.09
   3   2  -6   -0.95    1.17
  -3  -2   5    6.20    1.39
   3   2  -5    6.60    1.33
  -3  -2   4   -0.26    1.18
   3   2  -4   -1.03    1.10
  -3  -2   3   12.44    1.18
   3   2  -3   11.58    1.20
  -3  -2   2   63.57    2.73
   3   2  -2   61.93    2.83
  -3  -2   1   41.49    1.92
   3   2  -1   43.04    2.05
  -3  -2   0  185.83    5.91
   3   2   0  189.76    5.94
  -3  -2  -1    0.26    0.63
   3   2   1    1.48    0.71
  -3  -2  -2    2.46    0.79
   3   2   2    2.54    0.81
  -3  -2  -3    6.15    0.88
   3   2   3    5.55    0.93
  -3  -2  -4    1.30    0.91
   3   2   4   -0.05    0.94
  -3  -2  -5  224.88    6.81
   3   2   5  213.59    6.32
  -3  -2  -6    2.22    1.07
   3   2   6    2.85    1.05
  -3  -2  -7  171.02    6.02
   3   2   7  166.95    5.58
  -3  -2  -8   25.41    2.20
   3   2   8   23.31    1.98
  -3  -2  -9   30.19    2.22
   3   2   9   22.46    1.99
  -3  -2 -10    2.72    1.70
   3   2  10   -1.12    1.50
  -3  -2 -11    0.42    1.93
   3   2  11    1.36    2.01
  -3  -2 -12    1.38    2.46
   3   2  12   -0.26    2.06
  -3  -2 -13   -2.06    2.64
   3   2  13    1.84    1.93
  -3  -2 -14    2.93    2.59
   3   2  14    0.35    2.18
  -3  -1  15    0.55    1.83
   3   1 -15   -2.20    2.93
  -3  -1  14    1.25    4.59
   3   1 -14    3.62    3.22
  -3  -1  13    9.66    2.73
   3   1 -13    5.65    2.41
  -3  -1  12    0.70    2.43
   3   1 -12   -1.56    1.89
  -3  -1  11    1.59    2.24
   3   1 -11   -0.14    2.17
  -3  -1  10   -1.36    1.59
   3   1 -10    0.21    1.90
  -3  -1   9   37.90    2.42
   3   1  -9   37.77    2.49
  -3  -1   8  114.69    4.70
   3   1  -8  122.92    5.38
  -3  -1   7    1.93    1.55
   3   1  -7    4.47    1.39
  -3  -1   6    1.67    1.32
   3   1  -6    1.58    1.22
  -3  -1   5   88.40    4.16
   3   1  -5   90.30    4.43
  -3  -1   4   -1.21    1.03
   3   1  -4   -0.66    1.09
  -3  -1   3   10.83    1.27
   3   1  -3   11.72    1.20
  -3  -1   2    1.27    0.81
   3   1  -2   -0.57    0.73
  -3  -1   1  105.57    3.60
   3   1  -1  111.61    3.94
  -3  -1   0  158.36    4.89
   3   1   0  156.04    4.89
  -3  -1  -1  552.45   14.61
   3   1   1  553.45   15.04
  -3  -1  -2    0.49    0.69
   3   1   2   -0.65    0.72
  -3  -1  -3   62.08    2.57
   3   1   3   61.20    3.36
  -3  -1  -4    1.04    0.91
   3   1   4    1.12    0.90
  -3  -1  -5    5.76    1.23
   3   1   5    3.82    1.02
  -3  -1  -6   86.32    3.55
   3   1   6   80.30    3.38
  -3  -1  -7    5.30    1.27
   3   1   7    4.72    1.31
  -3  -1  -8   30.76    2.67
   3   1   8   28.64    2.27
  -3  -1  -9    2.79    1.56
   3   1   9    1.14    1.55
  -3  -1 -10    2.29    1.56
   3   1  10   -0.71    1.51
  -3  -1 -11   -0.45    1.86
   3   1  11    0.50    1.89
  -3  -1 -12    0.61    1.37
   3   1  12    4.68    1.48
  -3  -1 -13   -2.55    1.88
   3   1  13   -0.98    1.23
  -3  -1 -14   -1.46    2.18
   3   1  14    5.92    3.76
   3   1  15    0.36    1.87
  -3   0  15    3.17    1.65
   3   0 -15    7.73    1.99
  -3   0  14    1.94    2.10
   3   0 -14    1.36    2.22
  -3   0  13    0.73    2.30
   3   0 -13    0.54    1.71
  -3   0  12    0.52    1.84
   3   0 -12    3.05    2.09
  -3   0  11    5.38    1.86
   3   0 -11    5.08    2.25
  -3   0  10    3.62    1.49
   3   0 -10    4.19    1.61
  -3   0   9    8.66    1.58
   3   0  -9    9.78    1.86
  -3   0   8   43.54    2.72
   3   0  -8   40.17    2.66
  -3   0   7   30.52    2.39
   3   0  -7   27.69    2.19
  -3   0   6   18.03    1.82
   3   0  -6   19.30    2.06
  -3   0   5   25.79    1.96
   3   0  -5   23.91    1.95
  -3   0   4    2.05    1.11
   3   0  -4    0.08    0.88
  -3   0   3    1.83    0.92
   3   0  -3    0.69    0.88
  -3   0   2   19.61    1.34
   3   0  -2   19.30    1.37
  -3   0   1   17.99    1.11
   3   0  -1   17.35    1.17
  -3   0   0  197.38    5.71
   3   0   0  194.93    5.99
  -3   0  -1    3.77    0.74
   3   0   1    2.79    0.75
  -3   0  -2  537.64   14.87
   3   0   2  522.10   14.30
  -3   0  -3   43.55    2.05
   3   0   3   41.11    1.86
  -3   0  -4   13.85    1.33
   3   0   4   14.70    1.33
  -3   0  -5    5.08    1.18
   3   0   5    5.08    1.06
  -3   0  -6    1.02    0.98
   3   0   6   -0.39    1.17
  -3   0  -7   70.17    3.51
   3   0   7   64.05    3.15
  -3   0  -8    0.73    1.48
   3   0   8    0.33    1.19
  -3   0  -9    7.30    1.54
   3   0   9    6.82    1.60
  -3   0 -10   21.08    2.05
   3   0  10   22.23    2.04
  -3   0 -11    7.10    1.89
   3   0  11    8.32    1.77
  -3   0 -12   -0.86    1.58
   3   0  12    0.06    1.76
  -3   0 -13   -0.91    1.50
   3   0  13    2.21    1.48
  -3   0 -14   -1.97    2.15
   3   0  14    3.93    1.30
  -3   0 -15   -1.45    1.45
   3   0  15   -0.25    1.61
   3  -1 -15   -0.11    1.07
  -3   1  14    3.41    1.89
   3  -1 -14    1.05    2.72
  -3   1  13   11.41    2.41
   3  -1 -13    7.34    2.46
  -3   1  12    2.17    2.33
   3  -1 -12    2.94    2.03
  -3   1  11    2.78    1.63
   3  -1 -11    3.57    1.86
  -3   1  10    1.20    1.40
   3  -1 -10    0.36    1.50
  -3   1   9   17.31    1.78
   3  -1  -9   15.11    1.73
  -3   1   8    0.18    1.53
   3  -1  -8    0.52    1.37
  -3   1   7    3.05    1.29
   3  -1  -7    2.59    1.33
  -3   1   6   37.47    2.59
   3  -1  -6   35.29    2.44
  -3   1   5   44.75    2.68
   3  -1  -5   44.89    2.84
  -3   1   4    4.28    1.05
   3  -1  -4    4.35    1.14
  -3   1   3   -0.38    0.82
   3  -1  -3   -0.20    0.75
  -3   1   2   15.61    1.24
   3  -1  -2   16.29    1.40
  -3   1   1  180.70    5.27
   3  -1  -1  185.74    5.57
  -3   1   0   92.68    3.29
   3  -1   0   95.84    3.33
  -3   1  -1   34.06    1.63
   3  -1   1   36.49    1.69
  -3   1  -2    0.28    0.76
   3  -1   2    2.12    0.85
  -3   1  -3   12.11    1.19
   3  -1   3   11.63    1.08
  -3   1  -4    7.46    1.18
   3  -1   4    8.02    1.06
  -3   1  -5    5.34    1.14
   3  -1   5    4.04    0.95
  -3   1  -6   21.55    1.80
   3  -1   6   18.99    1.63
  -3   1  -7   23.03    1.94
   3  -1   7   21.83    1.78
  -3   1  -8    5.99    1.36
   3  -1   8    4.84    1.32
  -3   1  -9   69.52    3.60
   3  -1   9   64.46    3.03
  -3   1 -10    7.74    1.72
   3  -1  10    8.84    1.60
  -3   1 -11    6.26    1.78
   3  -1  11    5.73    1.66
  -3   1 -12    1.31    1.79
   3  -1  12    2.49    1.70
  -3   1 -13    0.33    2.12
   3  -1  13   -0.19    1.09
  -3   1 -14    8.11    2.36
   3  -1  14    2.62    1.40
   3  -1  15    1.12    1.63
  -3   2  15    4.60    1.57
   3  -2 -15    6.35    1.23
  -3   2  14   -0.32    1.47
   3  -2 -14   -1.52    3.08
  -3   2  13   22.91    2.48
   3  -2 -13   18.20    2.60
  -3   2  12   -0.75    2.06
   3  -2 -12    2.11    1.88
  -3   2  11    2.29    2.18
   3  -2 -11    3.71    2.27
  -3   2  10    3.63    1.68
   3  -2 -10    6.14    2.01
  -3   2   9   68.74    2.95
   3  -2  -9   59.60    2.79
  -3   2   8  151.15    5.33
   3  -2  -8  139.86    4.66
  -3   2   7    0.87    1.54
   3  -2  -7    2.30    1.51
  -3   2   6   99.76    4.12
   3  -2  -6  102.70    4.35
  -3   2   5    0.89    1.25
   3  -2  -5    1.56    1.40
  -3   2   4   38.97    2.52
   3  -2  -4   38.79    2.50
  -3   2   3    1.70    1.01
   3  -2  -3    3.41    1.03
  -3   2   2   18.77    1.32
   3  -2  -2   19.72    1.35
  -3   2   1  122.13    3.55
   3  -2  -1  122.72    3.84
  -3   2   0   27.81    1.44
   3  -2   0   28.05    1.32
  -3   2  -1  171.81    5.30
   3  -2   1  178.05    5.15
  -3   2  -2    8.71    0.93
   3  -2   2    8.81    0.90
  -3   2  -3   30.63    1.65
   3  -2   3   30.54    1.63
  -3   2  -4    1.63    0.96
   3  -2   4    1.81    0.87
  -3   2  -5   26.05    1.95
   3  -2   5   26.73    1.91
  -3   2  -6   13.95    1.51
   3  -2   6   16.05    1.53
  -3   2  -7   11.88    1.49
   3  -2   7   10.94    1.44
  -3   2  -8    3.40    1.46
   3  -2   8    3.17    1.55
  -3   2  -9    9.59    1.67
   3  -2   9    8.30    1.46
  -3   2 -10   83.22    3.75
   3  -2  10   83.85    3.36
  -3   2 -11    0.45    1.77
   3  -2  11   -0.42    1.48
  -3   2 -12   15.54    2.34
   3  -2  12   14.63    2.31
  -3   2 -13    0.17    2.15
   3  -2  13   -0.55    0.99
  -3   2 -14   -0.59    1.38
   3  -2  14    0.41    1.29
  -3   2 -15   -0.28    1.21
   3  -2  15    0.13    0.76
   3  -3 -15    0.10    0.92
  -3   3  14    3.63    1.99
   3  -3 -14   -0.31    2.51
  -3   3  13   18.22    2.44
   3  -3 -13   16.65    2.38
  -3   3  12    3.11    1.97
   3  -3 -12    3.03    1.85
  -3   3  11   21.54    2.17
   3  -3 -11   16.76    2.38
  -3   3  10    2.19    1.52
   3  -3 -10    2.39    1.72
  -3   3   9   -0.71    1.70
   3  -3  -9   -0.71    1.82
  -3   3   8   30.47    2.24
   3  -3  -8   29.44    2.27
  -3   3   7   37.72    2.48
   3  -3  -7   35.28    2.18
  -3   3   6  107.54    4.65
   3  -3  -6  108.54    4.37
  -3   3   5    0.81    1.14
   3  -3  -5    1.87    1.34
  -3   3   4  104.87    4.64
   3  -3  -4  103.08    5.01
  -3   3   3   18.09    1.60
   3  -3  -3   16.56    1.62
  -3   3   2    0.34    0.78
   3  -3  -2    0.68    0.80
  -3   3   1   31.79    1.77
   3  -3  -1   31.64    1.70
  -3   3   0   57.23    2.17
   3  -3   0   59.19    2.26
  -3   3  -1  106.56    3.83
   3  -3   1  107.17    3.45
  -3   3  -2    2.39    0.89
   3  -3   2    3.61    0.81
  -3   3  -3    0.42    0.92
   3  -3   3    0.31    0.87
  -3   3  -4    0.76    1.08
   3  -3   4    0.35    1.07
  -3   3  -5   10.24    1.36
   3  -3   5   11.05    1.36
  -3   3  -6    8.15    1.38
   3  -3   6    6.61    1.29
  -3   3  -7    8.35    1.52
   3  -3   7    7.96    1.29
  -3   3  -8   -0.68    1.51
   3  -3   8    1.31    1.30
  -3   3  -9   29.53    2.32
   3  -3   9   28.71    2.25
  -3   3 -10    9.91    1.78
   3  -3  10   10.92    1.78
  -3   3 -11   24.16    2.33
   3  -3  11   24.95    2.25
  -3   3 -12    0.21    1.67
   3  -3  12    0.72    1.63
  -3   3 -13   -0.32    2.67
   3  -3  13    1.58    1.89
  -3   3 -14    4.32    1.69
   3  -3  14   -0.15    1.47
  -3   3 -15   -1.01    1.07
   3  -3  15   -0.17    1.29
  -3   4  14    0.79    1.68
   3  -4 -14    5.56    1.95
  -3   4  13    2.81    3.28
   3  -4 -13    1.90    2.13
  -3   4  12    0.35    1.69
   3  -4 -12   -0.45    1.71
  -3   4  11    2.29    2.09
   3  -4 -11    0.67    1.89
  -3   4  10    9.02    2.01
   3  -4 -10    7.71    2.08
  -3   4   9    2.63    1.61
   3  -4  -9   -0.48    1.49
  -3   4   8    3.27    1.77
   3  -4  -8    5.39    1.60
  -3   4   7    7.14    1.56
   3  -4  -7    6.34    1.38
  -3   4   6    1.15    1.23
   3  -4  -6    1.71    1.34
  -3   4   5   17.25    1.75
   3  -4  -5   17.03    1.79
  -3   4   4   28.73    1.81
   3  -4  -4   30.06    1.93
  -3   4   3    2.40    0.99
   3  -4  -3    3.97    1.04
  -3   4   2    0.49    0.78
   3  -4  -2    1.70    0.89
  -3   4   1   15.07    1.27
   3  -4  -1   17.98    1.38
  -3   4   0   13.12    0.93
   3  -4   0   12.16    0.92
  -3   4  -1   42.30    1.80
   3  -4   1   44.20    1.73
  -3   4  -2   11.08    1.14
   3  -4   2   13.89    1.18
  -3   4  -3   33.69    1.89
   3  -4   3   34.03    1.96
  -3   4  -4   13.86    1.29
   3  -4   4   16.73    1.48
  -3   4  -5   45.51    2.63
   3  -4   5   43.45    2.30
  -3   4  -6    4.93    1.17
   3  -4   6    5.90    1.19
  -3   4  -7   14.15    1.70
   3  -4   7   12.13    1.57
  -3   4  -8   22.15    1.97
   3  -4   8   19.22    1.63
  -3   4  -9   46.18    2.97
   3  -4   9   51.52    3.04
  -3   4 -10    9.09    1.99
   3  -4  10    9.85    2.06
  -3   4 -11   -0.89    1.91
   3  -4  11   -2.44    1.83
  -3   4 -12   -0.24    1.12
   3  -4  12   -0.25    1.18
  -3   4 -13    0.49    1.97
   3  -4  13    0.12    1.92
  -3   4 -14    4.51    1.43
   3  -4  14    3.79    1.57
  -3   4 -15    1.32    1.75
   3  -4  15    0.97    1.47
  -3   5  13    2.22    2.33
   3  -5 -13   -3.34    2.95
  -3   5  12   58.53    2.91
   3  -5 -12   43.65    2.14
  -3   5  11    0.02    2.12
   3  -5 -11   -0.20    1.59
  -3   5  10    6.76    1.82
   3  -5 -10    1.92    1.61
  -3   5   9    4.20    1.60
   3  -5  -9    3.10    1.71
  -3   5   8   15.87    2.16
   3  -5  -8   14.64    1.98
  -3   5   7    1.60    1.54
   3  -5  -7    1.71    1.71
  -3   5   6    2.03    1.29
   3  -5  -6    0.54    1.25
  -3   5   5    0.72    1.21
   3  -5  -5    1.71    1.26
  -3   5   4   56.55    2.76
   3  -5  -4   56.71    2.70
  -3   5   3    8.75    1.32
   3  -5  -3    7.36    1.41
  -3   5   2   -0.60    0.84
   3  -5  -2   -0.31    0.86
  -3   5   1    9.29    1.07
   3  -5  -1    7.32    1.04
  -3   5   0    7.25    0.98
   3  -5   0    6.17    0.91
  -3   5  -1  300.83    8.39
   3  -5   1  305.33    7.91
  -3   5  -2   26.93    1.46
   3  -5   2   27.08    1.41
  -3   5  -3   35.89    2.02
   3  -5   3   38.11    1.75
  -3   5  -4   11.71    1.42
   3  -5   4   13.42    1.49
  -3   5  -5    3.51    1.17
   3  -5   5    3.29    1.18
  -3   5  -6    2.54    1.22
   3  -5   6    4.10    1.20
  -3   5  -7    4.17    1.58
   3  -5   7    6.38    1.53
  -3   5  -8    0.09    1.68
   3  -5   8    1.27    1.43
  -3   5  -9   49.09    2.41
   3  -5   9   46.53    2.41
  -3   5 -10   -0.45    1.69
   3  -5  10   -1.06    1.49
  -3   5 -11    4.08    2.30
   3  -5  11    2.55    1.93
  -3   5 -12   -0.74    1.30
   3  -5  12    1.94    2.96
  -3   5 -13   10.67    2.03
   3  -5  13    8.79    1.48
  -3   5 -14   40.93    2.37
   3  -5  14   44.11    2.22
   3  -6 -14   -0.12    1.39
  -3   6  13    0.20    2.52
   3  -6 -13    4.44    2.56
  -3   6  12    6.06    2.03
   3  -6 -12    3.21    1.23
  -3   6  11    0.76    1.82
   3  -6 -11   -1.16    1.80
  -3   6  10   -2.46    1.73
   3  -6 -10    0.04    1.81
  -3   6   9    1.18    1.91
   3  -6  -9    0.38    2.12
  -3   6   8   -0.83    1.78
   3  -6  -8    0.40    1.55
  -3   6   7   10.66    1.71
   3  -6  -7   11.28    1.76
  -3   6   6    7.50    1.53
   3  -6  -6    8.10    1.65
  -3   6   5   18.67    1.53
   3  -6  -5   21.09    1.70
  -3   6   4  198.09    6.67
   3  -6  -4  171.24    6.23
  -3   6   3  169.47    5.34
   3  -6  -3  162.13    5.27
  -3   6   2   91.39    3.41
   3  -6  -2   85.99    3.32
  -3   6   1   16.53    1.31
   3  -6  -1   13.71    1.27
  -3   6   0   13.32    1.08
   3  -6   0   14.28    1.20
  -3   6  -1   19.80    1.35
   3  -6   1   18.99    1.36
  -3   6  -2  136.46    4.50
   3  -6   2  142.27    4.36
  -3   6  -3    6.30    1.17
   3  -6   3    7.51    1.09
  -3   6  -4    0.17    1.18
   3  -6   4   -0.47    1.13
  -3   6  -5   16.02    1.58
   3  -6   5   19.74    1.64
  -3   6  -6   54.74    2.65
   3  -6   6   57.51    2.78
  -3   6  -7   44.43    2.74
   3  -6   7   46.95    2.85
  -3   6  -8    1.74    1.41
   3  -6   8    2.31    1.29
  -3   6  -9    0.82    2.48
   3  -6   9    3.44    1.87
  -3   6 -10    1.49    1.66
   3  -6  10    0.87    1.52
  -3   6 -11   -0.31    2.05
   3  -6  11   -0.95    1.90
  -3   6 -12   -0.01    2.36
  -3   6 -13    0.93    1.51
   3  -6  13    0.57    1.19
  -3   6 -14   19.41    3.05
   3  -6  14   18.39    2.13
  -3   7  13    0.31    1.47
   3  -7 -13    1.40    1.37
  -3   7  12    4.08    1.60
   3  -7 -12    2.03    2.48
  -3   7  11    5.82    2.18
   3  -7 -11    6.23    2.22
  -3   7  10    0.51    1.71
   3  -7 -10    0.78    1.65
  -3   7   9    0.84    1.97
   3  -7  -9   -1.94    1.74
  -3   7   8    9.19    1.83
   3  -7  -8   11.91    1.95
  -3   7   7    5.28    1.64
   3  -7  -7    6.38    1.61
  -3   7   6   18.14    1.91
   3  -7  -6   17.42    1.98
  -3   7   5    7.43    1.61
   3  -7  -5    6.50    1.63
  -3   7   4   51.15    2.54
   3  -7  -4   52.68    2.51
  -3   7   3    0.40    1.34
   3  -7  -3   -0.56    1.17
  -3   7   2    7.32    1.29
   3  -7  -2    7.18    1.32
  -3   7   1  105.08    3.89
   3  -7  -1  104.96    3.55
  -3   7   0   14.75    1.29
   3  -7   0   14.48    1.24
  -3   7  -1   11.50    1.15
   3  -7   1   11.46    1.07
  -3   7  -2    4.61    1.04
   3  -7   2    5.12    0.96
  -3   7  -3    6.79    1.07
   3  -7   3    5.17    1.15
  -3   7  -4    0.81    1.40
   3  -7   4    2.05    1.99
  -3   7  -5  134.48    4.15
   3  -7   5  144.48    4.79
  -3   7  -6   52.13    2.79
   3  -7   6   50.48    2.54
  -3   7  -7    7.95    1.75
   3  -7   7    9.78    1.74
  -3   7  -8    0.03    1.84
   3  -7   8    0.36    1.61
  -3   7  -9    0.82    1.34
   3  -7   9   -1.26    1.69
  -3   7 -10    5.96    1.97
   3  -7  10    7.59    1.60
  -3   7 -11    1.21    1.96
   3  -7  11    0.48    1.81
  -3   7 -12   -1.06    2.25
   3  -7  12   -0.09    0.92
  -3   7 -13   -1.89    2.54
   3  -7  13   -1.59    2.29
  -3   8  12    3.19    1.83
  -3   8  11    4.05    3.14
   3  -8 -11   -0.25    1.48
  -3   8  10    3.80    3.20
   3  -8 -10    3.14    1.91
  -3   8   9   -0.79    1.94
   3  -8  -9    0.09    1.94
  -3   8   8    5.43    1.78
   3  -8  -8    6.25    1.93
  -3   8   7   16.63    1.91
   3  -8  -7   14.63    2.04
  -3   8   6    0.93    1.65
   3  -8  -6    0.56    1.86
  -3   8   5    7.24    1.63
   3  -8  -5    6.58    1.76
  -3   8   4    0.01    1.50
   3  -8  -4    0.64    1.71
  -3   8   3  118.02    4.09
   3  -8  -3  113.79    3.99
  -3   8   2   18.89    1.74
   3  -8  -2   16.14    1.53
  -3   8   1    5.08    1.13
   3  -8  -1    4.73    1.09
  -3   8   0   26.77    1.58
   3  -8   0   25.49    1.65
  -3   8  -1   33.68    1.98
   3  -8   1   32.30    1.93
  -3   8  -2    0.81    1.13
   3  -8   2    0.66    1.00
  -3   8  -3    1.73    1.22
   3  -8   3    4.25    1.17
  -3   8  -4   22.78    1.99
   3  -8   4   21.12    1.73
  -3   8  -5   45.04    2.42
   3  -8   5   44.65    2.09
  -3   8  -6   26.33    2.20
   3  -8   6   30.74    2.33
  -3   8  -7    3.11    1.82
   3  -8   7    3.82    1.66
  -3   8  -8    3.68    1.79
   3  -8   8    2.88    1.84
  -3   8  -9    8.88    1.91
   3  -8   9    9.56    1.90
  -3   8 -10   11.46    1.65
   3  -8  10   14.11    1.85
  -3   8 -11    4.04    1.53
   3  -8  11    6.34    1.20
   3  -8  12   -0.02    1.32
  -3   9  12   -0.12    1.98
  -3   9  11    0.06    1.62
  -3   9  10   -1.23    2.91
   3  -9 -10   -0.16    1.11
  -3   9   9   -0.25    1.37
   3  -9  -9   -0.45    1.62
  -3   9   8   -0.10    1.95
   3  -9  -8    2.37    1.81
  -3   9   7    1.25    1.67
   3  -9  -7    1.02    2.08
  -3   9   6    1.20    1.52
   3  -9  -6    0.71    2.02
  -3   9   5    2.07    1.70
   3  -9  -5   -0.79    1.71
  -3   9   4    4.16    2.26
   3  -9  -4    3.38    1.85
  -3   9   3   23.19    2.20
   3  -9  -3   26.07    2.11
  -3   9   2    7.64    1.37
   3  -9  -2    6.36    1.44
  -3   9   1    1.12    1.17
   3  -9  -1    1.45    1.17
  -3   9   0   84.91    3.79
   3  -9   0   84.34    3.90
  -3   9  -1   28.99    2.10
   3  -9   1   30.26    1.69
  -3   9  -2   -0.76    1.44
   3  -9   2    1.08    1.17
  -3   9  -3   11.99    1.61
   3  -9   3   10.35    2.04
  -3   9  -4    1.09    1.61
   3  -9   4    0.28    1.60
  -3   9  -5   52.64    2.75
   3  -9   5   54.45    2.63
  -3   9  -6   79.74    3.65
   3  -9   6   85.33    3.28
  -3   9  -7   -1.57    1.83
   3  -9   7    0.40    1.73
  -3   9  -8    0.07    1.58
   3  -9   8    0.40    1.66
  -3   9  -9   10.72    2.08
   3  -9   9    8.84    2.20
  -3   9 -10    2.17    2.05
   3  -9  10    7.94    2.31
  -3   9 -11   -0.14    1.92
   3  -9  11    1.46    1.64
   3  -9  13    0.75    1.59
  -3  10  11    0.71    1.33
   3 -10 -11   -1.70    3.05
  -3  10  10    3.58    1.53
   3 -10 -10    1.31    4.39
  -3  10   9    0.37    2.23
   3 -10  -9   -1.69    3.76
  -3  10   8   20.39    2.06
   3 -10  -8   29.19    2.25
  -3  10   7   22.56    1.99
   3 -10  -7   27.12    2.39
  -3  10   6    0.68    1.77
   3 -10  -6    0.35    1.88
  -3  10   5   -0.43    1.52
   3 -10  -5    3.12    1.88
  -3  10   4    7.37    1.74
   3 -10  -4    8.02    1.50
  -3  10   3    6.69    1.85
   3 -10  -3    5.17    1.77
  -3  10   2   24.63    2.13
   3 -10  -2   22.69    2.25
  -3  10   1    4.93    1.50
   3 -10  -1    7.45    1.49
  -3  10   0    2.50    1.43
   3 -10   0    3.84    1.37
  -3  10  -1   56.67    3.40
   3 -10   1   55.77    3.36
  -3  10  -2   51.65    2.64
   3 -10   2   55.47    2.31
  -3  10  -3    5.39    2.44
   3 -10   3    6.33    1.75
  -3  10  -4    0.60    1.67
   3 -10   4    0.61    1.77
  -3  10  -5    0.15    1.99
   3 -10   5    1.05    2.18
  -3  10  -6    1.37    1.34
   3 -10   6    0.73    1.97
  -3  10  -7    8.12    2.73
   3 -10   7    9.21    3.53
  -3  10  -8   -0.38    1.33
   3 -10   8   -2.38    2.06
  -3  10  -9   -0.25    2.25
   3 -10   9    1.42    2.17
  -3  10 -10    0.43    1.72
   3 -10  10    1.08    1.85
  -3  10 -11   -1.56    3.29
   3 -10  11    5.00    2.75
  -3  11  11    0.93    1.82
   3 -11 -11   13.11    4.04
  -3  11  10   -3.74    4.24
   3 -11 -10   10.44    3.82
   3 -11  -9    0.44    4.02
   3 -11  -8   -0.87    4.20
  -3  11   7    0.34    2.13
   3 -11  -7    0.38    2.02
  -3  11   6   -1.82    2.42
   3 -11  -6   -0.02    2.49
  -3  11   5    2.44    2.22
   3 -11  -5   -0.95    1.42
  -3  11   4   -0.35    2.96
   3 -11  -4    0.77    1.82
  -3  11   3    0.71    1.50
   3 -11  -3   -0.22    1.12
  -3  11   2    0.81    1.38
   3 -11  -2    2.44    1.60
  -3  11   1    2.91    1.74
   3 -11  -1    1.68    1.49
  -3  11   0   12.21    1.93
   3 -11   0   11.39    1.70
  -3  11  -1   89.40    4.46
   3 -11   1   83.65    4.57
  -3  11  -2    1.29    1.96
   3 -11   2   -0.79    1.83
  -3  11  -3   -1.30    1.94
   3 -11   3    0.22    1.66
  -3  11  -4    9.45    2.70
   3 -11   4    7.69    1.59
   3 -11   5    3.49    2.09
  -3  11  -6    3.64    3.27
   3 -11   6   -1.82    3.82
  -3  11  -7    6.10    3.54
   3 -11   7    4.14    2.44
  -3  11  -8    0.78    2.01
   3 -11   8    0.87    2.83
  -3  11  -9    0.43    1.49
   3 -11   9    0.55    1.42
  -3  11 -10   21.88    2.97
   3 -11  10   17.21    1.95
  -3  11 -11    0.02    3.17
   3 -11  11    1.13    3.81
   3 -11  12   -0.13    1.79
  -3  12   7    0.36    1.13
  -3  12   6    6.93    2.20
   3 -12  -6    8.04    3.13
   3 -12  -5    4.98    1.67
  -3  12   4   -2.41    2.74
   3 -12  -4    0.29    1.23
  -3  12   3   -0.46    1.33
   3 -12  -3    1.21    1.56
   3 -12  -2    4.63    1.82
  -3  12   1    0.22    1.43
   3 -12  -1    2.82    2.91
  -3  12   0    8.17    2.05
   3 -12   0    6.78    1.98
  -3  12  -1    4.66    2.33
   3 -12   1   -0.26    1.38
  -3  12  -2   16.11    1.96
   3 -12   2   16.74    1.69
  -3  12  -3    0.98    2.15
   3 -12   3    2.61    1.86
  -3  12  -4    2.56    1.82
   3 -12   4    1.15    3.19
   3 -12   5    2.76    2.95
   3 -12   6    2.80    2.35
   3 -12   7    6.19    1.78
  -3  12  -9    9.95    3.23
   3 -12   9    4.62    1.70
   3 -13  -3    0.23    1.74
  -3  13   2   -0.22    1.57
   3 -13  -2   -0.09    2.11
  -3  13   1    0.59    1.93
  -3  13   0    4.95    1.71
  -3  13  -1   -0.68    2.55
   3 -13   1   -0.25    1.57
  -3  13  -2   11.82    3.10
  -3  13  -3    2.39    4.33
   3 -13   3    0.39    1.74
  -3  13  -5    8.70    2.44
   3 -13   5   14.60    4.04
  -3  13  -7    7.68    2.81
  -3  13  -8   -1.85    1.92
   3 -14  -3   16.21    3.52
  -3  14   0    5.97    2.54
  -3  14  -1    5.51    1.95
  -3  14  -4    6.42    2.38
  -4  -9  -7    0.90    1.72
  -4  -8   8    0.75    4.10
   4   8  -8    1.94    4.46
  -4  -8   6   -2.75    2.32
  -4  -8   5    0.98    2.09
  -4  -8  -4   15.52    1.75
   4   8   4   12.98    2.08
  -4  -8  -5    2.82    2.83
   4   8   5    3.34    2.55
  -4  -8  -6    6.17    1.61
   4   8   9    4.45    1.98
   4   8  10   -2.17    4.21
   4   7 -11    7.15    2.20
  -4  -7   8   -0.41    1.64
  -4  -7   7   17.48    2.80
   4   7  -7   31.06    4.28
  -4  -7   6   -0.54    2.50
   4   7  -6   -0.19    2.00
  -4  -7   5    0.09    1.46
   4   7  -5    0.67    1.61
  -4  -7   4   15.05    1.58
   4   7  -4   18.38    1.73
  -4  -7   3   -0.56    1.21
   4   7  -3    0.02    1.04
  -4  -7   2    2.42    1.06
   4   7  -2    0.68    0.93
   4   7   1    6.50    1.50
  -4  -7  -2    1.81    0.96
   4   7   2    0.71    1.01
  -4  -7  -3    4.50    1.30
   4   7   3    4.48    1.25
  -4  -7  -4    0.33    2.51
   4   7   4   -0.55    1.13
  -4  -7  -5    0.05    1.61
   4   7   5    2.02    1.88
  -4  -7  -6    6.62    1.95
   4   7   6    7.44    3.45
  -4  -7  -7    1.16    2.01
   4   7   7    0.21    1.86
  -4  -7  -8    4.82    2.32
   4   7   8    1.22    2.47
  -4  -7  -9   12.70    2.17
   4   7   9   18.80    3.54
  -4  -7 -10    0.07    1.99
   4   7  10    6.28    2.74
   4   7  11   36.50    4.16
   4   6 -13   -1.46    2.82
   4   6 -12    0.50    1.69
   4   6 -10    0.34    2.75
  -4  -6   9    0.58    1.58
   4   6  -9    4.32    2.14
  -4  -6   8    0.60    1.84
   4   6  -8   -0.03    1.92
  -4  -6   7    2.33    1.73
   4   6  -7    4.70    1.95
  -4  -6   6   20.62    2.87
   4   6  -6   16.02    2.29
  -4  -6   5    0.53    1.54
   4   6  -5    2.23    1.48
  -4  -6   4    4.14    1.50
   4   6  -4    4.23    1.51
  -4  -6   3    0.89    1.52
   4   6  -3    2.48    1.50
  -4  -6   2   10.93    1.41
   4   6  -2   10.76    1.40
  -4  -6   1    0.14    1.14
   4   6  -1    1.71    1.22
  -4  -6   0    2.67    1.02
   4   6   0    2.67    1.14
  -4  -6  -1    0.00    0.89
   4   6   1    1.12    1.05
  -4  -6  -2    8.43    1.40
   4   6   2    9.41    1.37
  -4  -6  -3    3.79    1.39
   4   6   3    2.97    1.41
  -4  -6  -4   36.84    2.24
   4   6   4   33.27    2.15
  -4  -6  -5   12.65    2.17
   4   6   5   12.58    2.21
  -4  -6  -6    0.08    1.61
   4   6   6    0.45    1.88
  -4  -6  -7   15.34    2.19
   4   6   7   14.75    2.39
  -4  -6  -8   -0.41    1.87
   4   6   8    1.87    1.97
  -4  -6  -9    8.28    2.02
   4   6   9    6.29    2.08
  -4  -6 -10    2.39    3.93
   4   6  10   -2.91    3.17
  -4  -6 -11    7.27    2.36
   4   6  11    0.02    2.42
   4   6  12    6.31    3.25
   4   5 -14    0.25    1.69
   4   5 -13   -2.49    2.88
  -4  -5  12   -0.31    2.61
   4   5 -12    7.75    2.10
  -4  -5  11    0.14    1.59
   4   5 -11   -2.21    2.59
  -4  -5  10    9.89    1.85
   4   5 -10   21.78    3.45
  -4  -5   9   -0.73    2.29
   4   5  -9   -0.12    2.35
  -4  -5   8   -0.80    2.09
   4   5  -8    0.07    1.57
  -4  -5   7    5.93    1.94
   4   5  -7    2.42    2.12
  -4  -5   6    5.87    1.86
   4   5  -6    7.85    1.91
  -4  -5   5    3.13    1.49
   4   5  -5    3.83    1.59
  -4  -5   4    2.09    2.06
   4   5  -4    1.83    1.34
  -4  -5   3   15.02    1.63
   4   5  -3   15.17    1.60
  -4  -5   2    0.89    1.20
   4   5  -2    1.29    1.08
  -4  -5   1    9.95    1.27
   4   5  -1    8.92    1.38
  -4  -5   0   -1.12    1.04
   4   5   0    0.21    1.00
  -4  -5  -1    1.47    1.00
   4   5   1   -0.53    1.05
  -4  -5  -2    1.77    1.10
   4   5   2    2.41    1.09
  -4  -5  -3    0.90    1.10
   4   5   3   -0.63    1.02
  -4  -5  -4   -0.14    1.85
   4   5   4    0.02    1.54
  -4  -5  -5    7.93    1.73
   4   5   5    9.36    1.78
  -4  -5  -6   15.57    2.10
   4   5   6   14.22    2.08
  -4  -5  -7    0.96    1.71
   4   5   7   -0.42    1.81
  -4  -5  -8   33.85    2.29
  -4  -5  -9    0.72    2.44
   4   5   9    2.00    1.77
  -4  -5 -10    0.09    1.77
   4   5  10   -0.03    1.55
  -4  -5 -11    5.63    2.50
   4   5  11    4.39    1.89
  -4  -5 -12   14.82    3.35
   4   5  12   19.88    3.51
  -4  -5 -13    1.17    3.32
   4   5  13   -0.33    0.76
   4   4 -13    5.99    2.15
  -4  -4  12    3.01    1.49
   4   4 -12   -0.40    1.85
  -4  -4  11   10.86    1.97
   4   4 -11    9.02    2.97
  -4  -4  10    1.02    1.95
   4   4 -10    3.33    2.29
  -4  -4   9    3.20    1.79
   4   4  -9    1.28    1.74
  -4  -4   8    2.98    1.87
   4   4  -8    3.29    2.14
  -4  -4   7    3.27    1.97
   4   4  -7    6.21    2.05
  -4  -4   6    5.75    1.68
   4   4  -6    4.65    1.75
  -4  -4   5    7.87    1.59
   4   4  -5    8.99    1.62
  -4  -4   4   -0.99    1.34
   4   4  -4    0.39    1.19
  -4  -4   3   13.45    2.24
   4   4  -3    9.98    1.31
  -4  -4   2   15.50    1.56
   4   4  -2   16.77    1.40
  -4  -4   1    1.40    1.08
   4   4  -1    1.19    0.96
  -4  -4   0    3.51    0.93
   4   4   0    3.13    1.07
  -4  -4  -1    0.73    0.96
   4   4   1    0.57    0.97
  -4  -4  -2   23.57    1.80
   4   4   2   22.78    1.71
  -4  -4  -3   19.26    1.58
   4   4   3   17.32    1.55
  -4  -4  -4   10.88    1.45
   4   4   4    9.31    1.49
  -4  -4  -5   26.00    1.95
   4   4   5   18.29    3.08
  -4  -4  -6   14.87    1.79
   4   4   6   12.37    1.85
  -4  -4  -7    5.78    1.87
   4   4   7    3.51    1.61
  -4  -4  -8    1.97    2.13
   4   4   8   -0.17    2.95
  -4  -4  -9    7.00    1.81
   4   4   9    2.89    1.73
  -4  -4 -10    0.06    2.87
   4   4  10    1.64    1.96
  -4  -4 -11    3.62    3.51
   4   4  11    0.24    1.73
   4   4  12    7.17    3.75
  -4  -4 -13    0.47    2.82
   4   4  13   -1.26    1.74
   4   3 -14   -0.67    1.47
  -4  -3  13    0.53    1.77
   4   3 -13   -1.61    2.31
  -4  -3  12    0.90    2.02
   4   3 -12    0.00    2.75
  -4  -3  11    1.54    2.86
   4   3 -11    4.37    3.43
  -4  -3  10   -0.43    1.25
   4   3 -10    0.08    1.81
  -4  -3   9    0.54    1.78
   4   3  -9    1.78    2.34
  -4  -3   8   -0.22    1.77
   4   3  -8    0.25    1.87
  -4  -3   7   20.66    2.30
   4   3  -7   19.24    2.39
  -4  -3   6   13.36    1.87
   4   3  -6   13.51    1.72
  -4  -3   5   78.49    3.41
   4   3  -5   80.84    3.66
  -4  -3   4   64.05    3.19
   4   3  -4   63.88    3.13
  -4  -3   3    6.61    1.39
   4   3  -3    3.61    1.11
  -4  -3   2   65.09    3.04
   4   3  -2   66.71    2.99
  -4  -3   1    5.42    0.94
   4   3  -1    4.90    1.03
  -4  -3   0   27.43    1.83
   4   3   0   28.29    1.79
  -4  -3  -1   -0.36    0.89
   4   3   1    0.50    0.89
  -4  -3  -2   20.12    1.42
   4   3   2   19.80    1.57
  -4  -3  -3    1.77    1.25
   4   3   3    0.43    1.23
  -4  -3  -4   12.95    1.39
   4   3   4    8.49    1.29
  -4  -3  -5    5.19    1.28
   4   3   5    4.36    1.34
  -4  -3  -6    4.66    1.35
   4   3   6    4.19    1.39
  -4  -3  -7    6.52    1.48
   4   3   7    6.94    1.71
  -4  -3  -8    6.58    1.87
   4   3   8    3.18    1.82
  -4  -3  -9    3.26    2.15
   4   3   9    6.04    2.09
  -4  -3 -10    1.13    1.49
   4   3  10    7.10    1.60
  -4  -3 -11    2.05    3.11
   4   3  11    0.16    3.16
  -4  -3 -12    0.03    2.34
   4   3  12    5.89    2.10
  -4  -3 -13    1.31    3.23
   4   3  13   -0.26    1.21
  -4  -3 -14    5.58    2.73
   4   3  14    8.20    2.72
  -4  -2  14    0.06    1.07
   4   2 -14    0.03    1.17
  -4  -2  13    4.31    1.61
   4   2 -13    1.47    3.91
  -4  -2  12   12.93    1.68
   4   2 -12   21.85    2.29
  -4  -2  11   -0.09    1.69
   4   2 -11   -1.31    2.34
  -4  -2  10   17.08    1.91
   4   2 -10   15.15    2.02
  -4  -2   9    1.01    1.83
   4   2  -9   -0.38    1.74
  -4  -2   8    1.44    1.70
   4   2  -8    0.47    1.67
  -4  -2   7   38.21    2.47
   4   2  -7   42.91    2.90
  -4  -2   6    4.69    1.63
   4   2  -6    4.84    1.65
  -4  -2   5   34.87    2.44
   4   2  -5   43.68    2.95
  -4  -2   4   -0.40    1.82
   4   2  -4    0.75    1.30
  -4  -2   3   35.81    2.13
   4   2  -3   36.92    2.13
  -4  -2   2    1.92    1.01
   4   2  -2    0.51    0.87
  -4  -2   1   50.57    2.43
   4   2  -1   51.34    2.47
  -4  -2   0   59.19    2.69
   4   2   0   58.38    2.64
  -4  -2  -1   38.67    1.94
   4   2   1   36.89    1.88
  -4  -2  -2    3.44    0.92
   4   2   2    3.04    0.92
  -4  -2  -3   19.71    1.42
   4   2   3   19.17    2.02
  -4  -2  -4   16.58    1.41
   4   2   4   16.80    1.50
  -4  -2  -5    4.08    1.19
   4   2   5    5.43    1.21
  -4  -2  -6    0.76    1.28
   4   2   6    1.45    1.36
  -4  -2  -7    5.90    1.70
   4   2   7    5.26    1.65
  -4  -2  -8   -0.12    1.58
   4   2   8    0.13    1.54
  -4  -2  -9   18.40    2.42
   4   2   9   18.45    2.06
  -4  -2 -10   35.60    2.76
   4   2  10   34.54    2.54
  -4  -2 -11   -0.74    2.62
   4   2  11    0.17    1.05
  -4  -2 -12    0.12    1.74
   4   2  12   -1.34    2.49
  -4  -2 -13    0.02    3.08
   4   2  13    8.35    2.16
  -4  -2 -14    0.62    2.56
   4   2  14   -0.27    3.66
  -4  -1  14   -0.52    1.05
   4   1 -14    7.55    2.59
  -4  -1  13    0.93    1.58
   4   1 -13    5.74    2.14
  -4  -1  12    1.49    1.85
   4   1 -12    1.92    1.86
  -4  -1  11   -0.99    1.59
   4   1 -11    0.09    1.94
  -4  -1  10   -1.73    1.85
   4   1 -10   -0.21    1.75
  -4  -1   9    4.17    1.72
   4   1  -9    1.97    2.02
  -4  -1   8    2.88    1.75
   4   1  -8    2.45    1.47
  -4  -1   7    4.91    1.60
   4   1  -7    1.90    1.74
  -4  -1   6   13.91    1.88
   4   1  -6   15.59    1.95
  -4  -1   5   45.17    2.76
   4   1  -5   41.68    2.76
  -4  -1   4   33.62    2.25
   4   1  -4   35.04    2.32
  -4  -1   3   18.05    1.58
   4   1  -3   19.13    1.56
  -4  -1   2   47.14    2.40
   4   1  -2   45.60    2.32
  -4  -1   1   25.13    1.56
   4   1  -1   24.54    1.53
  -4  -1   0   10.39    1.07
   4   1   0   10.34    1.04
  -4  -1  -1   19.39    1.39
   4   1   1   18.98    1.28
  -4  -1  -2    8.35    1.10
   4   1   2    8.26    1.09
  -4  -1  -3   74.47    3.31
   4   1   3   75.42    4.77
  -4  -1  -4    1.01    1.13
   4   1   4   -0.14    1.07
  -4  -1  -5    5.99    1.27
   4   1   5    6.52    1.73
  -4  -1  -6   49.66    2.75
   4   1   6   48.32    2.70
  -4  -1  -7    5.16    1.66
   4   1   7    3.66    1.62
  -4  -1  -8   -1.25    1.74
   4   1   8    0.46    1.73
  -4  -1  -9    1.35    1.80
   4   1   9    1.76    1.82
  -4  -1 -10    7.09    1.90
   4   1  10    1.79    2.29
  -4  -1 -11   -0.30    1.79
   4   1  11    1.26    1.81
  -4  -1 -12    6.22    2.20
   4   1  12    1.19    2.43
  -4  -1 -13    1.57    2.60
   4   1  13    7.12    3.15
  -4  -1 -14    3.81    2.49
   4   1  14    5.53    3.60
  -4   0  14    6.35    1.57
   4   0 -14    2.32    3.09
  -4   0  13   -0.75    1.55
   4   0 -13   -0.43    1.88
  -4   0  12    0.75    1.56
   4   0 -12    0.30    2.19
  -4   0  11    2.88    1.70
   4   0 -11    4.91    1.96
  -4   0  10    1.73    1.72
   4   0 -10    0.13    1.63
  -4   0   9    4.42    1.83
   4   0  -9    3.56    1.78
  -4   0   8   41.07    2.67
   4   0  -8   41.31    2.96
  -4   0   7   17.60    1.99
   4   0  -7   18.59    2.08
  -4   0   6   43.22    2.94
   4   0  -6   40.77    2.85
  -4   0   5   42.11    2.65
   4   0  -5   43.76    2.68
  -4   0   4   79.20    3.65
   4   0  -4   82.19    4.06
  -4   0   3    0.68    1.15
   4   0  -3    1.68    0.97
  -4   0   2    9.57    1.24
   4   0  -2   11.07    1.18
  -4   0   1    2.25    0.95
   4   0  -1    2.93    0.88
  -4   0   0   45.22    2.00
   4   0   0   48.69    2.09
  -4   0  -1    0.71    0.97
   4   0   1    0.54    0.84
  -4   0  -2   87.70    3.55
   4   0   2   79.80    4.63
  -4   0  -3   -0.98    1.02
   4   0   3   -0.19    0.90
  -4   0  -4    7.04    1.33
   4   0   4   10.41    1.98
  -4   0  -5   24.30    1.88
   4   0   5   22.14    1.60
  -4   0  -6    6.51    1.43
   4   0   6    5.44    1.50
  -4   0  -7  148.94    5.22
   4   0   7  142.24    4.98
  -4   0  -8   48.28    3.03
   4   0   8   45.10    2.71
  -4   0  -9    3.15    1.96
   4   0   9    1.31    1.87
  -4   0 -10    1.00    2.17
   4   0  10    0.23    1.93
  -4   0 -11    2.89    1.80
   4   0  11    2.57    1.77
  -4   0 -12   -0.26    1.22
   4   0  12    0.51    1.60
  -4   0 -13   -0.74    2.46
   4   0  13    2.08    2.82
  -4   0 -14    0.03    2.37
   4   0  14   -0.75    1.64
  -4   1  14    0.03    1.02
   4  -1 -14    1.54    1.27
  -4   1  13    0.47    1.17
   4  -1 -13   -1.05    1.37
  -4   1  12    1.06    1.11
   4  -1 -12    2.57    1.86
  -4   1  11    1.74    2.01
   4  -1 -11   -0.24    1.73
  -4   1  10    3.04    1.91
   4  -1 -10    0.83    1.95
  -4   1   9    2.35    1.54
   4  -1  -9    1.56    1.72
  -4   1   8   23.36    2.08
   4  -1  -8   18.35    2.04
  -4   1   7    0.56    1.46
   4  -1  -7    1.38    1.60
  -4   1   6    1.47    1.42
   4  -1  -6    2.26    1.42
  -4   1   5    7.16    1.39
   4  -1  -5    6.35    1.45
  -4   1   4   26.46    1.94
   4  -1  -4   26.93    1.82
  -4   1   3   16.16    1.47
   4  -1  -3   15.90    1.52
  -4   1   2    0.43    0.93
   4  -1  -2   -0.11    0.92
  -4   1   1  101.83    3.83
   4  -1  -1  106.94    3.97
  -4   1   0  246.22    7.57
   4  -1   0  242.16    7.49
  -4   1  -1  451.24   12.24
   4  -1   1  466.36   12.01
  -4   1  -2   57.56    2.59
   4  -1   2   56.87    2.49
  -4   1  -3  147.28    5.22
   4  -1   3  138.61    4.65
  -4   1  -4   68.84    2.98
   4  -1   4   62.19    2.55
  -4   1  -5    2.30    0.97
   4  -1   5    2.78    1.13
  -4   1  -6    6.18    1.38
   4  -1   6    6.19    1.46
  -4   1  -7   14.67    1.84
   4  -1   7   14.71    1.67
  -4   1  -8   62.99    3.38
   4  -1   8   61.79    2.67
  -4   1  -9    1.03    1.75
   4  -1   9    0.91    1.67
  -4   1 -10    0.29    2.28
   4  -1  10    0.56    2.05
  -4   1 -11    0.38    2.26
   4  -1  11    0.90    2.38
  -4   1 -12   -0.77    1.08
   4  -1  12    0.04    1.28
  -4   1 -13   -0.71    2.21
   4  -1  13   -0.10    1.62
  -4   1 -14    4.78    1.56
   4  -1  14    0.40    2.16
  -4   2  14   -0.63    1.54
   4  -2 -14    5.41    2.16
  -4   2  13    2.03    1.44
   4  -2 -13    4.05    1.41
  -4   2  12    8.28    1.56
   4  -2 -12    6.93    1.91
  -4   2  11   -0.46    1.67
   4  -2 -11    0.60    1.51
  -4   2  10    2.85    1.83
   4  -2 -10    1.63    1.82
  -4   2   9   19.97    3.03
   4  -2  -9   20.70    2.27
  -4   2   8   40.32    2.76
   4  -2  -8   40.74    2.71
  -4   2   7   74.09    3.24
   4  -2  -7   66.66    3.41
  -4   2   6    8.15    1.69
   4  -2  -6    7.55    1.56
  -4   2   5   52.53    2.71
   4  -2  -5   53.15    2.95
  -4   2   4    4.01    1.26
   4  -2  -4    3.15    1.22
  -4   2   3    2.77    1.13
   4  -2  -3    2.03    1.11
  -4   2   2    5.15    1.13
   4  -2  -2    4.12    1.05
  -4   2   1    6.85    1.01
   4  -2  -1    8.58    1.02
   4  -2   0   42.18    1.88
  -4   2  -1   20.84    1.35
   4  -2   1   20.40    1.29
  -4   2  -2   86.74    3.56
   4  -2   2   84.45    3.31
  -4   2  -3    0.12    0.93
   4  -2   3    0.50    0.99
  -4   2  -4    0.53    1.25
   4  -2   4   -0.33    1.19
  -4   2  -5   20.62    1.72
   4  -2   5   23.91    1.64
  -4   2  -6    0.03    1.29
   4  -2   6   -0.37    1.18
  -4   2  -7    0.66    1.60
   4  -2   7    0.35    1.36
  -4   2  -8   -1.22    1.78
   4  -2   8    1.25    1.74
  -4   2  -9   39.26    2.80
   4  -2   9   38.22    2.54
  -4   2 -10   11.88    2.17
   4  -2  10    9.43    1.98
  -4   2 -11   27.87    2.57
   4  -2  11   27.44    2.53
  -4   2 -12    0.88    3.63
   4  -2  12    4.65    2.76
  -4   2 -13   -1.16    1.86
   4  -2  13   -0.48    2.13
  -4   3  14    0.37    1.24
   4  -3 -14   10.45    2.52
  -4   3  13   -0.80    2.53
   4  -3 -13   -2.38    2.21
  -4   3  12    6.52    2.09
   4  -3 -12    2.14    1.68
  -4   3  11   -0.79    1.73
   4  -3 -11   -2.25    1.71
  -4   3  10    0.67    1.69
   4  -3 -10    1.41    1.84
  -4   3   9    2.00    1.68
   4  -3  -9   -2.85    3.08
  -4   3   8   18.12    2.05
   4  -3  -8   15.48    1.88
  -4   3   7   24.48    2.13
   4  -3  -7   25.21    2.22
  -4   3   6    3.23    1.43
   4  -3  -6    0.69    1.81
  -4   3   5    5.97    1.48
   4  -3  -5    7.21    1.55
  -4   3   4   38.15    2.48
   4  -3  -4   39.58    2.55
  -4   3   3   13.33    1.49
   4  -3  -3   17.62    1.57
  -4   3   2    2.75    1.12
   4  -3  -2    1.08    1.37
  -4   3   1   23.79    1.56
   4  -3  -1   24.57    2.05
  -4   3   0    0.34    0.87
   4  -3   0   -0.77    1.12
  -4   3  -1   23.94    1.49
   4  -3   1   27.54    1.94
  -4   3  -2   59.56    2.70
   4  -3   2   66.88    2.83
  -4   3  -3  110.65    4.73
   4  -3   3  115.37    4.42
  -4   3  -4   23.49    1.87
   4  -3   4   26.44    1.80
  -4   3  -5   10.19    1.50
   4  -3   5   12.92    1.41
  -4   3  -6   30.82    2.29
   4  -3   6   30.07    2.07
  -4   3  -7   -1.66    1.49
   4  -3   7    2.17    1.46
  -4   3  -8    1.03    1.63
   4  -3   8    5.28    1.66
  -4   3  -9    2.24    2.00
   4  -3   9    2.14    1.61
  -4   3 -10    1.40    1.69
   4  -3  10    1.35    1.75
  -4   3 -11    5.15    2.41
   4  -3  11    9.44    2.02
  -4   3 -12    1.36    2.10
   4  -3  12    3.72    1.81
  -4   3 -13   -1.67    2.98
   4  -3  13    0.02    1.76
   4  -3  14   -0.26    1.58
  -4   4  13    0.50    1.67
   4  -4 -13    2.37    1.99
  -4   4  12    2.32    2.19
   4  -4 -12    2.37    2.19
  -4   4  11    1.05    1.93
   4  -4 -11    1.97    3.56
  -4   4  10    9.47    2.09
   4  -4 -10   11.00    2.07
  -4   4   9    7.47    1.71
   4  -4  -9    7.92    1.81
  -4   4   8   29.90    2.19
   4  -4  -8   27.36    2.29
  -4   4   7   13.10    1.97
   4  -4  -7   12.83    1.99
  -4   4   6   10.60    1.72
   4  -4  -6   10.61    1.66
  -4   4   5    7.13    1.67
   4  -4  -5    7.06    1.63
  -4   4   4   24.82    2.03
   4  -4  -4   23.03    1.99
  -4   4   3   73.51    2.96
   4  -4  -3   72.92    2.89
  -4   4   2   20.01    1.53
   4  -4  -2   21.20    1.51
  -4   4   1    3.62    0.95
   4  -4  -1    2.92    1.03
  -4   4   0    5.49    1.08
   4  -4   0    5.37    1.00
  -4   4  -1    1.15    1.00
   4  -4   1    0.78    0.93
  -4   4  -2    0.77    1.06
   4  -4   2    0.56    0.95
  -4   4  -3    8.49    1.29
   4  -4   3    6.24    1.09
  -4   4  -4    0.03    1.26
   4  -4   4   -0.64    1.07
  -4   4  -5   37.62    2.11
   4  -4   5   37.03    3.11
  -4   4  -6   24.50    1.96
   4  -4   6   23.38    1.75
  -4   4  -7   18.35    2.05
   4  -4   7   18.05    1.87
  -4   4  -8    0.45    1.53
   4  -4   8    0.38    1.86
  -4   4  -9    0.99    1.65
   4  -4   9    0.83    1.63
  -4   4 -10  103.72    4.04
   4  -4  10   99.00    3.85
  -4   4 -11    1.02    2.34
   4  -4  11    0.58    2.20
  -4   4 -12   36.42    2.95
   4  -4  12   36.61    2.87
  -4   4 -13    2.37    2.27
   4  -4  13    0.02    0.89
  -4   5  13    6.73    2.26
   4  -5 -13   12.56    2.34
  -4   5  12    3.93    2.17
   4  -5 -12    3.73    1.97
  -4   5  11   -1.25    2.55
   4  -5 -11   -0.88    3.28
  -4   5  10    0.61    1.77
   4  -5 -10    0.40    1.46
  -4   5   9   12.64    2.07
   4  -5  -9   11.05    1.98
  -4   5   8    5.92    1.80
   4  -5  -8   11.45    2.01
  -4   5   7    3.79    1.72
   4  -5  -7    1.31    1.80
  -4   5   6    6.31    1.68
   4  -5  -6    5.01    1.76
  -4   5   5    3.75    1.49
   4  -5  -5    2.47    1.55
  -4   5   4    2.35    1.33
   4  -5  -4   -0.69    1.35
  -4   5   3   16.74    1.51
   4  -5  -3   15.93    1.54
  -4   5   2    5.08    1.29
   4  -5  -2    6.73    1.38
  -4   5   1   18.58    1.52
   4  -5  -1   20.88    1.57
  -4   5   0   11.16    1.16
   4  -5   0   11.52    1.11
  -4   5  -1   -0.44    0.93
   4  -5   1   -0.32    1.02
  -4   5  -2    2.81    1.17
   4  -5   2    1.74    1.11
  -4   5  -3   22.01    1.76
   4  -5   3   21.48    1.50
  -4   5  -4    7.56    1.27
   4  -5   4    9.46    1.43
  -4   5  -5   77.63    3.13
   4  -5   5   70.84    4.65
  -4   5  -6   53.66    2.64
   4  -5   6   59.43    2.74
  -4   5  -7   31.46    2.38
   4  -5   7   34.34    2.21
  -4   5  -8   32.21    2.29
   4  -5   8   33.18    2.48
  -4   5  -9    2.19    1.90
   4  -5   9    1.74    1.81
  -4   5 -10    2.65    1.79
   4  -5  10    1.06    1.83
  -4   5 -11   -1.09    1.73
   4  -5  11   -0.67    1.82
  -4   5 -12    2.98    1.91
   4  -5  12    1.40    1.85
  -4   5 -13    1.97    3.11
   4  -5  13   -1.78    2.52
  -4   6  13    1.85    2.26
   4  -6 -13   -1.64    2.25
  -4   6  12    3.54    1.59
   4  -6 -12   -0.59    2.95
  -4   6  11    3.55    1.83
   4  -6 -11    1.04    2.32
  -4   6  10   11.14    1.43
   4  -6 -10   10.99    3.27
  -4   6   9   -0.07    2.02
   4  -6  -9    0.46    1.76
  -4   6   8    2.38    1.65
   4  -6  -8    2.68    1.75
  -4   6   7    4.31    1.66
   4  -6  -7    5.10    1.68
  -4   6   6    7.97    1.66
   4  -6  -6    6.01    1.57
  -4   6   5    2.77    1.51
   4  -6  -5    2.33    1.63
  -4   6   4   21.03    1.92
   4  -6  -4   18.94    1.92
  -4   6   3   51.19    2.43
   4  -6  -3   49.09    2.51
  -4   6   2   -0.16    1.13
   4  -6  -2    0.50    1.14
  -4   6   1    1.31    1.09
   4  -6  -1    1.45    1.01
  -4   6   0    8.70    1.28
   4  -6   0   10.62    1.27
  -4   6  -1    1.73    1.13
   4  -6   1    1.39    1.01
  -4   6  -2    4.04    1.18
   4  -6   2    5.17    1.17
  -4   6  -3    1.24    1.37
   4  -6   3    1.13    1.21
  -4   6  -4   12.60    1.81
   4  -6   4   11.72    1.66
  -4   6  -5    6.06    1.46
   4  -6   5    6.82    2.03
  -4   6  -6    4.00    1.65
   4  -6   6    4.72    1.51
  -4   6  -7    2.91    1.37
   4  -6   7    3.64    1.65
  -4   6  -8   29.28    2.41
   4  -6   8   33.12    2.45
  -4   6  -9    0.52    1.62
   4  -6   9    1.77    1.52
  -4   6 -10    1.06    1.78
   4  -6  10    2.24    1.98
  -4   6 -11    4.91    1.28
   4  -6  11    0.08    1.13
  -4   6 -12    0.88    2.33
   4  -6  12    4.94    2.03
  -4   6 -13   -0.10    2.04
   4  -6  13    0.02    1.50
  -4   7  12   10.92    2.21
   4  -7 -12    9.83    1.72
  -4   7  11   -0.19    2.54
   4  -7 -11   -0.33    3.29
  -4   7  10    0.19    1.52
   4  -7 -10   -1.90    2.87
  -4   7   9   -0.19    1.21
   4  -7  -9    0.45    1.58
  -4   7   8    1.12    1.52
   4  -7  -8    2.78    1.83
  -4   7   7    3.55    1.85
   4  -7  -7    2.55    2.01
  -4   7   6    3.35    1.69
   4  -7  -6    3.01    1.68
  -4   7   5   -0.17    1.35
   4  -7  -5    0.13    1.30
  -4   7   4   11.78    1.78
   4  -7  -4   12.06    1.82
  -4   7   3   60.77    3.14
   4  -7  -3   61.89    3.14
  -4   7   2   -2.06    1.20
   4  -7  -2    0.55    1.17
  -4   7   1   22.64    1.76
   4  -7  -1   21.56    1.63
  -4   7   0    1.47    1.15
   4  -7   0    0.78    0.94
  -4   7  -1   27.39    1.94
   4  -7   1   27.22    1.90
  -4   7  -2    1.67    1.14
   4  -7   2    1.04    1.19
  -4   7  -3    7.34    1.42
   4  -7   3    5.58    1.29
  -4   7  -4    0.47    1.48
   4  -7   4    0.65    1.46
  -4   7  -5    3.27    1.83
   4  -7   5    3.54    1.79
  -4   7  -6   15.38    2.20
   4  -7   6   14.73    1.95
  -4   7  -7   11.92    2.17
   4  -7   7   12.55    1.88
  -4   7  -8    0.56    1.67
   4  -7   8   -0.28    2.00
  -4   7  -9   -2.48    1.71
   4  -7   9    0.05    2.68
  -4   7 -10   -0.25    1.56
   4  -7  10   -0.30    1.42
  -4   7 -11   -0.23    1.52
   4  -7  11   -0.41    2.25
  -4   8  11    4.65    2.00
  -4   8  10    1.15    1.63
  -4   8   9   -0.13    0.94
   4  -8  -9   -0.46    2.34
  -4   8   8    1.15    1.42
   4  -8  -8    1.58    1.69
  -4   8   7   15.81    2.05
   4  -8  -7   14.68    2.22
  -4   8   6    7.89    1.62
   4  -8  -6    8.64    1.85
  -4   8   5    2.96    1.63
   4  -8  -5   -0.40    1.74
  -4   8   4   51.25    3.08
   4  -8  -4   50.85    2.83
  -4   8   3   65.97    3.37
   4  -8  -3   63.04    3.57
  -4   8   2   37.44    2.30
   4  -8  -2   37.21    2.28
  -4   8   1   19.31    1.62
   4  -8  -1   17.61    1.90
  -4   8   0   13.96    1.46
   4  -8   0   15.15    1.44
  -4   8  -1    5.08    1.43
   4  -8   1    4.80    1.19
  -4   8  -2    1.17    1.33
   4  -8   2    0.25    1.33
  -4   8  -3    0.08    1.51
   4  -8   3    0.78    1.51
  -4   8  -4    4.16    1.69
   4  -8   4    4.29    1.58
  -4   8  -5   -1.27    1.90
   4  -8   5    0.99    1.74
  -4   8  -6    6.40    2.14
   4  -8   6    4.19    1.68
  -4   8  -7    2.68    1.99
   4  -8   7    4.56    1.87
  -4   8  -8   -0.41    1.95
   4  -8   8   -0.86    3.22
  -4   8  -9    1.96    2.43
   4  -8   9    0.36    2.50
  -4   8 -10    5.61    1.74
   4  -8  10    5.73    1.36
  -4   8 -11    0.03    1.45
   4  -8  11    0.93    1.39
  -4   9  11   13.04    3.12
   4  -9 -11    9.02    3.05
   4  -9 -10   -1.29    2.29
  -4   9   9    3.94    1.53
   4  -9  -9    1.27    1.35
  -4   9   8   17.04    2.30
   4  -9  -8   20.47    2.40
  -4   9   7    0.39    1.88
   4  -9  -7   -0.23    1.94
  -4   9   6   31.68    2.36
   4  -9  -6   40.44    2.88
  -4   9   5    2.88    1.77
   4  -9  -5    2.02    1.86
  -4   9   4    0.89    1.69
   4  -9  -4    1.51    1.80
  -4   9   3    2.18    1.82
   4  -9  -3    1.73    1.90
  -4   9   2    2.33    1.46
   4  -9  -2    2.64    1.45
  -4   9   1   59.84    3.22
   4  -9  -1   55.14    3.21
  -4   9   0   -0.98    1.56
   4  -9   0    2.72    1.50
  -4   9  -1   25.28    2.14
   4  -9   1   23.60    1.99
  -4   9  -2   -0.42    1.82
   4  -9   2    1.02    1.36
  -4   9  -3    1.10    1.54
   4  -9   3   -0.02    1.58
  -4   9  -4    1.08    1.64
   4  -9   4   -0.26    1.59
  -4   9  -5   45.32    3.28
   4  -9   5   48.10    3.08
  -4   9  -6   33.48    2.80
   4  -9   6   32.22    2.62
  -4   9  -7    0.72    1.92
   4  -9   7   -0.99    1.85
  -4   9  -8   -0.16    2.66
   4  -9   8    2.49    3.34
  -4   9  -9   -1.01    2.76
   4  -9   9   -0.11    2.15
  -4   9 -10    1.01    1.34
   4  -9  10   12.80    1.66
  -4   9 -11    0.81    0.96
   4  -9  11    0.46    2.25
   4 -10 -10   -0.11    1.95
  -4  10   9    1.77    1.97
   4 -10  -9    1.04    2.80
   4 -10  -8    4.75    2.29
  -4  10   7   -0.73    2.57
   4 -10  -7   -1.00    3.88
  -4  10   6    0.46    1.83
   4 -10  -6    2.10    2.08
  -4  10   5    3.13    2.42
   4 -10  -5    0.85    1.67
  -4  10   4    0.35    1.64
   4 -10  -4    0.14    1.42
  -4  10   3   27.47    2.42
   4 -10  -3   25.29    2.75
  -4  10   2   33.25    2.81
   4 -10  -2   31.37    3.02
  -4  10   1    9.43    1.74
   4 -10  -1    7.55    1.72
  -4  10   0    1.62    1.61
   4 -10   0    0.96    1.45
  -4  10  -1   44.23    3.08
   4 -10   1   45.15    2.85
  -4  10  -2   -2.98    2.00
   4 -10   2   -0.58    1.53
  -4  10  -3    0.03    2.00
   4 -10   3    0.78    1.81
  -4  10  -4    0.45    1.65
   4 -10   4   -1.47    2.09
  -4  10  -5    0.32    2.16
   4 -10   5    4.08    2.02
  -4  10  -6   19.55    2.82
   4 -10   6   27.81    2.85
  -4  10  -7    3.47    3.29
   4 -10   7    2.27    1.32
  -4  10  -8   -0.36    2.56
   4 -10   8    0.54    2.05
  -4  10  -9    0.78    2.04
   4 -10   9    4.07    1.99
  -4  10 -10   -0.44    3.01
   4 -10  10    0.98    1.62
   4 -10  11    1.28    3.70
  -4  11  10    7.00    1.93
   4 -11  -8   -0.19    3.65
  -4  11   7   18.57    3.11
  -4  11   6   -0.58    1.66
  -4  11   5    4.96    1.85
   4 -11  -5    6.77    1.84
  -4  11   4    0.13    1.83
   4 -11  -4   -1.24    1.36
  -4  11   3   -0.06    1.60
   4 -11  -3   -1.60    1.74
  -4  11   2    1.83    1.83
   4 -11  -2    0.75    2.18
  -4  11   1    2.84    1.75
   4 -11  -1    0.95    1.64
  -4  11   0   13.53    2.45
   4 -11   0    9.09    2.23
  -4  11  -1   26.41    3.14
   4 -11   1   30.29    3.18
  -4  11  -2    1.33    2.28
   4 -11   2   -0.17    1.64
  -4  11  -3   -1.09    2.35
   4 -11   3    0.05    2.55
  -4  11  -4    3.18    1.99
   4 -11   4    5.45    1.98
  -4  11  -5    0.83    2.84
   4 -11   5    3.00    1.58
  -4  11  -6    6.43    2.00
   4 -11   6   12.73    2.02
  -4  11  -7   -1.08    3.62
   4 -11   7   -1.82    4.15
  -4  11  -8    7.13    1.62
   4 -11   8    9.04    2.67
   4 -11   9   -0.84    1.33
  -4  12   6    2.57    1.42
   4 -12  -6   -1.33    3.55
   4 -12  -5    7.02    2.93
   4 -12  -2    7.93    2.52
  -4  12   1    3.66    3.00
   4 -12  -1    1.69    1.98
  -4  12   0   -0.29    1.84
   4 -12   0    1.24    1.99
  -4  12  -1   93.20    4.36
   4 -12   1   88.31    4.48
  -4  12  -2   67.87    4.44
   4 -12   2   71.03    3.50
  -4  12  -3    9.99    2.69
   4 -12   3    2.18    1.04
  -4  12  -4    0.01    1.46
   4 -12   4    0.65    1.08
   4 -12   5    4.97    1.92
  -4  12  -6    5.00    1.64
   4 -12   6    2.92    1.70
  -4  12  -7   -0.26    2.34
   4 -12   7   -0.08    1.33
  -4  12  -8    7.52    2.34
  -4  13   5    7.42    2.74
   4 -13  -5    1.27    3.31
  -4  13   1   -0.82    2.50
   4 -13  -1    7.11    3.18
  -4  13   0    0.82    2.74
   4 -13   0    0.24    2.17
  -4  13  -1    0.32    2.79
   4 -13   1   -0.70    2.43
  -4  13  -2   -1.09    4.08
  -4  13  -3    2.20    3.86
   4 -13   3    0.11    3.47
  -4  13  -4    0.44    3.94
   4 -13   4   -0.49    1.58
  -4  13  -5    3.68    3.92
   4 -13   5    7.42    2.04
  -4  13  -6    9.14    2.98
   4 -13   6    6.12    2.06
   4 -14  -3   11.66    3.94
   4 -14  -2   -2.12    3.30
  -4  14   1   10.21    2.78
  -4  14   0    1.56    2.49
   4 -14   3    8.63    2.24
   4 -14   4    6.01    2.23
  -4  14  -5   -0.76    2.31
   4 -14   5   -0.80    1.93
  -5  -8  -4    4.16    1.95
  -5  -8  -5   -0.94    2.42
  -5  -8  -6   12.17    3.04
  -5  -8  -7    9.81    3.45
  -5  -7   6   20.97    3.39
  -5  -7   5    2.32    2.83
   5   7  -5    5.90    2.76
  -5  -7   4    1.01    2.62
   5   7  -4    0.50    2.49
  -5  -7   3    5.95    1.30
   5   7  -3    4.06    1.87
  -5  -7   2    0.67    2.13
  -5  -7   1   10.45    1.51
   5   7  -1   12.92    1.44
  -5  -7   0   14.56    3.20
   5   7   0   17.91    2.64
  -5  -7  -1    2.85    1.85
   5   7   1   -0.51    1.61
   5   7   2   -0.93    1.98
  -5  -7  -3   71.92    3.41
   5   7   3   61.35    3.19
  -5  -7  -4    7.49    1.95
   5   7   4    9.42    2.27
  -5  -7  -6   -0.15    2.14
   5   6  -9   -0.19    3.16
  -5  -6   8    3.32    3.23
   5   6  -8    6.83    3.30
   5   6  -7    1.64    1.86
  -5  -6   6    0.17    1.56
   5   6  -6    1.40    1.65
  -5  -6   5    1.81    3.35
   5   6  -5    0.99    1.95
  -5  -6   4    4.61    2.18
   5   6  -4    6.25    2.24
  -5  -6   3   23.33    2.14
   5   6  -3   26.90    2.24
  -5  -6   2    0.69    1.72
   5   6  -2   -0.59    1.64
  -5  -6   1    5.90    1.16
   5   6  -1   10.84    1.73
  -5  -6   0    2.84    1.51
   5   6   0    3.08    1.67
  -5  -6  -1    2.93    1.52
   5   6   1    5.75    1.68
  -5  -6  -2   11.87    2.19
   5   6   2   11.37    2.07
  -5  -6  -3    7.62    1.77
   5   6   3    7.48    1.83
  -5  -6  -4    2.97    1.83
   5   6   4    0.11    1.72
  -5  -6  -5    2.08    3.24
   5   6   5    1.00    1.70
  -5  -6  -6   -0.42    1.85
   5   6   6    0.42    2.41
  -5  -6  -7    0.21    2.30
   5   6   7    1.10    2.20
  -5  -6  -8   -0.18    1.86
  -5  -6  -9   -1.39    2.25
   5   6   9   -1.38    2.92
  -5  -6 -10    2.51    2.56
   5   5 -12    0.98    2.73
   5   5 -11    0.65    2.21
   5   5 -10    9.78    2.95
   5   5  -9    0.56    1.76
  -5  -5   8   -0.36    1.68
   5   5  -8   -0.66    2.32
  -5  -5   7    0.11    1.81
   5   5  -7    2.11    2.31
  -5  -5   6    4.09    2.67
   5   5  -6    5.74    1.97
  -5  -5   5    4.44    2.25
   5   5  -5    7.75    1.85
  -5  -5   4    2.24    1.67
   5   5  -4    0.99    1.99
  -5  -5   3   -1.04    1.45
   5   5  -3    0.92    1.49
  -5  -5   2    0.70    1.69
   5   5  -2    3.90    1.70
  -5  -5   1    2.73    1.60
   5   5  -1    1.40    1.68
  -5  -5   0    9.52    1.62
   5   5   0    9.31    1.74
  -5  -5  -1   19.20    1.97
   5   5   1   18.57    2.06
  -5  -5  -2   14.41    1.88
   5   5   2   13.05    1.89
  -5  -5  -3    0.38    1.64
   5   5   3    1.40    1.41
  -5  -5  -4    3.32    1.94
   5   5   4    5.34    1.97
  -5  -5  -5    5.90    1.93
   5   5   5    3.37    1.89
  -5  -5  -6   11.29    2.65
   5   5   6    9.03    2.49
  -5  -5  -7    5.98    2.16
   5   5   7    3.56    2.27
  -5  -5  -8   11.23    2.07
   5   5   8   11.68    2.11
  -5  -5  -9    1.34    3.82
   5   5   9   -2.89    2.65
  -5  -5 -10    0.77    3.44
   5   5  10   -2.21    3.27
  -5  -5 -11   12.11    2.15
  -5  -5 -12    0.25    3.17
   5   5  12   -1.66    2.93
   5   4 -13    6.34    3.58
  -5  -4  12    4.61    3.02
   5   4 -12    5.65    2.24
  -5  -4  11   -0.04    1.95
   5   4 -11    8.71    2.25
  -5  -4  10    0.58    2.42
   5   4 -10   -1.76    3.89
  -5  -4   9    3.08    3.03
   5   4  -9    0.57    1.07
  -5  -4   8    0.07    1.84
   5   4  -8    1.31    2.05
  -5  -4   7    8.49    2.14
   5   4  -7    6.06    2.80
  -5  -4   6   32.85    2.75
   5   4  -6   32.57    2.61
  -5  -4   5    8.12    1.85
   5   4  -5   12.48    2.10
  -5  -4   4    3.50    1.73
   5   4  -4    6.73    1.98
  -5  -4   3    0.54    1.55
   5   4  -3    1.08    1.46
  -5  -4   2   38.97    2.63
   5   4  -2   44.47    2.83
  -5  -4   1   -0.11    1.49
   5   4  -1   -0.78    1.51
  -5  -4   0    7.23    1.39
   5   4   0    6.18    1.50
  -5  -4  -1    6.56    1.59
   5   4   1    7.89    1.44
  -5  -4  -2   14.26    1.74
   5   4   2   15.42    1.76
  -5  -4  -3   23.52    1.98
   5   4   3   20.96    2.02
  -5  -4  -4   13.12    1.81
   5   4   4   11.12    1.57
  -5  -4  -5    6.85    1.85
   5   4   5    4.64    1.88
  -5  -4  -6    0.79    1.96
   5   4   6    0.67    2.25
  -5  -4  -7   56.01    3.17
   5   4   7   48.69    3.22
  -5  -4  -8    1.69    2.09
   5   4   8    5.74    2.01
  -5  -4  -9   15.76    2.01
   5   4   9   13.12    2.21
  -5  -4 -10    2.37    2.51
   5   4  10   -0.75    2.36
  -5  -4 -11    1.10    2.91
   5   4  11    0.35    3.02
  -5  -4 -12    8.94    3.29
   5   4  12   17.40    3.07
  -5  -4 -13    4.86    1.97
   5   3 -13   12.53    4.17
  -5  -3  12    0.84    2.09
   5   3 -12   -0.96    1.97
  -5  -3  11    4.91    2.63
   5   3 -11    1.38    3.83
  -5  -3  10    1.21    1.41
   5   3 -10   -0.11    1.95
  -5  -3   9   11.72    1.85
   5   3  -9   16.65    2.02
  -5  -3   8    1.18    1.87
   5   3  -8    2.36    2.05
  -5  -3   7    4.60    2.05
   5   3  -7    6.37    1.87
  -5  -3   6   11.49    2.07
   5   3  -6   14.40    2.03
  -5  -3   5   -0.39    2.13
   5   3  -5    1.02    1.71
  -5  -3   4   29.47    2.62
   5   3  -4   30.71    2.60
  -5  -3   3    0.26    1.44
   5   3  -3    0.22    1.45
  -5  -3   2    9.17    1.47
   5   3  -2    8.68    1.54
  -5  -3   1   16.21    1.59
   5   3  -1   14.42    1.69
  -5  -3   0    3.02    1.15
   5   3   0    1.01    1.29
  -5  -3  -1    3.32    1.09
   5   3   1    4.14    1.09
  -5  -3  -2   -0.13    1.13
   5   3   2    0.54    1.26
  -5  -3  -3    6.30    1.66
   5   3   3    5.86    1.62
  -5  -3  -4    1.71    1.52
   5   3   4    4.10    1.55
  -5  -3  -5    1.03    1.57
   5   3   5    0.27    1.62
  -5  -3  -6   11.82    2.19
   5   3   6   11.33    2.10
  -5  -3  -7    1.96    1.93
   5   3   7    0.70    2.01
  -5  -3  -8   24.55    2.58
   5   3   8   21.25    2.54
  -5  -3  -9   -0.54    2.05
   5   3   9   -0.25    2.19
  -5  -3 -10   -1.03    2.31
   5   3  10    0.63    2.04
  -5  -3 -11   -0.29    2.96
   5   3  11   -1.11    3.42
  -5  -3 -12    1.31    2.64
  -5  -3 -13    4.34    2.79
  -5  -2  13    6.04    2.78
   5   2 -13   10.76    4.48
  -5  -2  12   -0.02    1.32
   5   2 -12    6.17    4.10
   5   2 -11   -1.33    1.73
  -5  -2  10   -0.13    1.79
   5   2 -10    4.99    2.55
  -5  -2   9   -0.80    2.12
   5   2  -9    2.16    2.46
  -5  -2   8    6.95    2.11
   5   2  -8    4.49    1.84
  -5  -2   7    0.78    1.93
   5   2  -7    0.57    1.91
  -5  -2   6    0.38    1.71
   5   2  -6    1.29    1.87
  -5  -2   5    5.19    1.86
   5   2  -5    3.52    1.67
  -5  -2   4   21.86    2.12
   5   2  -4   23.86    2.27
  -5  -2   3   -0.57    1.45
   5   2  -3   -1.00    1.44
  -5  -2   2   32.44    2.25
   5   2  -2   35.62    2.24
  -5  -2   1    7.10    1.42
   5   2  -1    7.90    1.44
  -5  -2   0    2.14    1.24
   5   2   0    2.06    1.23
  -5  -2  -1    2.09    1.02
   5   2   1    3.17    1.16
  -5  -2  -2   11.61    1.44
   5   2   2    7.61    1.28
  -5  -2  -3    0.33    1.64
   5   2   3    0.81    1.37
  -5  -2  -4   49.00    2.63
   5   2   4   43.91    2.47
  -5  -2  -5    2.13    1.32
   5   2   5    3.35    1.62
  -5  -2  -6    2.97    1.75
   5   2   6    3.28    1.85
  -5  -2  -7    4.23    2.06
   5   2   7    1.36    1.98
  -5  -2  -8    8.41    2.17
   5   2   8    6.11    2.19
  -5  -2  -9    2.65    2.03
   5   2   9    4.66    2.17
  -5  -2 -10    4.14    2.16
   5   2  10    2.11    2.21
  -5  -2 -11    3.84    1.96
   5   2  11    1.52    1.74
  -5  -2 -12   -2.00    3.60
   5   2  12    0.04    2.66
  -5  -2 -13    0.34    2.21
   5   2  13   -0.55    1.71
  -5  -1  13   -0.33    1.19
   5   1 -13   -0.95    4.41
  -5  -1  12    0.42    1.71
   5   1 -12    8.35    3.51
  -5  -1  11    0.13    1.08
   5   1 -11   -0.02    1.44
  -5  -1  10   17.57    1.66
   5   1 -10   19.50    2.56
  -5  -1   9    0.79    1.92
   5   1  -9    3.06    1.08
  -5  -1   8    1.95    2.11
   5   1  -8    0.46    1.95
  -5  -1   7    1.84    1.84
   5   1  -7    5.54    1.93
  -5  -1   6   11.09    2.11
   5   1  -6    8.72    2.18
  -5  -1   5    1.79    1.77
   5   1  -5    0.75    1.42
  -5  -1   4    9.29    1.76
   5   1  -4    8.02    1.88
  -5  -1   3    6.18    2.00
   5   1  -3    7.20    1.46
  -5  -1   2   37.55    2.25
   5   1  -2   41.22    2.40
  -5  -1   1   -0.22    1.08
   5   1  -1    0.69    1.06
  -5  -1   0    1.57    1.12
   5   1   0    1.64    1.05
  -5  -1  -1   12.27    1.35
   5   1   1   12.68    1.31
  -5  -1  -2    0.87    1.23
   5   1   2    1.35    1.28
  -5  -1  -3    2.53    1.43
   5   1   3    1.41    1.38
  -5  -1  -4   48.64    2.69
   5   1   4   45.26    2.60
  -5  -1  -5    9.82    1.66
   5   1   5    7.02    1.68
  -5  -1  -6    5.03    1.69
   5   1   6    2.75    1.54
  -5  -1  -7   -0.07    1.91
   5   1   7    0.36    1.76
  -5  -1  -8    6.60    2.19
   5   1   8    3.44    1.99
  -5  -1  -9   12.36    2.33
   5   1   9    8.10    2.10
  -5  -1 -10    0.86    1.59
   5   1  10    0.41    1.68
  -5  -1 -11   15.16    2.48
   5   1  11   16.60    1.93
  -5  -1 -12    1.76    3.48
   5   1  12   -0.13    3.15
  -5  -1 -13    5.50    2.20
   5   1  13    1.94    3.43
   5   0 -13    3.04    2.72
   5   0 -12    3.12    1.57
  -5   0  11   -1.04    2.52
   5   0 -11    2.81    1.90
  -5   0  10    1.87    1.55
   5   0 -10    0.84    1.87
  -5   0   9    8.08    2.18
   5   0  -9    8.58    1.86
  -5   0   8    4.26    1.76
   5   0  -8    7.21    1.97
  -5   0   7    5.29    1.65
   5   0  -7    5.44    1.65
  -5   0   6    8.81    1.84
   5   0  -6   10.90    1.83
  -5   0   5   12.63    1.92
   5   0  -5   13.10    1.84
  -5   0   4   26.98    2.22
   5   0  -4   24.07    2.28
  -5   0   3   39.32    2.52
   5   0  -3   39.06    2.51
  -5   0   2    8.49    1.37
   5   0  -2   13.06    1.39
  -5   0   1   68.77    3.11
   5   0  -1   70.95    3.12
  -5   0   0    6.64    1.11
   5   0   0    7.33    1.09
  -5   0  -1   34.55    2.05
   5   0   1   36.66    2.25
  -5   0  -2   12.38    1.40
   5   0   2   12.82    1.40
  -5   0  -3    9.62    1.43
   5   0   3   12.30    1.46
  -5   0  -4    6.89    1.57
   5   0   4    4.72    1.43
  -5   0  -5   13.81    1.60
   5   0   5   14.25    1.61
  -5   0  -6    1.12    1.52
   5   0   6   -1.65    1.48
  -5   0  -7    4.76    1.70
   5   0   7    2.04    1.65
  -5   0  -8   14.73    2.29
   5   0   8   10.32    2.14
   5   0   9   42.48    2.68
  -5   0 -10   11.73    2.27
   5   0  10   10.80    2.49
  -5   0 -11    1.17    2.41
   5   0  11    0.65    1.23
  -5   0 -12    1.17    3.53
   5   0  12    0.99    2.03
  -5   0 -13    5.52    1.73
   5   0  13    6.82    1.90
   5  -1 -13    4.06    2.49
  -5   1  12   -0.34    0.78
   5  -1 -12   -0.18    1.23
  -5   1  11    2.82    1.74
   5  -1 -11    2.44    1.48
  -5   1  10    0.60    1.83
   5  -1 -10   -0.80    1.32
  -5   1   9    5.60    1.76
   5  -1  -9    7.17    2.21
  -5   1   8   -0.45    1.75
   5  -1  -8   -0.39    1.89
  -5   1   7    9.94    2.01
   5  -1  -7    7.94    1.75
  -5   1   6   22.27    2.24
   5  -1  -6   21.81    2.13
  -5   1   5   64.68    3.50
   5  -1  -5   65.79    3.32
  -5   1   4   32.15    2.29
   5  -1  -4   34.35    2.34
  -5   1   3   -0.08    1.57
   5  -1  -3    0.82    1.47
  -5   1   2    0.68    1.28
   5  -1  -2   -0.69    1.17
  -5   1   1   11.32    1.41
   5  -1  -1   13.32    1.29
  -5   1   0   32.45    1.83
   5  -1   0   30.73    1.79
  -5   1  -1  116.54    4.59
   5  -1   1  114.73    4.51
  -5   1  -2    8.57    1.34
   5  -1   2   10.36    1.33
  -5   1  -3    4.65    1.20
   5  -1   3    4.45    1.31
  -5   1  -4   -0.01    1.43
   5  -1   4   -0.06    1.35
  -5   1  -5   23.44    1.91
   5  -1   5   24.38    2.04
  -5   1  -6   20.26    2.11
   5  -1   6   19.40    2.74
  -5   1  -7    8.75    1.75
   5  -1   7    7.56    1.80
  -5   1  -8   33.24    2.79
   5  -1   8   31.35    2.39
  -5   1  -9    7.45    2.29
   5  -1   9    5.93    1.86
  -5   1 -10    4.34    2.17
   5  -1  10    1.14    1.96
  -5   1 -11    0.70    2.10
   5  -1  11    2.67    2.27
  -5   1 -12    0.73    1.69
   5  -1  12    2.03    1.99
  -5   1 -13   -0.93    3.19
   5  -1  13    2.56    1.70
  -5   2  12    0.68    1.83
   5  -2 -12    2.43    1.25
  -5   2  11   -0.04    1.70
   5  -2 -11    0.65    2.52
  -5   2  10    0.84    1.82
   5  -2 -10    3.31    1.58
  -5   2   9    1.27    2.12
   5  -2  -9    1.57    1.94
  -5   2   8   21.67    2.38
   5  -2  -8   20.89    2.09
  -5   2   7   21.46    2.21
   5  -2  -7   20.70    2.10
  -5   2   6    4.13    1.63
   5  -2  -6    4.83    1.61
  -5   2   5    6.41    1.84
   5  -2  -5    7.72    1.72
  -5   2   4   -1.46    1.32
   5  -2  -4    0.16    1.48
  -5   2   3    1.91    1.49
   5  -2  -3    2.87    1.44
  -5   2   2   31.79    1.97
   5  -2  -2   31.60    1.98
  -5   2   1    0.50    1.18
   5  -2  -1    1.41    1.12
  -5   2   0    6.94    1.20
   5  -2   0    5.53    1.27
  -5   2  -1   89.72    3.57
   5  -2   1   95.40    3.56
  -5   2  -2  105.78    4.28
   5  -2   2   96.69    3.81
  -5   2  -3   78.56    3.49
   5  -2   3   77.48    3.32
  -5   2  -4    0.70    1.42
   5  -2   4    0.66    1.29
  -5   2  -5   28.31    2.21
   5  -2   5   32.90    3.18
  -5   2  -6    5.85    1.78
   5  -2   6    6.75    1.64
  -5   2  -7   26.51    2.18
   5  -2   7   22.01    2.10
  -5   2  -8    1.83    1.78
   5  -2   8    0.09    1.93
  -5   2  -9    1.48    1.80
   5  -2   9    3.72    1.62
  -5   2 -10    4.31    2.78
   5  -2  10    6.88    2.27
  -5   2 -11    0.34    2.24
   5  -2  11   -2.63    2.11
  -5   2 -12    7.89    1.60
   5  -2  12    3.52    1.78
  -5   2 -13   -0.33    1.92
   5  -2  13    0.00    2.62
  -5   3  12    0.42    1.57
   5  -3 -12    1.50    2.17
  -5   3  11   -0.17    1.71
   5  -3 -11    1.88    2.34
  -5   3  10    1.07    1.61
   5  -3 -10    2.52    1.56
  -5   3   9   -1.04    2.19
   5  -3  -9   -2.17    2.22
  -5   3   8    2.24    1.86
   5  -3  -8    0.30    1.82
  -5   3   7    1.67    1.73
   5  -3  -7    0.60    1.71
  -5   3   6   32.51    2.72
   5  -3  -6   27.50    2.71
  -5   3   5   -1.94    1.46
   5  -3  -5   -0.50    1.45
  -5   3   4    1.44    1.63
   5  -3  -4   -0.32    1.64
  -5   3   3    0.54    1.30
   5  -3  -3   -0.03    1.40
  -5   3   2    2.76    1.17
   5  -3  -2    0.14    1.05
  -5   3   1   59.34    2.59
   5  -3  -1   61.28    2.68
  -5   3   0   65.28    2.83
   5  -3   0   66.95    2.96
  -5   3  -1   66.00    3.04
   5  -3   1   68.03    2.89
  -5   3  -2   10.35    1.49
   5  -3   2    8.79    1.37
  -5   3  -3   66.73    3.19
   5  -3   3   65.22    3.84
  -5   3  -4    1.54    1.54
   5  -3   4   -0.44    1.21
  -5   3  -5    4.50    1.44
   5  -3   5    3.89    1.50
  -5   3  -6    5.54    1.70
   5  -3   6    2.86    1.74
  -5   3  -7    7.93    1.98
   5  -3   7    5.22    2.57
  -5   3  -8   14.65    1.93
   5  -3   8   11.10    2.01
  -5   3  -9    9.66    2.71
   5  -3   9   11.26    1.90
  -5   3 -10   13.96    2.29
   5  -3  10   14.32    2.10
  -5   3 -11    2.59    1.72
   5  -3  11    1.08    1.85
  -5   3 -12    0.18    1.64
   5  -3  12   -0.09    1.33
  -5   4  12    0.77    1.83
  -5   4  11    0.37    1.90
  -5   4  10   -0.27    2.68
  -5   4   9   14.01    3.71
  -5   4   8   13.35    3.32
  -5   4   7   17.13    4.17
  -5   4   6    4.51    1.76
  -5   4   5   17.47    2.32
  -5   4   4    7.97    1.77
  -5   4   3   45.80    2.78
  -5   4   2    4.91    1.54
  -5   4   1    3.20    1.47
  -5   4   0   93.56    3.88
  -5   4  -1    6.83    1.50
  -5   4  -2   82.46    3.79
  -5   4  -3   -0.57    1.51
  -5   4  -4   52.12    3.04
   5  -4   4   -8.41    2.39
  -5   4  -5    9.08    1.74
   5  -4   5  -10.42    2.74
  -5   4  -6    0.17    1.32
   5  -4   6   -3.27    2.00
  -5   4  -7    1.11    1.59
   5  -4   7   -1.87    2.10
  -5   4  -8   -0.85    1.90
   5  -4   8   -7.38    2.45
  -5   4  -9    0.27    1.80
   5  -4   9   -5.94    2.87
  -5   4 -10    5.01    2.27
   5  -4  10   -7.02    3.23
  -5   4 -11    2.94    2.07
   5  -4  11   -0.03    1.99
  -5   4 -12    0.17    1.41
   5  -4  12   -0.45    1.10
  -5   5  11   -0.50    1.44
   5  -5 -11    0.16    1.44
  -5   5  10   -1.12    1.36
   5  -5 -10    0.04    1.62
  -5   5   9    0.81    1.69
   5  -5  -9    0.87    2.19
  -5   5   8   33.37    2.47
   5  -5  -8   29.06    2.44
  -5   5   7   10.24    2.01
   5  -5  -7   10.39    1.76
  -5   5   6    4.17    1.79
   5  -5  -6    3.24    1.79
  -5   5   5    0.93    1.50
   5  -5  -5    0.18    1.73
  -5   5   4   23.80    1.98
   5  -5  -4   18.19    2.27
  -5   5   3   -0.11    1.60
   5  -5  -3    1.22    1.55
  -5   5   2   28.18    1.88
   5  -5  -2   29.71    2.08
  -5   5   1    2.35    1.36
   5  -5  -1    3.34    1.38
  -5   5   0    1.73    1.43
   5  -5   0    1.43    1.37
  -5   5  -1    0.13    1.12
   5  -5   1   -0.12    1.06
  -5   5  -2    1.15    1.36
   5  -5   2    1.44    1.42
  -5   5  -3   22.52    1.97
   5  -5   3   25.86    2.01
  -5   5  -4    3.29    1.38
   5  -5   4    6.08    1.73
  -5   5  -5   48.52    3.08
   5  -5   5   54.51    2.99
  -5   5  -6   44.96    2.39
   5  -5   6   45.78    2.41
  -5   5  -7    8.98    2.00
   5  -5   7    5.61    1.93
  -5   5  -8    2.05    1.94
   5  -5   8    0.39    1.67
  -5   5  -9    5.57    2.32
   5  -5   9    0.98    1.82
  -5   5 -10    1.90    1.98
   5  -5  10    2.01    1.89
  -5   5 -11   19.10    2.35
   5  -5  11   17.59    1.84
  -5   6  11   -0.41    1.36
  -5   6  10   -0.15    1.54
  -5   6   9    0.11    1.42
   5  -6  -9   -0.22    1.58
  -5   6   8   -1.15    2.12
   5  -6  -8    1.94    2.09
  -5   6   7    2.41    1.85
   5  -6  -7    1.88    1.58
  -5   6   6   -1.17    1.81
   5  -6  -6    0.59    1.99
  -5   6   5    3.19    1.82
   5  -6  -5    5.97    1.94
  -5   6   4   22.52    2.18
   5  -6  -4   25.85    2.26
  -5   6   3   69.54    3.05
   5  -6  -3   64.38    3.14
  -5   6   2   33.89    2.20
   5  -6  -2   32.56    2.34
  -5   6   1   11.17    1.48
   5  -6  -1   11.46    1.55
  -5   6   0    5.00    1.61
   5  -6   0    4.02    1.44
  -5   6  -1    2.02    1.56
   5  -6   1    1.46    1.37
  -5   6  -2   18.50    1.76
   5  -6   2   19.81    1.79
  -5   6  -3    0.69    1.49
   5  -6   3   -0.01    1.57
  -5   6  -4   -0.53    1.67
   5  -6   4    2.13    1.58
  -5   6  -5    0.21    1.75
   5  -6   5    2.04    1.91
  -5   6  -6   51.09    2.70
   5  -6   6   53.35    2.84
  -5   6  -7   22.00    2.35
   5  -6   7   23.66    2.35
  -5   6  -8    6.42    2.09
   5  -6   8    7.13    2.08
  -5   6  -9    4.93    1.76
  -5   6 -10    4.82    1.65
   5  -6  10    0.56    0.87
  -5   6 -11   -1.41    1.84
   5  -6  11    1.36    2.93
  -5   7  11   -0.65    1.61
  -5   7  10    7.21    2.31
  -5   7   9   10.28    1.76
   5  -7  -9    7.21    1.79
  -5   7   8   -0.37    2.18
   5  -7  -8   -0.11    2.18
  -5   7   7    0.42    1.60
   5  -7  -7    2.12    1.65
  -5   7   6    1.46    1.86
   5  -7  -6    0.65    2.07
  -5   7   5   12.77    2.13
   5  -7  -5   15.66    2.47
  -5   7   4    0.93    1.82
   5  -7  -4    1.25    2.09
  -5   7   3    3.24    1.88
   5  -7  -3    2.05    1.62
  -5   7   2   11.53    1.85
   5  -7  -2   13.44    2.19
  -5   7   1   20.05    1.80
   5  -7  -1   17.55    1.80
  -5   7   0    4.36    1.57
   5  -7   0    5.12    1.57
  -5   7  -1    0.00    1.36
   5  -7   1    0.54    1.47
  -5   7  -2   20.13    1.82
   5  -7   2   20.16    1.76
  -5   7  -3    0.47    1.77
   5  -7   3    1.32    1.89
  -5   7  -4   13.92    2.09
   5  -7   4   12.37    2.05
  -5   7  -5    9.70    2.02
   5  -7   5   17.06    3.60
  -5   7  -6   29.65    3.35
   5  -7   6   40.00    3.26
  -5   7  -7   14.36    2.36
   5  -7   7   20.59    2.43
  -5   7  -8   18.53    2.41
   5  -7   8   21.38    2.53
  -5   7  -9    2.79    1.87
  -5   7 -10    0.51    0.77
  -5   7 -11    1.43    2.15
   5  -7  11   -0.50    2.52
  -5   8  10    0.30    1.89
  -5   8   9   -0.46    1.33
   5  -8  -9    0.01    1.52
  -5   8   8   12.00    2.77
   5  -8  -8   16.55    2.26
  -5   8   7    1.37    1.63
   5  -8  -7   -0.06    1.91
  -5   8   6    1.25    1.63
   5  -8  -6    0.99    2.08
  -5   8   5    2.94    1.60
   5  -8  -5    0.37    1.84
  -5   8   4   35.10    2.34
   5  -8  -4   35.72    2.64
  -5   8   3   37.03    2.62
   5  -8  -3   32.66    2.41
  -5   8   2    1.71    1.95
   5  -8  -2    1.85    1.92
  -5   8   1    2.69    1.74
   5  -8  -1    1.08    1.81
  -5   8   0   20.52    2.06
   5  -8   0   21.25    2.04
  -5   8  -1    2.12    1.96
   5  -8   1    2.98    1.83
  -5   8  -2    1.23    1.69
   5  -8   2   -0.05    1.49
  -5   8  -3    3.05    2.10
   5  -8   3    0.74    1.96
  -5   8  -4    7.91    2.22
   5  -8   4   11.32    2.17
  -5   8  -5   -0.94    2.31
   5  -8   5   -0.28    3.54
  -5   8  -6    1.92    2.20
   5  -8   6    2.67    2.07
  -5   8  -7    1.98    2.38
   5  -8   7    1.47    2.02
  -5   8  -8    2.10    1.97
   5  -8   8    0.99    2.02
  -5   8  -9   -0.89    2.65
   5  -8   9   -0.64    3.53
  -5   8 -10   -0.78    1.29
   5  -8  10    0.75    1.19
  -5   9   9    0.37    1.27
   5  -9  -9   -0.12    1.49
  -5   9   8    9.38    2.15
   5  -9  -8   11.38    2.09
  -5   9   7    2.27    1.76
   5  -9  -7    9.32    3.21
  -5   9   6    4.55    3.21
   5  -9  -6    0.70    1.54
  -5   9   5    0.89    1.83
   5  -9  -5   -3.30    2.29
  -5   9   4    5.98    1.90
   5  -9  -4    6.49    2.04
  -5   9   3   62.70    3.55
   5  -9  -3   57.65    4.26
  -5   9   2   -0.27    2.10
   5  -9  -2   -0.22    1.94
  -5   9   1   46.24    2.64
   5  -9  -1   43.24    2.74
  -5   9   0    4.80    1.75
   5  -9   0    5.25    1.70
  -5   9  -1    9.33    2.21
   5  -9   1    8.01    1.90
  -5   9  -2    1.58    1.68
   5  -9   2    2.61    1.90
  -5   9  -3    8.97    1.81
   5  -9   3   11.13    1.80
  -5   9  -4    0.00    1.96
   5  -9   4    1.85    2.05
  -5   9  -5    2.38    3.25
   5  -9   5    0.72    1.61
  -5   9  -6    5.92    2.57
   5  -9   6    6.53    2.38
  -5   9  -7   10.54    2.34
   5  -9   7   13.72    2.52
  -5   9  -8   -0.47    1.57
   5  -9   8    0.43    1.97
   5  -9   9   -0.24    1.72
   5 -10  -9   -2.26    3.03
   5 -10  -8    1.15    3.41
  -5  10   7    3.69    1.70
   5 -10  -7    7.09    2.14
  -5  10   6    3.75    2.60
  -5  10   5    6.49    1.80
   5 -10  -5   -0.87    1.89
  -5  10   4    2.34    1.99
   5 -10  -4    0.50    2.28
  -5  10   3    4.13    2.41
   5 -10  -3    1.73    2.23
  -5  10   2    0.65    2.02
   5 -10  -2    1.87    2.32
  -5  10   1   -0.17    1.98
   5 -10  -1   -0.28    1.77
  -5  10   0    8.88    1.70
   5 -10   0    7.28    1.47
  -5  10  -1   12.62    2.37
   5 -10   1   12.80    2.07
  -5  10  -2    9.29    2.67
   5 -10   2   10.01    2.48
  -5  10  -3   -0.59    1.65
   5 -10   3    4.03    1.98
  -5  10  -4    1.80    1.13
   5 -10   4    0.41    1.06
  -5  10  -5    0.47    2.96
   5 -10   5    1.24    2.02
  -5  10  -6    1.39    2.00
   5 -10   6    0.30    1.23
  -5  10  -7    0.28    1.82
   5 -10   7   -2.17    2.67
  -5  10  -8   11.09    3.84
   5 -10   8    0.50    2.30
  -5  11   7    6.27    2.40
   5 -11  -6   -0.25    2.37
  -5  11   5    0.46    1.63
   5 -11  -5    0.21    2.78
  -5  11   4   -0.37    2.77
   5 -11  -4   -1.52    3.35
  -5  11   3    1.12    2.93
   5 -11  -3    1.01    1.93
  -5  11   2    0.34    2.56
   5 -11  -2   -0.32    1.72
  -5  11   1    3.03    2.11
   5 -11  -1    3.71    1.74
  -5  11   0    0.21    2.30
   5 -11   0   -1.34    2.03
  -5  11  -1   -0.19    2.75
   5 -11   1   -2.40    2.65
  -5  11  -2    2.13    2.67
   5 -11   2   -1.29    2.29
  -5  11  -3    3.38    2.64
   5 -11   3    2.22    1.87
  -5  11  -4   -0.68    2.21
   5 -11   4    0.49    1.68
   5 -11   5    5.90    2.39
  -5  11  -6   -0.61    1.48
   5 -11   6    1.87    2.12
   5 -11   7    2.90    3.20
   5 -11   8   -0.29    1.36
  -5  12   6   -1.24    1.87
   5 -12  -6   -0.48    2.35
  -5  12   5   11.51    2.54
   5 -12  -5   20.52    3.56
   5 -12  -4    1.46    1.41
  -5  12   3    0.44    2.13
  -5  12   2   12.62    2.39
   5 -12  -2   10.70    1.98
  -5  12   1    3.99    1.87
   5 -12  -1   -0.54    2.39
  -5  12   0    0.96    1.62
   5 -12   0   -1.94    3.52
  -5  12  -1   26.11    2.90
   5 -12   1   17.85    2.88
  -5  12  -2   18.35    2.77
   5 -12   2   24.11    2.75
  -5  12  -3    0.49    2.78
   5 -12   4   -0.08    2.74
  -5  12  -5    0.57    2.59
  -5  12  -7    6.25    2.03
   5 -12   7    5.08    2.07
  -5  13   3    6.24    1.98
  -5  13   1   13.87    1.78
   5 -13  -1   15.13    2.44
  -5  13   0    8.04    3.86
   5 -13   0   12.43    3.04
  -5  13  -1   -2.21    4.15
   5 -13   1   -0.43    3.60
  -5  13  -2   45.06    3.88
   5 -13   2   19.00    2.84
  -5  13  -3   -1.42    2.43
   5 -13   3    0.23    4.04
  -5  13  -4   13.01    4.01
   5 -13   4   16.32    4.36
   5 -13   5    0.53    2.98
   5 -13   6    6.42    2.72
  -5  14   2    9.35    2.45
   5 -14  -2    9.21    2.64
  -5  14  -1    8.57    4.23
   5 -14   1    9.70    3.55
  -5  14  -4    0.35    1.85
  -6  -7   1    6.66    2.94
   6   7  -1    1.42    2.58
   6   7   0    3.49    2.15
   6   7   1    2.68    2.78
   6   6  -9   20.61    3.48
  -6  -6   7   -1.26    2.74
  -6  -6   6   -2.69    3.13
   6   6  -6   -2.24    3.50
  -6  -6   5    3.90    1.68
   6   6  -5   -0.57    2.50
  -6  -6   4    3.02    2.98
   6   6  -4    1.55    1.91
  -6  -6   3    3.92    2.45
   6   6  -3    6.00    2.53
  -6  -6   2   -0.55    1.55
   6   6  -2    1.23    1.90
  -6  -6   1   -0.55    1.62
   6   6  -1    0.75    2.00
  -6  -6   0    0.23    1.77
   6   6   0    0.34    2.25
  -6  -6  -1    1.71    2.04
   6   6   1    4.05    3.01
  -6  -6  -2   21.88    2.67
   6   6   2   15.79    2.58
  -6  -6  -3    3.60    2.74
   6   6   3    4.33    2.10
  -6  -6  -4   11.03    1.89
   6   6   4    3.66    3.65
   6   5 -11    9.37    2.93
  -6  -5   7    5.08    2.26
   6   5  -7    1.61    1.89
  -6  -5   6    8.72    2.30
   6   5  -6    5.61    2.28
  -6  -5   5   12.73    2.81
   6   5  -5   16.96    4.32
  -6  -5   4    0.03    2.09
   6   5  -4    5.87    2.89
  -6  -5   3    7.42    1.94
   6   5  -3    3.16    1.64
  -6  -5   2   18.03    2.89
   6   5  -2   18.96    2.44
  -6  -5   1   18.98    1.78
   6   5  -1   19.18    1.80
  -6  -5   0   17.29    2.43
   6   5   0   15.28    2.77
  -6  -5  -1    0.93    1.76
   6   5   1    0.36    1.88
  -6  -5  -2   15.07    2.39
   6   5   2   12.49    3.39
  -6  -5  -3   63.52    3.18
   6   5   3   50.30    2.84
  -6  -5  -4    1.87    2.20
   6   5   4    1.91    1.56
  -6  -5  -5    4.03    2.25
   6   5   5    2.73    1.83
  -6  -5  -6    2.33    3.25
   6   5   6    2.97    4.06
  -6  -5  -7   -0.90    1.25
  -6  -4  11    0.30    1.71
  -6  -4   9   -0.33    1.40
  -6  -4   8    3.13    1.97
   6   4  -8    6.29    2.93
  -6  -4   7    2.93    1.82
  -6  -4   6    1.81    1.63
   6   4  -6    1.27    1.78
  -6  -4   5   29.08    3.23
  -6  -4   4    6.34    1.67
   6   4  -4   12.39    1.87
  -6  -4   3    1.03    1.72
   6   4  -3   -1.02    1.63
  -6  -4   2   -0.79    2.27
   6   4  -2    0.46    2.15
  -6  -4   1    2.82    1.79
   6   4  -1    3.14    1.77
  -6  -4   0    7.37    1.88
   6   4   0    5.52    1.80
  -6  -4  -1    6.85    1.90
   6   4   1    3.46    2.12
  -6  -4  -2    9.42    2.02
   6   4   2    8.55    2.24
  -6  -4  -3    1.10    1.56
   6   4   3    1.22    1.64
  -6  -4  -4   -0.24    2.45
   6   4   4    2.69    2.33
  -6  -4  -5    0.45    2.36
   6   4   5   -0.28    2.43
  -6  -4  -6    2.16    2.12
   6   4   6    0.29    1.83
  -6  -4  -7    7.84    2.14
   6   4   7   13.32    2.39
  -6  -4  -8    0.80    2.46
   6   4   8   -0.34    1.52
  -6  -4  -9    0.57    4.36
   6   4   9   -1.61    4.58
  -6  -3  11    0.91    2.31
  -6  -3  10    0.51    2.02
  -6  -3   9    0.10    1.96
   6   3  -9    3.54    2.03
  -6  -3   8    5.51    1.93
   6   3  -8    5.16    4.17
  -6  -3   7   -1.86    2.13
   6   3  -7    0.55    1.97
  -6  -3   6   -0.86    2.85
   6   3  -6   -0.43    1.49
  -6  -3   5    0.36    1.60
   6   3  -5   -0.26    2.07
  -6  -3   4    0.88    1.88
   6   3  -4    0.31    1.98
  -6  -3   3   10.90    2.35
   6   3  -3   10.76    2.40
  -6  -3   2   15.16    2.29
   6   3  -2   20.84    2.59
  -6  -3   1   47.79    3.12
   6   3  -1   50.42    3.35
  -6  -3   0    3.26    1.63
   6   3   0    2.16    1.60
  -6  -3  -1    1.75    1.97
   6   3   1    4.98    1.83
  -6  -3  -2    1.27    1.57
   6   3   2    0.31    1.60
  -6  -3  -3   -1.03    1.85
   6   3   3    0.61    1.85
  -6  -3  -4   32.91    2.83
   6   3   4   27.32    2.68
  -6  -3  -5    1.58    2.74
   6   3   5   -0.09    3.17
  -6  -3  -6    1.52    2.03
   6   3   6    0.64    2.29
  -6  -3  -7    0.59    1.84
   6   3   7    4.99    2.64
  -6  -3  -8   14.37    2.86
   6   3   8   19.63    3.19
  -6  -3  -9    3.12    3.02
   6   3   9    4.33    1.66
  -6  -3 -10    0.17    2.35
   6   3  10   -1.52    2.94
  -6  -2  10    4.38    2.13
   6   2 -10    0.36    0.98
  -6  -2   9    4.08    1.62
   6   2  -9    2.38    1.61
  -6  -2   8    5.81    3.46
   6   2  -8   13.57    2.54
  -6  -2   7    5.04    2.04
   6   2  -7    4.97    2.37
  -6  -2   6   -0.04    0.98
   6   2  -6    0.18    0.89
  -6  -2   5   -0.12    1.99
   6   2  -5    1.85    1.97
  -6  -2   4   14.43    2.08
   6   2  -4    9.92    1.97
  -6  -2   3    7.27    1.89
   6   2  -3    3.46    1.69
  -6  -2   2    0.09    1.67
   6   2  -2   -0.04    1.74
  -6  -2   1    8.87    1.46
   6   2  -1    6.71    1.29
  -6  -2   0   14.27    2.14
   6   2   0   17.55    2.27
  -6  -2  -1    1.06    1.51
   6   2   1    2.24    1.76
  -6  -2  -2    7.01    1.60
   6   2   2    9.09    1.80
  -6  -2  -3   -0.35    1.87
   6   2   3   -2.78    3.00
  -6  -2  -4    1.66    1.96
   6   2   4    3.83    2.21
  -6  -2  -5    7.17    2.13
   6   2   5    2.38    2.01
  -6  -2  -6    0.66    2.72
   6   2   6   -0.10    1.60
  -6  -2  -7   53.24    2.85
   6   2   7   38.46    2.85
  -6  -2  -8    1.24    2.24
   6   2   8    3.13    2.51
  -6  -2  -9    8.54    2.68
   6   2   9   11.18    2.97
  -6  -2 -10   -0.03    3.04
   6   2  10   -0.46    1.16
  -6  -1  10    0.88    1.16
   6   1 -10    0.78    1.93
  -6  -1   9   -0.33    1.76
   6   1  -9   -0.82    1.59
  -6  -1   8   -0.12    1.40
   6   1  -8   -1.07    2.10
  -6  -1   7   11.33    1.98
   6   1  -7   12.83    3.76
  -6  -1   6    6.18    2.08
   6   1  -6    8.03    2.13
  -6  -1   5    1.90    2.17
   6   1  -5    2.06    1.94
  -6  -1   4   -1.17    1.86
   6   1  -4   -0.44    1.98
  -6  -1   3    1.59    1.72
   6   1  -3    1.16    1.73
  -6  -1   2    0.45    1.51
   6   1  -2    0.73    1.32
  -6  -1   1    9.70    1.83
   6   1  -1    8.05    1.79
  -6  -1   0    8.36    1.78
   6   1   0   11.31    2.00
  -6  -1  -1    2.29    1.40
   6   1   1    0.37    1.66
  -6  -1  -2    2.53    1.50
   6   1   2    4.25    1.54
  -6  -1  -3   30.11    2.48
   6   1   3   24.97    2.29
  -6  -1  -4   17.11    2.55
   6   1   4   15.81    2.36
  -6  -1  -5   23.17    2.72
   6   1   5   22.17    2.28
  -6  -1  -6    1.62    1.96
   6   1   6    1.07    1.80
  -6  -1  -7    1.80    2.18
   6   1   7    1.68    2.03
  -6  -1  -8   39.29    3.03
   6   1   8   32.57    3.00
  -6  -1  -9    0.10    2.15
   6   1   9    0.15    1.87
  -6  -1 -10    8.89    2.06
   6   1  10    8.69    2.21
   6   1  11   -1.31    2.39
   6   0 -11    1.44    1.40
  -6   0  10   -0.18    1.17
   6   0 -10    0.16    1.25
  -6   0   9   -0.45    1.33
   6   0  -9   -0.17    1.95
  -6   0   8    8.48    1.82
   6   0  -8    5.10    1.95
  -6   0   7    1.22    1.44
   6   0  -7   -2.03    1.95
  -6   0   6   -0.70    2.07
   6   0  -6    0.65    1.92
  -6   0   5    3.51    2.18
   6   0  -5    0.97    1.95
  -6   0   4    1.14    1.75
   6   0  -4    0.25    1.71
  -6   0   3    4.25    1.82
   6   0  -3    3.57    1.66
  -6   0   2    7.66    1.50
   6   0  -2    6.50    1.52
  -6   0   1   41.52    2.69
   6   0  -1   41.01    2.54
  -6   0   0    2.86    1.33
   6   0   0    3.43    1.32
  -6   0  -1   -0.48    1.22
   6   0   1    0.26    1.41
  -6   0  -2    2.87    1.40
   6   0   2    4.39    1.47
  -6   0  -3    6.29    1.87
   6   0   3    8.73    1.94
  -6   0  -4    7.64    1.99
   6   0   4    4.95    1.78
  -6   0  -5    9.37    2.11
   6   0   5    6.24    2.02
  -6   0  -6    3.79    1.95
   6   0   6    1.73    1.83
  -6   0  -7    2.11    2.03
   6   0   7    3.01    1.99
  -6   0  -8    4.52    2.22
   6   0   8    5.88    2.38
  -6   0  -9    3.20    2.63
   6   0   9    2.37    2.73
  -6   0 -10   10.46    2.55
   6   0  10   12.69    2.15
  -6   0 -11    3.05    3.61
   6   0  11   -0.12    2.49
   6  -1 -11    0.37    1.54
  -6   1   9    4.06    1.37
   6  -1  -9    5.94    1.61
  -6   1   8    8.00    1.92
   6  -1  -8    3.36    1.77
  -6   1   7    3.20    2.08
   6  -1  -7    1.88    1.96
  -6   1   6    4.39    2.15
   6  -1  -6    7.29    2.12
  -6   1   5    2.27    2.27
   6  -1  -5    3.44    2.07
  -6   1   4   -1.78    1.95
   6  -1  -4   -0.20    1.70
  -6   1   3    1.32    1.77
   6  -1  -3    1.24    1.56
  -6   1   2    5.38    1.53
   6  -1  -2    5.71    1.49
  -6   1   1   16.86    1.75
   6  -1  -1   17.94    1.74
  -6   1   0    0.89    1.24
   6  -1   0    0.96    1.33
  -6   1  -1   13.39    1.73
   6  -1   1   13.00    1.69
  -6   1  -2   20.52    1.91
   6  -1   2   23.17    2.16
  -6   1  -3    1.22    1.82
   6  -1   3    0.25    1.59
  -6   1  -4    6.65    1.81
   6  -1   4    2.75    1.65
  -6   1  -5    3.49    1.69
   6  -1   5    2.58    1.73
  -6   1  -6    2.79    1.85
   6  -1   6   -1.17    1.70
  -6   1  -7    1.29    1.55
   6  -1   7    3.73    1.80
  -6   1  -8    0.97    2.36
   6  -1   8    1.94    1.93
  -6   1  -9    3.93    2.69
   6  -1   9    4.19    2.60
  -6   1 -10    7.88    2.49
   6  -1  10    6.14    2.13
  -6   1 -11    0.43    1.19
   6  -1  11    3.01    1.72
  -6   2  10    0.60    1.43
   6  -2 -10    1.52    2.10
  -6   2   9   -0.83    1.56
   6  -2  -9   -0.78    1.90
  -6   2   8   -0.05    1.65
   6  -2  -8    1.23    1.89
  -6   2   7    1.69    1.88
   6  -2  -7   -0.13    1.88
  -6   2   6   18.74    2.59
   6  -2  -6   16.09    2.15
  -6   2   5   29.40    2.62
   6  -2  -5   32.42    2.55
  -6   2   4   17.76    2.30
   6  -2  -4   19.01    2.13
  -6   2   3    9.94    1.92
   6  -2  -3    8.62    1.70
  -6   2   2    1.54    1.55
   6  -2  -2    0.22    1.45
  -6   2   1    1.70    1.48
   6  -2  -1    2.38    1.42
  -6   2   0   -1.29    1.48
   6  -2   0   -0.37    1.48
  -6   2  -1   -0.60    1.53
   6  -2   1   -0.15    1.52
  -6   2  -2    5.11    1.66
   6  -2   2    2.37    1.59
  -6   2  -3    6.63    1.85
   6  -2   3    5.79    1.77
  -6   2  -4    6.87    1.85
   6  -2   4    2.05    1.83
  -6   2  -5    0.32    1.80
   6  -2   5    0.01    2.14
  -6   2  -6    6.65    1.67
   6  -2   6    5.86    1.84
  -6   2  -7    1.63    1.43
   6  -2   7    0.95    1.66
  -6   2  -8    4.93    2.02
   6  -2   8    6.98    2.38
  -6   2  -9    6.04    2.41
   6  -2   9    6.24    2.11
  -6   2 -10    6.04    2.03
   6  -2  10    4.80    2.15
  -6   2 -11    7.39    3.25
   6  -2  11   -2.05    2.39
   6  -3 -11   10.32    2.14
   6  -3 -10   -0.46    2.72
  -6   3   9   13.81    1.89
   6  -3  -9    9.63    2.14
  -6   3   8   -1.68    2.18
   6  -3  -8    3.09    2.12
  -6   3   7    3.78    1.83
   6  -3  -7    5.84    1.98
  -6   3   6   14.69    2.35
   6  -3  -6   12.91    2.50
  -6   3   5   11.79    2.51
   6  -3  -5   12.44    2.30
  -6   3   4   25.45    2.37
   6  -3  -4   31.14    2.37
  -6   3   3    0.91    1.68
   6  -3  -3    1.31    1.54
  -6   3   2    3.89    1.56
   6  -3  -2    2.84    1.40
  -6   3   1    7.78    1.47
   6  -3  -1    5.30    1.28
  -6   3   0   18.84    1.92
   6  -3   0   19.31    1.90
  -6   3  -1   47.71    2.55
   6  -3   1   49.36    2.60
  -6   3  -2    3.29    1.40
   6  -3   2    4.60    1.46
  -6   3  -3    2.60    1.98
   6  -3   3   -0.90    1.70
  -6   3  -4    8.06    2.04
   6  -3   4    6.35    2.04
  -6   3  -5    0.59    1.69
   6  -3   5    2.42    1.49
  -6   3  -6    1.26    2.03
   6  -3   6    1.06    1.81
  -6   3  -7   -0.25    1.33
   6  -3   7    0.88    2.17
  -6   3  -8    5.00    2.98
   6  -3   8   11.29    2.20
  -6   3  -9   13.51    1.73
   6  -3   9   11.62    2.13
  -6   3 -10    2.90    3.41
   6  -3  10    0.90    2.09
  -6   3 -11    0.44    2.18
   6  -3  11    4.32    1.30
   6  -4 -10    0.47    2.19
  -6   4   9    0.19    1.03
   6  -4  -9    4.66    1.64
  -6   4   8    0.83    1.51
   6  -4  -8    1.18    1.86
  -6   4   7   14.09    1.72
   6  -4  -7   20.90    2.26
  -6   4   6   -0.26    1.81
   6  -4  -6    0.69    2.17
  -6   4   5   11.52    2.40
   6  -4  -5   11.05    2.36
  -6   4   4   -1.09    1.78
   6  -4  -4    0.65    1.73
  -6   4   3   -1.47    1.71
   6  -4  -3   -0.49    1.61
  -6   4   2    2.95    1.47
   6  -4  -2    5.85    1.31
  -6   4   1    1.43    1.58
   6  -4  -1   -0.39    1.53
  -6   4   0   32.66    2.17
   6  -4   0   32.54    2.15
  -6   4  -1   68.94    3.82
   6  -4   1   71.52    3.34
  -6   4  -2   21.63    2.14
   6  -4   2   22.46    2.01
  -6   4  -3   19.94    2.42
   6  -4   3   19.78    2.09
  -6   4  -4    0.29    1.87
   6  -4   4    0.39    1.87
  -6   4  -5    8.06    1.72
   6  -4   5    6.10    1.95
  -6   4  -6   -1.05    2.02
   6  -4   6    0.01    2.05
  -6   4  -7   -0.08    1.60
   6  -4   7    1.83    1.72
  -6   4  -8    0.44    2.57
   6  -4   8    4.08    3.20
  -6   4  -9    0.42    2.21
   6  -4   9    1.03    2.07
  -6   4 -10    1.03    2.00
   6  -4  10   -0.28    1.80
  -6   4 -11    0.36    1.59
   6  -4  11    6.75    3.05
   6  -5 -10    9.46    2.87
  -6   5   9   -0.09    1.94
   6  -5  -9    1.43    1.78
  -6   5   8    0.54    2.82
   6  -5  -8    6.12    2.33
  -6   5   7    1.63    2.63
   6  -5  -7   11.00    2.57
  -6   5   6   -0.91    2.75
   6  -5  -6   10.75    2.54
   6  -5  -5   10.77    2.44
   6  -5  -4    1.76    1.93
   6  -5  -3    1.81    1.72
   6  -5  -2    1.89    1.68
   6  -5  -1   41.00    2.74
   6  -5   0    2.73    1.45
   6  -5   1    2.62    1.76
   6  -5   2   -0.76    1.81
   6  -5   3   47.50    4.90
   6  -5   4    3.30    3.09
   6  -5   5   -0.67    3.24
   6  -5   7    7.87    3.42
   6  -5   9    1.10    2.44
   6  -6 -10   -0.01    1.75
   6  -6  -9    0.86    1.21
  -6   6   8    1.46    3.01
   6  -6  -8   -0.64    2.27
  -6   6   7    3.27    2.06
   6  -6  -7   -0.01    1.75
  -6   6   6    2.11    1.98
   6  -6  -6    1.50    3.46
  -6   6   5    3.40    1.41
   6  -6  -5    0.76    1.74
  -6   6   4   30.69    2.48
   6  -6  -4   29.62    2.65
  -6   6   3   52.73    3.29
   6  -6  -3   53.36    3.08
  -6   6   2    4.92    1.78
   6  -6  -2    6.09    2.06
  -6   6   1    2.24    1.89
   6  -6  -1    1.18    1.95
  -6   6   0   58.24    2.91
   6  -6   0   55.28    2.90
  -6   6  -1   12.62    1.99
   6  -6   1   11.72    1.78
  -6   6  -2   10.99    2.11
   6  -6   2   12.82    2.13
  -6   6  -3    4.39    2.15
   6  -6   3    6.82    2.17
  -6   6  -4   23.70    2.94
   6  -6   4   26.87    2.58
  -6   6  -5   -1.95    2.16
   6  -6   5   -0.18    2.32
  -6   6  -6    5.19    1.98
   6  -6   6    5.40    1.91
  -6   6  -7    3.41    2.25
   6  -6   7    2.78    2.39
  -6   6  -8   -1.02    2.80
   6  -6   8    5.30    2.82
  -6   6  -9    7.23    3.77
   6  -6   9    0.55    2.35
  -6   6 -10    8.91    2.45
  -6   7   8    6.42    2.52
   6  -7  -8    9.58    1.86
  -6   7   7    1.00    2.99
   6  -7  -7    0.21    3.04
  -6   7   6    0.22    1.14
   6  -7  -6   -0.07    2.76
  -6   7   5   -1.15    1.54
   6  -7  -5    1.38    1.73
  -6   7   4   11.95    2.37
   6  -7  -4   14.29    2.50
  -6   7   3    3.54    2.18
   6  -7  -3    4.83    2.14
  -6   7   2   18.96    2.36
   6  -7  -2   16.65    2.35
  -6   7   1   -0.34    1.52
   6  -7  -1   -0.39    1.87
  -6   7   0    0.08    2.01
   6  -7   0   -0.58    2.03
  -6   7  -1   35.70    2.78
   6  -7   1   40.62    2.77
  -6   7  -2   -0.95    2.12
   6  -7   2    0.88    2.21
  -6   7  -3    3.08    2.17
   6  -7   3    2.75    1.82
  -6   7  -4   11.71    2.66
   6  -7   4   11.93    2.85
  -6   7  -5   43.08    2.98
   6  -7   5   40.92    3.23
  -6   7  -6   13.07    1.97
   6  -7   6   14.16    2.22
  -6   7  -7   16.11    2.87
   6  -7   7    9.63    3.76
  -6   7  -8    0.15    2.80
   6  -7   8    2.71    1.73
  -6   7  -9   -1.14    2.38
   6  -7   9    0.10    1.91
  -6   8   8    8.89    2.51
   6  -8  -8    5.40    2.73
  -6   8   7    6.37    1.81
   6  -8  -7    0.84    2.55
  -6   8   6    2.07    1.49
   6  -8  -6    1.01    1.92
  -6   8   5    1.04    1.90
   6  -8  -5   -0.07    1.64
  -6   8   4    0.27    2.08
   6  -8  -4    1.77    2.03
  -6   8   3   38.98    2.99
   6  -8  -3   40.52    3.28
  -6   8   2   40.19    2.76
   6  -8  -2   39.51    2.73
  -6   8   1   10.24    2.16
   6  -8  -1    8.18    2.14
  -6   8   0    7.17    2.16
   6  -8   0    9.50    2.27
  -6   8  -1   13.07    2.33
   6  -8   1   11.30    2.38
  -6   8  -2    1.87    2.54
   6  -8   2    0.86    2.69
  -6   8  -3    9.98    2.30
   6  -8   3   13.90    2.31
  -6   8  -4    6.60    2.20
   6  -8   4    9.08    2.37
  -6   8  -5   24.05    2.75
   6  -8   5   22.51    4.45
  -6   8  -6   28.72    2.84
   6  -8   6   34.78    2.71
  -6   8  -7   -0.20    2.14
   6  -8   7    5.96    2.46
  -6   8  -8   23.14    2.32
   6  -8   8   31.28    2.82
  -6   8  -9   -0.23    1.73
   6  -8   9    0.60    2.48
  -6   9   7   10.56    1.64
   6  -9  -7   11.89    2.09
  -6   9   6    3.37    1.68
   6  -9  -6    0.34    1.55
  -6   9   5   -0.13    2.61
   6  -9  -5    0.79    2.77
  -6   9   4    0.75    1.77
   6  -9  -4    1.54    3.99
  -6   9   3   27.86    2.76
   6  -9  -3   24.84    2.79
  -6   9   2   18.76    2.46
   6  -9  -2   18.88    2.39
  -6   9   1    5.92    1.82
   6  -9  -1    3.71    1.60
  -6   9   0   -0.32    2.34
   6  -9   0    0.70    2.05
  -6   9  -1    0.00    2.12
   6  -9   1    2.24    1.62
  -6   9  -2   -0.61    2.19
   6  -9   2   -0.96    2.55
  -6   9  -3    1.21    1.65
   6  -9   3    0.80    2.02
  -6   9  -4   -0.65    1.87
   6  -9   4    0.97    1.84
  -6   9  -5    2.72    2.20
   6  -9   5    1.27    1.95
  -6   9  -6    0.99    2.74
   6  -9   6    4.67    2.43
  -6   9  -7    0.48    1.86
   6  -9   7    1.98    2.37
  -6   9  -8    2.30    1.99
   6  -9   8    5.61    1.92
   6 -10  -6    5.84    1.92
  -6  10   4    1.54    1.34
   6 -10  -4    8.83    2.10
  -6  10   3   -0.38    2.03
   6 -10  -3    1.26    2.53
  -6  10   2    5.10    3.00
   6 -10  -2    7.40    2.60
  -6  10   1   -0.25    1.59
   6 -10  -1   -0.91    1.87
  -6  10   0    2.15    1.88
   6 -10   0    0.30    1.43
  -6  10  -1    8.67    2.20
   6 -10   1    7.03    2.28
  -6  10  -2   26.78    3.04
   6 -10   2   25.63    3.01
  -6  10  -3   -1.03    1.91
   6 -10   3    0.19    1.68
   6 -10   4    2.84    2.83
  -6  10  -5    6.69    3.03
   6 -10   5    0.85    2.69
   6 -10   6    6.97    2.42
   6 -10   7    0.59    2.00
  -6  11   5    2.58    2.91
   6 -11  -4    1.61    3.05
   6 -11  -3    0.06    1.32
  -6  11   2   -2.15    2.92
   6 -11  -2    0.17    2.67
  -6  11   1    8.98    2.86
   6 -11  -1   11.38    3.60
  -6  11   0   -0.01    2.36
   6 -11   0    2.29    2.44
  -6  11  -1    0.42    1.70
   6 -11   1   -0.74    2.62
  -6  11  -2    3.09    2.19
   6 -11   2    5.08    1.99
  -6  11  -3    0.46    3.71
   6 -11   3    2.06    3.91
  -6  11  -4   -1.23    1.50
  -6  12   2    0.16    1.65
   6 -12  -2    0.72    3.25
  -6  12   1   -0.58    3.19
  -6  12   0   -0.78    1.48
   6 -12   0   -0.88    3.12
  -6  12  -1    4.82    5.14
   6 -12   1    0.42    1.83
  -6  12  -2   -0.81    2.62
   6 -12   2    8.00    2.28
  -6  12  -3    0.60    2.63
   6 -12   3    3.29    1.88
  -7  -6   0    6.31    2.61
   7   5  -6   -0.61    3.16
  -7  -5   4   -0.14    1.96
  -7  -5   3    7.72    1.99
   7   5  -3    2.66    3.46
   7   5   0    0.20    1.20
  -7  -5  -2    1.16    2.79
  -7  -5  -3   15.76    2.36
  -7  -4   8   -0.13    1.64
  -7  -4   7    6.30    1.98
  -7  -4   5    4.14    2.37
   7   4  -5   12.68    3.26
  -7  -4   3    4.35    1.53
   7   4  -3   -0.33    1.78
  -7  -4   2    4.18    3.36
   7   4  -2    7.67    3.28
  -7  -4   1   -0.33    1.44
   7   4  -1   -1.31    2.26
  -7  -4   0   22.33    2.80
   7   4   0   20.76    2.76
  -7  -4  -1    4.83    1.93
   7   4   1   -0.30    2.83
  -7  -4  -2   -0.38    3.52
   7   4   2    0.70    1.86
  -7  -4  -3    4.96    2.06
   7   4   3    1.65    2.01
  -7  -4  -4    5.55    2.52
  -7  -4  -5    3.35    1.48
   7   4   7   -0.78    1.89
   7   3  -8   -0.45    1.05
  -7  -3   7    5.62    1.98
  -7  -3   6   -1.42    4.43
  -7  -3   5    0.60    3.18
   7   3  -5    1.95    4.12
  -7  -3   4    2.69    1.46
   7   3  -4   10.05    3.77
  -7  -3   3    0.65    1.86
  -7  -3   2   -0.22    1.51
   7   3  -2   -2.10    3.49
  -7  -3   1    1.11    1.77
   7   3  -1   -1.76    2.35
  -7  -3   0   -0.11    1.50
   7   3   0    3.62    1.61
  -7  -3  -1   14.47    2.55
   7   3   1   19.07    3.10
  -7  -3  -2    6.47    1.70
   7   3   2   10.22    3.38
  -7  -3  -3    6.06    1.81
   7   3   3    8.89    2.20
  -7  -3  -4   13.34    2.22
   7   3   4    6.40    2.60
  -7  -3  -5   -0.26    2.06
   7   3   5    1.97    2.34
  -7  -3  -6   -1.24    3.72
   7   3   6    0.16    2.98
  -7  -3  -9   -1.50    1.89
   7   2  -9    7.52    2.16
  -7  -2   8    6.43    2.27
   7   2  -8    0.14    1.22
  -7  -2   7   -0.73    1.85
   7   2  -7    5.71    2.09
  -7  -2   5   10.35    2.06
   7   2  -5   27.43    2.98
  -7  -2   4    2.35    2.16
   7   2  -4    4.97    2.04
  -7  -2   3    1.77    1.82
   7   2  -3   -0.33    1.63
  -7  -2   2    1.51    1.55
   7   2  -2   -0.98    1.32
  -7  -2   1   30.18    2.47
   7   2  -1   26.96    2.77
  -7  -2   0    1.63    2.75
   7   2   0    0.01    1.97
  -7  -2  -1    4.11    2.58
   7   2   1    2.98    1.92
  -7  -2  -2    9.95    2.32
   7   2   2   15.78    2.37
  -7  -2  -3    1.00    1.78
   7   2   3   -1.42    1.95
  -7  -2  -4    2.41    1.71
   7   2   4    2.11    2.23
  -7  -2  -5   -0.56    2.40
   7   2   5    2.26    1.51
   7   2   6   -2.02    2.26
  -7  -2  -7    3.58    4.89
   7   2   7    2.17    2.49
  -7  -2  -8   -0.18    3.71
   7   2   8    5.82    4.50
  -7  -2  -9   -0.27    3.12
   7   2   9   -2.06    7.35
   7   1  -9   -0.48    2.21
  -7  -1   8    0.46    0.85
   7   1  -8    4.97    2.90
  -7  -1   7    0.06    1.38
   7   1  -7    1.63    3.18
  -7  -1   6    3.78    1.28
   7   1  -6    0.39    1.86
  -7  -1   5    2.65    1.78
   7   1  -5   -1.10    2.05
  -7  -1   4    0.35    2.05
   7   1  -4   -0.42    1.79
  -7  -1   3    4.87    1.95
   7   1  -3    4.37    1.84
  -7  -1   2    1.13    1.40
   7   1  -2    6.06    1.75
  -7  -1   1   10.01    2.09
   7   1  -1    9.41    2.17
  -7  -1   0    0.46    1.99
   7   1   0   -1.96    1.95
  -7  -1  -1    0.97    1.87
   7   1   1    2.13    2.18
  -7  -1  -2   -0.97    1.84
   7   1   2   -2.51    1.99
  -7  -1  -3    0.55    2.36
   7   1   3   -0.52    2.30
  -7  -1  -4    3.89    2.57
   7   1   4    4.62    2.33
  -7  -1  -5    2.04    2.42
   7   1   5    2.50    2.36
   7   1   6    6.12    1.62
  -7  -1  -7   23.37    3.00
   7   1   7   20.28    2.52
  -7  -1  -8   33.00    2.51
   7   1   8   39.15    3.57
  -7  -1  -9   -1.45    2.69
   7   1   9   12.66    4.66
  -7   0   9   -0.25    1.49
   7   0  -9   -0.40    1.77
  -7   0   8   10.75    3.04
   7   0  -8   10.96    2.13
  -7   0   7    4.65    1.88
   7   0  -7    2.60    3.58
  -7   0   6   -0.07    1.13
   7   0  -6    6.23    2.23
  -7   0   5    0.26    1.20
   7   0  -5    0.04    1.91
  -7   0   4   22.67    2.04
   7   0  -4   16.31    1.92
  -7   0   3    5.03    2.56
   7   0  -3    1.07    1.29
  -7   0   2    0.46    2.06
   7   0  -2    3.99    2.08
  -7   0   1    2.49    1.97
   7   0  -1    1.60    1.49
  -7   0   0   53.74    2.85
   7   0   0   58.08    3.20
  -7   0  -1   10.76    2.19
   7   0   1    7.10    2.18
  -7   0  -2    6.74    2.01
   7   0   2    6.00    1.87
  -7   0  -3    1.57    2.19
   7   0   3    2.32    2.18
  -7   0  -4    9.79    2.57
   7   0   4    9.63    4.40
  -7   0  -5    9.21    2.43
   7   0   5    9.00    2.28
   7   0   6   -1.07    2.46
  -7   0  -7    2.32    3.52
   7   0   7    0.98    1.56
  -7   0  -8    2.68    2.39
   7   0   8   -1.64    2.91
  -7   0  -9    8.54    1.92
   7   0   9   10.34    1.92
  -7   1   9    1.99    1.05
   7  -1  -9    5.97    2.16
  -7   1   8    1.03    1.65
   7  -1  -8    0.75    2.10
  -7   1   7    5.16    1.79
   7  -1  -7   11.97    2.19
  -7   1   6    3.97    1.51
   7  -1  -6    6.42    1.75
  -7   1   5   -1.47    1.96
   7  -1  -5   -0.48    2.06
  -7   1   4    2.61    2.05
   7  -1  -4    0.18    1.62
  -7   1   3    2.94    2.00
   7  -1  -3    0.84    1.86
  -7   1   2    2.69    1.95
   7  -1  -2    0.16    1.44
  -7   1   1    4.60    2.74
   7  -1  -1   -0.65    1.65
  -7   1   0    0.31    2.18
   7  -1   0    0.93    2.37
  -7   1  -1   -0.02    2.01
   7  -1   1    0.20    1.66
  -7   1  -2   12.64    2.16
   7  -1   2   12.33    2.59
  -7   1  -3   23.75    2.47
   7  -1   3   22.17    2.68
  -7   1  -4   19.82    2.53
   7  -1   4   19.60    2.50
  -7   1  -5    1.46    2.05
   7  -1   5    2.56    2.29
  -7   1  -6    6.62    2.14
   7  -1   6    5.78    1.73
  -7   1  -7   -0.83    3.39
   7  -1   7    0.18    1.84
  -7   1  -8    1.74    2.45
   7  -1   8    3.71    2.80
  -7   1  -9    0.30    2.51
   7  -1   9    0.49    2.86
  -7   2   9    0.04    1.06
   7  -2  -9    0.19    1.79
  -7   2   8    0.13    1.61
   7  -2  -8    1.15    1.74
  -7   2   7    1.36    1.75
   7  -2  -7    2.62    2.21
  -7   2   6    2.04    1.81
   7  -2  -6    6.73    2.66
  -7   2   5    1.92    2.08
   7  -2  -5    6.40    2.07
  -7   2   4   -0.42    2.03
   7  -2  -4    0.47    1.69
  -7   2   3    7.91    2.36
   7  -2  -3    7.47    2.12
  -7   2   2    9.94    1.88
   7  -2  -2    9.82    1.62
  -7   2   1   16.56    2.39
   7  -2  -1   15.32    2.17
  -7   2   0    3.30    2.14
   7  -2   0    5.50    1.96
  -7   2  -1    0.74    2.21
   7  -2   1    2.52    1.97
  -7   2  -2    0.36    1.72
   7  -2   2   -0.13    1.73
  -7   2  -3    1.28    2.45
   7  -2   3    2.93    2.47
  -7   2  -4    9.57    2.53
   7  -2   4    7.10    2.43
  -7   2  -5    0.07    2.37
   7  -2   5   -0.56    2.37
  -7   2  -6   -0.32    1.63
   7  -2   6   -0.62    2.35
  -7   2  -7   -0.85    2.03
   7  -2   7    5.77    1.80
  -7   2  -8    0.99    2.48
   7  -2   8    1.82    3.29
  -7   2  -9    1.67    2.89
   7  -2   9    5.88    3.88
  -7   3   8   10.65    1.70
   7  -3  -8   10.28    1.63
  -7   3   7    3.51    1.72
   7  -3  -7    3.46    2.19
  -7   3   6    4.67    3.23
   7  -3  -6   10.11    2.46
  -7   3   5   11.61    2.42
   7  -3  -5   10.61    2.40
  -7   3   4   13.73    2.49
   7  -3  -4    8.58    1.77
  -7   3   3    1.66    1.95
   7  -3  -3    1.20    1.93
  -7   3   2   17.50    2.14
   7  -3  -2   12.54    1.99
  -7   3   1   12.58    2.06
   7  -3  -1   10.95    1.96
  -7   3   0    1.65    1.72
   7  -3   0   -0.60    1.63
  -7   3  -1    5.79    1.84
   7  -3   1    3.65    1.74
  -7   3  -2    9.97    2.14
   7  -3   2    9.62    2.12
  -7   3  -3    8.99    2.45
   7  -3   3    5.83    2.33
  -7   3  -4   10.84    2.41
   7  -3   4   11.18    2.30
  -7   3  -5    8.66    2.09
   7  -3   5    8.43    3.30
  -7   3  -6    0.24    1.39
   7  -3   6   -0.42    2.70
  -7   3  -7   -0.66    1.47
   7  -3   7    4.05    1.60
  -7   3  -8   -0.67    2.31
   7  -3   8    4.39    3.11
  -7   3  -9    6.55    2.04
   7  -3   9    6.73    1.82
  -7   4   8    0.08    1.32
   7  -4  -8    4.17    1.69
  -7   4   7    0.90    1.30
   7  -4  -7    3.24    3.56
  -7   4   6    0.76    2.06
   7  -4  -6    0.69    2.32
  -7   4   5   16.34    2.26
   7  -4  -5   12.88    2.19
  -7   4   4    1.84    1.81
   7  -4  -4    2.69    1.78
  -7   4   3   15.39    2.31
   7  -4  -3   20.05    2.13
  -7   4   2    6.36    2.07
   7  -4  -2    1.16    1.91
  -7   4   1    2.85    1.79
   7  -4  -1    2.09    1.75
  -7   4   0    0.57    1.86
   7  -4   0    1.74    1.94
  -7   4  -1   14.37    2.29
   7  -4   1   12.30    2.11
  -7   4  -2    1.59    2.53
   7  -4   2   -0.69    2.54
  -7   4  -3    1.17    2.23
   7  -4   3    1.19    1.92
  -7   4  -4    2.36    2.10
   7  -4   4    0.66    2.46
  -7   4  -5   -0.27    1.57
   7  -4   5    0.38    2.34
   7  -4   6    3.08    1.65
  -7   4  -7    0.77    1.01
   7  -4   7   -0.04    1.15
  -7   4  -8    5.25    2.08
   7  -4   8    0.35    2.13
  -7   5   7    0.27    2.30
   7  -5  -7   -3.25    3.46
  -7   5   6   -0.44    0.87
   7  -5  -6    0.75    2.16
  -7   5   5    9.25    2.01
   7  -5  -5   11.76    1.97
  -7   5   4    0.91    1.86
   7  -5  -4   -0.81    1.74
  -7   5   3    0.86    2.36
   7  -5  -3    0.70    2.17
  -7   5   2   -3.20    1.79
   7  -5  -2   -1.50    1.85
  -7   5   1   -1.67    2.14
   7  -5  -1    0.21    2.09
  -7   5   0    0.17    2.17
   7  -5   0    1.68    2.25
  -7   5  -1   -2.47    2.22
   7  -5   1    0.60    2.13
  -7   5  -2    2.31    2.14
   7  -5   2    2.10    2.31
  -7   5  -3    2.03    1.99
   7  -5   3    0.23    1.50
  -7   5  -4    1.72    2.28
   7  -5   4   -0.40    2.17
  -7   5  -5    0.71    1.61
   7  -5   5    4.05    1.52
  -7   5  -6    2.39    2.36
   7  -5   6    1.29    2.16
  -7   5  -7    0.22    1.90
   7  -5   7   -0.28    1.50
  -7   6   6   -1.12    2.63
   7  -6  -6    0.10    1.49
  -7   6   5    0.73    3.39
   7  -6  -5    0.32    1.84
  -7   6   4   -0.72    1.78
   7  -6  -4    1.34    1.91
  -7   6   3    7.27    2.66
   7  -6  -3    6.07    2.20
  -7   6   2    3.29    2.15
   7  -6  -2   -0.72    2.12
  -7   6   1   -1.38    2.07
   7  -6  -1    1.64    2.25
  -7   6   0   10.57    2.42
   7  -6   0   11.62    2.27
  -7   6  -1    7.34    2.42
   7  -6   1   12.83    2.20
  -7   6  -2   14.34    2.31
   7  -6   2   23.36    2.42
  -7   6  -3    0.13    1.96
   7  -6   3   -1.92    1.94
  -7   6  -4    3.94    1.80
   7  -6   4   15.24    2.37
  -7   6  -5   -0.93    2.28
   7  -6   5   -0.53    2.78
  -7   6  -6    0.50    1.57
   7  -6   6   -0.20    3.58
  -7   6  -7    3.44    2.81
   7  -7  -6    5.91    1.84
  -7   7   5    4.05    2.58
   7  -7  -5    0.48    1.49
  -7   7   4    4.35    1.67
   7  -7  -4    4.24    1.78
  -7   7   3   14.65    2.92
   7  -7  -3   19.83    2.91
  -7   7   2    3.10    2.26
   7  -7  -2    2.43    2.20
  -7   7   1   43.19    2.42
   7  -7  -1   54.46    2.63
  -7   7   0   -2.19    2.48
   7  -7   0    2.64    2.54
  -7   7  -1   15.40    2.34
   7  -7   1   19.72    2.46
  -7   7  -2    3.18    1.98
   7  -7   2    5.38    2.26
  -7   7  -3    7.05    2.40
   7  -7   3    7.00    2.52
  -7   7  -4    0.88    4.45
   7  -7   4    4.05    2.32
  -7   7  -5    1.82    2.17
   7  -7   5   -1.88    3.59
  -7   7  -6   19.81    2.72
   7  -7   6   23.03    2.84
   7  -8  -5   10.66    2.65
  -7   8   4   -0.22    1.30
   7  -8  -4   -0.22    1.38
  -7   8   3    3.11    2.72
   7  -8  -3    1.48    2.76
  -7   8   2    0.72    3.03
   7  -8  -2   -0.69    2.27
  -7   8   1    1.98    2.49
   7  -8  -1   -2.63    2.32
  -7   8   0   20.89    2.16
   7  -8   0   20.51    2.89
  -7   8  -1    1.42    2.24
   7  -8   1    0.98    2.21
  -7   8  -2    8.00    2.09
   7  -8   2    8.47    2.39
  -7   8  -3    0.77    2.07
   7  -8   3   -0.13    2.01
  -7   8  -4    4.95    3.68
   7  -8   4    1.83    3.04
  -7   8  -5    6.92    1.57
  -7   9   3    1.57    2.99
   7  -9  -3    2.39    2.85
  -7   9   2   32.25    5.24
   7  -9  -2   42.91    2.58
  -7   9   1    0.74    1.93
   7  -9  -1   -0.68    1.79
  -7   9   0    0.81    2.00
   7  -9   0    2.11    2.39
  -7   9  -1    3.82    1.88
   7  -9   1    1.82    1.65
  -7   9  -2    0.74    3.10
   7  -9   2    2.52    2.69
  -7   9  -3   -0.63    1.67
   7  -9   3    0.07    0.93
  -7   9  -4    4.17    1.16
   7  -9   4    0.21    1.84
  -7  10   0    9.94    2.45
  -8  -4  -1    8.86    2.53
   8   3  -4    1.90    3.08
  -8  -3   2   -0.40    1.46
  -8  -3   0    6.07    2.88
  -8  -3  -1    2.40    2.71
   8   3   1   -1.28    2.45
   8   3   2    7.76    2.19
   8   3   5    9.00    2.73
   8   2  -5   14.04    3.69
   8   2  -4   -0.35    2.13
  -8  -2   3    0.74    1.51
  -8  -2   2    0.36    2.64
  -8  -2   1    6.40    1.81
  -8  -2   0   10.88    2.53
  -8  -2  -1    0.15    1.87
   8   2   1    1.20    1.51
  -8  -2  -3   -1.23    1.94
   8   2   6    0.24    1.99
   8   1  -5    7.44    2.08
  -8  -1   4    4.49    1.85
   8   1  -4   10.76    2.84
   8   1  -2   -0.12    2.39
  -8  -1   1    2.56    1.69
   8   1  -1   -0.11    0.97
  -8  -1   0    6.06    1.39
  -8  -1  -1   10.16    1.64
   8   1   1    8.88    2.17
  -8  -1  -3    0.45    2.30
   8   1   3    5.01    3.06
  -8   0   6   -0.55    1.97
   8   0  -5    5.57    2.69
  -8   0   4    6.31    2.01
   8   0  -4    3.48    2.93
  -8   0   2    0.64    1.52
   8   0  -2    9.42    2.85
  -8   0   1   17.05    2.24
   8   0  -1   14.38    2.48
  -8   0   0   -0.10    2.00
   8   0   0   -0.16    1.55
  -8   0  -1    0.51    1.66
   8   0   1    3.26    2.52
  -8   0  -2   10.09    2.38
   8   0   2   10.50    1.99
  -8   0  -3    0.59    2.63
   8   0   3    0.36    1.95
  -8   0  -4    0.56    3.12
   8   0   4   11.51    5.36
  -8   0  -5   -1.33    2.91
   8   0   5   -0.42    3.04
  -8   1   5    0.70    2.18
   8  -1  -5   -1.48    3.84
  -8   1   4   12.68    2.38
   8  -1  -4   15.39    2.11
  -8   1   3    7.16    1.45
   8  -1  -3    8.89    2.22
  -8   1   2    6.00    2.37
   8  -1  -2    4.46    1.69
  -8   1   1    0.63    1.24
   8  -1  -1    0.07    1.24
  -8   1   0   -0.46    2.47
   8  -1   0   -1.18    2.40
  -8   1  -1   -0.66    1.83
   8  -1   1   -2.77    2.52
  -8   1  -2    0.98    1.55
   8  -1   2    4.61    1.50
  -8   1  -3    9.67    3.43
  -8   1  -4    1.08    3.06
   8  -1   4   11.49    4.33
  -8   1  -5    4.58    2.52
   8  -1   5    0.79    2.25
  -8   2   4   -1.05    1.85
   8  -2  -4   -0.85    1.86
  -8   2   3    0.90    1.80
   8  -2  -3    1.35    2.16
  -8   2   2   -0.90    2.16
   8  -2  -2   -0.11    1.84
  -8   2   1    7.66    2.68
   8  -2  -1   11.85    3.84
  -8   2   0   52.78    2.86
   8  -2   0   45.49    2.60
  -8   2  -1   11.09    2.46
   8  -2   1    8.32    2.00
  -8   2  -2    0.03    2.24
   8  -2   2    0.11    2.55
  -8   2  -3   17.32    1.85
   8  -2   3   18.36    2.29
  -8   2  -4    6.09    4.19
   8  -2   4    6.62    4.05
  -8   2  -5   24.17    4.24
   8  -2   5   19.10    4.00
  -8   3   5    2.84    2.15
   8  -3  -5    8.43    3.26
  -8   3   4    5.21    1.72
   8  -3  -4    5.58    1.56
  -8   3   3    4.31    1.54
   8  -3  -3    6.03    2.06
  -8   3   2    0.37    1.72
   8  -3  -2   -0.48    2.48
  -8   3   1    0.91    1.73
   8  -3  -1    5.85    1.75
  -8   3   0    5.12    2.37
   8  -3   0    5.72    2.07
  -8   3  -1   10.27    3.93
   8  -3   1   13.36    3.57
  -8   3  -3    0.89    2.84
   8  -3   3    5.90    1.99
  -8   3  -4    0.80    3.03
   8  -3   4   -0.90    2.54
  -8   4   4    0.81    1.18
   8  -4  -4    0.56    1.25
  -8   4   3   10.32    3.09
  -8   4   1    1.21    1.36
   8  -4  -1   -1.09    1.64
  -8   4   0    2.00    2.23
   8  -4   0    2.23    2.07
  -8   4  -1   -1.12    3.22
   8  -4   1    5.01    3.27
   8  -4   3   -2.28    2.26
  -8   4  -4   29.36    3.00
   8  -4   4   23.49    2.93
   8  -5  -1    7.09    2.37
   8  -5   0    0.45    1.24
  -8   5  -1    6.65    2.31
   8  -5   1   -3.21    3.02
   0   0   0    0.00    0.00
;
_shelx_hkl_checksum              69919
_shelx_res_file
;
    S53.res created by SHELXL-2014/7
TITL S3 in P-1 (colorless plate)
CELL 0.63001   5.2990   9.0720  10.6040  92.300  90.097  99.613
ZERR    1.00   0.0011   0.0018   0.0021   0.030   0.030   0.030
LATT 1
SFAC C  H  N
DISP C 0.002386 0.001213 9.061991
DISP H -0.000027 0 0.619155
DISP N 0.004701 0.002449 14.851772
UNIT 22 40 4
OMIT -3 52
L.S. 20
BOND $H
CONF
ACTA
SIZE 0.10 0.05 0.01
TEMP -172
FMAP -2
PLAN -10
CONF
HTAB
EQIV $1 -x+1, -y+2, -z+2
HTAB C1 N1_$1
WGHT    0.125600
EXTI    0.169050
FVAR       0.79876
MOLE 1
N1    3    0.446994    0.804387    0.967037    11.00000    0.02113    0.02074 =
         0.02443   -0.00009   -0.00107    0.00464
N2    3    0.726470    0.907340    0.809776    11.00000    0.02180    0.02353 =
         0.02235   -0.00133   -0.00269    0.00498
C1    1    0.707438    0.885394    0.946019    11.00000    0.02147    0.02409 =
         0.02296    0.00000   -0.00237    0.00721
AFIX  23
H1A   2    0.735236    0.982985    0.993565    11.00000   -1.20000
H1B   2    0.836795    0.826208    0.973833    11.00000   -1.20000
AFIX   0
C2    1    0.417348    0.701719    0.856472    11.00000    0.02055    0.02021 =
         0.02768   -0.00219   -0.00303    0.00664
AFIX  13
H2    2    0.541881    0.630836    0.863530    11.00000   -1.20000
AFIX   0
C3    1    0.504660    0.808424    0.751889    11.00000    0.02041    0.02351 =
         0.02616   -0.00238   -0.00259    0.00725
AFIX  13
H3    2    0.367409    0.869160    0.736460    11.00000   -1.20000
AFIX   0
C4    1    0.541865    0.717593    0.630947    11.00000    0.02792    0.02864 =
         0.02604   -0.00361   -0.00222    0.00793
AFIX  23
H4A   2    0.672653    0.653534    0.644647    11.00000   -1.20000
H4B   2    0.600342    0.785455    0.562164    11.00000   -1.20000
AFIX   0
C5    1    0.284079    0.620394    0.595324    11.00000    0.02907    0.02838 =
         0.02933   -0.00476   -0.00493    0.00982
AFIX  23
H5A   2    0.161054    0.686144    0.572534    11.00000   -1.20000
H5B   2    0.307222    0.555888    0.520131    11.00000   -1.20000
AFIX   0
C6    1    0.172037    0.521647    0.702090    11.00000    0.02758    0.02376 =
         0.03568   -0.00300   -0.00605    0.00647
AFIX  23
H6A   2    0.280591    0.444689    0.715428    11.00000   -1.20000
H6B   2   -0.001060    0.469484    0.677010    11.00000   -1.20000
AFIX   0
C7    1    0.154281    0.612072    0.826563    11.00000    0.02369    0.02235 =
         0.03194   -0.00167   -0.00227    0.00301
AFIX  23
H7A   2    0.027962    0.680154    0.818022    11.00000   -1.20000
H7B   2    0.098632    0.543760    0.895415    11.00000   -1.20000
AFIX   0
C8    1    0.425888    0.733555    1.087679    11.00000    0.02874    0.02219 =
         0.02687    0.00131    0.00018    0.00711
AFIX  23
H8A   2    0.558416    0.668925    1.092959    11.00000   -1.20000
H8B   2    0.256587    0.668583    1.092033    11.00000   -1.20000
AFIX   0
C9    1    0.456425    0.844925    1.201049    11.00000    0.02656    0.02353 =
         0.02592    0.00103   -0.00106    0.00729
AFIX  23
H9A   2    0.615324    0.917768    1.190003    11.00000   -1.20000
H9B   2    0.479236    0.789643    1.277738    11.00000   -1.20000
AFIX   0
C10   1    0.768547    1.066095    0.775714    11.00000    0.02209    0.02489 =
         0.02530    0.00042   -0.00011    0.00487
AFIX  13
H10   2    0.915102    1.117964    0.829093    11.00000   -1.20000
AFIX   0
C11   1    0.857021    1.077895    0.639237    11.00000    0.03220    0.03225 =
         0.02640    0.00229    0.00262    0.00573
AFIX 137
H11A  2    0.992577    1.017817    0.624977    11.00000   -1.50000
H11B  2    0.923063    1.182707    0.622567    11.00000   -1.50000
H11C  2    0.712303    1.040748    0.582425    11.00000   -1.50000
AFIX   0
HKLF 4
REM  S3 in P-1 (colorless plate)
REM R1 =  0.0623 for    1732 Fo > 4sig(Fo)  and  0.0978 for all    2661 data
REM    120 parameters refined using      0 restraints
END
WGHT      0.1259      0.0000
REM Instructions for potential hydrogen bonds
HTAB C1 N1_$1
REM Highest difference peak  0.408,  deepest hole -0.347,  1-sigma level  0.071
Q1    1   0.2888  0.6648  0.8423  11.00000  0.05    0.41
Q2    1   0.4952  0.8092  0.8627  11.00000  0.05   -0.35
Q3    1   0.3600  0.6984  0.9535  11.00000  0.05   -0.34
Q4    1   0.4636  0.6774  0.8570  11.00000  0.05    0.33
Q5    1   0.4718  0.8187  1.0831  11.00000  0.05   -0.33
Q6    1   0.3664  0.8638  0.9540  11.00000  0.05    0.33
Q7    1   0.2331  0.8848  1.3177  11.00000  0.05   -0.32
Q8    1   0.3376  0.8817  1.2085  11.00000  0.05    0.31
Q9    1   0.8522  0.8790  0.8223  11.00000  0.05    0.31
Q10   1   0.8151  0.8731  0.8951  11.00000  0.05   -0.31
;
_shelx_res_checksum              47025
loop_
_space_group_symop_operation_xyz
'x, y, z'
'-x, -y, -z'
loop_
_atom_site_type_symbol
_atom_site_label
_atom_site_fract_x
_atom_site_fract_y
_atom_site_fract_z
_atom_site_U_iso_or_equiv
_atom_site_adp_type
_atom_site_calc_flag
_atom_site_occupancy
N N1 0.4470(3) 0.80439(15) 0.96704(14) 0.0220(3) Uani d 1
N N2 0.7265(3) 0.90734(15) 0.80978(13) 0.0225(3) Uani d 1
C C1 0.7074(3) 0.88539(19) 0.94602(16) 0.0225(4) Uani d 1
H H1A 0.7352 0.9830 0.9936 0.027 Uiso calc 1
H H1B 0.8368 0.8262 0.9738 0.027 Uiso calc 1
C C2 0.4173(3) 0.70172(18) 0.85647(17) 0.0225(4) Uani d 1
H H2 0.5419 0.6308 0.8635 0.027 Uiso calc 1
C C3 0.5047(3) 0.80842(18) 0.75189(16) 0.0230(4) Uani d 1
H H3 0.3674 0.8692 0.7365 0.028 Uiso calc 1
C C4 0.5419(3) 0.7176(2) 0.63095(17) 0.0273(4) Uani d 1
H H4A 0.6727 0.6535 0.6446 0.033 Uiso calc 1
H H4B 0.6003 0.7855 0.5622 0.033 Uiso calc 1
C C5 0.2841(3) 0.6204(2) 0.59532(18) 0.0285(4) Uani d 1
H H5A 0.1611 0.6861 0.5725 0.034 Uiso calc 1
H H5B 0.3072 0.5559 0.5201 0.034 Uiso calc 1
C C6 0.1720(3) 0.52165(19) 0.70209(19) 0.0289(4) Uani d 1
H H6A 0.2806 0.4447 0.7154 0.035 Uiso calc 1
H H6B -0.0011 0.4695 0.6770 0.035 Uiso calc 1
C C7 0.1543(3) 0.61207(19) 0.82656(18) 0.0262(4) Uani d 1
H H7A 0.0280 0.6802 0.8180 0.031 Uiso calc 1
H H7B 0.0986 0.5438 0.8954 0.031 Uiso calc 1
C C8 0.4259(3) 0.73355(19) 1.08768(17) 0.0256(4) Uani d 1
H H8A 0.5584 0.6689 1.0930 0.031 Uiso calc 1
H H8B 0.2566 0.6686 1.0920 0.031 Uiso calc 1
C C9 0.4564(3) 0.84492(19) 1.20105(17) 0.0250(4) Uani d 1
H H9A 0.6153 0.9178 1.1900 0.030 Uiso calc 1
H H9B 0.4792 0.7896 1.2777 0.030 Uiso calc 1
C C10 0.7685(3) 1.06609(19) 0.77571(17) 0.0240(4) Uani d 1
H H10 0.9151 1.1180 0.8291 0.029 Uiso calc 1
C C11 0.8570(4) 1.0779(2) 0.63924(17) 0.0302(4) Uani d 1
H H11A 0.9926 1.0178 0.6250 0.045 Uiso calc 1
H H11B 0.9231 1.1827 0.6226 0.045 Uiso calc 1
H H11C 0.7123 1.0407 0.5824 0.045 Uiso calc 1
loop_
_atom_site_aniso_label
_atom_site_aniso_U_11
_atom_site_aniso_U_22
_atom_site_aniso_U_33
_atom_site_aniso_U_12
_atom_site_aniso_U_13
_atom_site_aniso_U_23
N1 0.0211(7) 0.0207(7) 0.0244(7) 0.0046(5) -0.0011(5) -0.0001(5)
N2 0.0218(7) 0.0235(7) 0.0223(7) 0.0050(6) -0.0027(5) -0.0013(6)
C1 0.0215(8) 0.0241(8) 0.0230(8) 0.0072(6) -0.0024(6) 0.0000(6)
C2 0.0205(7) 0.0202(8) 0.0277(9) 0.0066(6) -0.0030(6) -0.0022(6)
C3 0.0204(7) 0.0235(8) 0.0262(9) 0.0073(6) -0.0026(6) -0.0024(6)
C4 0.0279(8) 0.0286(9) 0.0260(9) 0.0079(7) -0.0022(7) -0.0036(7)
C5 0.0291(9) 0.0284(9) 0.0293(9) 0.0098(7) -0.0049(7) -0.0048(7)
C6 0.0276(8) 0.0238(9) 0.0357(10) 0.0065(7) -0.0061(7) -0.0030(7)
C7 0.0237(8) 0.0224(9) 0.0319(10) 0.0030(7) -0.0023(7) -0.0017(7)
C8 0.0287(8) 0.0222(8) 0.0269(9) 0.0071(7) 0.0002(7) 0.0013(6)
C9 0.0266(8) 0.0235(8) 0.0259(9) 0.0073(7) -0.0011(6) 0.0010(6)
C10 0.0221(8) 0.0249(9) 0.0253(9) 0.0049(6) -0.0001(6) 0.0004(6)
C11 0.0322(9) 0.0322(10) 0.0264(10) 0.0057(8) 0.0026(7) 0.0023(7)
loop_
_atom_type_symbol
_atom_type_description
_atom_type_scat_dispersion_real
_atom_type_scat_dispersion_imag
_atom_type_scat_source
C C 0.0024 0.0012 'International Tables Vol C Tables 4.2.6.8 and 6.1.1.4'
H H 0.0000 0.0000 'International Tables Vol C Tables 4.2.6.8 and 6.1.1.4'
N N 0.0047 0.0024 'International Tables Vol C Tables 4.2.6.8 and 6.1.1.4'
loop_
_geom_angle_atom_site_label_1
_geom_angle_atom_site_label_2
_geom_angle_atom_site_label_3
_geom_angle_site_symmetry_1
_geom_angle_site_symmetry_3
_geom_angle
_geom_angle_publ_flag
C8 N1 C2 . . 115.17(13) y
C8 N1 C1 . . 111.88(13) y
C2 N1 C1 . . 100.10(13) y
C1 N2 C3 . . 105.97(13) y
C1 N2 C10 . . 114.09(13) y
C3 N2 C10 . . 117.19(13) y
N2 C1 N1 . . 106.03(13) y
N2 C1 H1A . . 110.5 ?
N1 C1 H1A . . 110.5 ?
N2 C1 H1B . . 110.5 ?
N1 C1 H1B . . 110.5 ?
H1A C1 H1B . . 108.7 ?
N1 C2 C7 . . 118.50(14) y
N1 C2 C3 . . 101.10(13) y
C7 C2 C3 . . 110.74(14) y
N1 C2 H2 . . 108.7 ?
C7 C2 H2 . . 108.7 ?
C3 C2 H2 . . 108.7 ?
N2 C3 C2 . . 102.64(13) y
N2 C3 C4 . . 119.13(14) y
C2 C3 C4 . . 109.13(14) y
N2 C3 H3 . . 108.5 ?
C2 C3 H3 . . 108.5 ?
C4 C3 H3 . . 108.5 ?
C3 C4 C5 . . 107.94(15) y
C3 C4 H4A . . 110.1 ?
C5 C4 H4A . . 110.1 ?
C3 C4 H4B . . 110.1 ?
C5 C4 H4B . . 110.1 ?
H4A C4 H4B . . 108.4 ?
C6 C5 C4 . . 112.80(15) y
C6 C5 H5A . . 109.0 ?
C4 C5 H5A . . 109.0 ?
C6 C5 H5B . . 109.0 ?
C4 C5 H5B . . 109.0 ?
H5A C5 H5B . . 107.8 ?
C5 C6 C7 . . 112.34(14) y
C5 C6 H6A . . 109.1 ?
C7 C6 H6A . . 109.1 ?
C5 C6 H6B . . 109.1 ?
C7 C6 H6B . . 109.1 ?
H6A C6 H6B . . 107.9 ?
C2 C7 C6 . . 107.97(15) y
C2 C7 H7A . . 110.1 ?
C6 C7 H7A . . 110.1 ?
C2 C7 H7B . . 110.1 ?
C6 C7 H7B . . 110.1 ?
H7A C7 H7B . . 108.4 ?
N1 C8 C9 . . 113.53(14) y
N1 C8 H8A . . 108.9 ?
C9 C8 H8A . . 108.9 ?
N1 C8 H8B . . 108.9 ?
C9 C8 H8B . . 108.9 ?
H8A C8 H8B . . 107.7 ?
C8 C9 C10 . 2_677 116.12(14) y
C8 C9 H9A . . 108.3 ?
C10 C9 H9A 2_677 . 108.3 ?
C8 C9 H9B . . 108.3 ?
C10 C9 H9B 2_677 . 108.3 ?
H9A C9 H9B . . 107.4 ?
N2 C10 C11 . . 109.44(14) y
N2 C10 C9 . 2_677 117.33(14) y
C11 C10 C9 . 2_677 110.36(14) y
N2 C10 H10 . . 106.3 ?
C11 C10 H10 . . 106.3 ?
C9 C10 H10 2_677 . 106.3 ?
C10 C11 H11A . . 109.5 ?
C10 C11 H11B . . 109.5 ?
H11A C11 H11B . . 109.5 ?
C10 C11 H11C . . 109.5 ?
H11A C11 H11C . . 109.5 ?
H11B C11 H11C . . 109.5 ?
loop_
_geom_bond_atom_site_label_1
_geom_bond_atom_site_label_2
_geom_bond_site_symmetry_2
_geom_bond_distance
_geom_bond_publ_flag
N1 C8 . 1.451(2) y
N1 C2 . 1.459(2) y
N1 C1 . 1.473(2) y
N2 C1 . 1.468(2) y
N2 C3 . 1.471(2) y
N2 C10 . 1.480(2) y
C1 H1A . 0.9900 ?
C1 H1B . 0.9900 ?
C2 C7 . 1.518(2) y
C2 C3 . 1.523(3) y
C2 H2 . 1.0000 ?
C3 C4 . 1.527(2) y
C3 H3 . 1.0000 ?
C4 C5 . 1.535(3) y
C4 H4A . 0.9900 ?
C4 H4B . 0.9900 ?
C5 C6 . 1.531(3) y
C5 H5A . 0.9900 ?
C5 H5B . 0.9900 ?
C6 C7 . 1.537(3) y
C6 H6A . 0.9900 ?
C6 H6B . 0.9900 ?
C7 H7A . 0.9900 ?
C7 H7B . 0.9900 ?
C8 C9 . 1.530(2) y
C8 H8A . 0.9900 ?
C8 H8B . 0.9900 ?
C9 C10 2_677 1.562(2) y
C9 H9A . 0.9900 ?
C9 H9B . 0.9900 ?
C10 C11 . 1.524(3) y
C10 C9 2_677 1.562(2) y
C10 H10 . 1.0000 ?
C11 H11A . 0.9800 ?
C11 H11B . 0.9800 ?
C11 H11C . 0.9800 ?
loop_
_geom_hbond_atom_site_label_D
_geom_hbond_atom_site_label_H
_geom_hbond_atom_site_label_A
_geom_hbond_site_symmetry_A
_geom_hbond_distance_DH
_geom_hbond_distance_HA
_geom_hbond_distance_DA
_geom_hbond_angle_DHA
C1 H1A N1 2_677 0.99 2.32 3.163(2) 142.3
loop_
_geom_torsion_atom_site_label_1
_geom_torsion_atom_site_label_2
_geom_torsion_atom_site_label_3
_geom_torsion_atom_site_label_4
_geom_torsion_site_symmetry_4
_geom_torsion
C3 N2 C1 N1 . -13.50(15)
C10 N2 C1 N1 . 116.93(14)
C8 N1 C1 N2 . 161.60(13)
C2 N1 C1 N2 . 39.11(14)
C8 N1 C2 C7 . 70.26(18)
C1 N1 C2 C7 . -169.60(14)
C8 N1 C2 C3 . -168.59(13)
C1 N1 C2 C3 . -48.46(13)
C1 N2 C3 C2 . -16.48(15)
C10 N2 C3 C2 . -145.11(14)
C1 N2 C3 C4 . -137.10(15)
C10 N2 C3 C4 . 94.27(18)
N1 C2 C3 N2 . 40.79(14)
C7 C2 C3 N2 . 167.25(12)
N1 C2 C3 C4 . 168.07(12)
C7 C2 C3 C4 . -65.46(17)
N2 C3 C4 C5 . 177.59(13)
C2 C3 C4 C5 . 60.31(17)
C3 C4 C5 C6 . -55.12(18)
C4 C5 C6 C7 . 53.19(19)
N1 C2 C7 C6 . 176.36(14)
C3 C2 C7 C6 . 60.26(17)
C5 C6 C7 C2 . -53.77(18)
C2 N1 C8 C9 . -179.64(13)
C1 N1 C8 C9 . 66.93(17)
N1 C8 C9 C10 2_677 70.79(19)
C1 N2 C10 C11 . 164.66(13)
C3 N2 C10 C11 . -70.70(18)
C1 N2 C10 C9 2_677 -68.64(18)
C3 N2 C10 C9 2_677 56.0(2)

_cod_database_fobs_code 2020572
