#------------------------------------------------------------------------------
#$Date: 2016-07-21 04:10:48 +0300 (Thu, 21 Jul 2016) $
#$Revision: 184562 $
#$URL: file:///home/coder/svn-repositories/cod/cif/2/02/05/2020558.cif $
#------------------------------------------------------------------------------
#
# This file is available in the Crystallography Open Database (COD),
# http://www.crystallography.net/. The original data for this entry
# were provided by IUCr Journals, http://journals.iucr.org/.
#
# The file may be used within the scientific community so long as
# proper attribution is given to the journal article from which the
# data were obtained.
#
data_2020558
loop_
_publ_author_name
'H\"utzler, Wilhelm Maximilian'
'Egert, Ernst'
'Bolte, Michael'
_publ_section_title
;
 6-Propyl-2-thiouracil <i>versus</i> 6-methoxymethyl-2-thiouracil:
 enhancing the hydrogen-bonded synthon motif by replacement of a methylene
 group with an O atom
;
_journal_issue                   8
_journal_name_full               'Acta Crystallographica Section C'
_journal_page_first
;
;
_journal_paper_doi               10.1107/S2053229616011281
_journal_volume                  72
_journal_year                    2016
_chemical_formula_iupac          'C6 H8 N2 O2 S, C4 H9 N O'
_chemical_formula_moiety         'C6 H8 N2 O2 S, C4 H9 N O'
_chemical_formula_sum            'C10 H17 N3 O3 S'
_chemical_formula_weight         259.32
_chemical_name_systematic
;
6-Methoxymethyl-2-thiouracil--<i>N</i>,<i>N</i>-dimethylacetamide (1/1)
;
_space_group_crystal_system      triclinic
_space_group_IT_number           2
_space_group_name_Hall           '-P 1'
_space_group_name_H-M_alt        'P -1'
_symmetry_space_group_name_Hall  '-P 1'
_symmetry_space_group_name_H-M   'P -1'
_atom_sites_solution_hydrogens   mixed
_audit_creation_method           SHELXL-2014/7
_cell_angle_alpha                65.128(14)
_cell_angle_beta                 83.198(15)
_cell_angle_gamma                78.854(14)
_cell_formula_units_Z            2
_cell_length_a                   8.2090(15)
_cell_length_b                   9.1804(17)
_cell_length_c                   9.5617(17)
_cell_measurement_reflns_used    5511
_cell_measurement_temperature    173(2)
_cell_measurement_theta_max      26.33
_cell_measurement_theta_min      3.24
_cell_volume                     640.9(2)
_computing_cell_refinement
;
X-AREA (Stoe & Cie, 2001)
;
_computing_data_collection
;
X-AREA (Stoe & Cie, 2001)
;
_computing_data_reduction
;
X-AREA (Stoe & Cie, 2001)
;
_computing_molecular_graphics
;
Mercury (Macrae <i>et al.</i>,  2008) and XP in SHELXTL-Plus (Sheldrick,
2008)
;
_computing_publication_material
;
publCIF (Westrip, 2010)
;
_computing_structure_refinement
;
SHELXL2014 (Sheldrick, 2015)
;
_computing_structure_solution
;
SHELXS97 (Sheldrick, 2008)
;
_diffrn_ambient_temperature      173(2)
_diffrn_measured_fraction_theta_full 0.985
_diffrn_measured_fraction_theta_max 0.980
_diffrn_measurement_device_type  'Stoe IPDS II two-circle'
_diffrn_measurement_method       \w
_diffrn_radiation_type           MoK\a
_diffrn_radiation_wavelength     0.71073
_diffrn_reflns_av_R_equivalents  0.0305
_diffrn_reflns_limit_h_max       10
_diffrn_reflns_limit_h_min       -10
_diffrn_reflns_limit_k_max       10
_diffrn_reflns_limit_k_min       -11
_diffrn_reflns_limit_l_max       11
_diffrn_reflns_limit_l_min       -10
_diffrn_reflns_number            5010
_diffrn_reflns_theta_full        25.000
_diffrn_reflns_theta_max         25.858
_diffrn_reflns_theta_min         3.290
_exptl_absorpt_coefficient_mu    0.254
_exptl_absorpt_correction_T_max  1.000
_exptl_absorpt_correction_T_min  0.409
_exptl_absorpt_correction_type   multi-scan
_exptl_absorpt_process_details
;
(X-AREA; Stoe & Cie, 2001)
;
_exptl_crystal_colour            colourless
_exptl_crystal_density_diffrn    1.344
_exptl_crystal_description       plate
_exptl_crystal_F_000             276
_exptl_crystal_size_max          0.230
_exptl_crystal_size_mid          0.100
_exptl_crystal_size_min          0.080
_refine_diff_density_max         0.234
_refine_diff_density_min         -0.178
_refine_ls_extinction_method     none
_refine_ls_goodness_of_fit_ref   0.961
_refine_ls_hydrogen_treatment    mixed
_refine_ls_matrix_type           full
_refine_ls_number_parameters     183
_refine_ls_number_reflns         2436
_refine_ls_number_restraints     22
_refine_ls_restrained_S_all      1.051
_refine_ls_R_factor_all          0.0553
_refine_ls_R_factor_gt           0.0353
_refine_ls_shift/su_max          0.001
_refine_ls_shift/su_mean         0.000
_refine_ls_structure_factor_coef Fsqd
_refine_ls_weighting_details
'w=1/[\s^2^(Fo^2^)+(0.0416P)^2^] where P=(Fo^2^+2Fc^2^)/3'
_refine_ls_weighting_scheme      calc
_refine_ls_wR_factor_gt          0.0744
_refine_ls_wR_factor_ref         0.0786
_reflns_number_gt                1840
_reflns_number_total             2436
_reflns_threshold_expression     'I > 2\s(I)'
_cod_data_source_file            sk3632sup1.cif
_cod_data_source_block           III
_cod_database_code               2020558
_shelx_space_group_comment
;
The symmetry employed for this shelxl refinement is uniquely defined
by the following loop, which should always be used as a source of
symmetry information in preference to the above space-group names.
They are only intended as comments.
;
_shelx_estimated_absorpt_t_min   0.944
_shelx_estimated_absorpt_t_max   0.980
_shelx_hkl_file
;
  -7   2  -5   62.07    7.99   0
  -6  -4 -10   53.26   11.20   0
  -6   0  -7   29.84    7.34   0
  -6   5   1   53.12    8.06   0
  -5   5   2  608.26   11.47   0
  -3   0  -5   69.55    6.94   0
  -3   4   2  653.71   12.86   0
  -2   2  -1  271.74   11.27   0
   0  -7   5   58.43    8.65   0
   0  -3   7    6.19    8.92   0
   0  -2   7  140.17    9.44   0
   0   0   6    2.97    7.70   0
   1  -7  -1  176.12    9.41   0
   1  -7   0    2.69    8.60   0
   1  -7   1  440.55   11.61   0
   1  -6   2   67.47    7.45   0
   1  -5   3   65.77    7.76   0
   1  -4  -1  109.48   10.13   0
   1  -3   0  792.44   14.78   0
   1  -2   2 2701.22   23.66   0
  -7  -1  -8   41.61   10.32   0
  -7   1  -6   51.06    8.65   0
  -7   5   1   18.88    9.88   0
  -6   3  -3  106.77    7.88   0
  -6   4  -1  205.98   10.25   0
  -5  -5 -10   29.68   10.72   0
  -5  -2  -8  496.01   13.64   0
  -5   2  -4  150.72    8.24   0
  -5   5   7    4.55   12.16   0
  -3  -4  -8   19.92   10.86   0
  -2  -4  -7    5.39   13.52   0
  -2   0  10   33.51   13.27   0
  -2   2   9  114.38   17.66   0
  -1 -10  -7  270.05   14.50   0
  -1  -2   9   41.75   10.12   0
  -1   1   8   11.25   10.55   0
   0 -10  -4  178.39   10.52   0
   0  -9  -5  359.92   12.97   0
   0  -6   6   45.70    8.51   0
   0  -4   7    6.58    9.20   0
   0  -1   7  530.61   12.53   0
   0   1   3 2536.79   47.76   0
   0   1   4 3017.07   40.07   0
   1  -7   2    8.43    8.76   0
   1  -6  -2   18.97    7.70   0
   1  -6   3   44.94    7.59   0
   1  -5   4  159.50    9.75   0
   1  -4   4   13.02    6.93   0
   1  -3   4  721.73   11.86   0
   1  -2   3  562.75   12.35   0
  -7   0  -7   44.77    9.28   0
  -7   3  -3   71.66    8.92   0
  -6   5   2  263.86   11.47   0
  -5   1  -5  105.75    9.57   0
  -5   5   3   30.96    7.62   0
  -4   2  -3  306.84   10.71   0
  -4   4   1  914.53   13.97   0
  -3   4   3    1.53    9.67   0
  -1  -1   9   15.67    9.61   0
  -1   2   7  466.68   21.93   0
   0  -5   7   70.59   11.02   0
   0   1   5 1547.55   27.05   0
   1  -8  -1  322.28   10.74   0
   1  -8   0   13.65    7.43   0
   1  -8   1   -1.47    9.01   0
   1  -7  -2  223.11   10.06   0
   1  -5  -2  293.24   10.74   0
   1  -2   1   27.78    8.84   0
   1  -2   4  307.13    9.80   0
  -8   3  -3    5.42    8.92   0
  -8   4  -1    7.80    9.14   0
  -7   4  -1   46.08    8.73   0
  -7   5   2   19.46   10.35   0
  -6  -3  -9   11.86   11.60   0
  -6   2  -4  321.23   10.27   0
  -5  -1  -7   44.70    9.21   0
  -5   0  -6   18.86    7.82   0
  -5   3  -2    2.16    7.84   0
  -5   4   0  111.92    8.87   0
  -5   5   4   -4.75    8.95   0
  -5   5   5  182.18   12.60   0
  -5   5   6  340.53   14.83   0
  -4  -7 -10    1.98   17.49   0
  -4  -3  -8  128.60   11.14   0
  -3   2  -2 1247.04   16.02   0
  -3   3   0   32.31    9.45   0
  -3   4   6   17.74   14.23   0
  -2   3   2  285.81   14.23   0
  -1   0   9   21.11   12.63   0
   0 -10  -5   78.73   11.78   0
   0   0   7   57.67   11.23   0
   1  -8  -2  228.86   10.51   0
   1  -8   2   62.17    8.78   0
   1  -7   3  157.49    9.47   0
   1  -6   4  164.18    9.38   0
   1  -5   5  404.97   11.55   0
   1  -4   5  255.12    9.55   0
   1  -3   5   65.32    7.40   0
  -7   2  -4    5.78   10.02   0
  -6   5   3   23.13    9.90   0
  -6   5   7   45.60   13.65   0
  -4   1  -4   56.50    8.85   0
  -4   3  -1  400.44   10.68   0
  -3   4   4   68.15   10.94   0
  -2   1  10   41.17   14.91   0
  -1  -3  -5  962.10   33.67   0
   0 -11  -4    0.54   10.44   0
   0  -3   8    9.69    9.57   0
   0  -2   8   78.80   10.03   0
   1  -9  -1   19.12    8.54   0
   1  -9   0   30.77    8.59   0
   1  -9   1   16.28   10.08   0
   1  -8   3   24.33   10.23   0
   1  -7  -3  222.14   10.92   0
   1  -7   4   14.11   10.40   0
   1  -6  -3  509.36   13.85   0
   1  -4  -2    6.55   11.57   0
   1  -3  -1  134.90   10.53   0
   1  -2   5  208.28    8.53   0
   1  -1   3   11.63   10.15   0
  -8   2  -4   46.71    9.28   0
  -7   5   3  134.49   11.36   0
  -6  -2  -8  177.98   11.28   0
  -6   1  -5   96.25    8.70   0
  -6   3  -2    7.04    8.26   0
  -6   4   0   71.65    8.15   0
  -6   5   4   29.05   10.01   0
  -5  -4  -9  230.98   13.13   0
  -5   4   9  177.10   23.64   0
  -4  -5  -9  297.80   16.94   0
  -4  -2  -7    4.80    9.01   0
  -4   4   2  323.15   11.65   0
  -4   4   8  137.78   21.61   0
  -3   4   5  303.99   14.95   0
  -2 -10  -9   24.50   20.46   0
  -2   1  -2  243.81   12.30   0
  -1   0  -2 1042.79   24.01   0
  -1   2   2  558.01   22.78   0
   0  -5  -5 1070.30   27.73   0
   0  -4   8   15.16    9.44   0
   0  -1   8    4.17   10.41   0
   1  -9  -2   77.86    8.90   0
   1  -8  -3   81.92    9.73   0
   1  -6   5   47.04    8.89   0
   1  -4   6   65.87   10.08   0
   1  -3   6   66.68    9.72   0
   1  -2   0  245.73   14.71   0
   1  -1   4  931.77   17.01   0
  -8   3  -2    5.30   10.63   0
  -8   4   0   -0.35    9.08   0
  -7  -3  -9    0.28   11.60   0
  -7   1  -5   16.92   10.45   0
  -7   3  -2  101.62    9.65   0
  -7   4   0  216.87   10.60   0
  -7   5   4  113.35   11.50   0
  -6  -5 -10   70.63   13.18   0
  -6  -1  -7   47.45    9.02   0
  -6   0  -6  272.65   10.34   0
  -6   5   5   52.79   10.98   0
  -6   5   6  120.34   12.82   0
  -5   2  -3   56.16    8.41   0
  -5   4   1  107.10    9.03   0
  -4  -1  -6   65.79    9.63   0
  -4   0  -5  747.04   12.77   0
  -3  -3  -7   32.93   11.34   0
  -3   1  -3  772.09   14.14   0
   0 -11  -5   22.89   10.69   0
   0  -9  -6   99.06   13.67   0
   0  -8  -6  178.52   14.78   0
   0   1   6  372.59   16.47   0
   1 -10  -1   26.17   11.24   0
   1  -9  -3  120.65   10.61   0
   1  -7   5   79.05   11.71   0
   1  -5   6   94.40    9.90   0
   1  -2   6 1330.49   17.03   0
   1  -1   2  919.19   18.83   0
   1  -1   5   -0.94    8.00   0
  -8   1  -5    1.82    9.36   0
  -7  -2  -8   33.65   11.25   0
  -7   0  -6   44.85   10.72   0
  -7   5   5    0.92   11.26   0
  -7   5   6   34.68   11.70   0
  -5  -6 -10    3.51   13.28   0
  -5   3  -1  175.38    9.79   0
  -2   2   0 3842.14   32.84   0
  -2   3   3 3343.03   36.20   0
  -1  -1  10    5.62   13.04   0
  -1   1   9  345.87   18.02   0
   0 -10  -6   31.64   12.01   0
   1 -10  -2    7.93    9.37   0
   1  -6   6    4.92    9.58   0
   1  -5  -3    8.92    9.21   0
  -8  -1  -7   43.93   12.17   0
  -8   0  -6   10.96    9.50   0
  -8   4   1    6.04   11.96   0
  -7  -1  -7   10.76    9.64   0
  -7   4   1   36.10   10.83   0
  -6   2  -3  201.10    9.81   0
  -6   4   1  429.97   11.91   0
  -5  -3  -8   86.46   12.12   0
  -5   1  -4   16.00    7.92   0
  -4   2  -2   59.76    8.47   0
  -4   3   0 1749.17   19.35   0
  -4   4   3   25.52    9.84   0
  -3  -2  -6  306.31   13.53   0
  -3   0  -4  250.96   12.06   0
  -3   3   1  290.07   11.56   0
  -2  -3  -6  665.78   20.78   0
   0  -7  -6   12.47   14.57   0
   0  -2   9   33.82   11.50   0
   0   0   8    5.08   10.77   0
   1 -10  -3  154.04   11.56   0
   1  -8  -4  166.69   11.20   0
   1  -7  -4   50.06   11.51   0
   1  -5   7   25.80   12.37   0
   1  -4   7  134.05   10.35   0
   1  -3   7   28.04   10.43   0
   1  -1   6   39.26    9.84   0
   2  -6   1  289.57   10.42   0
   2  -6   2  420.94   11.45   0
   2  -5   1  205.77   10.70   0
   2  -5   2  130.24    9.50   0
   2  -5   3  304.67   11.60   0
  -8   2  -3    7.16    9.65   0
  -7   2  -3   78.80    9.81   0
  -6  -4  -9   48.55   12.91   0
  -6   3  -1  175.04   10.20   0
  -5   4   2  254.40   10.44   0
  -3  -1  -5  433.65   13.30   0
  -3   2  -1  206.14   10.52   0
  -2   0  -3 2862.65   29.87   0
  -1 -10  -8   14.71   16.74   0
  -1  -1  -3   23.49   14.74   0
  -1   0  10   25.45   14.79   0
   0  -1   9  121.84   13.26   0
   0   1   7  708.44   19.76   0
   1  -9  -4  425.17   13.76   0
   1  -2   7   75.59   10.19   0
   2  -7   0    8.75    8.17   0
   2  -7   1  204.81   10.42   0
   2  -7   2   67.03    9.36   0
   2  -6   0   41.33    8.21   0
   2  -6   3    6.90    8.34   0
   2  -5   0  252.55   10.59   0
   2  -5   4  109.89   10.84   0
   2  -4   1   37.11    9.75   0
   2  -4   2  369.60   11.14   0
   2  -4   3   33.35    8.61   0
   2  -4   4  620.68   13.87   0
  -8   3  -1   77.33   10.06   0
  -7   3  -1   46.64    9.61   0
  -6   1  -4   22.25    8.81   0
  -6   4   2   17.80   10.44   0
  -5  -2  -7  139.96   11.11   0
  -5  -1  -6  286.92   12.21   0
  -5   0  -5  120.17    9.31   0
  -4   4   4  197.82   14.15   0
  -4   4   7  424.34   22.00   0
  -3  -7  -9   42.71   21.82   0
  -1  -9  -8   14.23   18.49   0
  -1  -2  -4  475.85   23.30   0
  -1   2   8    5.23   18.46   0
   1 -10  -4   26.57   10.92   0
   1  -6  -4   15.20   10.90   0
   1  -1   1  521.84   19.24   0
   2  -8   0    5.04    8.63   0
   2  -8   1   32.18    9.36   0
   2  -8   2   31.66    9.83   0
   2  -7  -1   99.44   10.37   0
   2  -7   3    7.23    9.47   0
   2  -6  -1   63.69    9.86   0
   2  -6   4    6.14    9.43   0
   2  -3   3  145.67   10.35   0
  -8   1  -4   44.61   11.59   0
  -8   4   2   53.86   11.01   0
  -7   1  -4  408.81   12.51   0
  -7   4   2    0.82    9.24   0
  -6  -3  -8  962.55   18.06   0
  -5   2  -2  412.06   12.43   0
  -5   3   0  771.15   15.23   0
  -5   4   3  207.17   11.75   0
  -4  -8 -10    6.39   20.55   0
  -4  -4  -8   44.62   11.35   0
  -4   1  -3   42.11    8.67   0
  -3  -5  -8   35.46   15.88   0
  -2  -2  -5  836.24   20.18   0
  -2  -1  -4  238.30   14.26   0
  -2   3   4 1880.13   33.02   0
  -1   1   0 5636.18   56.39   0
   1  -4   8   83.47   11.17   0
   1  -3   8   11.68   11.15   0
   1  -1   7  841.19   16.34   0
   1   0   4   17.68   12.78   0
   1   0   5  406.55   15.27   0
   2  -9   0   46.64   10.26   0
   2  -9   1  166.75   11.26   0
   2  -8  -1  140.26   10.21   0
   2  -8   3  131.90   11.38   0
   2  -7   4   23.78    9.65   0
   2  -6   5   16.06   10.77   0
   2  -5   5    6.62    9.02   0
   2  -4   0  726.10   15.41   0
   2  -4   5   22.08    8.51   0
   2  -3   2   50.99    8.91   0
   2  -3   4  154.89    9.72   0
  -9   2  -2   33.09   12.56   0
  -8   4   3  206.29   13.98   0
  -7  -4  -9  199.71   13.45   0
  -6  -6 -10   22.96   14.15   0
  -6  -2  -7  305.63   13.44   0
  -6  -1  -6  206.00   12.05   0
  -6   0  -5   80.93    9.27   0
  -6   2  -2   45.98   10.66   0
  -5  -5  -9  245.19   16.20   0
  -5   4   8   18.33   17.59   0
  -4   4   5   50.26   13.00   0
  -4   4   6  151.96   14.97   0
  -3   3   2   24.72   10.97   0
  -2   2  10    9.51   22.21   0
   0   0   9    6.56   12.49   0
   1  -3  -2    5.06   11.22   0
   1  -2   8    6.97   11.17   0
   2  -9  -1   -0.51   10.06   0
   2  -8  -2  125.84   11.71   0
   2  -7  -2 1245.55   17.76   0
   2  -5  -1 1314.28   17.63   0
   2  -5   6   98.97   12.36   0
   2  -4   6   90.96   11.30   0
   2  -3   1 1888.12   22.27   0
   2  -3   5  299.38   11.33   0
  -8   0  -5  172.36   11.33   0
  -8   2  -2  179.92   11.27   0
  -8   3   0   52.30   10.41   0
  -7  -3  -8   22.77   11.94   0
  -7   0  -5  118.55   10.33   0
  -7   2  -2  245.39   11.16   0
  -7   3   0  115.56   10.12   0
  -7   4   3   63.57   11.63   0
  -6   3   0 1243.45   17.29   0
  -6   4   3   53.07   11.22   0
  -5  -7 -10   -1.96   16.87   0
  -5   4   4  967.94   18.69   0
  -4   0  -4  903.41   16.16   0
  -4   2  -1  736.70   15.68   0
  -4   3   1  528.50   12.92   0
  -3   1  -2 1827.45   22.43   0
  -2   3   5  104.40   19.53   0
  -2   3   6   47.22   24.30   0
   0   1   8   78.00   14.11   0
   1 -10  -5    7.72   13.10   0
   1  -9  -5   53.26   11.28   0
   1  -8  -5   35.73   11.66   0
   1  -4  -3  118.15   13.28   0
   1   0   3  290.18   15.62   0
   1   0   6   18.92   10.22   0
   2  -9  -2  142.70   10.74   0
   2  -6  -2  653.44   14.91   0
   2  -3   6  175.43   11.64   0
   2  -2   3 1703.08   21.03   0
   2  -2   4 1162.92   16.75   0
  -8  -2  -7   88.65   13.30   0
  -8  -1  -6   40.35   10.14   0
  -8   4   4    9.13   12.67   0
  -7  -2  -7   15.44    9.50   0
  -7  -1  -6   48.27   10.57   0
  -6   4   4   11.51   13.14   0
  -6   4   8   15.65   18.39   0
  -5   1  -3  344.18   11.90   0
  -5   4   7   -0.18   16.82   0
  -4  -6  -9    9.81   16.88   0
  -4  -3  -7  275.04   13.80   0
  -1   1  10   36.14   15.60   0
   0 -10  -7   20.59   14.83   0
   0  -9  -7   70.68   17.26   0
   0  -1  10   71.90   14.35   0
   1  -2  -1   21.79   14.46   0
   1  -1   8   79.34   11.64   0
   2 -10  -2    1.97   12.53   0
   2  -2   5  428.95   11.94   0
  -9   1  -3   73.74   11.63   0
  -7   4   4   64.58   12.31   0
  -6   1  -3   84.70   11.31   0
  -5   3   1  241.28   11.83   0
  -5   4   5  219.34   14.29   0
  -5   4   6   17.64   14.30   0
  -4  -2  -6   22.86   10.72   0
  -4  -1  -5  340.80   11.50   0
  -3   2   0  176.66   13.28   0
  -2   1  -1  122.71   12.50   0
  -2   2   1 1301.53   23.49   0
   0  -6  -6   34.04   20.21   0
   1  -7  -5   13.98   13.66   0
   1  -2   9   60.26   12.40   0
   1   0   7  679.33   17.19   0
   2  -9  -3    1.23   11.31   0
   2  -8  -3  472.72   14.35   0
   2  -4  -1  142.79   12.25   0
   2  -4   7   41.71   11.24   0
   2  -3   7   98.44   12.36   0
   2  -2   2  382.84   13.41   0
   2  -2   6  923.37   15.66   0
  -9   2  -1   78.68   11.43   0
  -8   1  -3   12.77   10.65   0
  -8   3   1  179.04   12.51   0
  -7   1  -3   21.31    9.75   0
  -7   3   1  505.32   14.92   0
  -7   4   5    4.30   12.59   0
  -7   4   6   12.74   14.69   0
  -6  -5  -9  103.24   15.04   0
  -6   3   1   27.56   11.13   0
  -6   4   5  397.19   15.03   0
  -6   4   6  326.16   16.87   0
  -6   4   7   17.90   15.50   0
  -5  -4  -8   27.75   11.13   0
  -5   0  -4  113.29   11.33   0
  -5   2  -1  753.25   14.91   0
  -1   2   3  116.32   22.05   0
   1  -5  -4  553.26   19.06   0
   2 -10  -3   41.76   11.93   0
   2  -7  -3   16.92   10.73   0
   2  -5  -2  667.32   15.72   0
   2  -3   0  718.32   16.66   0
   3  -7   1   45.41   11.66   0
   3  -7   2   12.99   10.01   0
   3  -7   3   55.58   12.50   0
   3  -6   2    3.27    9.68   0
   3  -6   3   85.82   10.60   0
   3  -5   3   44.11   11.13   0
  -9   0  -4   45.86   11.34   0
  -8   2  -1   53.14   11.09   0
  -7  -5  -9   82.54   15.32   0
  -7   2  -1   30.19   11.78   0
  -6   2  -1    7.88    9.16   0
  -4   3   2   25.77   10.04   0
  -3  -4  -7  223.04   16.63   0
  -3   0  -3 4386.90   34.99   0
  -3   3   3  290.56   14.83   0
  -1   2   9   26.93   20.29   0
   0   0  10   49.87   15.57   0
   1  -1   9  113.69   13.14   0
   1   0   8  237.83   14.30   0
   2  -3   8  139.96   14.00   0
   2  -2   7   -0.47    9.73   0
   2  -1   5  270.85   12.04   0
   3  -8   0   24.47   12.38   0
   3  -8   1   82.49   11.22   0
   3  -8   2  121.94   11.59   0
   3  -7   0   34.65   10.92   0
   3  -7   4  226.98   12.75   0
   3  -6   1   28.37   10.09   0
   3  -6   4   37.55   10.80   0
   3  -5   2  721.24   14.32   0
   3  -5   4  213.72   11.20   0
  -9  -1  -5  162.69   14.20   0
  -8   0  -4  102.89   11.45   0
  -8   3   2    2.31   13.28   0
  -7   0  -4    7.10   10.04   0
  -6  -4  -8   11.31   13.57   0
  -6   0  -4  122.75   10.89   0
  -5  -3  -7   35.81   10.98   0
  -5  -2  -6   14.93   10.75   0
  -5  -1  -5  376.93   11.82   0
  -4   1  -2 1689.17   21.14   0
  -2  -5  -7  573.37   28.60   0
   0  -8  -7   94.96   20.09   0
   0   1   9   12.50   15.29   0
   1 -10  -6   26.52   14.07   0
   2 -10  -4    9.29   12.46   0
   2  -9  -4  124.15   13.10   0
   2  -6  -3  278.63   13.56   0
   2  -2   1  287.52   13.21   0
   2  -1   4  485.58   14.40   0
   2  -1   6 2636.64   25.91   0
   3  -9   0  105.58   12.09   0
   3  -6   0  631.79   13.96   0
   3  -6   5   60.09   11.28   0
   3  -5   1   12.32    9.70   0
   3  -5   5   20.55   10.71   0
   3  -4   2  244.24   13.11   0
   3  -4   3  148.63   10.65   0
   3  -4   4   49.80   10.76   0
   3  -4   5  181.46   12.37   0
  -9   1  -2   19.46   11.68   0
  -9   2   0   37.53   11.70   0
  -8  -1  -5   20.16   12.68   0
  -7  -4  -8   79.18   13.46   0
  -7   3   2    9.20   12.22   0
  -6  -1  -5   16.35   11.29   0
  -6   3   2 1267.00   19.34   0
  -5   3   2   73.77   11.13   0
  -4   2   0  175.58   12.66   0
   1  -9  -6   -1.78   13.71   0
   1   0   2 1083.13   28.09   0
   2  -8  -4   95.47   12.51   0
   2  -2   8   16.16   11.97   0
   2  -1   3  213.26   14.78   0
   2  -1   7    6.13   11.26   0
   3  -9  -1   29.20   13.90   0
   3  -8  -1   16.06   10.39   0
   3  -7  -1   97.72   10.39   0
   3  -5   6   73.73   11.33   0
   3  -4   6  132.90   13.44   0
   3  -3   4  165.88   12.15   0
  -8  -4  -8  115.69   13.02   0
  -8  -3  -7   84.01   14.28   0
  -8  -2  -6   52.09   13.60   0
  -8   1  -2   98.63   11.59   0
  -8   2   0  236.85   12.82   0
  -8   3   3   26.36   12.93   0
  -7  -3  -7  111.28   13.09   0
  -7  -2  -6  121.74   13.16   0
  -7  -1  -5   10.70    9.85   0
  -6  -3  -7   11.18   11.96   0
  -6  -2  -6  303.18   13.70   0
  -5  -6  -9   11.46   16.40   0
  -5   1  -2  366.13   12.65   0
  -4  -5  -8    6.34   14.05   0
  -3  -3  -6   35.14   12.92   0
  -3  -2  -5  173.52   14.46   0
  -3  -1  -4    7.01   10.61   0
   1  -6  -5    0.61   14.78   0
   1  -1   0 5497.77   58.48   0
   1  -1  10    1.27   15.43   0
   1   0   9  230.13   15.81   0
   3  -6  -1  247.39   12.72   0
   3  -5   0  213.64   11.14   0
   3  -4   1  307.01   12.33   0
   3  -3   3   44.39    9.99   0
   3  -3   5  162.92   10.87   0
  -9   0  -3   59.39   11.92   0
  -9   2   1   13.57   14.45   0
  -7   1  -2  140.04   10.95   0
  -7   2   0  119.31   11.28   0
  -6   1  -2  170.84   11.59   0
  -6   2   0  941.11   17.88   0
  -5  -8 -10   10.71   19.12   0
  -5   2   0   14.32    9.40   0
  -4   0  -3  184.05   13.02   0
  -4   3   3    4.44   11.19   0
  -3   3   4  200.59   15.92   0
  -2   0  -2 1106.92   23.40   0
   1  -8  -6  650.11   22.01   0
   1   1   6   69.26   15.01   0
   2  -7  -4 1069.44   20.18   0
   2  -4  -2   68.84   12.33   0
   2  -3  -1  157.65   15.40   0
   2  -2   9   20.95   13.75   0
   2  -1   8    0.39   12.36   0
   3  -9  -2   45.83   11.84   0
   3  -8  -2  317.95   13.07   0
   3  -4   7   26.71   12.09   0
   3  -3   2  434.61   14.12   0
   3  -3   6  429.74   13.83   0
  -9   1  -1   34.42   13.86   0
  -8   3   4   44.49   13.63   0
  -7   3   3   17.33   11.12   0
  -6   3   3   65.00   12.65   0
  -5   3   3   32.01   12.03   0
  -3   1  -1  676.91   16.85   0
  -3   2   1   31.90   12.24   0
   0   1  10   85.61   19.73   0
   1   1   5   12.48   14.55   0
   1   1   7  948.50   22.83   0
   2 -10  -5   49.52   15.54   0
   2  -5  -3   88.29   13.59   0
   2  -1   2  236.83   14.99   0
   3  -7  -2  238.00   11.78   0
   3  -3   7  144.38   13.69   0
   3  -2   5   14.16   11.29   0
  -9  -1  -4    6.55   11.73   0
  -8   0  -3   32.00   11.38   0
  -8   2   1    5.22   12.74   0
  -8   3   5  103.97   15.25   0
  -7   0  -3  299.09   14.59   0
  -6  -6  -9   40.03   14.24   0
  -5   0  -3  543.85   15.37   0
  -4  -4  -7   42.48   14.32   0
  -2   2   2 1687.08   31.90   0
   0   2   6   47.12   20.96   0
   0   2   7   85.45   19.79   0
   2  -9  -5   60.71   14.47   0
   2   0   6   74.23   13.77   0
   3  -9  -3   30.89   13.07   0
   3  -5  -1  631.81   14.33   0
   3  -4   0 1218.22   18.09   0
   3  -2   4   52.61    9.67   0
   3  -2   6  267.04   12.98   0
   4  -7   2  265.62   12.73   0
   4  -7   3   30.61   12.03   0
   4  -6   2   50.57   12.88   0
   4  -6   3   30.34   11.65   0
   4  -6   4  213.32   14.85   0
  -9  -2  -5   20.57   13.54   0
  -9   2   2   33.63   12.97   0
  -8  -1  -4   46.70   13.75   0
  -8   1  -1  582.78   15.56   0
  -7  -6  -9   23.18   14.26   0
  -7   3   4  156.35   14.63   0
  -6   0  -3  101.80   10.76   0
  -5  -5  -8   24.74   14.22   0
  -4  -7  -9   73.13   19.73   0
  -4  -1  -4   97.51   10.70   0
  -4   3   4    7.35   13.55   0
  -4   3   9   13.23   26.62   0
  -3  -6  -8   12.89   19.78   0
  -3   3   5  234.74   19.25   0
  -1   2  10   25.91   23.54   0
   0 -10  -8  134.57   24.10   0
   1   0  10   43.41   16.27   0
   1   1   8   -2.20   14.09   0
   2  -2   0 3827.30   36.95   0
   2  -1   9   -5.97   13.70   0
   2   0   5    4.53   10.78   0
   2   0   7   84.54   13.13   0
   3  -8  -3   95.32   13.53   0
   3  -6  -2   83.40   11.00   0
   3  -3   1  531.57   14.59   0
   3  -3   8   67.61   13.55   0
   3  -2   3   60.88   10.53   0
   3  -2   7   31.27   13.17   0
   4  -8   1  122.19   11.85   0
   4  -7   1   41.00   11.88   0
   4  -6   1   -1.75   12.23   0
   4  -5   3   32.06   11.03   0
   4  -5   4    3.52   11.15   0
   4  -5   5   44.88   13.88   0
  -9  -3  -6    4.21   12.45   0
  -9   0  -2   11.00   12.43   0
  -9   1   0  211.82   15.30   0
  -8  -5  -8   15.25   14.43   0
  -7  -1  -4  162.07   14.18   0
  -7   1  -1  553.74   14.86   0
  -7   2   1  144.11   11.63   0
  -7   3   5  168.86   15.24   0
  -6  -5  -8   84.11   14.96   0
  -6   3   4  298.65   15.03   0
  -5  -1  -4  293.57   13.31   0
  -5   3   4   18.91   14.56   0
  -4  -3  -6  377.40   15.91   0
  -4  -2  -5   14.49   11.80   0
  -4   1  -1  421.16   14.36   0
  -4   2   1    5.27   10.71   0
  -3   3   8   55.32   28.68   0
  -2  -1  -3  563.57   20.90   0
  -2   1   0 2343.47   34.47   0
   0   2   8   28.70   20.27   0
   2  -8  -5   48.37   14.66   0
   2  -6  -4   82.54   13.83   0
   2   0   4   12.17   13.86   0
   4  -8   0   97.69   12.65   0
   4  -7   0    8.33   10.26   0
   4  -5   2  204.29   12.46   0
   4  -4   4   -0.60   11.29   0
   4  -4   5   17.67   13.02   0
  -9   2   3   41.55   15.72   0
  -8  -4  -7  132.72   15.56   0
  -8  -3  -6   27.07   14.14   0
  -8  -2  -5   34.70   11.42   0
  -8   2   2   27.66   14.12   0
  -7  -5  -8   18.17   14.15   0
  -7   3   6   11.15   16.47   0
  -7   3   7   29.60   17.68   0
  -6  -1  -4    8.98   10.29   0
  -6   1  -1 1292.10   19.62   0
  -6   2   1  212.27   11.82   0
  -5  -4  -7  214.83   15.64   0
  -5   1  -1    3.71   10.35   0
  -5   2   1  476.21   13.88   0
  -5   3   9   12.37   24.51   0
  -3  -8  -9   12.33   23.82   0
  -2  -7  -8  131.43   31.27   0
  -2  -4  -6 1168.41   29.94   0
   1 -10  -7   -1.37   18.22   0
   1   1   4 1672.08   33.04   0
   2   0   8  121.81   13.58   0
   3  -7  -3  674.75   17.31   0
   3  -2   2 1313.21   20.09   0
   3  -2   8  177.18   12.97   0
   4  -8  -1    2.53   14.02   0
   4  -6   0  206.47   13.74   0
   4  -5   1    4.90   11.05   0
   4  -4   3  543.80   14.53   0
   4  -4   6   -3.34   11.46   0
  -9  -1  -3   72.09   14.99   0
  -8   0  -2    1.96   11.83   0
  -8   1   0   54.71   13.78   0
  -7  -4  -7    2.64   13.25   0
  -7  -3  -6  144.07   14.67   0
  -7  -2  -5   53.60   11.19   0
  -6  -4  -7   33.31   13.70   0
  -6  -2  -5  306.23   14.64   0
  -6   3   5    9.87   13.30   0
  -6   3   8   22.60   20.78   0
  -5  -3  -6  197.35   14.11   0
  -5  -2  -5   26.43    9.83   0
  -4   3   5 1128.32   25.66   0
  -3   0  -2    6.37   11.49   0
  -3   3   6   30.22   18.58   0
   1  -7  -6  171.36   19.43   0
   1   1   9    4.70   14.65   0
   3  -9  -4    2.49   14.38   0
   3  -5  -2  267.40   14.25   0
   3  -4  -1    2.15    9.74   0
   3  -1   5  608.08   14.72   0
   3  -1   6   73.94   11.20   0
   3  -1   7    7.77   12.48   0
   4  -7  -1  167.79   14.51   0
   4  -4   2  310.16   13.41   0
   4  -4   7  209.37   16.79   0
   4  -3   4  222.23   14.23   0
   4  -3   5  144.55   13.86   0
  -9   1   1    2.24   14.57   0
  -8   2   3   15.37   14.56   0
  -7   0  -2  247.18   14.01   0
  -7   2   2  221.97   12.82   0
  -6  -3  -6  107.15   11.74   0
  -6   3   6  160.43   16.71   0
  -6   3   7    7.43   17.28   0
  -5  -7  -9   10.64   16.98   0
  -5   3   5   -1.22   12.97   0
  -3   3   7  951.14   33.93   0
  -2  -3  -5 1492.48   31.64   0
  -2  -2  -4  492.84   20.82   0
   0  -7  -7  373.51   36.63   0
   0   2   5 2821.63   68.95   0
   1  -9  -7   50.30   20.11   0
   1  -3  -3 1774.13   38.59   0
   2 -10  -6  207.01   18.20   0
   2  -7  -5  127.62   16.60   0
   2  -1   1  118.37   16.52   0
   2   0   9   86.96   14.29   0
   3  -8  -4   -0.63   14.93   0
   3  -3   0   40.22   11.46   0
   3  -2   9   80.95   14.42   0
   3  -1   4  694.91   15.94   0
   3  -1   8   26.19   13.45   0
   4  -9  -2   50.54   15.36   0
   4  -5   0  167.75   13.49   0
   4  -3   3   64.83   13.05   0
   4  -3   6   -1.92   10.95   0
   4  -3   7   84.83   15.23   0
  -9  -2  -4  113.57   14.93   0
  -9   0  -1   80.08   12.80   0
  -8  -1  -3   32.39   13.42   0
  -7   1   0  182.52   14.63   0
  -6  -7  -9   16.91   16.49   0
  -6   2   2    7.24   12.11   0
  -5   3   6  105.12   16.69   0
  -5   3   8  195.60   22.12   0
  -4   0  -2  339.49   15.80   0
  -4   3   6    7.07   17.77   0
  -4   3   8   52.30   23.01   0
  -3   2   2  420.47   18.75   0
  -1   1   1 3044.17   56.01   0
   0   2   9  218.44   23.76   0
   1  -4  -4 1166.84   31.90   0
   2   0   3 2979.15   35.14   0
   3  -6  -3  286.49   15.17   0
   4  -8  -2   41.95   12.24   0
   4  -6  -1  133.95   12.03   0
   4  -4   1   53.01   11.45   0
  -9  -3  -5   45.54   14.97   0
  -8   2   4  304.99   16.48   0
  -6   0  -2  458.22   15.34   0
  -5   0  -2    3.94   10.67   0
  -5   2   2   15.23   10.96   0
  -5   3   7    0.30   18.14   0
  -4  -6  -8   18.07   16.26   0
  -4   2   2  683.22   18.02   0
  -4   3   7   16.29   19.11   0
  -3  -5  -7   75.92   17.65   0
  -3   1   0  111.64   14.57   0
   0  -9  -8   24.05   27.15   0
   1   1  10   29.07   18.20   0
   2  -9  -6   24.36   15.51   0
   2  -4  -3  861.58   22.52   0
   2   0  10   88.88   17.44   0
   3  -2   1  216.96   13.26   0
   3  -1   3  810.45   17.87   0
   3  -1   9    5.05   13.95   0
   4  -7  -2   18.23   13.76   0
   4  -3   2  184.08   12.51   0
   4  -2   5  562.00   16.37   0
   4  -2   6   44.57   12.86   0
   5  -7   2   94.61   13.70   0
   5  -6   2  132.95   14.96   0
   5  -6   3  119.05   13.11   0
   5  -5   4   24.23   14.29   0
   5  -5   5  216.22   15.97   0
  -9  -4  -6   20.76   13.77   0
  -9   1   2    4.29   13.85   0
  -8  -2  -4   66.22   13.46   0
  -8   0  -1  553.20   15.49   0
  -8   1   1  612.60   16.82   0
  -7  -1  -3  135.40   12.55   0
  -7   2   3  568.34   16.53   0
  -6   1   0  158.44   12.16   0
  -3  -1  -3  605.95   20.30   0
  -1   2  11   93.70   33.47   0
   2  -3  -2  336.68   18.43   0
   3  -7  -4   66.89   12.93   0
   4  -9  -3   -8.53   14.03   0
   4  -2   4   52.55   10.81   0
   4  -2   7   67.07   12.33   0
   5  -7   1  150.31   12.73   0
   5  -5   3    4.42   12.46   0
 -10  -1  -1   31.53   15.54   0
  -9  -1  -2  254.51   14.49   0
  -9   0   0   77.16   15.44   0
  -8  -5  -7   32.57   14.29   0
  -8  -3  -5    5.03   13.88   0
  -8   2   5  137.67   16.30   0
  -7  -6  -8  114.62   14.89   0
  -6  -1  -3  898.01   18.38   0
  -5  -6  -8   76.79   15.52   0
  -5   1   0   52.02   11.12   0
  -4   1   0  243.11   13.78   0
   1  -5  -5   95.84   19.85   0
   1  -2  -2  596.00   28.74   0
   2  -5  -4   22.25   14.45   0
   2   1   6  467.82   18.79   0
   2   1   7  112.72   16.21   0
   3  -9  -5   82.56   17.15   0
   3   0   6  159.51   13.79   0
   3   0   7 1092.31   21.02   0
   4  -8  -3    6.87   13.30   0
   4  -5  -1 1648.81   21.27   0
   4  -4   0   31.33   10.85   0
   4  -2   8   34.28   13.41   0
   5  -7   0    7.75   14.26   0
   5  -6   1   31.95   11.10   0
   5  -5   2   69.88   12.31   0
   5  -4   4   78.05   13.00   0
   5  -4   5    5.22   12.70   0
   5  -4   6   30.16   12.65   0
  -9   1   3   82.60   16.97   0
  -8  -4  -6   58.25   13.39   0
  -7  -2  -4  148.88   11.89   0
  -7   0  -1   17.56   13.14   0
  -7   1   1   53.78   12.86   0
  -7   2   4  164.37   15.74   0
  -6  -6  -8    9.30   14.00   0
  -6   2   3   89.65   13.54   0
  -5  -1  -3  675.03   17.24   0
  -4  -1  -3  147.18   12.84   0
  -2   2   3  275.22   19.52   0
   0   2  10  212.85   26.08   0
   2  -8  -6   28.51   17.36   0
   2  -2  -1 1260.28   26.71   0
   2   1   8  558.78   19.66   0
   3  -4  -2  666.85   18.18   0
   3   0   5   63.32   11.87   0
   3   0   8   91.83   14.20   0
   4  -6  -2  614.63   15.67   0
   4  -3   1  417.15   14.08   0
   4  -2   3  310.73   13.65   0
   5  -8  -1  276.44   16.94   0
   5  -4   3    9.88   11.24   0
  -9  -2  -3   78.66   13.39   0
  -8  -1  -2  694.99   16.61   0
  -8   1   2   34.19   12.75   0
  -7  -5  -7   63.03   14.11   0
  -7  -4  -6    3.31   13.60   0
  -7  -3  -5   44.29   13.13   0
  -6  -2  -4   63.23   12.92   0
  -5   2   3   76.61   13.98   0
  -4  -8  -9  130.91   20.97   0
  -4  -5  -7  193.23   16.82   0
  -3  -4  -6    5.54   14.06   0
  -3  -2  -4  202.18   15.69   0
   2   1   9   -1.60   14.75   0
   3  -5  -3   64.51   13.52   0
   3  -3  -1  315.95   14.95   0
   3  -1   2 1625.08   24.13   0
   3   0   9    1.46   15.60   0
   4  -7  -3  267.13   15.81   0
   4  -1   6  173.66   14.44   0
   4  -1   7   95.76   15.05   0
   5  -7  -1    7.78   14.97   0
   5  -6   0   54.41   12.54   0
   5  -5   1   96.04   12.20   0
   5  -4   2   90.07   14.22   0
   5  -3   4   59.99   13.81   0
   5  -3   5  143.87   12.90   0
   5  -3   6   62.17   12.30   0
   5  -3   7   43.85   16.09   0
 -10  -2  -2  251.25   16.14   0
  -9  -3  -4   43.23   15.27   0
  -9  -1  -1   96.23   15.45   0
  -9   0   1  102.33   15.69   0
  -8   0   0   75.04   12.32   0
  -7   2   5   20.05   14.94   0
  -6  -5  -7   57.86   14.49   0
  -6   0  -1   53.96   13.88   0
  -6   1   1    1.86   12.16   0
  -5  -5  -7   21.16   15.16   0
  -5  -2  -4 1918.44   24.02   0
  -4  -2  -4  812.78   19.14   0
  -3  -3  -5  475.41   18.74   0
  -2   0  -1 1226.96   28.34   0
   1  -8  -7   72.28   22.84   0
   1   1   3   20.85   17.00   0
   2  -6  -5  244.26   19.31   0
   2   1   5 1314.60   25.20   0
   3  -8  -5   64.66   14.21   0
   4  -9  -4   28.52   14.99   0
   4  -2   2   64.00   11.52   0
   4  -1   5  260.25   12.56   0
   4  -1   8   82.02   14.48   0
  -9  -5  -6    6.16   15.58   0
  -9  -4  -5   56.27   14.09   0
  -8  -2  -3  163.15   14.88   0
  -8   1   3  220.04   15.99   0
  -7   2   6   -0.83   15.36   0
  -7   2   7   10.50   17.66   0
  -6  -8  -9    2.89   17.05   0
  -6  -4  -6   25.71   11.36   0
  -6  -3  -5   33.76   11.73   0
  -6   2   4   29.38   13.50   0
  -5  -8  -9   27.61   18.40   0
  -5  -4  -6  122.74   14.42   0
  -5  -3  -5   14.51   12.24   0
  -4  -4  -6  167.96   16.50   0
  -4  -3  -5   59.35   13.00   0
  -4   2   3  310.28   15.78   0
  -3   2   3  959.49   24.30   0
  -1  -1  -2  702.81   33.36   0
  -1   2   4  269.93   34.12   0
   1   2   7   38.56   18.61   0
   1   2   8  106.46   19.54   0
   2 -10  -7    9.57   19.07   0
   2   0   2 1045.80   25.20   0
   2   1  10   79.78   19.23   0
   3  -6  -4  121.91   14.77   0
   3  -2   0  165.56   14.18   0
   3   0   4  254.48   14.18   0
   3   0  10   58.13   17.67   0
   4  -4  -1  967.31   18.34   0
   4  -1   4   51.02   10.59   0
   4  -1   9  112.46   15.87   0
   5  -8  -2    1.83   15.79   0
   5  -6  -1  345.73   16.98   0
   5  -5   0   97.81   11.90   0
   5  -4   1  571.41   16.89   0
   5  -3   3  668.36   15.69   0
  -7  -1  -2    6.48   11.23   0
  -7   1   2    6.32   11.66   0
  -5   0  -1   71.11   11.82   0
  -5   1   1   12.52   12.13   0
   1   2   9  531.40   26.98   0
   4  -8  -4   87.13   14.36   0
   4  -5  -2   -8.92   11.03   0
   4  -3   0 1805.85   23.35   0
   5  -2   5   39.71   12.00   0
   5  -2   6  105.88   13.66   0
   5  -2   7  189.45   14.62   0
   6  -6   2   96.62   13.88   0
   6  -5   3  198.32   14.14   0
   6  -5   4   17.58   14.00   0
 -10  -2  -1   29.78   14.84   0
  -9  -2  -2   17.40   13.04   0
  -9   0   2  202.95   15.33   0
  -8  -6  -7    6.34   14.77   0
  -8  -3  -4  350.11   14.38   0
  -8  -1  -1   10.84   13.50   0
  -8   0   1   -9.01   13.23   0
  -8   1   4   18.87   14.24   0
  -7  -7  -8   -4.45   15.61   0
  -7   0   0  199.57   13.14   0
  -6   2   5   64.03   15.21   0
  -5   2   4  155.84   15.72   0
  -4   0  -1 2208.57   26.90   0
  -3  -7  -8   15.08   21.06   0
  -3   0  -1   26.80   12.30   0
  -2   1   1 3000.08   42.43   0
  -1  -5  -6  150.81   31.21   0
   0   2  11   79.21   29.28   0
   1 -10  -8   12.75   24.43   0
   2  -1   0 2127.70   34.91   0
   4  -6  -3   54.98   13.65   0
   5  -7  -2   13.79   12.48   0
   5  -3   2   18.01   11.66   0
   5  -2   4  154.66   12.69   0
   5  -2   8    2.17   14.02   0
   6  -6   1   59.35   14.55   0
   6  -5   2   19.61   14.83   0
   6  -4   4    2.65   14.44   0
   6  -4   5  261.99   15.27   0
  -9  -1   0   27.70   13.21   0
  -8  -5  -6   26.76   13.45   0
  -8  -4  -5    3.86   12.52   0
  -7  -2  -3   13.31   11.71   0
  -6  -1  -2   41.75   11.56   0
  -6   2   6  289.41   18.56   0
  -4   1   1  138.42   13.71   0
  -3   1   1  148.72   16.82   0
   1  -6  -6  191.03   26.25   0
   1   2   6  211.95   20.33   0
   2   1   4  216.38   17.27   0
   3  -9  -6  149.66   18.43   0
   3  -7  -5   -8.85   14.87   0
   4  -2   1  694.18   16.71   0
   4  -1   3   44.08   11.05   0
   4   0   6  426.34   16.08   0
   4   0   7  557.19   17.78   0
   4   0   8    9.11   14.26   0
   6  -7   0  232.63   14.97   0
   6  -4   3   61.93   15.19   0
 -10  -3  -2   14.68   16.46   0
  -9  -3  -3  -12.58   13.78   0
  -9   0   3   95.34   17.24   0
  -8   1   5  135.23   16.37   0
  -7  -6  -7   31.12   13.91   0
  -7  -3  -4  190.49   14.71   0
  -7   1   3    9.68   11.84   0
  -6  -7  -8   70.62   15.36   0
  -6   0   0   34.00   13.27   0
  -6   1   2   15.23   10.72   0
  -6   2   7   74.68   17.74   0
  -6   2   8   36.54   18.21   0
  -4   2   4  180.96   16.57   0
   1   2  10    1.26   23.16   0
   2  -9  -7   86.34   21.27   0
   2  -7  -6  165.18   21.50   0
   3  -1   1  670.66   18.51   0
   3   0   3 4050.85   36.92   0
   3   1   7  108.74   15.15   0
   3   1   8  663.84   19.64   0
   3   1   9   94.29   16.45   0
   4  -9  -5   29.86   17.14   0
   4  -7  -4   42.67   13.92   0
   4   0   9    6.68   15.21   0
   5  -8  -3   26.69   12.83   0
   5  -6  -2   70.35   14.63   0
   5  -5  -1  211.01   13.17   0
   5  -4   0  107.44   12.58   0
   5  -2   3   58.11   12.23   0
   5  -1   6   83.32   13.90   0
   5  -1   7  199.50   15.99   0
   6  -6   0    7.54   15.04   0
   6  -5   1   20.70   13.54   0
   6  -3   5   14.03   12.95   0
   6  -3   6   46.26   13.36   0
  -9  -5  -5   52.24   15.18   0
  -9  -4  -4   19.59   13.48   0
  -8  -2  -2   16.14   11.69   0
  -8   0   2   28.02   15.09   0
  -7  -5  -6    1.28   14.48   0
  -7  -4  -5  694.00   18.64   0
  -6  -2  -3  236.05   14.62   0
  -5  -7  -8   62.72   17.20   0
  -5  -1  -2  214.36   13.44   0
  -5   2   5   -1.77   15.69   0
  -4  -7  -8  178.56   19.40   0
  -3  -9  -9   24.26   25.56   0
  -2  -6  -7   13.32   22.30   0
   3   1   6   19.13   13.23   0
   4   0   5  779.01   18.09   0
   5  -3   1  188.23   13.89   0
   5  -1   5  103.31   14.09   0
   5  -1   8  124.36   14.75   0
   6  -7  -1   60.47   15.97   0
   6  -4   2   -2.83   12.29   0
   6  -3   4   12.49   12.44   0
  -9  -2  -1   42.25   13.06   0
  -9  -1   1    3.73   12.44   0
  -8  -1   0    2.20   13.94   0
  -7  -1  -1    7.16   11.81   0
  -7   0   1   15.23   12.03   0
  -7   1   4   10.27   14.34   0
  -6  -6  -7   59.50   14.82   0
  -5   1   2    4.02   12.00   0
  -4  -1  -2   22.22   14.35   0
  -3   2   4  476.88   21.20   0
  -2   2   4    0.66   18.25   0
   1  -1  -1 3115.54   58.69   0
   3  -4  -3    8.07   12.84   0
   3  -3  -2   27.31   13.73   0
   3   1  10  116.25   19.05   0
   4  -4  -2  314.89   16.03   0
   4  -1   2 1653.53   24.20   0
   5  -7  -3   17.79   14.44   0
   6  -3   3   91.75   14.14   0
  -8  -7  -7   11.62   16.16   0
  -8  -3  -3    3.46   12.45   0
  -6  -5  -6   11.18   13.46   0
  -6  -3  -4  117.60   13.48   0
  -6   1   3   11.46   13.21   0
  -5  -9  -9   25.14   20.34   0
  -5   0   0   18.76   13.00   0
  -5   2   6   62.31   15.72   0
  -5   2   9   13.21   22.78   0
  -4  -9  -9   62.74   22.44   0
  -3  -1  -2  120.18   16.03   0
  -2  -1  -2    0.28   15.24   0
   3  -8  -6   24.67   18.55   0
   3  -5  -4   35.47   15.48   0
   3   1   5  427.51   16.90   0
   4  -8  -5  321.81   19.48   0
   4  -5  -3 1659.09   25.31   0
   4  -3  -1  530.07   15.43   0
   4   0   4  838.44   18.96   0
   5  -2   2  391.88   15.48   0
   5  -1   4   14.80   11.30   0
   6  -6  -1   40.66   15.14   0
   6  -5   0  145.74   12.99   0
   6  -4   1  249.58   15.51   0
   6  -2   5   10.56   12.42   0
   6  -2   6   25.22   12.84   0
   6  -2   7   -8.36   14.21   0
  -9  -3  -2    5.75   13.55   0
  -9  -1   2   27.66   15.76   0
  -8  -6  -6   69.49   16.30   0
  -8  -4  -4  101.18   14.70   0
  -8   0   3   39.85   14.87   0
  -7  -8  -8    0.41   15.86   0
  -7  -2  -2   30.08   13.53   0
  -7   1   5   31.87   14.43   0
  -6  -4  -5  239.28   13.82   0
  -5  -6  -7   -1.05   13.87   0
  -5  -2  -3   16.51   10.81   0
  -5   2   7  144.52   20.73   0
  -5   2   8    7.47   19.20   0
  -4   2   5  155.15   17.68   0
  -4   2  10  220.37   31.44   0
   1   2  11   14.96   24.61   0
   2   2   8   52.46   16.30   0
   2   2   9    7.95   17.97   0
   3  -2  -1   29.29   15.89   0
   5  -8  -4   24.40   15.83   0
   5  -5  -2  682.30   18.41   0
   5  -4  -1  109.47   14.38   0
   6  -7  -2   18.08   15.54   0
   6  -3   2    3.48   13.42   0
   6  -2   4  381.44   16.34   0
   7  -5   2  153.11   16.41   0
   7  -4   4   84.90   14.81   0
  -9  -4  -3  -15.47   16.26   0
  -9  -2   0   10.01   13.26   0
  -8  -5  -5   25.65   13.94   0
  -8  -2  -1   44.37   14.28   0
  -7   0   2   30.21   13.64   0
  -7   1   6   15.38   17.77   0
  -6  -1  -1  228.71   13.49   0
  -6   0   1  219.54   14.48   0
  -5  -3  -4  145.20   13.19   0
  -4  -6  -7  384.02   19.12   0
  -4   1   2 2239.54   29.80   0
  -3  -6  -7  125.18   18.61   0
  -1  -2  -3 3348.97   59.47   0
   2  -4  -4  162.32   18.60   0
   2  -3  -3 3330.54   43.52   0
   2   2   7   21.24   14.78   0
   4  -6  -4   56.85   13.96   0
   4  -2   0  152.22   13.11   0
   5  -6  -3    4.07   14.55   0
   5  -3   0  746.93   16.86   0
   5   0   7  157.83   15.79   0
   5   0   8   28.04   15.04   0
   7  -4   3   91.77   16.01   0
  -9  -5  -4    8.19   15.04   0
  -9  -1   3    2.26   18.14   0
  -8  -1   1    7.77   11.84   0
  -8   0   4    7.27   15.71   0
  -7  -7  -7   14.41   15.07   0
  -7  -3  -3   53.52   14.76   0
  -7  -1   0   15.51   12.40   0
  -7   1   7  101.09   17.75   0
  -6  -8  -8  116.80   18.88   0
  -6   1   4  758.66   19.90   0
  -5  -5  -6   73.36   14.44   0
  -5  -4  -5   47.91   14.02   0
  -4  -2  -3  273.05   14.74   0
  -4   0   0  464.42   16.89   0
   1  -9  -8  297.22   37.34   0
   1   2   5    3.72   18.00   0
   2   2  10    8.94   20.16   0
   3  -6  -5  966.77   24.72   0
   3   0   2    2.12   12.37   0
   4   1   7 1917.22   26.72   0
   4   1   8   11.43   14.64   0
   4   1   9    4.58   14.79   0
   5  -2   1  766.15   18.39   0
   5  -1   3  350.08   14.54   0
   5   0   6   26.45   12.59   0
   5   0   9  113.44   16.62   0
   6  -5  -1   35.68   14.95   0
   6  -4   0   71.49   13.66   0
   6  -2   3  208.74   15.32   0
   6  -1   6  129.47   15.70   0
   6  -1   7   23.59   13.70   0
   6  -1   8   80.29   16.79   0
   7  -5   1   16.11   14.76   0
   7  -3   5    5.29   14.01   0
  -9  -6  -5   26.84   13.99   0
  -8   0   5  114.90   16.82   0
  -5   1   3  141.45   14.47   0
  -4  -5  -6  351.11   19.46   0
  -4   2   6 1225.14   28.99   0
  -3  -2  -3  736.29   23.16   0
  -1  -4  -5  150.03   27.09   0
   2  -8  -7  256.03   26.69   0
   2   0   1 1101.82   28.37   0
   2   1   3  556.52   22.56   0
   2   2   6   81.97   17.88   0
   3   1   4    4.53   14.77   0
   4  -7  -5   29.12   16.11   0
   4   0   3  183.52   13.43   0
   4   1   6   70.90   13.80   0
   4   1  10    6.65   18.09   0
   5  -7  -4  134.08   17.20   0
   5   0   5  112.17   14.08   0
   6  -6  -2   21.97   15.83   0
   6  -3   1  223.30   15.56   0
   6  -1   5  114.86   14.91   0
   7  -6   0  265.85   15.66   0
   7  -4   2    5.19   13.33   0
   7  -3   4    3.39   13.37   0
  -9  -3  -1   15.82   13.55   0
  -9  -2   1   23.69   14.25   0
  -8  -3  -2  123.11   13.23   0
  -7  -6  -6   16.10   12.53   0
  -7  -5  -5   16.01   14.47   0
  -7  -4  -4   22.92   12.00   0
  -7   0   3    3.32   14.48   0
  -6  -2  -2  714.24   17.50   0
  -5  -8  -8   37.70   16.99   0
  -5  -1  -1   88.41   12.66   0
  -4  -4  -5  142.90   14.58   0
  -4  -3  -4  314.91   14.55   0
  -4   2   9  124.24   24.11   0
  -3  -5  -6  518.38   22.06   0
  -3   0   0   42.34   15.94   0
  -3   1   2 1641.75   30.56   0
  -3   2   5   54.00   17.82   0
  -2  -5  -6  141.36   19.82   0
  -2  -2  -3  181.47   18.78   0
   2  -5  -5    5.84   17.69   0
   2  -2  -2 1608.24   32.65   0
   2   2  11   28.84   23.71   0
   3  -1   0  105.61   15.58   0
   4  -1   1  409.55   15.97   0
   7  -3   3   63.49   13.86   0
   7  -2   6    3.42   13.77   0
  -8  -4  -3  201.46   15.92   0
  -8  -2   0   34.18   14.30   0
  -8  -1   2   29.25   12.81   0
  -7  -2  -1   -1.13   14.09   0
  -6  -7  -7   77.38   16.06   0
  -6   1   5   11.23   14.35   0
  -5   0   1  149.71   14.29   0
  -4   2   7  185.25   21.39   0
  -4   2   8  127.84   23.32   0
  -1  -3  -4   23.84   22.39   0
   1  -7  -7   10.53   34.54   0
   3  -9  -7   11.31   22.37   0
   3   2   8  493.83   20.45   0
   3   2   9   91.60   18.60   0
   4   1   5  319.37   15.25   0
   5  -1   2  340.77   14.77   0
   6  -7  -3   11.11   15.10   0
   6  -2   2   43.42   12.55   0
   6  -1   4   19.78   12.94   0
   7  -5   0   16.57   15.17   0
   7  -4   1   62.94   15.10   0
   7  -2   5   75.95   13.67   0
  -9  -4  -2   11.47   14.17   0
  -9  -2   2   30.89   16.71   0
  -8  -7  -6   77.24   15.03   0
  -8  -6  -5   -3.13   16.03   0
  -8  -5  -4   40.60   14.98   0
  -7  -1   1   27.91   12.83   0
  -6  -3  -3   80.02   12.17   0
  -6  -1   0   15.83   12.16   0
  -6   0   2  102.04   12.38   0
  -6   1   6   18.06   16.89   0
  -4  -8  -8   12.08   18.45   0
  -3  -4  -5  481.82   20.86   0
  -3  -3  -4   -7.34   13.78   0
  -2  -8  -8   27.17   25.31   0
   3  -7  -6  135.14   19.34   0
   3   2   7   -0.82   16.41   0
   3   2  10  155.85   21.23   0
   4  -4  -3   16.06   13.85   0
   4  -3  -2   22.58   12.51   0
   5  -8  -5   62.11   18.06   0
   5  -5  -3   61.14   13.97   0
   5  -4  -2  268.18   13.51   0
   5  -3  -1  225.29   13.92   0
   5   0   4  111.83   12.24   0
   6   0   7   27.12   15.30   0
   6   0   8   39.25   16.68   0
   7  -6  -1   13.18   14.52   0
   7  -3   2  119.83   15.46   0
   7  -2   4   12.91   12.80   0
  -9  -6  -4    6.97   16.08   0
  -9  -5  -3   -0.10   13.61   0
  -9  -3   0   11.77   13.82   0
  -8  -1   3  319.41   18.55   0
  -7   0   4   -2.77   15.14   0
  -6  -6  -6   10.67   13.92   0
  -6  -4  -4   95.03   13.49   0
  -6   1   7   31.91   17.51   0
  -6   1   8   13.28   19.06   0
  -5  -2  -2    1.86   13.10   0
  -5   1   4   55.61   14.66   0
  -4  -1  -1  620.95   18.92   0
  -4   1   3 1238.19   24.19   0
  -3  -8  -8   28.78   22.39   0
  -3   2  10   31.18   28.95   0
  -2 -10  -9   19.90   29.00   0
  -2  -4  -5  185.92   19.94   0
  -2  -3  -4 1115.66   28.47   0
  -2   0   0  219.87   21.34   0
  -2   1   2  599.16   25.33   0
   4  -8  -6    4.74   19.16   0
   4  -5  -4  107.35   16.88   0
   5  -2   0   14.03   12.29   0
   5   1   7   36.26   14.07   0
   5   1   8   -4.26   15.04   0
   5   1   9    7.70   15.62   0
   6  -5  -2  266.23   16.82   0
   6  -4  -1  418.44   15.41   0
   6  -3   0 1314.78   22.26   0
   6  -1   3   71.20   14.27   0
   6   0   6  265.74   16.44   0
   7  -1   7   53.02   17.39   0
  -9  -2   3    4.78   17.43   0
  -8  -3  -1    4.21   12.37   0
  -7  -8  -7   52.06   16.09   0
  -7  -3  -2   56.31   12.43   0
  -6  -9  -8    8.04   17.83   0
  -6  -5  -5  164.05   14.39   0
  -5  -7  -7  156.60   17.71   0
  -3 -10  -9    3.34   25.59   0
  -3   2   6  121.26   19.89   0
  -2   2   5   35.58   20.12   0
   2  -6  -6  105.79   23.02   0
   2   2   5  817.80   25.97   0
   3   2  11   20.80   22.10   0
   4  -2  -1    4.91   11.89   0
   4   0   2  315.73   15.36   0
   5  -6  -4   49.37   14.91   0
   5   1   6  297.64   16.49   0
   6  -6  -3   99.04   15.14   0
   6  -2   1   13.10   14.07   0
   7  -4   0  227.68   16.32   0
   7  -2   3   93.05   13.66   0
   7  -1   6   56.42   13.62   0
  -9  -4  -1   10.87   14.15   0
  -8  -2   1   23.42   12.20   0
  -8  -1   4    7.90   15.97   0
  -7  -7  -6   12.70   14.94   0
  -7   0   5   78.11   15.42   0
  -6   0   3  220.31   15.17   0
  -4   0   1  714.27   20.59   0
   1   1   2  710.89   34.49   0
   3   1   3  600.77   21.69   0
   3   2   6  306.19   17.13   0
   4   1   4  108.41   13.87   0
   5   0   3  490.35   15.35   0
   6   0   5   75.22   12.15   0
   7  -6  -2   13.07   15.78   0
   7  -5  -1   14.39   13.55   0
   7  -3   1   26.22   12.61   0
   7  -1   5   35.39   12.80   0
  -9  -3   1   11.19   13.97   0
  -8  -8  -6   22.93   17.12   0
  -8  -4  -2   16.05   12.31   0
  -8  -1   5   25.86   16.57   0
  -7  -6  -5   26.33   14.76   0
  -7  -5  -4   18.14   13.56   0
  -7  -4  -3   14.52   12.90   0
  -7  -2   0   41.34   12.69   0
  -7  -1   2   35.68   12.31   0
  -7   0   6   60.46   16.76   0
  -7   0   7    3.01   16.65   0
  -6  -2  -1  106.76   12.52   0
  -5  -6  -6  182.44   15.37   0
  -5  -3  -3   21.84   10.96   0
  -5   0   2  469.32   17.11   0
  -5   1   5   15.35   14.21   0
   2  -1  -1 2862.50   41.70   0
   3  -4  -4   72.26   16.01   0
   3  -3  -3  256.74   18.40   0
   3   0   1   16.38   13.17   0
   4  -6  -5   24.16   15.53   0
   4   2   8   59.34   14.80   0
   4   2   9   77.77   15.49   0
   4   2  10   66.03   18.91   0
   5  -7  -5  170.45   18.63   0
   5  -1   1   -6.71   11.52   0
   6  -7  -4   36.25   16.42   0
   7  -2   2  241.05   15.43   0
   7  -1   4  396.99   17.61   0
   8  -3   3  -11.10   14.08   0
  -9  -6  -3   25.89   15.72   0
  -9  -5  -2   26.32   14.21   0
  -8  -7  -5   27.62   16.61   0
  -8  -5  -3    8.73   12.72   0
  -8  -2   2  175.63   16.08   0
  -6  -8  -7   -2.27   15.56   0
  -6  -1   1  915.91   18.37   0
  -5  -9  -8   -2.28   18.03   0
  -5  -5  -5   11.13   13.73   0
  -5  -4  -4  155.55   13.86   0
  -5  -1   0  174.68   13.44   0
  -4  -7  -7   20.07   15.04   0
  -3   2   7  567.35   26.00   0
  -3   2   9   52.07   25.40   0
   4  -1   0  248.58   14.85   0
   4   2   7    3.98   13.81   0
   5   1   5  367.43   14.66   0
   6  -1   2  145.44   13.79   0
   6   0   4  127.81   13.57   0
   6   1   8   34.12   15.02   0
   6   1   9   47.94   16.26   0
   7   0   7   45.57   16.77   0
   8  -4   1    9.96   13.42   0
   8  -2   4   59.27   14.09   0
  -9  -4   0   29.08   13.68   0
  -9  -3   2    9.98   14.12   0
  -8  -6  -4   17.32   13.94   0
  -8  -3   0  315.83   14.99   0
  -7  -1   3   17.60   13.99   0
  -6  -3  -2  119.46   14.77   0
  -6   0   4   65.71   14.66   0
  -5   1   6  695.65   21.61   0
  -5   1   9   43.77   22.10   0
  -4  -2  -2  423.47   16.91   0
  -4   1   4   68.80   15.96   0
  -3  -1  -1  905.49   22.26   0
  -3   1   3  204.59   18.78   0
  -3   2   8   16.67   22.82   0
  -1   1   2   78.03   25.24   0
   3  -8  -7   23.62   21.85   0
   3  -5  -5  126.38   18.63   0
   3  -2  -2  428.02   20.00   0
   6  -5  -3   32.84   14.90   0
   6  -4  -2   23.71   12.34   0
   6  -3  -1   17.71   11.73   0
   6   1   7   72.06   13.37   0
   7  -4  -1   50.54   14.63   0
   7   0   6   47.02   14.20   0
   8  -3   2    4.58   13.97   0
  -7  -3  -1   98.49   12.95   0
  -6  -7  -6  119.43   16.20   0
  -5   1   7   86.53   17.77   0
  -5   1   8  281.19   22.20   0
   2  -9  -8   38.21   31.56   0
   3   2   5  181.72   15.72   0
   4  -7  -6   59.92   18.99   0
   4   2   6   22.39   13.98   0
   5  -4  -3  211.07   15.79   0
   5  -3  -2   71.84   11.42   0
   5   0   2   12.10   13.44   0
   6  -2   0  913.04   18.19   0
   6   1   6  204.72   15.92   0
   7  -5  -2    6.63   13.13   0
   7  -3   0   91.25   12.64   0
   7  -1   3    9.87   11.88   0
   7   0   5  112.06   14.91   0
   8  -2   3   23.31   13.55   0
   8  -1   5   -0.19   15.86   0
  -9  -5  -1   31.61   13.89   0
  -8  -4  -1  103.69   13.60   0
  -8  -2   3    9.40   13.62   0
  -7  -8  -6   58.45   16.14   0
  -7  -2   1  138.41   13.76   0
  -6  -4  -3   61.27   13.62   0
  -6   0   5  502.48   18.79   0
  -4  -9  -8   21.08   19.38   0
  -4  -6  -6    5.14   14.84   0
  -4  -3  -3   36.34   14.78   0
  -3  -7  -7   32.21   17.60   0
   2   1   2    2.34   16.04   0
   4   1   3  155.66   13.76   0
   5  -8  -6   87.14   19.37   0
   5  -5  -4    2.54   13.36   0
   5  -2  -1  460.62   14.97   0
   5   1   4  273.83   13.15   0
   5   2   8  558.66   19.95   0
   5   2   9   27.23   15.84   0
   5   2  10    4.38   18.46   0
   6  -6  -4  308.20   17.46   0
   6   0   3   83.96   13.22   0
   7  -6  -3   12.30   15.42   0
   7  -2   1   27.34   12.61   0
   8  -4   0   10.54   13.93   0
   8  -3   1   92.21   15.39   0
  -9  -6  -2    8.04   14.11   0
  -9  -4   1   24.81   13.20   0
  -8  -5  -2   40.32   15.10   0
  -8  -3   1   95.68   13.26   0
  -8  -2   4  150.85   18.13   0
  -7  -4  -2   17.70   12.63   0
  -7  -1   4   18.02   13.35   0
  -6  -6  -5    8.13   12.40   0
  -6  -5  -4   33.71   12.38   0
  -6  -2   0  241.18   14.10   0
  -6  -1   2  386.54   15.69   0
  -5  -8  -7   19.69   16.43   0
  -5  -2  -1   85.17   12.89   0
  -5   0   3  232.91   15.45   0
  -4  -5  -5  347.54   18.77   0
  -3   0   1  213.39   16.23   0
  -2   2   6  863.71   31.95   0
   1   2   4  448.62   27.39   0
   1   3   9    9.31   29.06   0
   3  -1  -1  144.22   17.29   0
   4   0   1 2278.40   28.08   0
   5   2   7  128.84   15.22   0
   6  -1   1 1305.48   21.38   0
   6   1   5   15.33   14.23   0
   7   0   4    2.12   14.38   0
   7   1   8   36.08   17.18   0
   8  -2   2  187.41   16.20   0
   8  -1   4   44.03   13.59   0
  -8  -8  -5   29.79   15.05   0
  -8  -7  -4   10.14   15.85   0
  -8  -6  -3   18.94   15.14   0
  -8  -2   5   93.70   17.75   0
  -7  -7  -5    2.68   12.84   0
  -7  -6  -4   39.88   14.84   0
  -7  -5  -3    0.35   11.95   0
  -7  -1   5  315.94   17.77   0
  -6  -9  -7    4.60   17.99   0
  -6   0   6  176.07   16.64   0
  -6   0   7   76.27   18.86   0
  -6   0   8   82.39   19.47   0
  -5  -1   1  708.86   18.62   0
  -4  -4  -4    7.72   10.81   0
  -4  -1   0  653.56   18.41   0
  -4   0   2   95.46   15.72   0
  -4   1   5   12.53   16.13   0
  -1   2   5  314.07   33.38   0
   1   3  10  447.59   38.19   0
   2  -7  -7   35.70   27.88   0
   2   3   9   80.76   22.86   0
   2   3  10    9.92   24.86   0
   3  -6  -6  161.34   21.97   0
   4  -4  -4  195.73   18.10   0
   4  -3  -3    6.19   13.28   0
   4   2   5    5.47   11.97   0
   5  -6  -5   60.37   16.68   0
   5  -1   0   41.07   11.16   0
   7  -1   2  132.96   13.13   0
   7   1   7   28.75   16.15   0
   8   0   6   31.09   16.17   0
  -9  -5   0   62.88   14.31   0
  -9  -4   2   52.23   14.52   0
  -8  -4   0   21.80   15.20   0
  -8  -3   2   10.93   14.73   0
  -7  -3   0  170.36   13.32   0
  -7  -2   2   85.78   13.05   0
  -7  -1   6  103.40   16.98   0
  -3  -9  -8  120.62   22.15   0
  -3  -2  -2 1228.40   25.50   0
  -2  -7  -7   59.82   20.28   0
  -2  -1  -1  998.18   28.86   0
   1   3   8    3.14   26.32   0
   2   2   4  483.83   21.16   0
   2   3   8  662.70   27.90   0
   3   1   2  120.26   16.59   0
   3   3   9   35.14   20.23   0
   4  -2  -2  704.53   19.18   0
   5   2   6   18.18   13.54   0
   6  -7  -5   52.09   15.82   0
   6   2   9    5.61   16.07   0
   7  -4  -2    4.22   14.43   0
   7  -3  -1  446.79   17.24   0
   7   1   6   45.97   15.56   0
   8  -4  -1   -2.41   16.52   0
   8  -1   3    4.59   15.57   0
  -9  -6  -1    6.90   15.07   0
  -6  -3  -1  119.06   13.76   0
  -6  -1   3    7.35   13.97   0
  -5  -7  -6    6.24   14.49   0
  -5  -3  -2   56.22   11.81   0
  -5   0   4   80.64   14.67   0
  -3  -6  -6   49.59   16.83   0
  -2   2  10    8.08   28.66   0
   2   0   0  227.54   21.52   0
   2   3  11   54.46   27.21   0
   3   3   8  607.13   23.60   0
   3   3  10    4.51   19.86   0
   4  -5  -5  250.11   19.24   0
   5   1   3  624.41   16.74   0
   6  -4  -3   37.44   14.56   0
   6  -3  -2 1200.82   20.51   0
   6  -2  -1  205.16   14.33   0
   6   0   2  441.00   16.43   0
   6   1   4   -3.54   11.99   0
   6   2   8  172.11   14.89   0
   7  -5  -3  126.64   15.75   0
   7  -2   0   92.83   13.18   0
   7   0   3  322.91   14.67   0
   8  -3   0   61.89   13.89   0
   8   0   5  184.74   15.06   0
  -9  -5   1    8.29   14.45   0
  -8  -5  -1   36.16   16.05   0
  -8  -3   3   -0.66   16.23   0
  -7  -9  -6   18.57   16.37   0
  -7  -4  -1    7.68   13.58   0
  -6  -8  -6  103.22   15.13   0
  -5  -6  -5  254.40   15.91   0
  -5  -4  -3  276.53   14.77   0
  -4  -8  -7    7.27   16.73   0
  -4   1   6 1929.97   31.73   0
  -3   1   4  351.62   19.70   0
   3   2   4  194.35   17.17   0
   3   3  11   33.91   23.09   0
   4  -8  -7   53.00   22.36   0
   4  -1  -1  155.45   15.98   0
   5  -7  -6   11.94   19.27   0
   5   0   1   89.61   11.97   0
   6  -5  -4   18.47   14.68   0
   6   2   7  279.04   15.74   0
   7  -6  -4  110.82   19.00   0
   7  -1   1  535.41   17.67   0
   7   1   5    7.25   12.25   0
   8  -2   1   32.96   13.27   0
  -8  -8  -4  391.81   19.48   0
  -8  -6  -2   53.32   15.35   0
  -8  -4   1   26.83   15.01   0
  -7  -8  -5   75.09   16.09   0
  -7  -2   3   69.86   13.00   0
  -6  -4  -2    4.28   13.41   0
  -6  -2   1   11.75   11.87   0
  -5  -5  -4   -2.65   12.66   0
  -4   1   7   24.72   17.32   0
  -4   1   9    2.99   20.01   0
  -3  -5  -5   10.37   15.20   0
  -3  -3  -3   73.04   16.82   0
  -2   1   3   13.03   16.80   0
  -2   2   7    9.81   22.02   0
  -1  -7  -7  296.27   28.95   0
   2   3   7   58.61   18.68   0
   3   0   0   48.10   16.03   0
   4   1   2   22.77   14.25   0
   4   3   8  124.11   17.02   0
   4   3   9  250.61   19.33   0
   4   3  10   11.08   18.16   0
   5   2   5   21.74   10.85   0
   6  -1   0  142.62   12.66   0
   6   2   6  302.26   16.84   0
   8  -1   2  102.54   13.87   0
   8   0   4  111.06   13.90   0
   8   1   7   45.70   17.09   0
   9  -2   2   30.13   14.76   0
  -8  -7  -3   48.48   13.52   0
  -8  -3   4  351.26   17.41   0
  -7  -7  -4  136.10   15.93   0
  -7  -6  -3   44.62   14.41   0
  -7  -5  -2   62.92   13.14   0
  -7  -3   1  120.41   13.37   0
  -6  -7  -5  155.16   14.11   0
  -6  -6  -4   47.69   14.33   0
  -6  -5  -3   23.83   13.80   0
  -6  -1   4   -8.34   14.55   0
  -5  -9  -7   38.94   15.77   0
  -5  -2   0   57.52   11.90   0
  -5  -1   2  203.92   14.45   0
  -5   0   5  109.63   14.94   0
  -4 -10  -8   12.99   18.17   0
  -4  -2  -1   23.07   12.62   0
  -4   1   8   -0.36   19.94   0
  -3  -4  -4  935.17   23.38   0
  -2  -9  -8  105.23   23.57   0
   3   3   7   32.81   16.78   0
   4   2   4  806.54   20.45   0
   4   3  11   33.30   22.74   0
   5  -4  -4  980.88   22.35   0
   5  -3  -3   26.79   14.02   0
   5  -2  -2    3.35   11.97   0
   6  -6  -5    0.20   17.58   0
   6   1   3  876.59   19.75   0
   7   2   8   37.86   15.60   0
   8   1   6   50.84   15.16   0
  -8  -5   0   33.71   15.76   0
  -7  -2   4   73.03   13.83   0
  -4   0   3    7.89   13.19   0
  -2   2   8   26.65   24.63   0
  -2   2   9  122.55   26.34   0
   1  -3  -4    2.87   29.39   0
   1   3   7  103.39   27.40   0
   4  -6  -6  360.34   22.04   0
   4   3   7  279.78   19.13   0
   5   3   9  342.35   19.99   0
   5   3  10   76.40   18.79   0
   7  -3  -2    8.77   14.58   0
   7   0   2  253.15   13.73   0
   7   1   4  153.96   14.02   0
   7   2   7   23.03   15.82   0
   8  -4  -2   62.72   16.87   0
   8  -3  -1  157.38   14.66   0
   8  -2   0  201.12   15.79   0
   8   0   3   43.35   15.23   0
   9  -1   3   66.06   14.34   0
  -8  -4   2   39.28   14.19   0
  -7  -4   0   12.90   13.78   0
  -7  -3   2   38.75   14.30   0
  -7  -2   5  254.68   16.88   0
  -7  -2   6    1.98   15.46   0
  -6  -3   0  139.86   13.30   0
  -6  -2   2   30.50   13.58   0
  -6  -1   5 1049.07   22.35   0
  -5   0   6  471.07   18.87   0
  -5   0   8   25.10   18.40   0
  -4  -7  -6   16.65   13.64   0
  -4  -1   1  298.14   17.37   0
  -3  -1   0 1796.98   28.43   0
  -2  -6  -6    1.21   16.40   0
  -2   0   1 4004.45   49.56   0
   0  -7  -7  375.25   37.55   0
   2  -3  -4 1788.56   38.02   0
   3  -7  -7  415.40   28.75   0
   4   0   0  455.85   16.97   0
   5  -5  -5  191.26   17.65   0
   5  -1  -1   15.40   10.87   0
   5   1   2  213.14   13.52   0
   5   3   8   90.99   16.08   0
   6   0   1   45.69   12.47   0
   6   2   5  290.13   14.58   0
   7  -4  -3   57.11   14.89   0
   7  -2  -1  159.31   12.86   0
   8   1   5   19.55   13.19   0
   9  -2   1   68.04   14.40   0
  -8  -8  -3   93.84   16.54   0
  -8  -7  -2  146.29   16.22   0
  -8  -6  -1   -4.14   13.86   0
  -8  -4   3  194.57   17.72   0
  -7  -9  -5   54.43   16.31   0
  -6  -9  -6   -7.25   14.52   0
  -6  -1   6    9.69   15.04   0
  -6  -1   7    7.73   15.80   0
  -5  -8  -6   11.50   14.84   0
  -5  -3  -1  498.49   17.22   0
  -5   0   7    9.08   15.30   0
  -4  -3  -2  116.22   13.66   0
  -3  -8  -7  115.81   18.84   0
  -3   0   2  143.90   17.28   0
  -2  -2  -2   26.98   17.59   0
   5   2   4 1799.15   23.43   0
   5   3   7   10.33   15.24   0
   6   3   9   22.15   17.29   0
   7  -5  -4  125.13   16.26   0
   7  -1   0  163.93   13.74   0
   7   2   6  128.01   13.00   0
   8  -1   1  552.11   16.95   0
   9  -1   2    3.66   15.44   0
   9   0   4   26.17   14.33   0
  -8  -5   1   49.59   14.42   0
  -7  -8  -4   16.24   16.07   0
  -7  -5  -1  225.19   13.72   0
  -6  -4  -1  271.47   16.54   0
  -5 -10  -7   87.86   18.00   0
  -5  -1   3  168.72   13.99   0
  -4  -6  -5  392.96   17.89   0
  -3 -10  -8   18.40   19.49   0
  -3   1   5    7.33   15.68   0
  -1  -9  -8   14.48   23.77   0
   2  -4  -5   63.03   20.15   0
   2  -2  -3  288.81   21.58   0
   3  -3  -4  181.23   19.28   0
   3   3   6   26.18   15.87   0
   4   3   6  374.44   18.73   0
   6  -3  -3   70.45   14.31   0
   6  -2  -2   -9.62   12.85   0
   6   3   8  950.84   22.02   0
   7   1   3  125.80   13.18   0
   8   0   2   10.00   14.06   0
   8   1   4   31.69   13.14   0
   8   2   7   61.96   17.50   0
  -8  -6   0   27.03   15.77   0
  -7  -7  -3  151.30   15.15   0
  -7  -6  -2   91.42   12.60   0
  -7  -4   1   19.77   14.38   0
  -7  -3   3   28.21   13.01   0
  -6  -8  -5    4.35   13.01   0
  -6  -2   3  103.56   14.40   0
  -5  -7  -5   13.71   13.59   0
  -5  -4  -2   60.69   12.97   0
  -5  -2   1   97.34   13.61   0
  -4  -9  -7  133.32   17.88   0
  -4  -5  -4  649.71   19.23   0
  -4  -4  -3   45.12   11.74   0
  -4   0   4  108.50   14.77   0
   2   3   6  676.08   25.66   0
   3  -2  -3  945.54   25.47   0
   3   2   3  716.30   23.04   0
   5  -6  -6   12.68   18.15   0
   5   0   0    9.13   11.93   0
   6  -4  -4   13.82   14.55   0
   6  -1  -1   15.26   12.92   0
   6   1   2   34.28   12.33   0
   6   2   4   57.11   13.97   0
   7   0   1    8.42   12.07   0
   7   2   5   50.77   12.23   0
   9  -2   0   24.93   15.56   0
   9   0   3   42.44   13.58   0
   9   1   5  169.29   17.08   0
  -8  -7  -1   -1.71   15.59   0
  -8  -5   2   15.47   14.45   0
  -7  -3   4   21.75   16.58   0
  -6  -7  -4   67.98   12.43   0
  -6  -6  -3 2049.05   25.38   0
  -6  -5  -2  172.99   13.23   0
  -6  -3   1   19.14   11.76   0
  -5  -6  -4  211.97   14.92   0
  -5  -5  -3  271.72   14.37   0
  -3   1  10   36.48   22.81   0
  -2  -5  -5   -7.10   15.65   0
  -2  -3  -3 1782.85   33.77   0
  -1   2  11  102.29   33.09   0
   3  -4  -5  284.38   19.86   0
   3   1   1  948.84   23.55   0
   4  -7  -7   80.13   22.45   0
   4   2   3  270.01   15.00   0
   5   3   6  196.33   15.30   0
   6  -5  -5   44.34   16.66   0
   6   3   7    3.69   12.45   0
   7   3   9    5.59   16.19   0
   8  -4  -3  192.11   16.79   0
   8  -3  -2   20.02   13.16   0
   8  -2  -1   12.36   12.47   0
   8   2   6   45.80   14.35   0
   9  -1   1   11.29   16.17   0
  -8  -8  -2    3.95   13.91   0
  -8  -5   3   14.78   16.57   0
  -7  -5   0   25.59   13.79   0
  -7  -3   5   17.24   16.07   0
  -6  -2   4  404.75   17.40   0
  -5  -1   4   22.69   13.46   0
  -4  -2   0 1208.29   22.50   0
  -3  -7  -6   99.85   18.08   0
  -3   1   6   44.17   17.77   0
  -2  -4  -4 1228.13   28.61   0
  -1  -1  -1 1166.31   38.44   0
   1  -2  -3  121.39   25.58   0
   2   1   1 1072.34   31.24   0
   2   2   3  176.10   18.16   0
   4  -3  -4    5.09   14.86   0
   4  -2  -3  297.23   16.58   0
   4   1   1  595.79   17.37   0
   5   2   3   14.93   12.71   0
   6   0   0   41.09   13.66   0
   7   3   8   19.41   15.42   0
   8  -1   0   39.51   12.43   0
   8   1   3   32.58   12.44   0
  -8  -6   1   69.98   14.00   0
  -7  -9  -4   48.32   14.93   0
  -7  -4   2   29.40   12.78   0
  -5  -9  -6   43.13   14.65   0
  -4  -1   2   -1.17   14.02   0
  -4   0   5  694.71   21.96   0
  -3  -2  -1   20.27   13.40   0
  -3   1   9    3.19   21.12   0
   3  -1  -2 1695.15   30.09   0
   4  -4  -5   53.72   17.54   0
   5   1   1  114.11   14.38   0
   6   3   6   98.52   12.93   0
   7  -3  -3    8.93   12.66   0
   7  -2  -2  216.66   13.67   0
   7  -1  -1   71.26   13.70   0
   7   1   2   -7.23   11.78   0
   7   2   4  146.13   13.39   0
   7   3   7  113.01   15.63   0
   8   0   1  533.44   17.70   0
   8   2   5   43.92   12.88   0
   9   0   2   15.28   13.20   0
   9   1   4   10.44   13.43   0
  -8  -7   0   19.55   14.07   0
  -7  -8  -3   87.50   14.31   0
  -7  -7  -2   -0.68   12.66   0
  -7  -6  -1   43.29   12.64   0
  -6  -9  -5   88.49   13.57   0
  -6  -4   0   41.10   12.69   0
  -6  -3   2  267.24   15.79   0
  -6  -2   5   76.70   13.57   0
  -6  -2   6  -21.16   15.27   0
  -6  -2   7   29.24   16.66   0
  -5  -3   0  527.78   15.90   0
  -5  -1   5   20.40   14.31   0
  -4 -10  -7   15.01   17.36   0
  -4  -8  -6   32.17   14.50   0
  -3   1   7   48.78   17.63   0
  -3   1   8   56.91   18.77   0
  -2 -10  -8   57.44   21.66   0
  -2  -8  -7   17.69   18.24   0
  -2   1   4 1011.37   28.38   0
  -1  -6  -6  305.95   24.64   0
   0  -9  -8   22.00   28.00   0
   2  -5  -6  802.83   37.48   0
   2  -1  -2  620.13   23.87   0
   3   3   5  463.88   20.68   0
   4  -1  -2 2244.67   28.78   0
   4   3   5   50.54   13.13   0
   5  -3  -4   18.97   15.96   0
   5  -2  -3   76.22   14.26   0
   5   3   5   14.56   12.96   0
   6   2   3  233.04   14.93   0
   7  -4  -4   70.09   14.96   0
   8   3   8   12.85   16.57   0
   9   2   6   34.11   14.27   0
  -7  -5   1   82.43   13.28   0
  -7  -4   3   20.95   12.91   0
  -6  -8  -4  135.40   15.50   0
  -6  -5  -1  388.33   16.38   0
  -5  -8  -5   77.68   15.14   0
  -5  -2   2    9.94   10.39   0
  -5  -1   6   22.15   16.32   0
  -5  -1   8    9.68   17.96   0
  -4   0   6   46.58   16.11   0
  -4   0   9   24.97   18.05   0
  -3  -9  -7    7.74   18.10   0
  -3   0   3  107.78   15.74   0
  -1   2   6    4.03   22.00   0
   3  -5  -6   13.36   19.78   0
   5  -7  -7   39.02   21.99   0
   5  -1  -2    9.05   11.96   0
   6  -6  -6   59.85   17.37   0
   6   1   1  205.07   13.35   0
   7  -5  -5   13.54   17.37   0
   7   0   0  182.32   13.86   0
   7   3   6  139.94   13.66   0
   8   2   4   61.27   15.04   0
   8   3   7   47.79   17.03   0
   9  -2  -1   11.16   13.97   0
   9  -1   0  216.55   16.24   0
   9   1   3   59.80   15.75   0
  -7  -4   4  119.30   15.10   0
  -7  -4   5    9.93   16.47   0
  -6 -10  -5    3.02   15.55   0
  -6  -7  -3  157.53   14.66   0
  -6  -6  -2  315.46   16.59   0
  -5 -10  -6   -3.53   17.24   0
  -5  -4  -1  211.75   14.82   0
  -5  -1   7   19.52   14.81   0
  -4  -7  -5   15.25   14.99   0
  -4  -3  -1  358.62   15.38   0
  -4   0   7   19.79   15.99   0
  -4   0   8   92.98   17.28   0
  -3  -6  -5   47.41   14.11   0
  -3  -3  -2  679.40   22.04   0
  -3  -1   1  621.08   20.74   0
   4   4   9   45.33   18.58   0
   4   4  10   -0.63   19.59   0
   5  -4  -5  201.91   16.68   0
   5   4   9  238.91   18.80   0
   5   4  10   20.70   18.03   0
   6   3   5   43.86   12.13   0
   7   2   3   15.98   14.04   0
   8  -3  -3   34.63   14.60   0
   8  -2  -2   18.10   14.71   0
   8  -1  -1  552.12   17.92   0
   8   1   2  704.37   17.12   0
   9   0   1   45.74   15.78   0
   9   2   5   54.17   13.74   0
  -7  -9  -3   76.40   14.55   0
  -7  -8  -2   30.89   15.78   0
  -7  -7  -1   71.77   15.39   0
  -7  -6   0   14.03   13.07   0
  -7  -5   2   -2.92   14.19   0
  -6  -4   1   22.54   13.86   0
  -6  -3   3  181.31   12.76   0
  -5  -7  -4   76.62   14.71   0
  -3  -5  -4    2.35   13.86   0
   1   3   6   33.67   24.30   0
   3   0  -1  232.75   17.26   0
   4  -5  -6   32.30   18.43   0
   4   0  -1  680.46   18.96   0
   4   4  11   10.52   22.77   0
   5   0  -1  150.33   13.78   0
   5   4   8   26.59   15.89   0
   6  -3  -4  282.38   15.68   0
   6  -2  -3   85.40   14.09   0
   6  -1  -2    2.28   12.83   0
   6   4   9   50.22   16.06   0
   6   4  10   70.01   16.80   0
   7   1   1    0.79   13.47   0
   7   3   5   39.09   13.86   0
   8  -4  -4    8.12   15.55   0
   8   3   6    1.94   15.53   0
  -6  -3   4   21.87   14.80   0
  -5  -6  -3   23.43   11.52   0
  -5  -5  -2  674.79   16.51   0
  -5  -2   3   73.59   13.00   0
  -4  -6  -4   23.13   12.72   0
  -4  -4  -2 9999.99   52.02   0
  -4  -1   3  712.72   18.43   0
  -3  -4  -3  508.66   18.14   0
  -2  -1   0  477.83   23.67   0
  -1   2  10   25.53   26.20   0
   2   3   5 1397.46   32.28   0
   3  -8  -8   22.57   33.88   0
   3   4   9   16.71   21.03   0
   3   4  10  344.66   26.35   0
   4   2   2  440.05   16.59   0
   4   4   8   28.81   15.36   0
   5   2   2    5.64   11.11   0
   6   4   8   -0.92   14.57   0
   7   4   9  181.56   17.41   0
   8   0   0   61.86   12.01   0
   8   2   3  134.29   14.84   0
   9   1   2  253.34   16.62   0
   9   2   4   83.26   14.16   0
  -7  -6   1    5.19   13.34   0
  -7  -5   3    3.11   13.32   0
  -7  -5   4   42.72   16.60   0
  -6  -9  -4   14.97   13.23   0
  -6  -5   0   53.78   11.98   0
  -6  -3   5   21.82   14.30   0
  -6  -3   6    9.39   15.28   0
  -5  -9  -5   -5.66   14.34   0
  -5  -3   1  111.27   12.34   0
  -4  -9  -6  106.99   15.03   0
  -4  -5  -3  129.95   12.12   0
  -4  -2   1  189.32   13.74   0
   1   2   3 3237.39   58.73   0
   3   2   2 1222.70   25.61   0
   3   4  11    6.86   25.68   0
   4   3   4  317.85   15.96   0
   5  -5  -6  333.68   19.52   0
   5   3   4  143.43   11.78   0
   5   4   7  180.43   16.58   0
   6  -4  -5  361.70   16.69   0
   6   0  -1  183.46   12.62   0
   6   2   2  708.97   17.41   0
   6   3   4  117.00   13.37   0
   7  -2  -3  568.32   17.86   0
   7   4   8   67.43   15.61   0
   8   3   5   -9.27   14.28   0
   9  -2  -2   29.62   16.27   0
   9   3   6   19.06   16.14   0
  -7  -9  -2    5.73   14.12   0
  -7  -8  -1   16.25   13.47   0
  -7  -7   0   68.52   14.03   0
  -6  -8  -3  -17.13   12.70   0
  -6  -7  -2   35.15   13.89   0
  -6  -6  -1   19.88   14.03   0
  -6  -4   2  346.28   14.76   0
  -5  -2   4   50.56   13.22   0
  -3 -10  -7    6.95   16.54   0
  -3  -8  -6  250.75   16.77   0
  -3   0   4  140.31   16.49   0
  -2  -7  -6  401.27   21.12   0
  -2   0   2 1920.43   33.83   0
  -1 -10  -8   16.20   20.72   0
   2   0  -1 3926.22   48.18   0
   3   4   8   23.43   17.25   0
   4   4   7   45.75   16.34   0
   5   1   0  184.17   14.39   0
   6   4   7   39.05   14.67   0
   7  -3  -4  125.71   14.78   0
   7  -1  -2   15.73   11.34   0
   7   2   2   -0.49   13.79   0
   7   3   4  196.49   14.96   0
   8   1   1    7.74   11.84   0
   9  -1  -1   18.14   13.55   0
  -7  -6   2    2.00   13.85   0
  -6 -10  -4   14.25   13.91   0
  -5  -4   0  289.03   15.21   0
  -5  -2   8    7.60   15.89   0
  -4  -1   4  675.18   18.97   0
  -2   1   5 1516.25   31.46   0
  -1  -8  -7   71.32   22.09   0
  -1  -5  -5  130.94   19.20   0
  -1   1   3   67.50   21.97   0
   3   3   4    8.59   14.08   0
   4   1   0  638.55   17.79   0
   6  -5  -6  107.67   17.00   0
   6   1   0   21.74   13.16   0
   7  -4  -5   -2.12   16.36   0
   7   0  -1    6.57   10.91   0
   7   4   7   -8.84   12.25   0
   8   4   8  147.05   17.17   0
   9   0   0   68.59   13.03   0
   9   2   3   78.85   13.26   0
   9   3   5   25.34   15.59   0
  -7  -8   0   34.60   15.91   0
  -7  -7   1    9.73   13.24   0
  -7  -6   3   46.65   13.56   0
  -6  -5   1   39.96   12.45   0
  -6  -4   3  111.19   12.35   0
  -5 -10  -5   14.59   14.89   0
  -5  -8  -4   16.23   12.12   0
  -5  -3   2  149.11   14.26   0
  -5  -2   5  372.87   15.06   0
  -5  -2   6    7.27   14.64   0
  -5  -2   7   41.42   14.77   0
  -4 -10  -6   26.58   16.45   0
  -4  -8  -5  384.03   16.64   0
  -4  -1   9   51.41   17.82   0
  -3  -2   0  496.17   18.51   0
  -2  -9  -7   25.97   18.92   0
  -2   1  10   40.04   22.46   0
  -1  -2  -2 1095.04   36.47   0
  -1   2   7  503.15   29.71   0
  -1   2   9   30.42   25.27   0
   1  -1  -2   74.28   25.66   0
   3  -6  -7   17.22   24.28   0
   4  -6  -7  359.63   25.53   0
   5   4   6  111.05   14.79   0
   6   4   6   21.90   13.45   0
   8  -2  -3   19.54   13.63   0
   8  -1  -2   11.43   12.33   0
   8   2   2   13.96   11.93   0
   8   3   4  316.29   14.29   0
   8   4   7  100.63   16.68   0
   9   1   1  100.74   13.40   0
  -7  -7   2   14.68   14.12   0
  -6  -9  -3   15.91   14.03   0
  -6  -6   0   74.99   14.40   0
  -6  -4   4   33.36   13.01   0
  -6  -4   5    8.56   15.21   0
  -6  -4   6  100.94   17.05   0
  -5  -7  -3  275.84   14.09   0
  -5  -6  -2  342.23   15.52   0
  -5  -5  -1  113.98   12.47   0
  -4  -3   0  993.44   19.12   0
  -4  -1   5   11.23   14.91   0
   3   1   0 1749.93   27.21   0
   3   4   7  207.27   19.76   0
   4   4   6  166.98   17.09   0
   6   3   3   68.85   13.28   0
   7   1   0    3.02   11.26   0
   7   4   6    5.77   11.98   0
   8  -3  -4   41.98   14.87   0
   8   0  -1    1.69   11.44   0
  -6  -8  -2    8.71   12.04   0
  -6  -7  -1   23.18   11.65   0
  -6  -5   2  469.16   16.72   0
  -4  -7  -4  362.14   16.14   0
  -4  -2   2   23.13   11.30   0
  -4  -1   6   74.45   15.33   0
  -4  -1   8   28.52   15.09   0
  -3  -7  -5  184.14   15.55   0
  -3  -1   2  234.26   15.78   0
  -3   0   5   23.02   15.11   0
  -3   0   9   21.74   18.62   0
  -2  -6  -5    4.96   16.01   0
  -1   0   1 1137.66   39.89   0
  -1   2   8    9.41   22.54   0
   1  -9  -8  302.14   34.34   0
   5  -6  -7   15.75   18.26   0
   5  -2  -4  146.79   16.81   0
   5   2   1   97.44   14.07   0
   5   3   3   29.90   10.55   0
   6   2   1   94.62   13.80   0
   7  -5  -6   41.44   17.34   0
   7   3   3   52.91   13.82   0
   8   1   0    3.14   13.53   0
   8   4   6   64.79   15.30   0
   9   2   2   22.57   14.86   0
   9   3   4   44.17   12.87   0
  -5  -9  -4   49.59   12.34   0
  -5  -4   1   44.32   12.01   0
  -5  -3   3    8.81   11.29   0
  -4  -4  -1 1020.07   19.36   0
  -4  -1   7   15.39   13.90   0
  -3  -9  -6   61.35   15.65   0
  -2   1   6   83.70   17.31   0
  -2   1   9   30.45   21.19   0
  -1  -4  -4  161.16   19.40   0
  -1  -3  -3    2.73   18.04   0
   2   2   2   30.57   17.24   0
   2   4   9    6.32   27.99   0
   4  -2  -4  190.87   15.05   0
   4  -1  -3 1169.29   22.55   0
   4   3   3   28.11   13.83   0
   5  -1  -3  146.67   14.85   0
   6  -2  -4   29.45   13.53   0
   6  -1  -3    9.41   12.89   0
   6   4   5  242.71   14.89   0
   7   2   1    4.59   11.72   0
   7   4   5  677.59   18.32   0
   8   3   3    5.69   13.49   0
   9  -2  -3   46.40   13.27   0
   9  -1  -2    8.72   13.82   0
   9   0  -1  113.29   13.39   0
  -6  -9  -2   20.37   13.63   0
  -6  -8  -1   99.07   15.27   0
  -6  -7   0   28.95   14.62   0
  -6  -6   1  224.34   13.78   0
  -6  -5   3   24.37   12.60   0
  -6  -5   4  -10.12   15.28   0
  -5  -8  -3   68.47   14.07   0
  -5  -3   4   37.79   13.90   0
  -4  -9  -5   32.45   14.61   0
  -4  -6  -3  291.53   13.45   0
  -4  -5  -2  569.84   15.82   0
  -3  -6  -4  258.34   16.68   0
  -3  -3  -1 2091.85   27.28   0
  -3   0   6  573.55   21.43   0
  -3   0   7   16.02   16.45   0
  -3   0   8   57.97   16.23   0
   4  -3  -5 1080.39   24.93   0
   4   2   1   25.89   12.08   0
   5  -3  -5   -5.20   13.33   0
   5   0  -2  509.94   16.23   0
   5   4   5   51.73   13.92   0
   6  -6  -7   22.37   18.64   0
   6  -3  -5    2.84   15.38   0
   6   0  -2  112.33   12.97   0
   6   5   9  100.17   18.51   0
   6   5  10   68.02   18.33   0
   7  -1  -3    5.79   13.41   0
   7   5   9   58.88   18.32   0
   8   2   1   34.63   13.67   0
   8   4   5    5.37   14.73   0
   9   1   0   29.92   14.73   0
   9   4   6   11.53   14.01   0
  10   2   2  240.44   17.95   0
  -6  -6   2   17.93   14.70   0
  -6  -5   5   38.43   14.70   0
  -5 -10  -4   -4.19   15.62   0
  -5  -7  -2  262.37   15.62   0
  -5  -5   0  192.39   13.59   0
  -5  -3   5   42.64   15.11   0
  -5  -3   6   -2.07   14.22   0
  -5  -3   7   98.72   16.24   0
  -4  -2   3 1224.68   20.90   0
  -2 -10  -7   89.91   17.86   0
  -2  -5  -4  144.47   16.76   0
  -2   1   7  144.10   18.32   0
  -2   1   8   10.79   17.13   0
   0 -10  -8  129.14   25.32   0
   1  -7  -7   12.47   30.61   0
   2   3   4 1110.39   28.37   0
   2   4   8   25.54   23.75   0
   3  -2  -4  483.48   21.53   0
   3   4   6    0.03   16.50   0
   4   0  -2  107.42   14.91   0
   5   5  10   42.67   19.53   0
   6   5   8   81.05   17.00   0
   7  -2  -4  168.12   16.20   0
   7   0  -2   27.89   11.06   0
   7   5   8   17.81   15.21   0
   9   3   3   11.91   13.45   0
  -6  -9  -1   -8.22   14.99   0
  -6  -7   1   44.62   14.94   0
  -6  -6   3    4.51   14.79   0
  -5  -6  -1   49.32   12.10   0
  -5  -4   2   24.05   11.72   0
  -4 -10  -5   28.01   14.52   0
  -4  -3   1  319.77   14.46   0
  -3  -5  -3  308.29   15.32   0
  -3  -4  -2   47.72   13.36   0
  -2  -8  -6    6.94   14.25   0
  -2  -3  -2  377.83   19.35   0
   0  -6  -6   27.85   23.18   0
   3  -3  -5  228.55   19.33   0
   3  -1  -3  206.51   17.40   0
   4   4   5  134.54   14.51   0
   5  -4  -6   10.82   16.23   0
   5   1  -1  715.90   17.64   0
   5   5   9  232.35   18.50   0
   6   1  -1  903.65   17.51   0
   6   3   2  123.93   14.48   0
   7  -3  -5  158.40   15.43   0
   7   1  -1   29.96   13.90   0
   7   3   2   51.91   13.43   0
   8  -2  -4  286.47   16.34   0
   8  -1  -3  218.81   16.84   0
   8   0  -2   40.48   13.82   0
   8   5   8    7.94   16.10   0
   9   2   1   52.06   13.23   0
   9   4   5   46.86   14.24   0
  -6  -8   0   22.94   13.48   0
  -6  -6   4   26.70   13.83   0
  -5  -9  -3   32.56   12.58   0
  -4  -8  -4   65.74   11.98   0
  -4  -2   4  172.31   14.20   0
  -4  -2   8   56.52   18.12   0
  -3 -10  -6    5.12   14.71   0
  -3  -8  -5   11.48   14.19   0
  -3  -1   3  418.20   17.77   0
  -2  -4  -3  397.14   18.87   0
  -2   0   3  464.97   21.16   0
   2   1   0  469.76   22.46   0
   3   2   1   19.87   14.45   0
   3   3   3   65.33   15.87   0
   4  -4  -6  131.43   17.64   0
   5   3   2   58.45   13.10   0
   5   5   8   18.18   14.81   0
   6  -4  -6  317.89   18.06   0
   6   4   4   87.34   11.56   0
   6   5   7   66.53   14.70   0
   7   4   4   13.12   11.01   0
   7   5   7   42.97   14.89   0
   8   1  -1    0.45   12.98   0
   8   3   2  143.16   13.97   0
   8   4   4  116.22   14.33   0
   8   5   7   10.72   14.71   0
  -6  -8   1   13.35   12.89   0
  -6  -7   2    0.24   13.06   0
  -6  -7   3   10.14   15.39   0
  -5  -8  -2   28.88   12.69   0
  -5  -5   1  291.65   13.89   0
  -5  -4   3   20.35   11.81   0
  -4  -7  -3   76.98   13.13   0
  -4  -4   0   14.80   11.11   0
  -3  -2   1 1046.67   20.70   0
  -2  -1   1 3474.24   41.78   0
  -1  -9  -7   74.43   18.79   0
  -1  -7  -6   17.21   17.21   0
   4   1  -1  301.93   14.74   0
   5   4   4  152.98   12.62   0
   6   2   0  255.85   14.66   0
   7  -4  -6    3.06   16.38   0
   7   2   0   53.39   13.20   0
   8  -3  -5  124.48   15.52   0
   9  -1  -3   57.72   15.82   0
   9   0  -2  178.87   16.25   0
   9   3   2    7.30   14.09   0
   9   4   4   12.60   13.88   0
  10   2   1   16.45   13.58   0
  -5 -10  -3   49.86   13.99   0
  -5  -7  -1   34.01   11.74   0
  -5  -6   0   57.58   11.66   0
  -5  -4   4   80.34   12.11   0
  -5  -4   5  108.14   14.34   0
  -5  -4   6  112.23   14.50   0
  -4  -9  -4    0.40   13.31   0
  -4  -6  -2   22.08   12.02   0
  -4  -5  -1   51.69   12.17   0
  -4  -3   2  342.80   14.48   0
  -4  -2   5   65.84   13.22   0
  -4  -2   6   15.98   13.20   0
  -4  -2   7  194.63   15.06   0
  -3 -11  -6   31.79   15.35   0
   3   0  -2  139.13   14.35   0
   4   5   9  298.27   20.87   0
   4   5  10   71.16   20.01   0
   5   2   0   50.45   12.82   0
   5   5   7   18.73   12.97   0
   7   5   6    2.31   13.74   0
   8   2   0   36.21   11.45   0
   8   5   6   17.53   14.43   0
   9   1  -1   21.27   12.10   0
  -5  -9  -2   -8.05   14.04   0
  -5  -5   2   30.11   11.09   0
  -3  -1   9   45.64   15.49   0
   0  -8  -7   96.03   21.65   0
   1   3   5  905.66   38.62   0
   2   4   7    1.36   18.44   0
   4  -7  -8   56.19   27.11   0
   4   3   2  119.61   12.80   0
   4   5   8    0.40   14.82   0
   4   5  11    7.62   24.11   0
   6   5   6   16.29   12.96   0
   7   4   3   13.00   12.94   0
   9   2   0    8.94   13.59   0
   9   5   6   17.94   14.68   0
  10   3   2   -3.58   13.98   0
  -5 -10  -2   28.39   14.60   0
  -5  -8  -1   25.77   12.66   0
  -5  -6   1   23.91   10.91   0
  -5  -5   3   34.70   12.93   0
  -4 -10  -4   15.84   13.44   0
  -4  -3   8   86.63   15.70   0
  -3  -9  -5   25.96   13.82   0
  -3  -7  -4    0.27   12.48   0
  -3  -3   0  659.76   17.90   0
  -3  -1   4   18.31   11.81   0
  -2  -9  -6   16.23   14.32   0
  -2  -7  -5  507.20   19.45   0
  -2   0  10   29.94   17.62   0
   0   2  11   82.67   25.14   0
   3  -4  -6   21.04   18.38   0
   3   4   5  483.95   19.40   0
   4   4   4    4.59   11.27   0
   5  -5  -7    2.45   17.28   0
   6  -5  -7   54.12   17.53   0
   6   4   3   58.51   10.71   0
   7   3   1  111.44   11.64   0
   8   3   1   18.24   12.42   0
   8   4   3  184.43   12.47   0
   9   4   3    8.74   14.47   0
  -5  -7   0   11.77   11.40   0
  -5  -5   4  138.33   12.66   0
  -5  -5   5   28.27   12.82   0
  -4  -8  -3   13.06   10.41   0
  -4  -4   1  188.03   12.39   0
  -4  -3   3 1171.12   18.22   0
  -3  -1   5  120.39   14.92   0
  -3  -1   8  168.27   15.08   0
  -1 -10  -7  294.30   19.46   0
   4   2   0 1167.09   19.87   0
   5   5   6   71.51   13.61   0
   6  -1  -4  765.71   18.11   0
   6   0  -3  222.28   13.64   0
   6   3   1  136.52   12.50   0
   7  -1  -4   -3.33   13.12   0
   7   0  -3   32.95   10.75   0
   7   5   5    0.56   11.48   0
   8   0  -3    8.97   13.54   0
   8   5   5   42.42   11.92   0
   9   3   1   27.28   13.61   0
   9   5   5   42.99   14.84   0
  -5  -9  -1   70.16   12.94   0
  -5  -8   0    3.25   13.91   0
  -5  -7   1  161.55   14.00   0
  -5  -6   2  183.62   12.40   0
  -4  -7  -2   33.82   11.89   0
  -4  -5   0   65.19   12.86   0
  -4  -3   4  115.05   12.70   0
  -4  -3   7   10.97   13.38   0
  -3 -10  -5   72.56   13.76   0
  -3  -6  -3   18.73    9.17   0
  -3  -4  -1 1274.12   22.02   0
  -3  -2   2  110.36   12.37   0
  -3  -1   6   33.15   13.19   0
  -3  -1   7   16.01   12.80   0
  -2   0   4 2878.28   36.20   0
   1   0  -1 1128.82   36.96   0
   2  -2  -4   -1.47   16.37   0
   3   1  -1  607.02   18.00   0
   4  -5  -7   95.60   20.56   0
   4   5   7  200.77   16.57   0
   5  -1  -4   58.20   13.04   0
   5   0  -3  236.45   14.32   0
   5   3   1  468.37   15.78   0
   5   4   3  274.41   12.30   0
   6  -2  -5   60.43   13.08   0
   6   1  -2  388.05   12.90   0
   6   5   5  178.97   14.18   0
   7  -2  -5    0.93   12.53   0
   7   1  -2   31.33   10.42   0
   7   6   9   17.92   14.75   0
   8  -1  -4   19.28   11.61   0
   8   1  -2   15.16   11.26   0
  -5  -9   0   45.97   14.17   0
  -5  -6   3   60.95   11.26   0
  -5  -6   4   25.67   11.82   0
  -5  -6   5   69.18   13.36   0
  -4  -9  -3   22.64   11.32   0
  -4  -6  -1   17.82    9.98   0
  -4  -3   5   50.84   12.55   0
  -4  -3   6   57.34   12.05   0
  -3 -11  -5   73.26   15.30   0
  -3  -8  -4   30.14   12.25   0
  -3  -5  -2 1122.26   19.39   0
  -3  -2   9   16.20   16.70   0
  -2 -10  -6   74.09   13.94   0
  -2   0   9  171.20   17.13   0
  -1   1   4  913.93   29.10   0
  -1   1  10   37.58   18.85   0
   1 -10  -8    6.77   22.19   0
   2  -1  -3   14.42   14.71   0
   5  -2  -5    8.44   12.43   0
   5   1  -2  228.15   12.93   0
   6   6  10   23.03   19.03   0
   7   2  -1  125.22   11.88   0
   7   6   8  107.33   14.40   0
   8  -2  -5  146.05   14.71   0
   8   2  -1   10.02   11.97   0
   8   4   2   11.67   12.92   0
   9   0  -3   98.36   13.29   0
   9   1  -2   24.32   13.08   0
  -5  -9   1  107.68   15.92   0
  -5  -8   1   18.37   12.48   0
  -5  -7   2   25.85   12.10   0
  -5  -7   3   29.92   12.11   0
  -5  -7   4  105.07   13.42   0
  -4 -10  -3   59.95   12.50   0
  -4  -4   2  593.22   14.93   0
  -2 -11  -6  104.07   16.52   0
  -2  -6  -4 1037.47   21.16   0
  -2  -2   0 2747.83   33.98   0
  -1  -6  -5  756.44   23.01   0
   2   4   6 1114.51   30.41   0
   3   3   2  684.21   20.29   0
   5   5   5    9.47   12.10   0
   6  -3  -6  154.38   15.65   0
   6   2  -1    7.43    9.91   0
   6   6   9   33.97   14.80   0
   7  -3  -6   -9.22   14.15   0
   7   4   2   30.97   11.21   0
   7   5   4    7.29   11.96   0
   8   5   4   37.52   11.80   0
   8   6   7    0.41   14.39   0
   9   2  -1   13.25   11.49   0
   9   4   2   10.44   11.61   0
   9   5   4   25.82   11.70   0
  -5  -8   2  163.68   13.54   0
  -4  -8  -2   57.91   10.72   0
  -4  -5   1   14.29   13.63   0
  -4  -4   3   16.20   12.23   0
  -4  -4   7   31.19   12.66   0
  -3  -2   3   35.17   12.39   0
  -3  -2   8    6.32   15.80   0
  -2  -8  -5   27.53   14.31   0
  -2   0   5  157.69   15.78   0
  -2   0   8  250.59   16.36   0
  -1  -8  -6    6.09   13.58   0
   2  -3  -5  100.21   20.31   0
   2   3   3 1826.62   30.97   0
   4  -2  -5  150.10   17.19   0
   4  -1  -4   81.55   12.90   0
   4   0  -3   -6.37   11.42   0
   4   5   6  364.35   17.12   0
   5  -3  -6   83.94   14.24   0
   6   4   2    7.75   10.85   0
   6   5   4   38.42   12.80   0
   6   6   8   14.90   14.21   0
   7   3   0  198.36   14.21   0
   7   6   7   33.99   14.11   0
   8   3   0  288.90   13.19   0
  -4  -9  -2  201.50   12.96   0
  -4  -7  -1   88.11   11.73   0
  -4  -6   0  320.97   13.46   0
  -4  -4   4    6.09   12.04   0
  -4  -4   5   43.10   13.30   0
  -4  -4   6   27.19   12.79   0
  -3  -9  -4    9.17   13.43   0
  -3  -7  -3  132.85   12.79   0
  -3  -3   1  408.09   14.90   0
  -2  -5  -3 1087.82   21.30   0
  -2  -1   2 1640.13   27.67   0
  -2   0   6  116.31   15.94   0
  -2   0   7   16.67   14.49   0
   0  -9  -7   79.12   19.55   0
   2   0  -2 1875.94   32.56   0
   3   4   4  998.43   21.84   0
   3   5   9    1.51   20.67   0
   4   3   1  361.42   14.23   0
   4   4   3   43.63   10.90   0
   5   2  -1   65.61   10.55   0
   6   3   0  139.34   14.12   0
   6   6   7   70.04   15.31   0
   8   6   6   60.76   15.61   0
   9   3   0   13.11   12.50   0
  -4 -10  -2    7.43   13.12   0
  -4  -8  -1   41.60   13.03   0
  -4  -5   2  185.42   13.99   0
  -3 -11  -4   11.39   14.58   0
  -3 -10  -4   26.17   13.48   0
  -3  -2   4   29.47   11.14   0
  -3  -2   7  299.51   16.10   0
  -2  -4  -2  511.04   19.28   0
  -2  -3  -1 1511.66   25.18   0
  -1   1   9  354.94   21.44   0
   0  -5  -5 1056.25   32.39   0
   0   2  10  204.96   23.67   0
   2  -9  -8   43.25   26.49   0
   3   2   0  465.50   16.14   0
   3   5   8   40.89   18.13   0
   3   5  10    1.86   22.55   0
   4   1  -2   -0.68   10.87   0
   5  -6  -8   35.55   21.44   0
   5   4   2   56.00   12.22   0
   5   6   9   18.38   15.59   0
   5   6  10   -0.38   18.07   0
   6  -4  -7   17.36   16.36   0
   7   6   6    2.35   11.63   0
   8   5   3   25.47   11.33   0
   9   5   3   -0.72   12.47   0
  -4 -10  -1   -4.19   14.10   0
  -4  -9  -1   24.97   13.74   0
  -4  -7   0   20.80   12.66   0
  -4  -6   1   26.93   12.31   0
  -4  -5   3    2.58   12.89   0
  -4  -5   5  117.91   14.68   0
  -4  -5   6    3.91   13.24   0
  -3  -6  -2  180.56   10.94   0
  -3  -5  -1  587.54   16.06   0
  -3  -4   0  271.53   13.47   0
  -3  -2   5   92.17   12.78   0
  -3  -2   6  240.93   14.34   0
  -2  -9  -5   77.60   13.82   0
  -1  -9  -6   -4.77   14.98   0
   1   2   2 1135.15   33.94   0
   3  -5  -7  202.40   27.60   0
   4  -3  -6    8.53   16.24   0
   5   5   4    2.11   10.87   0
   5   6   8   85.91   15.48   0
   7   0  -4   -3.97   12.99   0
   7   1  -3   15.04   12.06   0
   7   4   1   -4.42   11.72   0
   7   5   3    5.74   11.01   0
   8   0  -4   13.96   13.34   0
   8   1  -3  348.83   15.69   0
   8   4   1   88.97   11.93   0
   8   6   5   17.33   14.09   0
   9   1  -3   16.61   14.52   0
   9   4   1   24.70   11.95   0
   9   6   5   12.51   14.92   0
  -4  -8   0  239.01   14.62   0
  -4  -5   4    5.24   10.77   0
  -3  -8  -3    3.67   10.96   0
  -3  -3   2 1127.90   19.60   0
  -3  -3   8   15.84   13.90   0
  -2 -11  -5   27.58   15.24   0
  -2 -10  -5   34.07   13.14   0
  -2  -7  -4   23.38   12.58   0
  -2  -1   9   95.24   16.35   0
  -1  -5  -4  701.55   21.75   0
   0 -10  -7   24.80   16.84   0
   3   5   7   83.27   17.30   0
   4   5   5  350.21   15.39   0
   5  -4  -7    1.94   17.95   0
   5   3   0  526.47   14.44   0
   6   0  -4   78.48   13.29   0
   6   1  -3   33.78   11.46   0
   6   5   3   23.59   12.13   0
   6   6   6   34.61   12.78   0
   7  -1  -5   24.72   13.16   0
   7   2  -2   82.82   12.68   0
   7   6   5   26.10   13.00   0
   8  -1  -5  125.78   14.76   0
   8   2  -2  173.88   11.82   0
   9   2  -2    4.07   11.06   0
  -4  -9   0   15.85   12.06   0
  -4  -7   1   50.54   10.67   0
  -4  -6   2   49.40   10.61   0
  -4  -6   3   11.95   12.21   0
  -4  -6   4   42.75   13.08   0
  -4  -6   5  101.97   13.49   0
  -3 -10  -3   68.60   13.64   0
  -3  -9  -3  100.34   13.56   0
  -3  -3   7    3.28   12.87   0
  -1 -10  -6    7.05   14.41   0
  -1   1   5    3.29   14.19   0
  -1   1   8   21.63   14.65   0
   0  -7  -6   18.56   17.23   0
   1   3  10  459.54   32.13   0
   4   2  -1  183.12   12.35   0
   5   6   7    2.66   12.15   0
   6  -1  -5   -0.19   12.52   0
   6   4   1  268.38   12.61   0
   8   3  -1  117.57   11.42   0
   9   3  -1   -1.44   11.43   0
   9   5   2   46.71   13.65   0
  -4  -9   1   35.46   12.24   0
  -4  -8   1   41.00   11.98   0
  -4  -8   2   71.99   13.90   0
  -4  -8   3  170.52   15.27   0
  -4  -7   2   67.11   11.66   0
  -4  -7   3  253.31   13.42   0
  -4  -7   4   30.23   11.88   0
  -3  -7  -2  135.75   10.11   0
  -3  -4   1  161.63   13.04   0
  -3  -3   3   25.63   10.82   0
  -2  -1   3 2103.67   28.61   0
  -2  -1   8   19.14   13.74   0
  -1 -11  -6   15.42   13.33   0
  -1  -7  -5  263.10   16.20   0
  -1   0   2 3700.17   49.95   0
  -1   0  10   42.13   16.92   0
   2   1  -1 3632.65   39.53   0
   2   4   5  200.22   17.47   0
   3  -1  -4  349.25   16.98   0
   3   0  -3  105.22   13.84   0
   4   4   2 9954.88   48.77   0
   5   0  -4   81.87   12.09   0
   6   2  -2   25.27    9.98   0
   6   6   5    7.57   11.98   0
   7  -2  -6    7.81   13.24   0
   7   3  -1  121.01   11.34   0
   8   5   2   31.44   10.92   0
   8   6   4   26.94   11.45   0
   9   6   4   14.33   11.83   0
  -3  -8  -2  239.53   12.96   0
  -3  -6  -1   43.16   10.27   0
  -3  -5   0  306.49   13.08   0
  -3  -4   7   94.95   13.40   0
  -3  -3   4    4.96   10.88   0
  -3  -3   5  413.72   14.93   0
  -3  -3   6   52.71   12.34   0
  -2  -8  -4   99.24   12.14   0
  -2  -6  -3  336.17   14.27   0
  -2  -2   1   82.25   12.45   0
  -2  -2   9   31.61   15.48   0
  -1  -4  -3  750.69   21.86   0
  -1   1   6  181.34   16.56   0
  -1   1   7   12.02   14.27   0
   0   1  11    6.95   19.43   0
   0   2   9  203.57   21.93   0
   3  -2  -5   55.71   14.53   0
   3   3   1 2170.40   26.45   0
   3   4   3  496.87   17.47   0
   4  -6  -8    7.71   26.15   0
   5  -1  -5   19.12   13.39   0
   5   1  -3  169.74   11.95   0
   5   6   6  183.17   13.25   0
   6  -2  -6  291.59   14.67   0
   6   3  -1   20.71   11.13   0
   7   5   2   59.20   11.05   0
   7   6   4   44.96   12.24   0
   7   7   8    7.01   13.62   0
   8   4   0    4.95   11.05   0
   8   7   7   -5.39   11.64   0
   9   4   0   39.95   11.81   0
  -3 -10  -2   -1.13   11.70   0
  -3  -9  -2   47.65   12.75   0
  -2 -11  -4  219.64   15.32   0
  -2  -9  -4   95.32   12.81   0
  -2  -1   7   62.91   13.42   0
  -1  -2  -1  157.76   19.79   0
   1  -8  -7   62.79   19.42   0
   3   1  -2  235.85   15.74   0
   3   5   6  538.95   18.62   0
   4   3   0 1078.27   19.00   0
   4   5   4  687.45   17.08   0
   4   6   9   23.05   18.14   0
   5   2  -2   19.43   10.08   0
   5   4   1  212.42   11.91   0
   5   5   3  268.92   11.84   0
   7   4   0   10.87   10.21   0
   7   7   7    6.90   12.83   0
   8   7   6   74.76   14.66   0
  -3  -7  -1   50.31   10.41   0
  -3  -4   2   59.33    9.60   0
  -3  -4   6  237.35   14.19   0
  -2 -10  -4   99.28   12.73   0
  -2  -5  -2  409.70   15.49   0
  -2  -1   4 1927.06   25.41   0
  -2  -1   6  338.23   16.34   0
  -1  -3  -2 1542.06   29.22   0
   1   3   4   21.05   18.23   0
   4  -4  -7  410.12   22.15   0
   4   6   8   13.83   14.51   0
   4   6  10   10.16   19.45   0
   5  -2  -6   58.84   12.99   0
   6   5   2  159.57   11.36   0
   6   7   9   29.08   15.32   0
   7  -3  -7   17.74   15.14   0
   8   1  -4   15.09   12.35   0
   8   2  -3   11.79   12.69   0
   8   6   3   -3.71   13.06   0
   9   2  -3    0.85   13.84   0
   9   5   1   30.20   11.24   0
   9   6   3   20.08   11.40   0
  -3 -10  -1   38.97   10.88   0
  -3  -9  -1    4.22   11.70   0
  -3  -8  -1  122.14   10.41   0
  -3  -6   0  106.91   10.61   0
  -3  -6   6   15.61   13.95   0
  -3  -5   1   13.32    9.84   0
  -3  -5   6   12.71   13.06   0
  -3  -4   3  338.89   12.22   0
  -3  -4   4  144.28   12.41   0
  -3  -4   5   98.35   10.60   0
  -2  -4  -1  394.85   16.12   0
  -2  -3   0   88.46   11.62   0
  -2  -2   8   25.20   12.80   0
  -2  -1   5  411.20   14.97   0
  -1  -8  -5   12.13   12.59   0
  -1  -1  10    7.44   15.43   0
  -1   0   9   13.32   13.68   0
   2   3   2  373.80   16.51   0
   5   6   5  282.84   13.60   0
   6  -3  -7   12.40   13.69   0
   6   4   0   35.03   10.28   0
   6   6   4   51.32   10.10   0
   6   7   8   73.13   13.42   0
   7   1  -4   10.03   11.97   0
   7   2  -3   84.10   11.31   0
   7   7   6    4.92   11.78   0
   8   0  -5  128.92   12.99   0
   8   3  -2    4.36   11.69   0
   8   5   1   39.47   11.56   0
   9   3  -2   -0.42   11.19   0
  -3 -10   0   21.05   11.53   0
  -3  -9   0   45.70   12.63   0
  -3  -7   0  231.25   13.25   0
  -3  -5   2  317.45   13.45   0
  -3  -5   5  308.18   14.29   0
  -2 -11  -3    4.69   13.16   0
  -2  -7  -3    7.82    9.46   0
  -2  -2   2  484.14   17.30   0
  -1 -11  -5  205.93   14.57   0
  -1  -9  -5   53.23   13.18   0
   0  -8  -6  170.94   16.11   0
   3   2  -1 1137.58   20.32   0
   4   0  -4  103.88   12.06   0
   4   1  -3  709.46   15.95   0
   4   6   7  400.24   16.84   0
   5   3  -1  113.03    9.92   0
   6   7   7   97.26   13.27   0
   7   0  -5   63.22   12.57   0
   7   3  -2   28.16   11.26   0
   7   5   1  215.94   11.68   0
   7   6   3   42.60   10.06   0
   8   7   5   20.82   11.97   0
   9   4  -1   17.72   12.48   0
  -3  -9   1    9.48   11.34   0
  -3  -9   2   11.23   13.46   0
  -3  -8   0    3.68    9.79   0
  -3  -6   1   34.56   10.39   0
  -3  -6   5    2.76   10.76   0
  -3  -5   3   27.81   10.22   0
  -3  -5   4   14.93   10.03   0
  -2 -10  -3   57.89   12.22   0
  -2  -8  -3   44.92   11.63   0
  -2  -3   8  102.66   13.43   0
  -2  -2   7    2.65   11.69   0
  -1 -10  -5   92.76   12.96   0
  -1  -6  -4    9.03   11.11   0
   0  -4  -4  253.89   22.05   0
   0   2   8   22.56   17.94   0
   1  -9  -7   38.20   17.54   0
   2   2   0 2857.04   32.30   0
   3  -8  -8   24.96   26.98   0
   3  -3  -6   24.49   16.01   0
   3   5   5    0.25   10.93   0
   4  -1  -5    4.84   12.29   0
   4   6  11   40.04   25.67   0
   5  -5  -8   16.45   17.88   0
   5   5   2  699.40   15.85   0
   6   1  -4   -1.21   11.18   0
   6   2  -3  108.49   11.87   0
   7  -1  -6   10.42   13.82   0
   7   7   5  -10.60   12.00   0
   8   4  -1   34.77   10.12   0
   9   6   2   10.67   11.18   0
  -3  -8   1   29.57   10.25   0
  -3  -8   2   18.18   10.89   0
  -3  -8   3   42.98   11.23   0
  -3  -7   1  162.95   11.57   0
  -3  -7   2  311.35   12.38   0
  -3  -7   3    9.77   10.95   0
  -3  -7   4  120.18   11.95   0
  -3  -6   2  124.54   10.78   0
  -3  -6   3  301.08   12.11   0
  -3  -6   4  426.52   12.72   0
  -2  -9  -3  154.26   11.58   0
  -2  -6  -2   39.14   10.35   0
  -2  -4   8    5.96   13.36   0
  -1   0   8  481.90   17.52   0
   0 -10  -6   23.70   14.22   0
   0  -9  -6   93.35   14.39   0
   0   1  10   88.99   17.85   0
   0   2   5 2915.54   60.99   0
   1 -10  -7   -1.30   16.02   0
   2   4   4 1247.29   25.86   0
   4   2  -2   19.17    9.36   0
   4   4   1 1040.98   17.38   0
   4   5   3  134.18   10.20   0
   4   6   6    4.50   13.06   0
   5  -3  -7    4.17   14.99   0
   5   4   0  257.03   12.66   0
   5   6   4  215.00   12.63   0
   6   0  -5  537.02   15.52   0
   6   5   1  382.04   13.67   0
   6   6   3 2209.10   22.37   0
   6   7   6  120.43   13.08   0
   7   4  -1    4.76   10.07   0
   8   6   2   61.47   11.43   0
   8   7   4    5.82   11.77   0
   9   5   0   39.72   11.09   0
  -2 -10  -2   32.92   12.45   0
  -2  -3   1  106.85   12.38   0
  -2  -3   7    6.97   11.81   0
  -2  -2   3 1427.88   21.79   0
  -2  -2   6   50.91   11.22   0
  -1  -1   9   11.21   13.51   0
   1   2  11   23.44   20.35   0
   3   4   2   44.68   11.16   0
   5   7   8   63.58   15.27   0
   5   7   9   21.09   15.32   0
   6  -1  -6   10.09   12.60   0
   6   3  -2  275.68   11.86   0
   7   6   2   88.47   11.71   0
   8   5   0   27.98   10.82   0
  -2  -9  -2   13.69   11.54   0
  -2  -7  -2  104.36   10.91   0
  -2  -5  -1    1.77    9.58   0
  -2  -4   0   45.27   12.25   0
  -2  -4   7   38.47   12.56   0
  -2  -2   4   65.77   10.57   0
  -2  -2   5   10.08   10.66   0
  -1 -11  -4   58.61   13.08   0
  -1  -7  -4    4.15   12.30   0
  -1   0   3  114.69   13.71   0
   0  -6  -5    5.05   12.99   0
   0   2   7   90.10   17.31   0
   1  -6  -6  190.60   21.68   0
   3   3   0  673.45   16.64   0
   4  -2  -6 1217.89   23.34   0
   4   3  -1  346.21   13.43   0
   5   1  -4   14.39   10.51   0
   5   7  10    2.15   16.77   0
   6  -4  -8   15.28   17.66   0
   6   7   5  173.33   13.04   0
   7  -2  -7    9.78   13.71   0
   7   5   0   14.06   11.09   0
   7   7   4  139.66   12.62   0
   7   8   8   -5.69   14.29   0
   9   6   1   -4.40   12.96   0
  -2 -10  -1  117.41   11.97   0
  -2  -8  -2  170.22   11.44   0
  -2  -5   7   19.23   11.76   0
  -2  -3   6  335.73   13.57   0
  -1 -10  -4   72.12   12.25   0
  -1  -8  -4  241.49   13.85   0
  -1  -5  -3   12.13   11.17   0
  -1  -2   9   61.45   14.56   0
  -1  -1   1 1972.63   34.52   0
  -1   0   7  242.14   15.25   0
   1   3   9    5.85   22.89   0
   3   5   4    4.21   10.68   0
   4   6   5  410.33   15.08   0
   5   0  -5  113.38   11.58   0
   5   2  -3   58.01    9.01   0
   5   7   7  168.22   13.13   0
   6   4  -1   13.46    9.75   0
   8   1  -5   16.02   12.39   0
   8   2  -4  166.06   12.26   0
   8   3  -3   11.79   10.46   0
   8   6   1   31.59   12.13   0
   8   7   3   67.40   12.77   0
   8   8   6    7.23   13.49   0
   9   4  -2   33.46   11.49   0
  -2 -10   0   40.79   10.68   0
  -2  -9  -1   37.85   11.52   0
  -2  -6  -1  155.57   10.96   0
  -2  -6   6    7.92   13.02   0
  -2  -4   6  172.06   12.80   0
  -2  -3   2   -1.18    9.99   0
  -1 -11  -3   39.53   12.85   0
  -1  -9  -4  159.99   12.87   0
   0 -11  -5   36.80   14.00   0
   0   2   6   44.56   17.32   0
   5   3  -2  151.54   11.58   0
   5   5   1  105.96   10.39   0
   5   6   3   22.88   10.60   0
   6  -2  -7   76.09   13.25   0
   6   6   2  342.71   12.35   0
   7   1  -5  328.76   13.75   0
   7   2  -4   91.80   12.17   0
   7   3  -3   24.70   11.62   0
   7   8   7   66.68   13.13   0
   8   4  -2   46.04   10.37   0
   9   5  -1    8.47   12.46   0
  -2  -9   0  105.60   10.80   0
  -2  -9   1  114.04   12.96   0
  -2  -9   2    9.52   12.74   0
  -2  -8  -1    5.84    8.89   0
  -2  -7  -1  462.45   12.62   0
  -2  -7   5   26.40   11.19   0
  -2  -5   0  194.41   12.27   0
  -2  -5   6   -1.35   11.09   0
  -2  -4   1 1103.79   17.98   0
  -2  -3   3 1004.76   17.00   0
  -2  -3   4   50.86    9.75   0
  -2  -3   5   18.01    9.06   0
  -1  -1   8   -1.48   11.09   0
  -1   0   4    5.28   12.81   0
  -1   0   6   55.02   12.40   0
   0   0  10   43.49   14.17   0
   0   1   9    6.24   14.23   0
   2   0  -3  495.54   18.67   0
   4   5   2  579.21   13.44   0
   5  -1  -6  704.40   17.26   0
   5   7   6   -1.52   11.22   0
   6   5   0   52.61    9.68   0
   6   7   4   72.65   11.70   0
   7   4  -2   27.38   10.77   0
   7   6   1   63.61   11.59   0
   7   7   3  144.57   12.37   0
   7   8   6   45.99   12.42   0
   8   5  -1   66.86   12.51   0
   8   8   5   19.07   11.73   0
  -2  -8   0   31.27   11.17   0
  -2  -8   3   18.58   10.65   0
  -2  -7   4  100.92   12.74   0
  -2  -6   5    5.24   10.13   0
  -2  -5   5    6.56   10.61   0
  -2  -4   5   52.27   11.07   0
  -1 -10  -3  144.02   12.98   0
  -1  -4  -2   33.19   12.72   0
  -1   0   5   60.01   12.66   0
   0 -10  -5   73.52   12.57   0
   0  -7  -5   32.89   12.75   0
   2  -1  -4 1024.87   23.80   0
   2   3   1 1493.10   23.20   0
   2   4   3  383.37   17.75   0
   3   0  -4  136.92   11.93   0
   3   1  -3  437.75   15.40   0
   4   4   0   12.71    9.43   0
   4   6   4   17.60   10.89   0
   5   4  -1   40.23   10.83   0
   6   2  -4  412.63   13.62   0
   6   8   8  151.68   15.43   0
   6   8   9   -7.33   13.75   0
   7   0  -6   59.36   12.61   0
   8   7   2  131.73   12.73   0
  -2  -8   1    6.30    9.72   0
  -2  -8   2  118.79   11.41   0
  -2  -7   0   49.03    9.52   0
  -2  -7   3  137.11   12.89   0
  -2  -6   0   72.26    9.71   0
  -2  -6   4  395.35   13.60   0
  -2  -5   1   77.32   10.67   0
  -2  -5   4  754.12   15.58   0
  -2  -4   2   39.74    9.52   0
  -2  -4   3   77.62   10.51   0
  -2  -4   4   26.27    9.05   0
  -1  -9  -3   68.84   11.61   0
  -1  -6  -3   18.07    9.82   0
  -1  -4   8   47.78   13.11   0
  -1  -2   8  159.08   12.67   0
   0  -9  -5  422.77   15.68   0
   0  -8  -5  116.92   12.73   0
   0  -1  10   87.91   14.38   0
   1   2   1  161.99   18.73   0
   2  -7  -7   38.94   19.31   0
   2   1  -2 1683.64   25.21   0
   3   2  -2   95.53   12.33   0
   3   4   1 1358.29   20.38   0
   4  -5  -8    0.64   21.83   0
   4  -3  -7   21.83   16.61   0
   5  -4  -8   12.70   17.28   0
   5   7   5    8.83   10.89   0
   6   1  -5 1066.37   18.03   0
   6   3  -3  159.56   10.03   0
   6   8   7    3.81   13.35   0
   7   5  -1   66.47   10.17   0
   7   8   5   79.97   12.60   0
   8   6   0   30.73   12.24   0
   8   8   4  412.93   15.82   0
  -2  -7   1   75.57   10.07   0
  -2  -7   2   15.69    9.52   0
  -2  -6   1  674.26   14.36   0
  -2  -6   2  225.92   12.61   0
  -2  -6   3  173.89   11.08   0
  -2  -5   2   19.41    9.23   0
  -2  -5   3  254.27   10.93   0
  -1 -10  -2   95.06   11.29   0
  -1  -8  -3   44.18   10.83   0
  -1  -7  -3   90.56   10.95   0
  -1  -3  -1 4612.61   40.57   0
  -1  -3   8   75.36   11.16   0
  -1  -2   0 4122.91   42.07   0
  -1  -1   7   18.64   10.89   0
   0  -3  -3  680.51   27.89   0
   1 -10  -6   39.23   13.59   0
   1  -7  -6  178.86   17.60   0
   1   3   3   -1.20   14.40   0
   2   5   7  575.51   26.04   0
   3  -1  -5    4.78   11.64   0
   3   5   3  320.81   13.12   0
   3   6   7  128.52   15.96   0
   3   6   8   17.07   16.72   0
   4   1  -4  727.27   15.84   0
   4   2  -3 1251.60   17.79   0
   5   6   2  354.07   13.13   0
   6   0  -6  144.10   13.64   0
   6   4  -2  384.83   13.85   0
   6   6   1    7.16   10.89   0
   6   7   3  163.78   12.03   0
   7  -1  -7  106.34   14.07   0
  -1 -10  -1   -8.14   11.09   0
  -1 -10   0   11.33   12.01   0
   1  -9  -6   -0.26   13.51   0
   1   2  10    2.23   18.11   0
   2   5   8  152.73   27.05   0
   3  -4  -7   20.09   20.80   0
   3   6   9   34.57   20.57   0
   4   0  -5  696.19   16.61   0
   4   7   8  170.69   16.29   0
   5  -2  -7  148.50   14.57   0
   5   5   0  210.28   11.53   0
   6  -3  -8   35.94   16.57   0
   6   8   6  111.03   12.16   0
   7   6   0   10.53   11.56   0
   7   7   2    4.77    9.67   0
   8   2  -5   86.19   12.86   0
   8   3  -4  374.66   13.53   0
   8   4  -3  196.39   11.84   0
  -1  -9  -2  114.36   10.51   0
  -1  -5  -2  187.92   13.11   0
  -1  -5   7    0.18   11.14   0
  -1  -4   7   15.40   11.48   0
  -1  -3   7   36.64   11.54   0
  -1  -2   7  300.45   12.98   0
  -1  -1   2  186.21   15.19   0
  -1  -1   6  834.51   17.49   0
   0 -10  -4  199.15   13.24   0
   0  -5  -4 1817.99   28.97   0
   0   0   9    5.22   12.85   0
   0   1   8   64.55   13.85   0
   1  -8  -6  660.36   20.12   0
   1  -1  -3   72.33   16.41   0
   2  -9  -7   87.30   15.19   0
   2  -8  -7  260.22   19.79   0
   2  -2  -5   43.21   15.08   0
   2   2  -1   92.87   11.31   0
   2   5   6  148.71   15.77   0
   3   3  -1  419.17   13.07   0
   3   6   6   51.38   12.91   0
   4   3  -2  314.30   11.12   0
   4   5   1   50.18    8.69   0
   4   6   3  315.92   12.16   0
   4   7   7   17.33   11.76   0
   4   7   9   77.68   17.34   0
   5   2  -4   33.13   10.42   0
   5   7   4  104.41   10.16   0
   6   5  -1   38.12    9.63   0
   7   3  -4   10.99   11.70   0
   7   8   4   25.48   10.77   0
   8   5  -2   23.44   10.34   0
   8   7   1   18.94   10.14   0
   8   8   3  106.38   11.46   0
  -1  -9  -1    9.98    9.55   0
  -1  -9   2   84.79   10.94   0
  -1  -8  -2  293.06   12.77   0
  -1  -7   5   24.22   12.04   0
  -1  -6   6   72.45   11.55   0
   1   0  -2 3740.35   46.67   0
   2   3  11   45.11   19.95   0
   4  -1  -6 2029.19   25.84   0
   5   1  -5   28.66   10.57   0
   5   3  -3   -0.67    8.67   0
   6  -1  -7   31.81   12.97   0
   6   8   5   16.67   11.22   0
   7   2  -5  271.72   11.39   0
   7   4  -3   22.45    9.99   0
  -1  -9   0  253.67   11.72   0
  -1  -9   1    8.49   10.61   0
  -1  -8   3  100.09   12.14   0
  -1  -7  -2  186.46   10.07   0
  -1  -6  -2   47.74    8.47   0
  -1  -5   6    4.15   11.62   0
  -1  -2   6  401.23   13.55   0
  -1  -1   3 2422.48   29.42   0
  -1  -1   5   21.41    9.85   0
   0 -10  -3   77.76   11.40   0
   0  -9  -4   32.20   11.35   0
   0  -2   9   43.74   12.18   0
   0  -1   9  124.40   12.53   0
   3  -2  -6  121.92   14.75   0
   3   5   2 1094.36   17.99   0
   3   6   5   53.87   11.96   0
   4   4  -1  179.91   10.31   0
   4   7   6   10.66   10.29   0
   5   4  -2   10.05    9.85   0
   5   6   1   40.64   10.61   0
   5   8   8   45.14   13.28   0
   6   6   0   84.85   10.94   0
   6   7   2   25.00    9.20   0
   7   1  -6   82.94   11.57   0
   7   5  -2    1.69    9.31   0
   7   7   1   80.06   11.62   0
   7   8   3  109.96   12.57   0
   8   6  -1   80.42   10.57   0
  -1  -8  -1   35.06    8.68   0
  -1  -8   2   33.13   11.71   0
  -1  -7   4  250.12   12.17   0
  -1  -6   5   63.26   10.31   0
  -1  -4  -1  248.79   13.29   0
  -1  -4   6   33.71    9.99   0
  -1  -3   6  656.53   15.13   0
  -1  -1   4   68.05   11.17   0
   0  -8  -4  142.71   11.56   0
   0  -6  -4  304.79   14.28   0
   1 -10  -5   13.53   13.09   0
   1   3   8    5.55   19.37   0
   2   4   2  488.73   15.58   0
   2   5   5    0.75   12.87   0
   3   4   0  294.71   12.66   0
   4   7  10    2.58   19.37   0
   5   0  -6  487.39   14.55   0
   5   7   3  265.12   11.37   0
   5   8   7    9.86   11.28   0
   5   8   9   26.66   13.39   0
   6   3  -4   23.05   10.80   0
   6   8   4  125.08   11.83   0
   7   9   6    4.72   11.97   0
   8   8   2   11.82   10.42   0
  -1  -8   0  125.69   10.26   0
  -1  -8   1   22.14    9.71   0
  -1  -7  -1  145.46    9.65   0
  -1  -7   3   95.68   11.67   0
  -1  -5   5  146.81   11.29   0
  -1  -3   0  882.83   18.61   0
  -1  -2   1  884.60   19.31   0
  -1  -2   5  160.67   10.64   0
   0 -10  -2   66.71   11.84   0
   0  -7  -4  151.21   12.22   0
   0   0   8    9.41   11.26   0
   0   1   7  745.32   19.97   0
   1   1  -1 1960.75   31.79   0
   1   1  10   27.53   14.27   0
   2   3   0   91.44   10.45   0
   4   6   2   22.46    8.50   0
   4   7   5   29.63   10.37   0
   5   5  -1  319.14   11.22   0
   5   8   6   15.40   10.75   0
   6   2  -5   72.09   10.14   0
   6   4  -3  104.33    9.43   0
   7   0  -7    3.89   11.64   0
   7   6  -1   -1.14    9.60   0
   8   7   0   13.84   10.46   0
  -1  -7   0   38.27    9.26   0
  -1  -7   1   76.38   10.81   0
  -1  -7   2   -0.83    8.90   0
  -1  -6  -1  721.69   13.58   0
  -1  -6   4  141.06    9.91   0
  -1  -5  -1  581.34   13.93   0
  -1  -4   5  947.82   15.80   0
  -1  -3   5    2.76    9.41   0
   0 -10  -1    4.23   10.47   0
   0 -10   0   18.53   10.09   0
   0  -9  -3  649.49   15.08   0
   0  -4   8   12.84   10.87   0
   0  -2  -2 3014.18   57.66   0
   1  -9  -5   50.79   12.08   0
   2 -10  -6  227.55   15.65   0
   3   6   4  242.52   11.92   0
   4   5   0   66.02    8.97   0
   5  -3  -8  191.46   16.52   0
   6   1  -6   25.42   10.56   0
   6   5  -2  473.96   12.34   0
   6   7   1   21.34   10.14   0
   6   9   8   16.19   12.73   0
   7   8   2    7.98   11.06   0
   7   9   5   38.64   11.11   0
   8   5  -3   10.64    9.96   0
  -1  -6   0  392.31   12.40   0
  -1  -6   3   16.74    9.18   0
  -1  -5   4   24.38    9.37   0
  -1  -2   2  258.89   13.70   0
  -1  -2   4  371.46   12.91   0
   0  -5   7   86.66   13.38   0
   0  -3   8   -1.91   11.13   0
   0  -2   8   83.42   11.38   0
   0  -1   8   -1.04   10.68   0
   1 -10  -4   40.73   12.43   0
   1  -1  10    2.86   13.26   0
   1   0  10   54.15   12.86   0
   2   5   4  146.49   13.29   0
   3   1  -4   13.42    9.21   0
   3   2  -3   37.70    9.77   0
   4  -2  -7  190.44   15.29   0
   4   2  -4  189.08   11.11   0
   4   3  -3 1145.34   16.19   0
   4   7   4  386.55   12.74   0
   5  -1  -7   78.24   12.43   0
   5   7   2  279.27   11.99   0
   5   8   5   72.70   11.55   0
   6  -2  -8   35.81   13.40   0
   6   8   3    2.09    9.28   0
   6   9   7    2.72   11.82   0
   7   4  -4  122.02   12.12   0
   7   7   0   73.32   10.35   0
  -1  -6   1    3.34    8.63   0
  -1  -6   2   23.66    8.83   0
  -1  -5   0  403.04   12.06   0
  -1  -5   3  626.09   13.96   0
  -1  -4   0   63.44    9.99   0
  -1  -4   4  322.08   10.97   0
  -1  -3   1  974.73   17.02   0
  -1  -3   4   19.61    7.96   0
  -1  -2   3   88.86   10.52   0
   0  -9  -2   24.58    9.35   0
   0  -9   1   73.07   12.04   0
   0  -9   2    0.12   10.21   0
   0  -8  -3  287.15   12.39   0
   0  -7   5   61.81   10.53   0
   0  -6   6   50.13   10.45   0
   1  -2  -4  267.85   26.73   0
   1   2   9  509.88   20.28   0
   1   3   2 1460.58   26.88   0
   2   2  11   16.77   16.82   0
   3   3  -2 1175.80   17.39   0
   3   5   1  604.12   13.95   0
   4   1  -5    1.28   10.17   0
   5   3  -4   49.09   10.07   0
   5   6   0   49.20    9.23   0
   6   0  -7   80.38   12.81   0
   6   6  -1  212.60   10.54   0
   6   9   6    3.88   11.07   0
   7   3  -5    7.01   10.10   0
   7   5  -3    3.14    9.09   0
   7   9   4   61.72   11.12   0
  -1  -5   1  759.40   14.06   0
  -1  -5   2  404.47   11.65   0
  -1  -4   1  595.80   14.37   0
  -1  -4   3  355.85   10.81   0
  -1  -3   2    1.96   10.57   0
  -1  -3   3  644.50   13.65   0
   0  -9  -1    9.65    9.58   0
   0  -9   0  109.45   10.36   0
   0  -8   3   21.02    9.63   0
   0  -4  -3 1751.39   28.14   0
   0  -4   7    2.18   10.74   0
   1 -10  -3  167.90   12.63   0
   1  -8  -5   35.93   11.07   0
   2  -9  -6   16.40   13.19   0
   2   1  -3 2117.03   25.94   0
   2   4   1  387.87   14.61   0
   3   0  -5   13.09    9.69   0
   3   6   3   26.35    8.83   0
   4  -4  -8  134.89   20.58   0
   4   4  -2  607.60   12.85   0
   4   6   1   11.54    8.36   0
   5   2  -5  377.90   12.68   0
   5   4  -3   16.54    8.35   0
   5   8   4    4.59   10.63   0
   6   9   5  106.82   11.77   0
   7   2  -6   10.71    9.50   0
   7   6  -2   10.28   10.90   0
  -1  -4   2  241.56   10.63   0
   0  -8  -2   80.84   10.37   0
   0  -8   2   12.35   11.18   0
   0  -7  -3  287.20   12.25   0
   0  -7   4   10.03    9.91   0
   0  -5   6   75.26   11.70   0
   0  -3   7    2.90   10.73   0
   0   0   7   52.79   11.34   0
   0   1   6  360.78   16.87   0
   1  -9  -4  470.78   14.93   0
   1  -7  -5   12.96   12.41   0
   1  -5  -5   89.62   15.20   0
   1   2   0 4041.31   39.41   0
   2   0  -4 2929.70   31.05   0
   2   2  -2  489.96   14.83   0
   3  -9  -7   12.48   15.75   0
   3   4  -1  180.06   11.27   0
   4   0  -6   27.69   11.47   0
   4   7   3   87.90   10.26   0
   5   1  -6   20.65   10.27   0
   5   5  -2   17.00   10.71   0
   6   7   0   17.70   10.81   0
   6   8   2    3.54    8.83   0
   7   8   1   10.19    9.42   0
   7   9   3   89.45   12.47   0
   0  -8  -1   41.68    9.81   0
   0  -8   1  170.93   11.67   0
   0  -6  -3  141.45   10.99   0
   0  -6   5  112.57   10.59   0
   0  -5  -3   85.95   12.10   0
   0  -2   7  156.10   11.36   0
   0  -1   7  603.60   14.40   0
   1 -10  -2    5.48    9.30   0
   1 -10  -1   12.05   12.27   0
   1  -6  -5    8.91   12.39   0
   2 -10  -5   56.50   11.74   0
   2   5   3 1138.69   18.89   0
   4   5  -1   18.69    9.29   0
   5   7   1   38.70    9.31   0
   6   3  -5   15.41    8.80   0
   6   4  -4   28.46    9.06   0
   6   5  -3   33.20   10.23   0
   7   7  -1    9.64    9.60   0
   0  -8   0  223.60   10.28   0
   0  -7  -2  551.56   13.29   0
   0  -7   3   47.68    9.69   0
   0  -4   6    1.11   11.03   0
   1  -4   8   66.95   12.70   0
   1  -2   9   68.79   11.51   0
   1  -1   9  103.35   12.74   0
   1   1   9    3.59   11.28   0
   2  -8  -6   30.78   13.19   0
   2  -3  -6   48.19   21.08   0
   2   3  -1  114.40    9.99   0
   3  -3  -7  941.36   27.58   0
   3  -1  -6   28.32   12.61   0
   4   8   6   29.83   11.68   0
   4   8   7    1.36   11.80   0
   4   8   8   10.32   14.40   0
   5  -2  -8    5.30   13.43   0
   5   6  -1   24.22    8.71   0
   5   8   3   70.98    9.29   0
   6  -1  -8   10.94   12.16   0
   6   2  -6    8.78   10.66   0
   6   6  -2    0.33   10.09   0
   6   9   4   28.33    9.88   0
   0  -7   2  254.75   10.35   0
   0  -6   4   10.69    8.80   0
   0  -5   5  149.63    9.83   0
   0  -3   6    9.83    9.96   0
   0   1   5 1584.24   28.51   0
   1  -9  -3  133.53   11.29   0
   1  -8  -4  186.35   12.23   0
   1  -5   7   22.75   12.51   0
   1   0   9  215.60   13.41   0
   1   4   5  144.15   18.05   0
   2 -10  -4   11.08   12.03   0
   3   5   0  320.42   10.44   0
   3   6   2  182.65    9.19   0
   3   7   6   89.89   12.31   0
   3   7   7   23.70   12.19   0
   4   6   0  367.62   12.53   0
   4   7   2   18.65    9.79   0
   5   0  -7    0.45   11.20   0
   5   9   6   41.60   12.15   0
   5   9   7   34.77   11.59   0
   5   9   8    0.13   13.08   0
   6   8   1   96.25    9.85   0
   7   4  -5   29.87   11.63   0
   7   5  -4   43.48   11.00   0
   7   8   0    7.92    9.88   0
   7   9   2    3.12    9.66   0
   0  -7  -1   42.94    7.88   0
   0  -7   0   91.46   10.51   0
   0  -7   1  169.70    9.77   0
   0  -6  -2   58.52    9.29   0
   0  -6   3  357.96   12.38   0
   0  -2   6   76.41   10.11   0
   0   0   6    9.69   10.39   0
   1  -9  -2   83.96   10.75   0
   1  -9   0   26.16   10.73   0
   1  -9   1    6.81    9.66   0
   1  -7   5   92.03   10.86   0
   1  -6   6    7.06    9.85   0
   1  -3   8   -4.41   10.67   0
   2  -9  -5   68.79   11.88   0
   2  -1  -5 1525.93   25.27   0
   2   3  10   10.65   16.35   0
   3  -8  -7   11.78   13.98   0
   3   7   5  168.63   11.94   0
   3   7   8   15.90   16.04   0
   4  -1  -7   46.22   11.89   0
   4   3  -4  118.98   10.13   0
   4   4  -3   13.46    8.99   0
   4   8   5  364.47   12.78   0
   4   8   9  125.83   16.08   0
   5   7   0    2.55    9.92   0
   5   8   2    4.98   10.02   0
   5   9   9    8.14   13.56   0
   6   1  -7    8.81   11.00   0
   6   7  -1   17.89    9.40   0
   6   9   3   27.31   10.24   0
   7   6  -3   35.80    9.67   0
   0  -5   4  242.88   10.50   0
   0  -4   5  779.94   13.56   0
   0  -1   6   64.47   10.21   0
   1  -9  -1   24.86    8.96   0
   1  -8   3   12.52    9.84   0
   1   3   1 4882.99   39.53   0
   1   4   4  161.12   14.79   0
   2 -10  -3   32.24   10.61   0
   2  -7  -6  149.58   15.57   0
   2   4   0   76.64    9.71   0
   2   5   2  384.42   12.34   0
   3   2  -4   26.06    8.48   0
   3   3  -3   23.37    7.66   0
   4  -3  -8   53.64   17.02   0
   4   2  -5   71.94    9.78   0
   4   8   4   70.74   10.32   0
   5   3  -5   59.39   10.54   0
   5   4  -4   86.36    8.98   0
   5   5  -3   42.31    9.66   0
   5   9   5   -5.64   10.23   0
   6  10   6   94.81   12.18   0
   7   7  -2   31.66    9.64   0
   0  -6  -1  430.25   11.76   0
   0  -6   2   19.00    8.47   0
   0  -5  -2   46.46   10.40   0
   0  -3  -2 2955.66   36.85   0
   0  -3   5 1862.39   19.38   0
   1  -8  -3   79.96   10.08   0
   1  -8   2   67.84    9.77   0
   1  -7  -4   47.59   11.45   0
   1  -7   4   10.14    9.74   0
   1  -4   7  136.37   11.16   0
   1  -2   8    4.42   10.25   0
   1   2   8  110.43   14.68   0
   2 -10  -2    2.15    9.55   0
   3   1  -5  111.61   10.29   0
   3   4  -2   56.91    7.88   0
   3   6   1   37.52    9.16   0
   3   7   4   -1.44    9.45   0
   4  -7  -8   55.36   20.54   0
   4   1  -6   65.27   10.83   0
   4   5  -2  182.40    9.72   0
   4   7   1   76.93   10.79   0
   5   2  -6   28.13   10.36   0
   5   6  -2  164.24   10.87   0
   5   9   4   46.15   10.28   0
   6   4  -5    8.32   10.14   0
   6   5  -4   -3.76   10.54   0
   6   8   0    2.89   10.68   0
   6   9   2   19.12   11.16   0
   0  -6   0   31.00    8.43   0
   0  -6   1  172.52    9.81   0
   0  -5   3    4.91    8.23   0
   0  -4  -2 1254.32   21.72   0
   0  -4   4  319.34   11.43   0
   0   1   4 3219.94   43.22   0
   1  -8   1   -1.30   10.22   0
   1  -6   5   49.81    9.43   0
   1  -5   6  100.80   10.19   0
   1   1  -2  202.64   14.02   0
   1   3   7   97.84   18.94   0
   2  -9  -4  143.70   12.50   0
   2   0  10   84.14   12.86   0
   2   2  10    3.84   13.21   0
   2   6   5    1.56   10.56   0
   2   6   6    3.01   12.29   0
   3  -9  -6  144.28   13.66   0
   4   6  -1   21.55    9.59   0
   5  -4  -9  160.46   21.63   0
   5  -1  -8  279.53   15.24   0
   5   8   1   24.67   10.13   0
   6   0  -8   74.37   12.75   0
   6   3  -6   -5.57   10.51   0
   6   6  -3    2.22    9.16   0
   6  10   5   19.03    9.78   0
   0  -5   2  167.84   10.62   0
   0  -2   5   84.86    9.20   0
   0  -1   5  240.57   11.95   0
   0   0   5  106.61   12.23   0
   1  -8  -2  235.26   10.37   0
   1  -8  -1  327.01   11.83   0
   1  -8   0    2.47    8.17   0
   1  -7   3  171.19   10.18   0
   1  -3   7   36.20   10.40   0
   1  -1   8   82.34   10.73   0
   1   0  -3  108.64   13.53   0
   1   0   8  213.55   12.30   0
   1   1   8    2.31   11.71   0
   1   2  -1  924.00   19.45   0
   1   4   3  757.50   19.54   0
   2  -8  -5   43.75   11.02   0
   2  -6  -6   95.69   14.93   0
   2   1  10   83.90   12.97   0
   2   2  -3 1423.53   18.98   0
   2   3  -2    0.48    9.57   0
   2   6   4 1030.21   18.62   0
   3  -7  -7  413.28   20.31   0
   3   4  11   10.59   18.25   0
   3   5  -1   16.65    8.49   0
   3   7   3  114.47   10.03   0
   4   8   3    6.33    8.46   0
   4   8  10    3.73   19.58   0
   5   1  -7   16.97   10.99   0
   5   7  -1  159.82   11.03   0
   5   9   3   17.66   10.61   0
   6   7  -2    5.80   10.77   0
   6  10   4   19.22   11.66   0
   0  -5  -1  393.87   11.84   0
   0  -5   1   10.33    9.08   0
   0  -4   3  643.39   13.37   0
   0  -3   4  404.32   11.63   0
   1  -6  -4   13.77   10.10   0
   1  -6   4  152.00    9.91   0
   1  -4   6   75.38   10.43   0
   2  -9  -3    2.10   10.17   0
   2  -9   1  178.92   10.72   0
   2  -8   3  142.14   12.20   0
   2  -2   9   11.06   11.21   0
   2   1  -4 2052.70   22.61   0
   2   5   1   -2.31    8.13   0
   2   6   7    7.90   15.79   0
   3  -2  -7  544.46   19.55   0
   3   0  -6  579.05   16.07   0
   6   2  -7   17.21   10.78   0
   6   9   1   -2.40   10.67   0
   0  -5   0  991.86   15.12   0
   0   1   3 2637.40   49.48   0
   1  -7  -3  228.94   11.55   0
   1  -7   2   17.87    8.72   0
   1  -5   5  422.58   11.40   0
   1  -2   7   85.59   10.14   0
   2  -9  -2  130.13   10.90   0
   2  -9  -1   -1.73   11.07   0
   2  -9   0   46.92    9.48   0
   2   4  -1 1056.65   15.67   0
   2   6   3  317.92   11.87   0
   3   6   0  124.02   10.15   0
   3   7   2  133.16    9.48   0
   4   0  -7   16.41   10.48   0
   4   4  -4   15.65    9.03   0
   4   7   0   16.63    8.20   0
   4   8   2   64.62    9.65   0
   4   9   6  120.34   12.19   0
   4   9   7  141.48   12.73   0
   5   4  -5   91.75   10.69   0
   5   5  -4  149.29   10.76   0
   5  10   7   74.68   12.66   0
   6   8  -1   25.60    9.30   0
   0  -4  -1  778.60   16.53   0
   0  -4   2 1480.17   17.28   0
   0  -2   4   59.61    8.50   0
   1  -7  -2  219.51   10.73   0
   1  -7   1  505.71   11.91   0
   1  -6   3   34.69    9.98   0
   1   3   0  874.49   17.01   0
   1   4   2   28.87   11.10   0
   2  -8   2   23.85   10.79   0
   2  -7   4   30.67    9.15   0
   2  -3   8  120.12   11.89   0
   2  -1   9   -5.22   10.78   0
   3  -9  -5   94.28   12.66   0
   3   2  11   29.37   15.26   0
   3   3  -4    9.48    8.28   0
   3   3  11   44.75   15.46   0
   3   4  -3  306.14   11.27   0
   4  -2  -8  108.90   14.83   0
   4   3  -5   46.34    8.44   0
   4   5  -3    7.02    8.19   0
   4   9   5   13.61   10.19   0
   4   9   8   20.18   13.32   0
   5  -3  -9   15.24   16.77   0
   5   3  -6   -2.63    9.64   0
   5   6  -3   50.66    8.87   0
   5   8   0   10.20    8.77   0
   5   9   2   12.87    9.08   0
   5  10   6   12.23   10.71   0
   0  -4   0  279.50   12.67   0
   0  -4   1  157.40    9.49   0
   0  -3   3  117.72    9.29   0
   0  -1   4 2016.98   24.05   0
   0   0   4 2189.21   27.66   0
   1  -7  -1  182.01    9.52   0
   1  -7   0   -2.43    8.20   0
   1  -5  -4  531.03   17.27   0
   1  -5   4  178.36   11.18   0
   1  -3   6   71.17    9.86   0
   1  -1   7  801.59   15.81   0
   2  -8  -4   91.98   10.49   0
   2  -7  -5  113.57   12.52   0
   2  -6   5   -2.57    9.71   0
   2  -4   7   51.64   11.17   0
   2   0  -5  154.35   11.13   0
   2   5   0  158.41   10.41   0
   3  -8  -6   12.01   12.30   0
   3   2  -5   88.99    9.66   0
   3   5  -2  325.57   11.49   0
   3   8   5   -2.53   10.28   0
   3   8   6  257.44   12.57   0
   4   2  -6    6.99    9.10   0
   4   6  -2   36.29    8.78   0
   5   0  -8   13.33   11.84   0
   5   7  -2   16.60   10.50   0
   5  10   5    4.33   10.52   0
   6   4  -6  100.48   11.50   0
   6   5  -5   32.62   10.15   0
   6   6  -4   23.29    9.45   0
   6   7  -3    6.54   11.06   0
   6   9   0   25.59    9.76   0
   0  -3  -1 1433.94   22.91   0
   0  -3   2  232.51   11.92   0
   0  -2  -1  948.62   27.09   0
   1  -6  -3  509.16   14.31   0
   1  -6   2   61.91    9.70   0
   1  -4   5  275.11   10.08   0
   2  -8   1   25.59    9.13   0
   2  -7   3    6.52   10.31   0
   2  -5   6  101.71    9.90   0
   2   0   9   87.14   12.12   0
   2   6   2   30.43    7.72   0
   3  -9  -4   -3.92   11.87   0
   3   7   1   61.87    9.66   0
   3   8   4   25.09    9.47   0
   3   8   7  102.16   13.60   0
   4   7  -1   47.62    9.77   0
   4   8   1   43.56    8.49   0
   4   9   4    6.24    8.52   0
   5   2  -7   41.12   10.30   0
   5   9   1   49.51   10.93   0
   5  10   4   12.18   10.75   0
   0  -2   3    5.64    9.22   0
   1   0   7  654.92   16.24   0
   2  -8  -3  478.23   12.86   0
   2  -8  -2  115.44   10.69   0
   2  -8  -1  124.34   10.50   0
   2  -8   0   -2.71    8.23   0
   2  -2   8    4.81    9.65   0
   2   3  -3  896.11   14.79   0
   3  -9   0   94.41    9.68   0
   3  -1  -7   41.33   11.80   0
   3   6  -1   45.22    8.57   0
   4   9   3   14.22   10.05   0
   5   8  -1   17.71    8.83   0
   0  -3   0  118.55   10.80   0
   0  -3   1  450.47   12.76   0
   0  -1   3   54.92   11.33   0
   0   0   3  718.73   20.26   0
   1  -6  -2   15.55    8.46   0
   1  -6   1  267.49    9.99   0
   1  -5   3   70.84    8.91   0
   1  -2   6 1214.20   16.68   0
   1   1   7  851.99   18.49   0
   1   2  -2  253.48   12.66   0
   1   4   1  229.64   11.68   0
   2  -7   2   58.23   10.70   0
   2  -6   4   30.00    8.79   0
   2  -3   7   89.64   10.93   0
   2   1   9    4.16   10.56   0
   2   2  -4   79.28    9.06   0
   2   4  -2   36.36    7.84   0
   3  -9  -3   24.21   10.29   0
   3  -9  -2   33.99   10.99   0
   3  -9  -1   14.27    9.61   0
   3  -7   4  192.65   12.49   0
   3  -2   9   85.22   12.29   0
   3   0  10   46.77   12.56   0
   3   1  -6   32.94    9.99   0
   3   8   3   11.28    9.20   0
   4   1  -7    1.07    9.55   0
   4   5  -4   13.55    9.09   0
   5   5  -5   32.47   10.77   0
   5  10   3   60.43   10.40   0
   0  -2   2 2763.51   26.88   0
   1  -6  -1  683.97   13.05   0
   1  -6   0  105.19    8.60   0
   1  -4   4   14.05    8.05   0
   1  -3   5   54.19    8.42   0
   1   1  -3 2366.08   26.75   0
   1   3  -1 1009.37   16.33   0
   2  -5   5    5.06    8.66   0
   2  -4   6  102.85    9.37   0
   2   5  -1   59.10    9.50   0
   2   6   1  145.24    8.53   0
   3  -8   2  120.34   10.08   0
   3   7   0  236.44   11.29   0
   4   4  -5   40.63    8.89   0
   4   6  -3    4.01    8.28   0
   4   8   0  229.01   10.35   0
   4   9   2  194.41   11.23   0
   5   4  -6  114.39   11.50   0
   5   6  -4   13.59    8.94   0
   5   7  -3   19.53   10.45   0
   5   9   0   58.70   10.68   0
   1  -5   2   77.82    8.87   0
   2  -7   1  192.85    9.83   0
   3  -6   5   60.45    9.72   0
   3   4  -4  156.18    9.23   0
   3   5  -3   26.02    8.68   0
   3   8   2  230.53    9.84   0
   4   7  -2   73.50    9.25   0
   5  10   2   26.31    9.80   0
  -9   2  -1   77.84    9.62   0
  -7   4   0  221.68    8.16   0
  -6   4   0   72.95    7.67   0
  -4  -5  -3  142.52    8.99   0
  -4  -4  -3   42.60    9.12   0
  -4   5   1 1635.14   14.93   0
  -3  -9  -1    8.88    6.92   0
  -3   7   3  699.47   10.31   0
  -2  -9   0   93.00    8.07   0
  -2  -4  -2  482.42   11.88   0
  -1   8   5   48.20    6.62   0
   0  -8   2   16.05    6.27   0
   0   4   2 1191.43   14.35   0
   0   9   7   71.07    6.71   0
   1  -5   1  160.62    7.21   0
   1   9   8   17.75    6.86   0
   2   8   8   28.43    7.61   0
   3   5   6  509.09   12.35   0
   3   6   7  125.23    9.10   0
   3   8  10  137.36   10.10   0
   5   0   9  117.46   13.90   0
  -9   0  -2    1.39   10.53   0
  -7  -9  -3   71.92    8.03   0
  -7   5   1   11.02    7.24   0
  -7   6   2   23.70    7.39   0
  -6   5   1   59.99    7.65   0
  -6   7   3    6.52    8.09   0
  -5   5   1  228.92    8.37   0
  -5   8   4   25.89    6.61   0
  -4 -10  -1    7.98    6.58   0
  -4  -6  -3  286.69    9.20   0
  -4   2  -1  728.63   13.19   0
  -4   6   2  589.66    9.64   0
  -4   7   3  245.58    7.70   0
  -4   8   4   85.79    7.05   0
  -3 -10   0   12.59    6.71   0
  -2  -8  -1    0.82    6.06   0
  -2  -5  -2  390.74    9.80   0
  -2  -3  -2  355.57   11.89   0
  -2   9   6   16.49    6.45   0
  -1  -9   1    1.59    7.43   0
  -1  -8   0  125.48    6.67   0
  -1  -6  -1  699.91   10.55   0
  -1   6   3  533.23    9.47   0
  -1   7   4   45.79    6.47   0
  -1  10   8    9.44    6.93   0
   0  -6   0   20.93    5.99   0
   0   8   6  190.33    7.93   0
   2  -4   2  367.87    8.42   0
   2   9  10   36.10    8.27   0
   3  -5   5   34.59    7.34   0
   3  -4   4   46.57    7.06   0
   4  -3   6    3.01    7.87   0
  -8   2  -1   39.75    8.62   0
  -6  -9  -3   18.64    7.47   0
  -6   6   2   10.42    6.30   0
  -5 -10  -2   20.21    8.30   0
  -5  -8  -3   73.02    7.75   0
  -5   6   2   78.37    6.73   0
  -5   7   3   11.60    6.31   0
  -4  -9  -2  217.79    7.71   0
  -3  -8  -2  244.23    7.48   0
  -3   3   0   37.29    7.30   0
  -3   9   6  145.98    8.59   0
  -2  -6  -2   42.69    6.53   0
  -2   4   1  131.67    7.17   0
  -2   8   5   50.12    7.35   0
   1  -7   2   12.04    6.09   0
   1   4   3  779.57   13.84   0
   1   8   7   76.00    6.59   0
   2  -6   3    9.38    6.90   0
   2   4   4 1217.33   16.82   0
   2   7   7   64.72    7.57   0
   3  -2   3   60.09    8.18   0
   4  -1   5  264.30   12.13   0
   4   0   5  790.91   20.65   0
  -7   2  -1   28.09    8.63   0
  -5   2  -1  762.47   13.81   0
  -4  -7  -3   86.31    7.26   0
  -1  -7  -1  137.74    7.29   0
  -1   9   7   45.86    6.80   0
   0  -9   2    3.48    7.71   0
   0  -8   1  159.90    7.44   0
   0   5   3   77.85    6.59   0
   0   6   4  300.32    7.68   0
   0   7   5   33.30    6.13   0
   0   9   8   24.63    7.94   0
   1  -8   3   29.13    6.77   0
   1  -6   1  261.95    7.63   0
   1   7   6   27.21    6.86   0
   1   9   9  141.28    9.14   0
   2  -7   4   30.13    7.05   0
   2  -5   2  153.40    7.40   0
   2   6   6    3.20    6.84   0
   3  -1   3  785.86   16.72   0
   3   7   9   50.44    8.58   0
   4  -4   7  191.98    9.73   0
   4  -2   5  535.16   13.27   0
   4   6  10    2.79    9.73   0
   5   0   8    9.06   12.52   0
  -8  -7  -4    5.80    9.33   0
  -8  -6  -4    5.78   10.06   0
  -7  -6  -4   48.97    9.37   0
  -6   2  -1    7.38    8.18   0
  -5  -9  -3   14.90    7.06   0
  -4 -10  -2   -7.35    7.84   0
  -4  -3  -3   31.16   10.07   0
  -3 -10  -1   27.12    6.65   0
  -3   8   5   61.50    6.70   0
  -2 -10   0   30.98    7.12   0
  -2  -9  -1   28.13    6.56   0
  -2  -7  -2  105.45    7.29   0
  -2   5   2  661.49   10.24   0
  -2   6   3  282.37    8.27   0
  -2   7   4 1087.79   11.94   0
  -1  -9   0  232.54    8.83   0
  -1   3   1  145.59    8.98   0
   0  -7   0   92.10    6.58   0
   1   5   4  730.87   12.15   0
   1   6   5  739.78   11.16   0
   2   5   5    3.03    6.23   0
   2   8   9  738.48   12.06   0
   3  -6   5   59.72    8.30   0
   3  -5   4  213.64    8.95   0
   3  -3   3   43.52    7.28   0
  -9  -6  -4    8.81   11.66   0
  -8  -8  -4  393.14   12.68   0
  -8  -5  -4   46.30   13.59   0
  -8   0  -2    7.61   10.30   0
  -8   3   0   49.89    8.98   0
  -7  -7  -4  123.63    9.60   0
  -7  -5  -4   11.88   11.58   0
  -5   0  -2    6.43    9.55   0
  -5   8   5   62.89    8.35   0
  -4  -8  -3    2.14    5.96   0
  -4   8   5  329.14    8.59   0
  -3  -9  -2   44.89    6.28   0
  -3   4   1   -0.57    6.19   0
  -2   9   7   89.37    7.48   0
  -1   8   6  669.66   10.11   0
   0   2   1 1044.75   19.20   0
   1  -8   2   63.64    7.21   0
   1  -7   1  525.45    9.79   0
   2  -7   3    2.45    7.64   0
   3  -4   3  133.06    8.51   0
   4  -4   6    1.26    8.10   0
   4  -3   5  137.11    9.08   0
   5  -1   8  113.29   12.86   0
  -8   4   1   11.84    8.00   0
  -7  -8  -4   22.93    7.75   0
  -6  -7  -4   63.19    8.55   0
  -6  -6  -4   47.00    8.19   0
  -4   3   0 1727.08   16.89   0
  -3  -6  -3   23.12    6.31   0
  -3  -5  -3  305.74    9.68   0
  -3   1  -1  666.21   15.59   0
  -3   5   2  252.80    8.29   0
  -3   6   3  285.48    8.70   0
  -3   7   4   68.83    6.73   0
  -3   9   7   14.02    7.17   0
  -2  -8  -2  168.35    8.21   0
  -1  -8  -1    8.23    6.15   0
  -1   7   5   21.02    7.15   0
  -1   9   8  317.28    9.57   0
   0  -9   1   72.14    7.08   0
   0  -8   0  221.43    8.50   0
   0  -4  -1  872.56   13.07   0
   0   8   7   87.43    6.60   0
   1  -4   0  935.23   12.86   0
   1   8   8    4.03    6.46   0
   1   9  10   10.64    7.03   0
   2  -6   2  415.20    8.96   0
   3   6   8   22.63    7.82   0
   4   5   9  308.58   13.37   0
   4   6  11   40.98   10.93   0
  -9   1  -1   25.54   10.79   0
  -7  -9  -4   55.36    9.24   0
  -7   0  -2  247.18   13.85   0
  -7   3   0   96.76    8.12   0
  -7   6   3   11.77    8.19   0
  -6  -8  -4  123.36    8.14   0
  -6   0  -2  458.02   16.11   0
  -6   3   0 1258.09   15.39   0
  -6   7   4   47.25    7.41   0
  -5 -10  -3   48.19    7.43   0
  -5   3   0  778.18   12.92   0
  -5   7   4  113.08    7.59   0
  -4  -9  -3   10.86    6.43   0
  -4   7   4   42.06    6.15   0
  -3 -10  -2   10.88    7.48   0
  -3  -7  -3  113.80    7.20   0
  -2 -10  -1  108.29    7.51   0
  -2   2   0 3676.45   29.05   0
  -2   8   6   21.96    6.62   0
  -1 -10   0   14.22    8.09   0
  -1   4   2    2.32    6.92   0
   0  -6  -1  452.42    9.85   0
   0  -5  -1  380.52    8.90   0
   0   9   9    4.38    7.51   0
   1  -5   0  363.64    8.61   0
   1  -3   0  827.95   13.63   0
   2   7   8  131.21    8.71   0
   2   8  10   29.57    8.10   0
   3  -6   4   21.08    6.51   0
   3  -5   3   46.05    7.53   0
   3   0   3 4063.40   48.85   0
   3   7  10   38.88    8.21   0
   4  -4   5   19.85    8.49   0
   5  -2   8   22.26   11.97   0
  -9  -5  -4   17.36   17.93   0
  -7   4   1   44.26    7.60   0
  -7   5   2   11.18    7.36   0
  -6  -5  -4   35.97    9.28   0
  -6   6   3   86.93    8.49   0
  -5   6   3    0.21    7.19   0
  -4   4   1  948.67   12.48   0
  -4   5   2    5.54    6.88   0
  -4   6   3   64.85    6.40   0
  -3  -8  -3    6.16    6.73   0
  -3  -4  -3  522.96   13.13   0
  -2  -9  -2   13.95    7.01   0
  -2  -2  -2   36.12   11.08   0
  -2   9   8   40.52    7.00   0
  -1  -9  -1    3.61    6.46   0
  -1  -6  -2   45.18    6.84   0
  -1  -5  -2  195.07    8.60   0
  -1   5   3    4.96    6.09   0
  -1   6   4   15.48    6.11   0
   0  -3  -1 1558.04   18.35   0
   0   7   6    7.04    6.32   0
   1  -8   1    3.67    6.27   0
   1  -6   0  101.05    6.82   0
   1   7   7  294.40    9.12   0
   2  -8   3  131.61    9.16   0
   2  -7   2   82.34    8.17   0
   2  -4   1   42.49    6.04   0
   2  -3   1 1936.94   19.67   0
   3   3   5  502.31   16.07   0
   3   5   7   81.33    9.39   0
   4   4   8   38.77   12.24   0
  -6  -9  -4    9.25    7.70   0
  -6   4   1  432.27   10.17   0
  -6   5   2  298.68    8.62   0
  -5  -8  -4    2.31    7.51   0
  -5  -7  -4   85.15    7.77   0
  -5  -6  -4  211.59   10.51   0
  -5   4   1  114.97    7.96   0
  -5   5   2  682.55   11.34   0
  -5   8   6   91.04    8.93   0
  -4 -10  -3   62.45    8.65   0
  -4   8   6   -0.55    8.11   0
  -3   8   6   13.12    6.74   0
  -2   7   5  132.26    6.97   0
  -1  -7  -2  168.26    8.22   0
  -1   8   7   66.81    6.70   0
  -1   9   9   13.07    7.96   0
   0  -9   0   90.48    7.46   0
   0  -7  -1   43.29    6.69   0
   0   9  10   -3.34    8.75   0
   1   8   9    7.56    7.63   0
   2  -5   1  199.39    7.12   0
   2   2   3  185.11   14.09   0
   2   6   7    7.93    8.00   0
   3   4   6    2.69    8.86   0
   3   7  11   19.55    9.49   0
   4   3   7  278.47   17.28   0
   5  -1   7  200.56   14.14   0
  -9   2   0   21.85    9.28   0
  -6 -10  -4    3.55    8.22   0
  -5  -9  -4   45.03    8.01   0
  -3  -9  -3  102.75    7.48   0
  -1  -4  -2   27.51    7.20   0
   0   3   2 3170.29   25.77   0
   0   6   5    7.41    6.03   0
   0   8   8   98.09    7.47   0
   1  -7   0    6.77    6.49   0
   1  -2   0  246.52   11.58   0
   1   2   2 1124.71   22.03   0
   2  -6   1  317.41    9.41   0
   2  -2   1  289.41   11.53   0
   3  -7   4  217.77    8.70   0
   3  -6   3   88.61    7.52   0
   3   6   9   32.15    8.90   0
   4  -5   5   41.37    8.77   0
   4  -3   4  213.64   10.29   0
   4  -2   4   50.06    9.76   0
   4   5  10   70.06   11.94   0
   5  -2   7  172.16   11.86   0
   5   0   7  147.01   16.74   0
  -8   1  -1  607.31   15.31   0
  -6   7   5   43.80    8.63   0
  -5  -5  -4    2.92    8.97   0
  -3   7   5    4.38    6.56   0
  -2 -10  -2   37.37    7.36   0
  -2   3   1  142.09    9.84   0
  -2   6   4   73.19    7.37   0
  -2   8   7  278.72    8.60   0
  -1 -10  -1    3.69    6.92   0
  -1  -8  -2  293.44    8.62   0
  -1   1   0 5371.60   47.51   0
   0  -8  -1   28.86    6.46   0
   0   5   4 1809.61   16.85   0
   1  -9   1   10.10    7.05   0
   1   6   6  304.94    8.82   0
   2  -8   2   23.99    7.81   0
   2   7   9  544.17   11.77   0
   3  -4   2  251.73    9.25   0
   3  -3   2  391.70   11.09   0
   4  -4   4    5.01    8.31   0
   5  -3   7   33.07   10.91   0
  -9  -1  -2  250.49   15.14   0
  -7  -4  -4   21.01   18.65   0
  -7   6   4   82.75    9.38   0
  -5 -10  -4    1.75    7.65   0
  -5   7   5  193.47    8.28   0
  -4  -8  -4   65.99    7.85   0
  -4  -7  -4  357.62   10.03   0
  -4   1  -1  420.72   13.37   0
  -4   7   5   23.74    6.67   0
  -3 -10  -3   75.34    7.67   0
  -3   8   7   16.85    8.23   0
  -2  -8  -3   38.29    7.44   0
  -2  -7  -3    4.80    6.02   0
  -2  -6  -3  345.11    8.63   0
  -2   4   2   61.86    7.95   0
  -2   5   3   87.99    6.56   0
  -1   7   6  173.71    7.85   0
   0 -10   0   22.18    7.79   0
   0   4   3 1792.06   17.76   0
   1  -8   0   -1.07    6.33   0
   1   8  10  146.57    9.08   0
   2  -7   1  207.66    7.84   0
   2   5   6  154.64    8.69   0
   3  -7   3   52.43    8.56   0
   3  -5   2  736.68   12.35   0
   4  -1   4   59.86   10.55   0
  -8   2   0  226.84   10.54   0
  -8   4   2   56.72    8.50   0
  -6   6   4  308.54   10.37   0
  -4  -9  -4    6.76    7.66   0
  -4  -6  -4   11.28    7.60   0
  -4   8   7   50.09    7.44   0
  -3   2   0  174.07   10.06   0
  -3   6   4  108.40    7.32   0
  -2  -5  -3 1090.70   14.28   0
  -1  -9  -2  106.51    7.12   0
  -1   8   8   23.45    6.77   0
   0  -9  -1   16.28    6.92   0
   0   7   7  360.38    8.78   0
   0   8   9  114.52    7.69   0
   1   5   5  126.94    7.15   0
   1   7   8   44.75    6.91   0
   2   4   5  189.27   10.17   0
   3  -6   2   13.08    7.61   0
   3  -2   2 1280.91   18.32   0
   4  -5   4    8.56    7.47   0
   4   5  11   13.02   11.40   0
  -8   3   1  172.82    9.26   0
  -7   1  -1  523.09   12.77   0
  -7   5   3  130.02    8.71   0
  -6  -4  -4   81.97   14.61   0
  -5   6   4   66.88    6.87   0
  -4 -10  -4   18.05    8.33   0
  -4   6   4   49.96    6.57   0
  -3   5   3   68.45    7.52   0
  -2  -9  -3  172.21    7.43   0
  -2   7   6  161.84    7.78   0
  -2   8   8  245.26    9.53   0
  -1  -3  -2 1481.42   19.61   0
  -1   6   5    7.24    6.44   0
   0  -2  -1 1010.29   20.47   0
   1  -9   0   19.90    7.31   0
   1  -6  -1  769.75   11.55   0
   1   3   3    2.05    8.26   0
   1   4   4  154.28    9.69   0
   2  -8   1   34.33    7.52   0
   2   3   4 1074.42   18.57   0
   2   6   8  285.98   10.36   0
   2   7  10  101.31    8.95   0
   3   5   8   36.37    8.67   0
   3   6  10   27.26    9.23   0
   5  -3   6   63.86   10.72   0
   5  -2   6  111.64   12.25   0
  -7  -9  -5   35.81    9.25   0
  -7  -8  -5   78.79   10.77   0
  -7   4   2    8.34    7.76   0
  -6   1  -1 1340.58   18.61   0
  -6   5   3   22.99    7.78   0
  -5   1  -1    5.83    8.15   0
  -4  -5  -4  661.88   14.43   0
  -3  -3  -3   74.54   10.59   0
  -3   3   1  322.16   10.16   0
  -3   4   2  719.21   11.40   0
  -3   7   6  137.40    8.40   0
  -2 -10  -3   60.05    8.28   0
  -2   0  -1 1154.25   31.78   0
  -1 -10  -2   96.04    7.86   0
  -1   8   9    5.06    7.96   0
   0 -10  -1   -1.61    6.75   0
   0  -7  -2  553.61   10.29   0
   0  -6  -2   60.88    6.56   0
   0   8  10   76.10    9.06   0
   1  -7  -1  172.15    7.66   0
   1  -5  -1   99.60    7.11   0
   2  -6   0   53.43    7.24   0
   2  -5   0  265.32    8.43   0
   3  -7   2   21.18    7.85   0
   4  -6   4  235.63    9.89   0
   4   4   9   35.58   11.55   0
   5  -4   6   30.46   10.51   0
   5  -1   6   78.57   13.35   0
  -8  -8  -5   20.93   10.33   0
  -7   2   0  108.16    8.29   0
  -7   3   1  485.43   11.12   0
  -6  -9  -5   96.75    9.74   0
  -6  -8  -5    3.50    8.24   0
  -5   5   3   31.96    6.34   0
  -5   7   6    9.67    7.11   0
  -4   2   0  156.86    9.30   0
  -4   5   3 1580.07   14.57   0
  -4   7   6   89.36    7.19   0
  -3  -9  -4   15.89    7.78   0
  -3  -8  -4   25.54    6.05   0
  -3  -7  -4    2.79    5.59   0
  -3   8   8   16.80    7.29   0
  -2  -4  -3  397.00   12.16   0
  -1   5   4  519.79    9.90   0
  -1   7   7   15.41    6.59   0
   0  -8  -2   81.64    6.90   0
   0  -5  -2   51.13    6.50   0
   0   6   6   26.37    6.26   0
   1  -8  -1  340.08    8.90   0
   1  -4  -1  119.90    8.84   0
   1   6   7   22.92    7.08   0
   1   7   9  430.05   10.87   0
   2  -9   1  178.37    9.41   0
   2  -7   0    6.16    7.23   0
   2  -4   0  721.03   12.32   0
   2   7  11   12.16    8.45   0
   3   6  11    9.09    9.42   0
   4  -4   3  518.17   11.88   0
  -9  -3  -3   -1.55   17.11   0
  -7  -7  -5    8.24   10.10   0
  -6 -10  -5   15.27    8.27   0
  -6   2   0  932.35   15.09   0
  -6   3   1   18.70    7.12   0
  -6   4   2   16.92    6.43   0
  -5   4   2  271.80    8.94   0
  -4   3   1  544.69   10.69   0
  -4   4   2  329.97    8.23   0
  -3 -10  -4   26.51    8.07   0
  -3  -6  -4  233.76    9.02   0
  -2 -11  -3    7.54    6.99   0
  -2   6   5  233.41    8.16   0
  -2   8   9   10.00    6.90   0
  -1  -8  -3   44.08    6.93   0
  -1  -7  -3   89.25    6.77   0
  -1  -6  -3   18.11    6.53   0
   0  -9  -2   18.91    6.57   0
   0   7   8    7.75    6.17   0
   3  -8   2  114.54    9.54   0
   4  -5   3   33.24    8.07   0
   4  -3   3   77.18    8.48   0
  -9   0  -1   66.83   10.41   0
  -8  -7  -5   15.79   11.07   0
  -8  -1  -2  736.27   19.64   0
  -6  -7  -5  169.54   10.10   0
  -6   6   5    6.42    6.79   0
  -5 -10  -5    9.17    7.77   0
  -5  -9  -5    8.38    7.54   0
  -5  -8  -5   72.89    8.85   0
  -5  -4  -4  154.49   12.88   0
  -5   2   0   12.52    7.10   0
  -5   3   1  232.11    9.13   0
  -3   6   5  958.72   11.83   0
  -3   8   9   31.04    7.51   0
  -2   7   7   33.53    6.65   0
  -1  -9  -3   54.23    6.71   0
  -1   2   1   15.07    9.11   0
  -1   4   3  125.38    7.55   0
  -1   8  10   52.07    7.76   0
   1  -9  -1   20.51    6.94   0
   1   7  10   17.22    8.32   0
   2  -8   0    4.03    6.36   0
   2  -1   1  117.35   11.43   0
   2   5   7  560.66   12.89   0
   2   6   9   -1.21    7.72   0
   3  -6   1   36.47    7.58   0
   3  -5   1    8.38    5.71   0
   3  -4   1  291.95    9.33   0
   3   4   7  200.72   11.46   0
   3   5   9   -0.84    9.29   0
   4  -6   3   22.82    7.83   0
   5  -3   5  145.22   11.18   0
  -9   1   0  198.57   10.93   0
  -9   2   1   11.91    9.21   0
  -8   4   3  191.58    9.44   0
  -7   5   4  113.81    9.35   0
  -5   6   5   45.11    6.55   0
  -5   7   7   33.96    7.38   0
  -4   6   5   20.72    6.59   0
  -4   7   7   72.37    8.54   0
  -3 -11  -4   -3.26    7.17   0
  -3   7   7  438.00    9.56   0
  -2  -8  -4   98.79    7.65   0
  -2   5   4   27.91    7.32   0
  -1 -10  -3  141.22    7.79   0
  -1   3   2   -0.57    6.67   0
  -1   6   6  194.65    8.53   0
  -1   7   8  241.85    9.20   0
   0 -10  -2   59.34    7.45   0
   0  -4  -2 1205.94   15.04   0
   0   5   5 1032.36   12.86   0
   1 -10  -1    7.84    8.16   0
   1   5   6  151.63    8.43   0
   2  -9   0   55.10    8.45   0
   2  -3   0  718.04   13.86   0
   3  -7   1   44.84    7.13   0
   4  -7   3   24.39    8.56   0
   4  -2   3  334.54   12.34   0
   4   4  10    3.29   11.12   0
   5  -4   5   13.84    9.17   0
  -5  -7  -5    0.64    8.04   0
  -4  -9  -5   19.43    7.73   0
  -2 -10  -4   91.26    8.58   0
  -2  -9  -4   90.01    7.09   0
  -2  -7  -4   26.33    6.79   0
  -1  -5  -3    7.28    6.50   0
   0   7   9   39.97    7.28   0
   1   6   8   23.40    7.65   0
   1   7  11  217.51   10.11   0
   3  -8   1   93.33    9.02   0
   3  -1   2 1687.89   24.57   0
   4   3   8  137.94   14.56   0
   5  -5   5  200.60   10.30   0
   5  -2   5   52.36   11.24   0
  -8   3   2   10.79    8.05   0
  -7  -6  -5   23.06   12.61   0
  -7   4   3   38.22    8.02   0
  -6   5   4   29.31    6.94   0
  -5   5   4    1.08    7.32   0
  -4 -10  -5   32.41    7.07   0
  -4  -8  -5  351.70   10.25   0
  -3  -5  -4    2.04    7.27   0
  -3   5   4   27.72    6.45   0
  -2   6   6   98.05    8.14   0
  -2   7   8   19.36    7.98   0
  -1 -11  -3   37.80    7.77   0
   0   6   7   97.05    7.05   0
   1  -8  -2  233.18    9.13   0
   1  -7  -2  223.60    8.31   0
   1  -3  -1  140.68    8.54   0
   2  -7  -1   92.73    8.19   0
   2   6  10   26.74    8.27   0
   3  -3   1  540.65   11.66   0
   3   5  10   -2.88    9.73   0
   4  -6   2   60.87    8.23   0
   4  -5   2  201.98    8.89   0
   4   4  11    6.64   12.13   0
  -8   0  -1  601.66   15.23   0
  -8   2   1    2.11    8.57   0
  -6  -6  -5    9.09    9.57   0
  -6   6   6   71.95    7.96   0
  -4  -7  -5   37.74    8.36   0
  -4   5   4  104.21    7.28   0
  -4   7   8   56.99    8.57   0
  -3   7   8    2.80    7.08   0
  -2 -11  -4  229.42    8.85   0
  -2  -6  -4 1065.31   13.50   0
  -2   4   3  789.47   12.02   0
  -1   7   9    6.34    8.00   0
   0  -9  -3  639.76   10.53   0
   0  -8  -3  272.85    8.37   0
   0  -7  -3  312.96    8.94   0
   0   4   4  233.31    9.30   0
   0   7  10  115.11    9.03   0
   1  -9  -2   86.77    7.68   0
   1  -6  -2   16.92    6.57   0
   1  -1   0 5102.19   47.70   0
   2  -8  -1  124.60    7.19   0
   2  -6  -1   62.90    6.69   0
   2   4   6 1116.36   16.94   0
   2   6  11   30.71   10.08   0
   3   3   6   30.19   10.10   0
   4  -7   2  228.32   10.07   0
   4  -4   2  300.01   10.01   0
   4   0   4  853.58   26.37   0
   5   0   6   17.30   18.39   0
  -8  -6  -5   13.56   14.81   0
  -8   1   0   44.15    9.14   0
  -7  -1  -2    2.35   11.65   0
  -7   5   5    5.19    8.81   0
  -6   4   3   43.35    7.75   0
  -5  -6  -5  242.87   12.10   0
  -5   6   6   13.01    6.77   0
  -4  -4  -4   10.89   10.01   0
  -4   6   6  371.56    9.25   0
  -3 -10  -5   80.31    8.50   0
  -3  -9  -5   14.68    7.84   0
  -3   6   6  165.82    7.69   0
  -1  -9  -4  152.95    8.53   0
  -1   5   5   85.46    6.66   0
   0 -10  -3   67.20    7.74   0
   0  -6  -3  135.76    7.98   0
   0   7  11    7.43    8.94   0
   1 -10  -2   12.99    7.07   0
   1   4   5  145.31    8.96   0
   1   6   9  273.68    9.94   0
   2  -9  -1    0.90    6.92   0
   2  -5  -1 1229.50   13.78   0
   2   5   8  153.11    8.69   0
   3  -7   0   54.44    7.69   0
   3  -6   0  658.76   11.38   0
   3   5  11  353.73   13.49   0
   5  -5   4   21.05    8.76   0
   5  -4   4   83.02    8.85   0
  -8   4   4    3.05    8.57   0
  -7   3   2    3.72    7.98   0
  -5   4   3  227.46    8.87   0
  -4   4   3   18.34    6.78   0
  -3 -11  -5   65.01    8.02   0
  -3  -8  -5    3.90    7.66   0
  -3   4   3    2.42    5.97   0
  -3   7   9    2.01    8.60   0
  -2   3   2  325.84    9.99   0
  -2   7   9    1.16    7.19   0
  -1 -10  -4   49.03    7.47   0
  -1  -8  -4  236.70    8.28   0
  -1  -4  -3  735.30   14.53   0
  -1   6   7    5.52    6.85   0
  -1   7  10  123.42    9.81   0
   0   3   3  665.23   14.29   0
   0   6   8 1412.89   15.43   0
   1  -5  -2  292.94    8.83   0
   3  -8   0   30.50    7.55   0
   3  -5   0  219.30    8.48   0
   3   4   8   18.87    9.75   0
   4  -3   2  181.97   10.07   0
   5  -3   4   59.47    9.24   0
  -7  -9  -6   -2.27    9.33   0
  -7   2   1  144.33    9.59   0
  -6  -9  -6   15.63    9.30   0
  -6   5   5   54.39    8.66   0
  -6   6   7   27.75    7.57   0
  -2  -3  -3 1821.60   23.93   0
  -2   1   0 2210.95   27.67   0
  -2   2   1 1376.47   18.56   0
  -2   5   5    5.74    7.50   0
  -2   6   7  175.30    8.97   0
  -2   7  10   48.67    9.24   0
  -1 -11  -4   59.38    7.85   0
  -1  -7  -4    7.48    6.05   0
   0  -3  -2 3077.31   26.17   0
   0   5   6   96.58    6.60   0
   1   5   7   11.27    7.47   0
   3  -9   0   87.85    8.36   0
   5  -1   5  103.11   13.83   0
  -9   2   2   25.33    8.83   0
  -7   0  -1   12.53    9.39   0
  -7   1   0  178.23    9.83   0
  -6   3   2 1227.02   14.04   0
  -5 -10  -6   13.72    8.27   0
  -5  -9  -6   51.31    9.21   0
  -5   5   5  196.97    9.03   0
  -5   6   7   21.38    7.50   0
  -4  -6  -5  411.60   12.48   0
  -4   6   7  395.76   10.56   0
  -3  -7  -5  180.15    8.94   0
  -3   3   2   25.63    7.96   0
  -3   5   5  130.76    8.60   0
  -3   6   7    8.54    7.62   0
  -2 -10  -5   44.73    8.63   0
  -2  -9  -5   74.94    7.88   0
  -2  -5  -4  144.11    8.42   0
  -1  -2  -2 1125.47   23.14   0
  -1   4   4 1187.88   14.75   0
   0  -5  -3   78.10    8.12   0
   1   6  10    6.81    6.80   0
   2  -4  -1  136.07    7.95   0
   2  -2   0 3846.52   30.59   0
   2   5   9   15.39    8.84   0
   3  -4   0 1176.65   14.40   0
   3  -2   1  215.52   11.22   0
   4  -7   1   31.25    8.63   0
   4  -6   1   -1.95    7.86   0
   4  -1   3   46.98   10.31   0
   4   3   9  269.08   16.02   0
   5  -6   3  105.80   10.32   0
   5  -5   3   13.95    8.87   0
  -8   3   3   34.25    8.26   0
  -7   4   4   55.44    7.40   0
  -7   5   6   44.79    7.82   0
  -6  -1  -2   33.50   11.36   0
  -5   3   2   87.23    7.95   0
  -4 -10  -6   -1.13    7.99   0
  -4   3   2   24.69    6.94   0
  -4   5   5  260.77    8.40   0
  -2 -11  -5   16.78    8.04   0
  -2  -8  -5   36.07    7.68   0
  -1  -6  -4    0.57    6.78   0
  -1   6   8    0.06    6.52   0
   0   2   2 3099.90   31.21   0
   0   6   9  108.91    8.88   0
   1 -10  -3  154.71    9.26   0
   1  -9  -3  114.99    7.80   0
   1  -8  -3   78.40    7.13   0
   1   3   4   20.70    9.83   0
   1   6  11   49.81    9.13   0
   2  -9  -2  133.39    7.99   0
   2  -8  -2  106.85    7.59   0
   2  -7  -2 1312.16   14.28   0
   2   3   5 1411.28   20.39   0
   4  -8   1  101.30    8.33   0
   4  -5   1   -1.24    7.49   0
   5  -4   3    4.86    8.54   0
   5  -2   4  163.31   11.92   0
  -9  -2  -2    4.37   12.22   0
  -9   1   1    6.57    8.47   0
  -7  -8  -6   41.81   10.79   0
  -6  -8  -6  106.36    9.89   0
  -6   2   1  202.51    9.46   0
  -6   4   4   16.95    7.80   0
  -5   6   8   42.32    8.76   0
  -4  -9  -6  122.82    8.90   0
  -2   6   8  289.97    9.54   0
  -1   5   6  372.67    9.13   0
   0 -10  -4  214.85    8.64   0
   0  -9  -4   34.42    6.99   0
   0  -8  -4  146.28    8.60   0
   1  -7  -3  234.78    8.58   0
   1  -4  -2    3.78    6.48   0
   2 -10  -2    6.67    7.69   0
   2  -6  -2  648.86   11.32   0
   3  -9  -1   15.17    8.53   0
   3  -8  -1   14.49    6.77   0
   3  -7  -1  113.44    7.21   0
   3   4   9   20.00    9.88   0
   6  -2   7    3.84   14.15   0
  -9   0   0   72.90   10.19   0
  -6   1   0  158.56   10.22   0
  -6   5   6  120.41    8.16   0
  -5  -8  -6    6.13    7.36   0
  -5   2   1  515.15   11.39   0
  -4  -1  -2   20.51   14.51   0
  -4   6   8   13.43    7.28   0
  -3  -6  -5   52.61    8.83   0
  -3  -4  -4  957.22   17.44   0
  -3   2   1   34.62    7.89   0
  -3   6   8    7.65    6.86   0
  -2  -7  -5  489.45   10.59   0
  -2   4   4  145.89    7.71   0
  -1 -10  -5   95.60    8.80   0
  -1   6   9  212.34    9.49   0
   0   4   5    0.61    7.53   0
   0   5   7  119.62    7.98   0
   0   6  10  109.73    8.21   0
   1   5   8   76.90    8.25   0
   2   4   7    0.62    7.80   0
   2   5  10   20.88    8.10   0
   3  -6  -1  225.93    8.30   0
   3   2   5  182.69   14.35   0
   4  -4   1   55.97    7.96   0
   4   2   7    7.03   13.90   0
   4   3  10    1.04   12.01   0
   6  -3   6   45.40   12.64   0
  -9  -1  -1   87.45   11.40   0
  -8   2   2   15.25    8.06   0
  -7   3   3    1.59    6.83   0
  -6   0  -1   47.86    9.65   0
  -5  -1  -2  221.40   15.13   0
  -5   4   4 1008.93   12.07   0
  -5   5   6  370.63    9.41   0
  -4  -8  -6   22.41    8.82   0
  -4   2   1    6.33    6.57   0
  -3 -11  -6   26.70    8.05   0
  -3 -10  -6   -0.18    6.82   0
  -3   0  -1   21.44   10.99   0
  -3   1   0  105.67   10.52   0
  -3   4   4   65.74    7.49   0
  -2   5   6  862.29   11.68   0
  -2   6   9  159.13    9.08   0
  -1 -11  -5  202.31    8.84   0
  -1  -9  -5   46.45    6.88   0
  -1   3   3 1718.44   18.44   0
   0  -7  -4  134.69    7.41   0
   0   6  11   69.53    9.38   0
   1  -6  -3  497.66    9.81   0
   1  -2  -1   14.68    9.36   0
   1   4   6  266.04    9.54   0
   2   5  11   14.31    8.97   0
   3   4  10  347.86   13.52   0
   4  -8   0   73.99    9.14   0
   4  -7   0   10.53    8.13   0
   4  -2   2   59.67    9.16   0
   4   3  11   38.97   13.87   0
   5  -7   2  115.64    9.65   0
   5  -6   2  121.19    9.26   0
   5  -3   3  680.97   14.29   0
  -9   2   3   40.89    8.90   0
  -7   4   5    2.71    7.65   0
  -6  -5  -5  175.83   16.22   0
  -6   5   7   60.61    8.75   0
  -5   1   0   49.31    8.86   0
  -4   4   4  184.26    7.69   0
  -4   5   6   33.56    6.97   0
  -4   6   9   19.36    7.72   0
  -3  -9  -6   78.95    7.60   0
  -3   5   6    9.79    6.51   0
  -3   6   9   34.82    7.55   0
  -1  -8  -5    8.15    6.80   0
  -1   6  10   81.25    8.26   0
   1   5   9   72.27    9.22   0
   2  -5  -2  654.33   10.97   0
   3  -5  -1  626.05   11.12   0
   3  -3   0   42.43    8.57   0
   3   3   7   33.44   10.49   0
   3   4  11    4.54   10.79   0
   4  -6   0  203.02    8.00   0
   5  -5   2   69.72    8.75   0
   6  -4   5  272.71   12.63   0
  -8   1   1  616.26   13.15   0
  -8   3   4   31.19    7.61   0
  -6  -7  -6  123.44   11.52   0
  -6   3   3   63.55    8.00   0
  -5  -5  -5   10.51   10.30   0
  -5   0  -1   82.17   10.27   0
  -4   1   0  242.32   11.00   0
  -3   6  10  166.15    9.75   0
  -2 -11  -6  102.16    9.49   0
  -2 -10  -6   62.54    8.96   0
  -2   6  10   42.86    7.32   0
  -1  -5  -4  656.52   12.07   0
  -1   5   7   29.49    6.76   0
  -1   6  11    7.55    7.86   0
   0  -6  -4  294.73    9.07   0
   0  -4  -3 1838.12   18.53   0
   1 -10  -4   42.05    7.53   0
   1  -9  -4  455.09    9.80   0
   2 -10  -3   35.60    7.57   0
   2  -9  -3    5.76    6.89   0
   2  -8  -3  465.93    9.81   0
   2  -3  -1  142.00    9.22   0
   3  -9  -2   40.95    8.04   0
   6  -2   6   28.20   13.34   0
  -8  -3  -3    6.54   14.82   0
  -7  -7  -6    3.54   11.91   0
  -7   2   2  214.36    9.43   0
  -6   4   5  411.29   10.22   0
  -5  -7  -6    6.70    8.60   0
  -5   5   7    8.01    7.17   0
  -4   0  -1 2354.30   28.50   0
  -3  -8  -6  261.63    9.54   0
  -2  -9  -6   18.17    7.97   0
  -2  -6  -5    9.69    7.02   0
  -2   5   7    6.10    7.78   0
  -1  -7  -5  248.46    8.73   0
  -1   4   5  510.62   10.26   0
   0 -11  -5   20.33    7.63   0
   0 -10  -5   72.27    7.67   0
   0   5   8 1552.83   15.46   0
   1  -8  -4  179.18    7.83   0
   1  -5  -3    2.50    6.35   0
   1   2   3 3239.20   33.74   0
   1   5  10   54.05    8.45   0
   2  -7  -3   13.42    7.74   0
   2   4   8   24.57    9.28   0
   3  -8  -2  332.05    9.00   0
   3  -7  -2  243.37    8.76   0
   4  -5   0  164.99    7.74   0
   4  -3   1  416.66   11.09   0
   5  -7   1  142.22    9.28   0
   5  -4   2   83.29    8.49   0
   6  -5   4   25.12   10.69   0
   6  -3   5   14.17   10.62   0
 -10  -3  -2    5.56   13.11   0
 -10  -2  -1   23.56   12.10   0
  -9   1   2   10.61    9.71   0
  -8   0   0   84.68    9.66   0
  -7   3   4  140.66    9.24   0
  -7   4   6   15.62    7.51   0
  -5 -10  -7   67.43    9.13   0
  -5   3   3   37.41    6.29   0
  -5   4   5  211.15    9.16   0
  -4  -7  -6    6.55    8.35   0
  -4  -5  -5  355.13   12.38   0
  -4   5   7   99.78    7.57   0
  -3   5   7  209.16    8.12   0
  -2  -4  -4 1254.67   18.36   0
  -2   3   3 3218.90   22.69   0
  -1  -3  -3    2.81    8.92   0
   0  -9  -5  406.28    9.41   0
   1   5  11   -1.44    8.74   0
   2   2   4  473.90   16.42   0
   4  -8  -1    9.62    8.73   0
   5  -6   1   18.59    8.06   0
   5   1   9   -0.23   18.14   0
   6  -4   4    5.56   10.79   0
   6  -1   7   19.97   19.99   0
  -8   2   3    6.26    8.26   0
  -8   3   5  118.69    9.74   0
  -5   5   8   13.90    7.32   0
  -4 -10  -7   17.21    8.45   0
  -4   3   3   -0.90    5.73   0
  -4   4   5   43.37    7.86   0
  -3   3   3  268.55    8.87   0
  -2   4   5   62.16    6.79   0
  -1 -11  -6   20.82    7.52   0
  -1 -10  -6   12.65    8.42   0
  -1   2   2  575.93   14.85   0
  -1   5   8  766.81   11.48   0
   0  -8  -5   96.58    7.69   0
   0   3   4   12.54    9.20   0
   0   4   6   23.53    7.26   0
   0   5   9  117.07    8.92   0
   1  -7  -4   46.44    7.09   0
   1  -3  -2    0.37    6.98   0
   1   4   7    8.16    7.78   0
   3  -6  -2  107.87    8.17   0
   3  -4  -1    6.46    6.09   0
   4  -7  -1  165.53    7.91   0
  -8  -2  -2   14.36   11.89   0
  -8  -1  -1   18.71    9.97   0
  -7   1   1   52.50    8.08   0
  -6  -9  -7    2.60    9.40   0
  -6   2   2    6.92    6.27   0
  -6   4   6  322.29    9.43   0
  -5  -9  -7   40.55    9.68   0
  -4   5   8    3.25    7.30   0
  -3  -7  -6   96.82    9.47   0
  -3   4   5  284.01    9.10   0
  -3   5   8    9.46    8.00   0
  -2  -8  -6   11.30    6.62   0
  -2   5   8   33.34    7.15   0
   0   5  10   13.69    8.22   0
   2 -10  -4    3.38    8.66   0
   2  -6  -3  295.32    8.78   0
   2  -4  -2   60.21    7.18   0
   2   3   6  660.13   15.09   0
   2   4   9    3.73    8.13   0
   4  -6  -1  134.19    8.35   0
   4  -4   0   39.07    8.11   0
   5  -5   1  110.78    8.80   0
   5  -2   3   59.83   10.43   0
   5  -1   4   26.22   11.91   0
   6  -5   3  197.44   11.50   0
  -9   0   1  100.53   10.56   0
  -8  -7  -6   70.14   16.53   0
  -6   3   4  301.53    8.86   0
  -5   4   6   13.72    7.97   0
  -4  -9  -7  124.27    9.11   0
  -4   5   9   53.14    7.62   0
  -3 -10  -7    2.59    7.92   0
  -3  -5  -5   -1.40    7.37   0
  -1  -9  -6    7.85    6.68   0
  -1  -6  -5  700.22   11.54   0
  -1   5   9   24.02    6.88   0
   0  -5  -4 1814.92   17.36   0
   0   5  11    3.73    7.71   0
   1 -10  -5    5.57    7.34   0
   1   3   5  889.99   15.37   0
   2  -9  -4  116.77    7.98   0
   2   4  10  105.42    9.98   0
   2   4  11  131.36   11.22   0
   3  -9  -3   35.31    7.63   0
   3   3   8  606.68   15.17   0
   5  -7   0   23.39    8.57   0
   5  -3   2   11.87    9.15   0
   6  -3   4    9.02   10.85   0
  -7   2   3  557.37   11.52   0
  -7   3   5  156.06    8.23   0
  -6   4   7   15.69    7.65   0
  -5   2   2    8.39    7.12   0
  -3   5   9  207.61    8.65   0
  -2   5   9   89.19    7.68   0
  -1   4   6   30.95    6.20   0
  -1   5  10  386.13    9.78   0
  -1   5  11   93.24    9.81   0
   0  -7  -5   29.11    6.38   0
   1  -9  -5   39.70    7.32   0
   1  -6  -4   13.57    6.69   0
   2  -8  -4   95.46    7.43   0
   3  -8  -3   79.84    7.71   0
   3  -5  -2  257.88    8.76   0
   4  -9  -2   40.28    8.02   0
   4  -8  -2   40.84    8.85   0
   4   2   8   68.44   14.17   0
   5  -6   0   45.54    8.75   0
   6  -6   2  110.57   10.82   0
   6  -4   3   60.07   10.70   0
   6  -2   5   15.21   12.71   0
  -9   1   3   73.70    9.18   0
  -8   1   2   27.33    8.01   0
  -8   2   4  298.57   10.19   0
  -7   0   0  205.71   10.59   0
  -6   1   1    7.99    8.58   0
  -5   3   4   18.90    6.62   0
  -4   2   2  691.65   12.40   0
  -4   4   6  142.52    7.58   0
  -3  -9  -7    2.47    8.03   0
  -3   4   6   23.87    8.14   0
  -3   5  10   24.99    7.49   0
  -2 -10  -7   85.87    9.11   0
  -2  -7  -6  436.78   10.49   0
  -2   2   2 1727.70   19.20   0
  -2   4   6  161.16    8.89   0
  -2   5  10    8.68    7.79   0
  -2   5  11   35.14    8.10   0
  -1  -8  -6    8.85    6.77   0
  -1   3   4    4.24    6.85   0
   0 -10  -6   40.04    7.80   0
   0  -2  -2 3126.89   31.75   0
   0   4   7  595.15   11.73   0
   1  -8  -5   35.52    8.01   0
   1  -4  -3  129.64    7.82   0
   1   4   8  181.17    9.23   0
   3  -7  -3  689.90   11.01   0
   3  -1   1  680.50   17.25   0
   3   3   9   34.25   10.21   0
   4  -5  -1 1677.62   16.67   0
   5  -4   1  531.59   11.99   0
  -9  -1   0   25.42    9.47   0
  -7   3   6    7.70    8.48   0
  -6  -8  -7    3.19   10.03   0
  -6   3   5    6.12    7.65   0
  -6   4   8   11.67    8.10   0
  -5  -8  -7   11.20    8.90   0
  -5  -6  -6  183.21   12.20   0
  -5   4   7   -3.24    7.42   0
  -4   3   4    2.54    7.07   0
  -3   2   2  414.14   11.08   0
  -2  -5  -5   -7.02    7.19   0
  -1  -4  -4  156.17    9.02   0
   0  -9  -6   77.50    7.36   0
   1   4   9   22.20    8.82   0
   2  -7  -4 1062.95   12.67   0
   2  -5  -3   87.23    7.15   0
   3  -2   0  167.09   10.72   0
   3   3  10    0.30   10.39   0
   3   3  11   30.27   10.70   0
   4  -7  -2   24.14    7.33   0
   5  -8  -1  258.66   11.05   0
   6  -5   2    8.50    9.67   0
  -6   2   3   87.18    8.49   0
  -5   4   8    6.36    8.61   0
  -4  -8  -7    5.60    8.00   0
  -4  -6  -6   13.32    9.10   0
  -4   4   7  417.63    9.51   0
  -3   3   4  185.76    8.06   0
  -2  -9  -7   25.02    8.01   0
  -2   3   4 1725.95   16.83   0
  -1   4   7   70.55    7.95   0
   1   4  10    4.61    8.06   0
   1   4  11   13.91    9.08   0
   2 -10  -5   56.01    7.71   0
   3  -3  -1  313.47   10.67   0
   4  -2   1  713.50   14.34   0
   4  -1   2 1770.47   25.48   0
   4   2   9   92.81   14.03   0
   4   2  10   61.08   13.59   0
   5  -7  -1   16.31    8.20   0
   5  -5   0   92.43    8.44   0
  -9  -2  -1   42.98   10.67   0
  -8   0   1    4.16    9.15   0
  -8   2   5  142.74   10.18   0
  -7  -8  -7   49.44   13.31   0
  -7  -1  -1    4.69    9.70   0
  -7   2   4  181.77    9.45   0
  -7   3   7   12.02    8.95   0
  -6  -6  -6   13.05   12.22   0
  -5   1   1    7.74    7.29   0
  -5   4   9  197.56   10.29   0
  -3  -8  -7  110.64    8.91   0
  -3  -6  -6   50.60    9.40   0
  -3   4   7   13.23    6.67   0
  -2   4   7 1704.01   15.31   0
  -1 -10  -7  277.58    9.81   0
  -1  -7  -6   13.78    7.28   0
   0  -8  -6  184.20    8.74   0
   0  -6  -5    3.14    5.94   0
   0  -3  -3  687.81   13.75   0
   0   3   5  537.99   12.50   0
   0   4   8   12.78    6.86   0
   1 -10  -6   30.68    8.84   0
   1  -7  -5    9.19    6.53   0
   2  -9  -5   59.50    7.72   0
   2  -2  -1 1356.16   18.97   0
   2  -1   0 2159.50   28.85   0
   2   3   7   60.52    8.35   0
   3  -9  -4    9.27    7.50   0
   3  -6  -3  273.64    8.64   0
   3   2   6  321.37   14.70   0
   4  -9  -3   18.24    7.58   0
   4  -6  -2  583.85   10.65   0
   4  -3   0 1672.81   18.44   0
   6  -6   1   53.96    8.87   0
  -9   0   2  209.15   10.63   0
  -8   1   3  192.89    9.68   0
  -7   1   2    9.12    7.64   0
  -6   0   0   41.96    9.03   0
  -6   3   6  168.29    8.13   0
  -5   3   5    4.67    6.91   0
  -4 -10  -8    9.13    8.66   0
  -4   4   8  146.07    8.38   0
  -1   1   1 3200.49   35.15   0
  -1   4   8  418.93   10.57   0
   0   2   3 3484.07   30.08   0
   0   4   9   33.54    8.02   0
   0   4  11    4.85    8.90   0
   1  -5  -4  514.24   10.42   0
   1   3   6   26.85    8.28   0
   2  -6  -4   66.51    7.65   0
   3  -8  -4    7.72    7.03   0
   3  -4  -2  681.13   11.86   0
   4  -8  -3   11.62    7.06   0
   4  -4  -1 1029.37   13.78   0
   5  -6  -1  374.00   10.93   0
   6  -4   2    0.56    8.81   0
   6  -3   3   99.48   10.36   0
  -9  -3  -2    5.16   12.23   0
  -5   2   3   84.76    7.40   0
  -4   3   5 1083.20   13.62   0
  -4   4   9   61.17    7.92   0
  -4   4  10    3.63    8.09   0
  -3 -10  -8   11.87    8.69   0
  -3   4   8  219.88    8.69   0
  -2  -8  -7    5.52    7.59   0
  -2   4   8  185.48    8.34   0
  -1  -9  -7   83.73    7.69   0
  -1  -5  -5  136.83    7.45   0
  -1   4   9   -1.04    7.99   0
   0   4  10   79.09    7.83   0
   1  -9  -6    8.11    6.89   0
   2  -8  -5   50.60    7.11   0
   2  -3  -2  315.23    9.93   0
   2   3   8  674.47   14.56   0
   3   0   2    1.61   12.26   0
   5  -8  -2    4.03    9.40   0
   5  -3   1  197.62   10.88   0
   5  -2   2  431.35   13.58   0
   6  -7   0  260.07   11.09   0
   6  -5   1   18.65    9.63   0
   6  -2   4  396.33   15.92   0
  -7  -2  -2   21.78   11.45   0
  -7   2   5   25.81    8.54   0
  -6   3   7   -1.93    7.29   0
  -5   3   6  102.18    8.45   0
  -4   1   1  151.99    9.63   0
  -3   3   5  218.93    9.27   0
  -3   4   9   45.54    7.66   0
  -3   4  10   17.03    7.40   0
  -2  -6  -6    2.90    7.51   0
  -2   4   9  153.54    8.15   0
  -2   4  10  120.61    9.42   0
  -2   4  11  253.69    9.70   0
  -1   3   5  390.77   10.01   0
  -1   4  10   71.37    7.87   0
  -1   4  11    5.21    8.18   0
   0 -10  -7   14.83    7.72   0
   0  -4  -4  242.47    9.54   0
   1   1   2  737.57   26.03   0
   2   3  11   42.30   10.44   0
   3  -7  -4   68.31    7.45   0
   4  -7  -3  267.40    8.89   0
   4  -5  -2    3.73    7.50   0
   5  -4   0  125.17    8.89   0
 -10  -3  -1    6.40   11.52   0
  -9  -1   1    7.48    9.70   0
  -8  -1   0    6.13    8.79   0
  -6   1   2   11.63    7.33   0
  -6   2   4   24.05    6.32   0
  -6   3   8   35.42    7.78   0
  -5  -9  -8    5.75    9.47   0
  -4  -9  -8   27.44    9.63   0
  -4  -7  -7   18.31    8.64   0
  -4   2   3  308.50    9.42   0
  -3   1   1  140.10   10.36   0
  -2 -10  -8   42.32    9.23   0
  -2   1   1 2992.80   29.61   0
  -2   3   5   96.28    7.42   0
   0  -7  -6    5.65    6.64   0
   1  -8  -6  637.72   10.95   0
   1  -6  -5    7.68    6.47   0
   2 -10  -6  225.33    9.28   0
   2  -7  -5  127.86    8.53   0
   2  -4  -3  800.31   12.33   0
   2   3   9   77.27    9.50   0
   2   3  10    5.27    9.94   0
   3  -9  -5   79.05    9.25   0
   3  -5  -3   65.57    7.02   0
   4  -9  -4   19.29    9.01   0
   5  -7  -2   21.46    7.55   0
   5  -5  -1  208.88    9.34   0
   6  -6   0   14.08    8.39   0
   7  -4   4   75.82   12.36   0
  -9   0   3   83.58    9.46   0
  -8   1   4    8.47    7.47   0
  -7   0   1    3.20    7.76   0
  -7   1   3    4.24    7.85   0
  -7   2   6   10.27    8.68   0
  -6  -9  -8   -5.45   11.25   0
  -5  -7  -7  158.38   10.86   0
  -5   3   7    4.32    7.09   0
  -4   3   6    2.66    6.74   0
  -3  -9  -8  117.14    9.19   0
  -3  -7  -7   28.89    8.54   0
  -1  -8  -7   70.88    7.14   0
  -1   2   3  117.32    8.60   0
   0  -9  -7   63.41    7.36   0
   0   3   6 1310.20   15.71   0
   1   2   4  481.70   14.60   0
   1   3   7  102.64    8.75   0
   2  -9  -6   12.63    8.59   0
   2   2   5  819.58   18.00   0
  -8   0   2   33.69    8.25   0
  -7   2   7   -1.89    8.47   0
  -6  -1  -1  228.87   11.85   0
  -6   2   5   58.25    8.02   0
  -5   0   0   19.01    8.91   0
  -5   2   4  145.90    8.51   0
  -5   3   8  193.48    8.76   0
  -5   3   9   15.68    8.93   0
  -3   2   3  949.73   13.63   0
  -3   3   6   13.42    8.57   0
  -2   2   3  276.32    9.63   0
  -1 -10  -8   19.82    9.23   0
  -1  -6  -6  309.95    8.90   0
   0  -5  -5  998.55   13.24   0
   1 -10  -7    4.44    7.41   0
   1  -2  -2  618.39   15.16   0
   1   3  11   35.03    9.81   0
   2  -5  -4   29.28    6.63   0
   3  -8  -5   59.51    7.45   0
   3  -6  -4  121.12    8.54   0
   3   2  11   32.01   11.86   0
   4  -8  -4   84.76    8.01   0
   4  -6  -3   50.65    7.32   0
   5  -6  -2   89.11    8.79   0
   6  -7  -1   65.51    9.42   0
   6  -4   1  224.51   10.84   0
   6  -3   2    4.39    9.34   0
  -8   1   5  147.15    9.11   0
  -4   3   7   23.34    6.89   0
  -2  -9  -8  102.40    8.73   0
  -2  -7  -7   60.50    8.30   0
  -2   3   6   47.46    6.57   0
  -1   3   6    1.04    6.07   0
   0  -8  -7   93.84    8.05   0
   1  -7  -6  183.96    9.18   0
   1  -3  -3 1673.98   18.06   0
   1   3   8    7.50    7.86   0
   1   3   9    6.42    8.89   0
   1   3  10  487.31   11.83   0
   5  -8  -3   26.39    7.87   0
   6  -5   0  135.87    9.35   0
  -6   2   6  316.27    9.89   0
  -5   1   2   -0.19    6.84   0
  -4   3   8   55.85    7.82   0
  -4   3   9   19.31    7.80   0
  -4   3  10   16.97    7.94   0
  -3   3   7  950.85   13.06   0
   0   3   7  175.49    8.99   0
   0   3  11   23.63    9.18   0
   1  -9  -7   53.65    7.54   0
   1  -4  -4 1113.89   14.49   0
   2  -8  -6   21.96    7.23   0
   2  -6  -5  245.50    9.57   0
   4  -7  -4   39.17    7.08   0
   4  -3  -1  561.12   11.32   0
   6  -6  -1    8.79    8.39   0
   7  -5   2  144.36   10.18   0
  -7   1   4    6.38    7.14   0
  -4   2   4  173.85    7.64   0
  -3   3   8   49.11    7.55   0
  -3   3  10   89.13    8.21   0
  -2   3   7 2354.08   17.74   0
  -2   3  11    8.05    8.26   0
  -1  -9  -8   13.22    7.27   0
  -1   3   7   58.63    6.61   0
   0 -10  -8  132.37    8.42   0
   0  -6  -6   25.56    6.50   0
   3  -7  -5    5.61    6.88   0
   4  -9  -5   27.97    7.92   0
   4  -4  -2  325.59    8.64   0
   5  -7  -3    7.20    7.41   0
;
_shelx_hkl_checksum              99363
_shelx_res_file
;
    mhne3_23.res created by SHELXL-2014/7
REM TRY     87   FINAL CC 79.81   TIME      12 SECS
REM Fragments: 13 6
REM
TITL mhne3_23 in P-1
CELL 0.71073   8.2090   9.1804   9.5617  65.128  83.198  78.854
ZERR    2.00   0.0015   0.0017   0.0017   0.014   0.015   0.014
LATT  1
SFAC C H N O S
UNIT 20 34 6 6 2
SIZE 0.23 0.10 0.08
REM colorless plate
ACTA 50
L.S. 10
BOND $H
CONF
FMAP 2
PLAN 10
TEMP -100
OMIT -3 3 3
EQIV $1 -x+1, -y+1, -z+1
EQIV $2 -x+2, -y, -z+1
HTAB N1A O21X
HTAB N3A O41A_$1
RTAB SCON S21A S21A_$2
RTAB SCON C2A S21A S21A_$2
DFIX 1.52 0.01 C1X C2X C31X C2X'
DFIX 1.25 0.01 C2X O21X C2X' O21X
DFIX 1.30 0.01 C2X N3X C2X' N3X'
DFIX 1.47 0.01 N3X C31X N3X C32X N3X' C1X N3X' C32X
DFIX 2.42 0.02 O21X C1X O21X C31X
DFIX 2.23 0.02 O21X N3X O21X N3X'
DFIX 2.41 0.02 C1X N3X C31X N3X'
DFIX 2.41 0.02 C2X C31X C2X' C1X
DFIX 2.43 0.02 C2X C32X C2X' C32X
DFIX 2.52 0.02 C31X C32X C1X C32X
MPLA N1A > C9A
MPLA C1X > N3X'
WGHT    0.041600
FVAR       1.35041   0.83339
N1A   3    0.777832    0.411674    0.138847    11.00000    0.02239    0.02698 =
         0.02135   -0.01121    0.00052    0.00055
H1A   2    0.848684    0.359097    0.103448    11.00000   -1.20000
C2A   1    0.759678    0.351465    0.293800    11.00000    0.02181    0.02606 =
         0.02778   -0.01295   -0.00126   -0.00483
S21A  5    0.874092    0.180672    0.408227    11.00000    0.03529    0.03134 =
         0.02954   -0.01033   -0.00770    0.00720
N3A   3    0.640580    0.440488    0.350635    11.00000    0.03032    0.02696 =
         0.01813   -0.00889   -0.00016   -0.00045
H3A   2    0.626144    0.408050    0.444183    11.00000   -1.20000
C4A   1    0.535438    0.578883    0.263601    11.00000    0.02981    0.02722 =
         0.02803   -0.01115    0.00087   -0.00034
O41A  4    0.427599    0.645919    0.328884    11.00000    0.05020    0.04151 =
         0.02708   -0.01386    0.00259    0.01603
C5A   1    0.562758    0.633252    0.101413    11.00000    0.03059    0.02450 =
         0.02342   -0.00614   -0.00110    0.00027
AFIX  43
H5A   2    0.496259    0.728723    0.034356    11.00000   -1.20000
AFIX   0
C6A   1    0.682697    0.549938    0.042179    11.00000    0.02341    0.02628 =
         0.02499   -0.00858   -0.00104   -0.00720
C7A   1    0.724277    0.599290   -0.125743    11.00000    0.02446    0.03269 =
         0.02260   -0.00895    0.00249   -0.00330
AFIX  23
H7A1  2    0.830254    0.643124   -0.153070    11.00000   -1.20000
H7A2  2    0.737190    0.503957   -0.151758    11.00000   -1.20000
AFIX   0
O8A   4    0.594918    0.718964   -0.208718    11.00000    0.03174    0.03567 =
         0.02086   -0.00330    0.00041   -0.00045
C9A   1    0.636287    0.787381   -0.368377    11.00000    0.04568    0.04619 =
         0.02406   -0.00177    0.00206   -0.01143
AFIX 137
H9A1  2    0.728082    0.848433   -0.387297    11.00000   -1.50000
H9A2  2    0.539424    0.860802   -0.423928    11.00000   -1.50000
H9A3  2    0.670070    0.700395   -0.404724    11.00000   -1.50000
AFIX   0
C1X   1    1.188148    0.036109    0.101637    11.00000    0.04467    0.03914 =
         0.04663   -0.00251   -0.01447   -0.01022
AFIX 137
PART   1
H1XA  2    1.301164    0.056429    0.101063    21.00000   -1.50000
H1XB  2    1.193129   -0.070336    0.099226    21.00000   -1.50000
H1XC  2    1.126370    0.037410    0.195420    21.00000   -1.50000
AFIX  33
PART   2
H1XD  2    1.267757   -0.064962    0.141525   -21.00000   -1.50000
H1XE  2    1.225199    0.119717    0.123015   -21.00000   -1.50000
H1XF  2    1.078537    0.016717    0.152001   -21.00000   -1.50000
AFIX   0
PART   0
O21X  4    0.986925    0.275461   -0.031483    11.00000    0.03977    0.04872 =
         0.04003   -0.02712   -0.00060    0.00978
C31X  1    1.067315    0.291348   -0.309437    11.00000    0.06048    0.07707 =
         0.02859   -0.01672   -0.00305   -0.02354
AFIX 137
PART   1
H3XA  2    1.026029    0.240687   -0.367386    21.00000   -1.50000
H3XB  2    1.146127    0.362284   -0.375253    21.00000   -1.50000
H3XC  2    0.973871    0.355828   -0.276682    21.00000   -1.50000
AFIX   3
PART   2
H3XD  2    1.154305    0.221118   -0.341947   -21.00000   -1.50000
H3XE  2    0.958935    0.285608   -0.338457   -21.00000   -1.50000
H3XF  2    1.088705    0.403788   -0.360067   -21.00000   -1.50000
AFIX   0
PART   0
C32X  1    1.288130    0.043439   -0.192119    11.00000    0.04878    0.05445 =
         0.06276   -0.03883    0.00878    0.00299
AFIX 137
PART   1
H4XA  2    1.316692   -0.045961   -0.092202    21.00000   -1.50000
H4XB  2    1.385468    0.096535   -0.239501    21.00000   -1.50000
H4XC  2    1.253096    0.000479   -0.259845    21.00000   -1.50000
AFIX  33
PART   2
H4XE  2    1.361624   -0.058557   -0.136980   -21.00000   -1.50000
H4XD  2    1.219166    0.027571   -0.259929   -21.00000   -1.50000
H4XF  2    1.355171    0.128243   -0.254074   -21.00000   -1.50000
AFIX   0
PART   1
C2X   1    1.103032    0.164530   -0.035835    21.00000    0.02947    0.03613 =
         0.03462   -0.01771   -0.00071   -0.00815
N3X   3    1.153251    0.161096   -0.169570    21.00000    0.03387    0.04772 =
         0.04250   -0.03049    0.00444   -0.00574
PART   2
C2X'  1    1.067191    0.235266   -0.135589   -21.00000    0.01832    0.01827 =
         0.01924   -0.00848   -0.00017   -0.00280
N3X'  3    1.176920    0.094808   -0.076165   -21.00000    0.02681    0.02509 =
         0.02408   -0.01724   -0.00299    0.00973
PART   0
HKLF 4
REM  mhne3_23 in P-1
REM R1 =  0.0353 for    1840 Fo > 4sig(Fo)  and  0.0553 for all    2436 data
REM    183 parameters refined using     22 restraints
END
WGHT      0.0416      0.0000
REM Highest difference peak  0.234,  deepest hole -0.178,  1-sigma level  0.039
Q1    1   0.8191  0.2801  0.3484  11.00000  0.05    0.23
Q2    1   1.2432 -0.0799 -0.1250  11.00000  0.05    0.23
Q3    1   1.3870  0.0403 -0.1183  11.00000  0.05    0.22
Q4    1   1.0401  0.3955 -0.2986  11.00000  0.05    0.17
Q5    1   0.7220  0.4968  0.0801  11.00000  0.05    0.16
Q6    1   0.6965  0.5529 -0.0415  11.00000  0.05    0.15
Q7    1   0.4110  0.6472  0.4192  11.00000  0.05    0.15
Q8    1   1.0481  0.2689 -0.1719  11.00000  0.05    0.14
Q9    1   0.9572 -0.0387  0.4399  11.00000  0.05    0.13
Q10   1   0.7064  0.3742  0.3246  11.00000  0.05    0.13
;
_shelx_res_checksum              94356
loop_
_space_group_symop_operation_xyz
'x, y, z'
'-x, -y, -z'
loop_
_atom_site_type_symbol
_atom_site_label
_atom_site_fract_x
_atom_site_fract_y
_atom_site_fract_z
_atom_site_U_iso_or_equiv
_atom_site_adp_type
_atom_site_calc_flag
_atom_site_occupancy
_atom_site_disorder_assembly
_atom_site_disorder_group
N N1A 0.77783(18) 0.41167(16) 0.13885(18) 0.0239(3) Uani d 1 . .
H H1A 0.849(2) 0.359(2) 0.103(2) 0.029 Uiso d 1 . .
C C2A 0.7597(2) 0.35147(19) 0.2938(2) 0.0244(4) Uani d 1 . .
S S21A 0.87409(6) 0.18067(5) 0.40823(6) 0.03405(15) Uani d 1 . .
N N3A 0.64058(18) 0.44049(17) 0.35064(19) 0.0259(3) Uani d 1 . .
H H3A 0.626(2) 0.408(2) 0.444(3) 0.031 Uiso d 1 . .
C C4A 0.5354(2) 0.57888(19) 0.2636(2) 0.0292(4) Uani d 1 . .
O O41A 0.42760(18) 0.64592(16) 0.32888(16) 0.0434(4) Uani d 1 . .
C C5A 0.5628(2) 0.63325(19) 0.1014(2) 0.0281(4) Uani d 1 . .
H H5A 0.4963 0.7287 0.0344 0.034 Uiso calc 1 . .
C C6A 0.6827(2) 0.54994(19) 0.0422(2) 0.0251(4) Uani d 1 . .
C C7A 0.7243(2) 0.5993(2) -0.1257(2) 0.0279(4) Uani d 1 . .
H H7A1 0.8303 0.6431 -0.1531 0.033 Uiso calc 1 . .
H H7A2 0.7372 0.5040 -0.1518 0.033 Uiso calc 1 . .
O O8A 0.59492(15) 0.71896(14) -0.20872(15) 0.0331(3) Uani d 1 . .
C C9A 0.6363(3) 0.7874(2) -0.3684(2) 0.0427(5) Uani d 1 . .
H H9A1 0.7281 0.8484 -0.3873 0.064 Uiso calc 1 . .
H H9A2 0.5394 0.8608 -0.4239 0.064 Uiso calc 1 . .
H H9A3 0.6701 0.7004 -0.4047 0.064 Uiso calc 1 . .
C C1X 1.1881(3) 0.0361(2) 0.1016(3) 0.0470(6) Uani d 1 . .
H H1XA 1.3012 0.0564 0.1011 0.071 Uiso calc 0.833(6) A 1
H H1XB 1.1931 -0.0703 0.0992 0.071 Uiso calc 0.833(6) A 1
H H1XC 1.1264 0.0374 0.1954 0.071 Uiso calc 0.833(6) A 1
H H1XD 1.2678 -0.0650 0.1415 0.071 Uiso calc 0.167(6) A 2
H H1XE 1.2252 0.1197 0.1230 0.071 Uiso calc 0.167(6) A 2
H H1XF 1.0785 0.0167 0.1520 0.071 Uiso calc 0.167(6) A 2
O O21X 0.98693(17) 0.27546(16) -0.03148(17) 0.0423(4) Uani d 1 . .
C C31X 1.0673(3) 0.2913(3) -0.3094(3) 0.0551(6) Uani d 1 . .
H H3XA 1.0260 0.2407 -0.3674 0.083 Uiso calc 0.833(6) A 1
H H3XB 1.1461 0.3623 -0.3753 0.083 Uiso calc 0.833(6) A 1
H H3XC 0.9739 0.3558 -0.2767 0.083 Uiso calc 0.833(6) A 1
H H3XD 1.1543 0.2211 -0.3419 0.083 Uiso d 0.167(6) A 2
H H3XE 0.9589 0.2856 -0.3385 0.083 Uiso d 0.167(6) A 2
H H3XF 1.0887 0.4038 -0.3601 0.083 Uiso d 0.167(6) A 2
C C32X 1.2881(3) 0.0434(3) -0.1921(3) 0.0528(6) Uani d 1 . .
H H4XA 1.3167 -0.0460 -0.0922 0.079 Uiso calc 0.833(6) A 1
H H4XB 1.3855 0.0965 -0.2395 0.079 Uiso calc 0.833(6) A 1
H H4XC 1.2531 0.0005 -0.2598 0.079 Uiso calc 0.833(6) A 1
H H4XE 1.3616 -0.0586 -0.1370 0.079 Uiso calc 0.167(6) A 2
H H4XD 1.2192 0.0276 -0.2599 0.079 Uiso calc 0.167(6) A 2
H H4XF 1.3552 0.1282 -0.2541 0.079 Uiso calc 0.167(6) A 2
C C2X 1.1030(3) 0.1645(3) -0.0358(3) 0.0319(7) Uani d 0.833(6) A 1
N N3X 1.1533(3) 0.1611(3) -0.1696(3) 0.0378(7) Uani d 0.833(6) A 1
C C2X' 1.0672(10) 0.2353(9) -0.1356(8) 0.018(3) Uani d 0.167(6) A 2
N N3X' 1.1769(10) 0.0948(10) -0.0762(8) 0.025(3) Uani d 0.167(6) A 2
loop_
_atom_site_aniso_label
_atom_site_aniso_U_11
_atom_site_aniso_U_22
_atom_site_aniso_U_33
_atom_site_aniso_U_12
_atom_site_aniso_U_13
_atom_site_aniso_U_23
N1A 0.0224(7) 0.0270(7) 0.0213(8) 0.0005(5) 0.0005(6) -0.0112(6)
C2A 0.0218(8) 0.0261(8) 0.0278(11) -0.0048(6) -0.0013(7) -0.0130(7)
S21A 0.0353(3) 0.0313(2) 0.0295(3) 0.00720(18) -0.0077(2) -0.01033(19)
N3A 0.0303(8) 0.0270(7) 0.0181(8) -0.0004(6) -0.0002(6) -0.0089(6)
C4A 0.0298(10) 0.0272(8) 0.0280(11) -0.0003(7) 0.0009(8) -0.0112(8)
O41A 0.0502(8) 0.0415(7) 0.0271(8) 0.0160(6) 0.0026(6) -0.0139(6)
C5A 0.0306(9) 0.0245(8) 0.0234(10) 0.0003(7) -0.0011(7) -0.0061(7)
C6A 0.0234(9) 0.0263(8) 0.0250(10) -0.0072(6) -0.0010(7) -0.0086(7)
C7A 0.0245(9) 0.0327(9) 0.0226(10) -0.0033(7) 0.0025(7) -0.0090(8)
O8A 0.0317(7) 0.0357(6) 0.0209(7) -0.0005(5) 0.0004(5) -0.0033(5)
C9A 0.0457(12) 0.0462(11) 0.0241(11) -0.0114(9) 0.0021(9) -0.0018(9)
C1X 0.0447(12) 0.0391(10) 0.0466(14) -0.0102(9) -0.0145(10) -0.0025(10)
O21X 0.0398(8) 0.0487(8) 0.0400(9) 0.0098(6) -0.0006(6) -0.0271(7)
C31X 0.0605(15) 0.0771(16) 0.0286(13) -0.0235(12) -0.0030(11) -0.0167(12)
C32X 0.0488(13) 0.0545(12) 0.0628(17) 0.0030(10) 0.0088(11) -0.0388(12)
C2X 0.0295(13) 0.0361(14) 0.0346(17) -0.0081(11) -0.0007(11) -0.0177(13)
N3X 0.0339(13) 0.0477(14) 0.0425(17) -0.0057(11) 0.0044(11) -0.0305(13)
C2X' 0.018(5) 0.018(5) 0.019(7) -0.003(4) 0.000(4) -0.008(5)
N3X' 0.027(5) 0.025(5) 0.024(6) 0.010(4) -0.003(5) -0.017(5)
loop_
_atom_type_symbol
_atom_type_description
_atom_type_scat_dispersion_real
_atom_type_scat_dispersion_imag
_atom_type_scat_source
C C 0.0033 0.0016 'International Tables Vol C Tables 4.2.6.8 and 6.1.1.4'
H H 0.0000 0.0000 'International Tables Vol C Tables 4.2.6.8 and 6.1.1.4'
N N 0.0061 0.0033 'International Tables Vol C Tables 4.2.6.8 and 6.1.1.4'
O O 0.0106 0.0060 'International Tables Vol C Tables 4.2.6.8 and 6.1.1.4'
S S 0.1246 0.1234 'International Tables Vol C Tables 4.2.6.8 and 6.1.1.4'
loop_
_geom_angle_atom_site_label_1
_geom_angle_atom_site_label_2
_geom_angle_atom_site_label_3
_geom_angle
C2A N1A C6A 123.67(14)
C2A N1A H1A 116.1(14)
C6A N1A H1A 120.2(14)
N1A C2A N3A 115.21(15)
N1A C2A S21A 122.58(12)
N3A C2A S21A 122.21(14)
C2A N3A C4A 125.69(16)
C2A N3A H3A 118.1(13)
C4A N3A H3A 116.2(13)
O41A C4A N3A 119.71(17)
O41A C4A C5A 125.05(15)
N3A C4A C5A 115.24(15)
C6A C5A C4A 120.24(16)
C6A C5A H5A 119.9
C4A C5A H5A 119.9
C5A C6A N1A 119.88(17)
C5A C6A C7A 124.37(15)
N1A C6A C7A 115.74(14)
O8A C7A C6A 108.52(13)
O8A C7A H7A1 110.0
C6A C7A H7A1 110.0
O8A C7A H7A2 110.0
C6A C7A H7A2 110.0
H7A1 C7A H7A2 108.4
C7A O8A C9A 111.53(13)
O8A C9A H9A1 109.5
O8A C9A H9A2 109.5
H9A1 C9A H9A2 109.5
O8A C9A H9A3 109.5
H9A1 C9A H9A3 109.5
H9A2 C9A H9A3 109.5
C2X C1X H1XA 109.5
C2X C1X H1XB 109.5
H1XA C1X H1XB 109.5
C2X C1X H1XC 109.5
H1XA C1X H1XC 109.5
H1XB C1X H1XC 109.5
N3X' C1X H1XD 109.5
N3X' C1X H1XE 109.5
H1XD C1X H1XE 109.5
N3X' C1X H1XF 109.5
H1XD C1X H1XF 109.5
H1XE C1X H1XF 109.5
N3X C31X H3XA 109.5
N3X C31X H3XB 109.5
H3XA C31X H3XB 109.5
N3X C31X H3XC 109.5
H3XA C31X H3XC 109.5
H3XB C31X H3XC 109.5
C2X' C31X H3XD 109.6
C2X' C31X H3XE 109.5
H3XD C31X H3XE 109.5
C2X' C31X H3XF 109.3
H3XD C31X H3XF 109.5
H3XE C31X H3XF 109.5
N3X C32X H4XA 109.5
N3X C32X H4XB 109.5
H4XA C32X H4XB 109.5
N3X C32X H4XC 109.5
H4XA C32X H4XC 109.5
H4XB C32X H4XC 109.5
N3X' C32X H4XE 109.5
N3X' C32X H4XD 109.5
H4XE C32X H4XD 109.5
N3X' C32X H4XF 109.5
H4XE C32X H4XF 109.5
H4XD C32X H4XF 109.5
O21X C2X N3X 118.7(3)
O21X C2X C1X 124.4(2)
N3X C2X C1X 116.9(2)
C2X N3X C32X 124.6(3)
C2X N3X C31X 117.1(2)
C32X N3X C31X 118.3(2)
O21X C2X' N3X' 112.6(6)
O21X C2X' C31X 138.3(6)
N3X' C2X' C31X 108.9(5)
C2X' N3X' C32X 116.4(6)
C2X' N3X' C1X 111.1(5)
C32X N3X' C1X 131.2(5)
loop_
_geom_bond_atom_site_label_1
_geom_bond_atom_site_label_2
_geom_bond_distance
N1A C2A 1.347(2)
N1A C6A 1.370(2)
N1A H1A 0.82(2)
C2A N3A 1.363(2)
C2A S21A 1.6639(17)
N3A C4A 1.381(2)
N3A H3A 0.82(2)
C4A O41A 1.238(2)
C4A C5A 1.419(3)
C5A C6A 1.348(2)
C5A H5A 0.9500
C6A C7A 1.489(3)
C7A O8A 1.407(2)
C7A H7A1 0.9900
C7A H7A2 0.9900
O8A C9A 1.412(2)
C9A H9A1 0.9800
C9A H9A2 0.9800
C9A H9A3 0.9800
C1X C2X 1.484(3)
C1X N3X' 1.561(7)
C1X H1XA 0.9800
C1X H1XB 0.9800
C1X H1XC 0.9800
C1X H1XD 0.9800
C1X H1XE 0.9800
C1X H1XF 0.9800
O21X C2X 1.264(3)
O21X C2X' 1.273(6)
C31X N3X 1.506(3)
C31X C2X' 1.519(7)
C31X H3XA 0.9800
C31X H3XB 0.9800
C31X H3XC 0.9800
C31X H3XD 0.9799
C31X H3XE 0.9799
C31X H3XF 0.9800
C32X N3X 1.455(3)
C32X N3X' 1.523(6)
C32X H4XA 0.9800
C32X H4XB 0.9800
C32X H4XC 0.9800
C32X H4XE 0.9800
C32X H4XD 0.9800
C32X H4XF 0.9800
C2X N3X 1.308(4)
C2X' N3X' 1.361(8)
loop_
_geom_hbond_atom_site_label_D
_geom_hbond_atom_site_label_H
_geom_hbond_atom_site_label_A
_geom_hbond_site_symmetry_A
_geom_hbond_distance_DH
_geom_hbond_distance_HA
_geom_hbond_distance_DA
_geom_hbond_angle_DHA
N1A H1A O21X . 0.82(2) 1.92(2) 2.717(2) 164(2)
N3A H3A O41A 2_666 0.82(2) 2.03(2) 2.838(2) 173.0(18)
loop_
_geom_torsion_atom_site_label_1
_geom_torsion_atom_site_label_2
_geom_torsion_atom_site_label_3
_geom_torsion_atom_site_label_4
_geom_torsion
C6A N1A C2A N3A -1.5(2)
C6A N1A C2A S21A 178.47(13)
N1A C2A N3A C4A 3.2(2)
S21A C2A N3A C4A -176.77(15)
C2A N3A C4A O41A 177.25(17)
C2A N3A C4A C5A -3.0(3)
O41A C4A C5A C6A -179.24(18)
N3A C4A C5A C6A 1.0(3)
C4A C5A C6A N1A 0.4(3)
C4A C5A C6A C7A -178.22(17)
C2A N1A C6A C5A -0.2(3)
C2A N1A C6A C7A 178.58(15)
C5A C6A C7A O8A -14.3(2)
N1A C6A C7A O8A 167.01(14)
C6A C7A O8A C9A 171.95(15)
O21X C2X N3X C32X 178.3(2)
C1X C2X N3X C32X -1.6(3)
O21X C2X N3X C31X -0.1(3)
C1X C2X N3X C31X -179.93(19)
O21X C2X' N3X' C32X -175.6(6)
C31X C2X' N3X' C32X 9.0(10)
O21X C2X' N3X' C1X -7.3(11)
C31X C2X' N3X' C1X 177.2(5)

_cod_database_fobs_code 2020558
