#------------------------------------------------------------------------------
#$Date: 2018-01-17 08:25:23 +0200 (Wed, 17 Jan 2018) $
#$Revision: 205307 $
#$URL: file:///home/coder/svn-repositories/cod/cif/2/02/09/2020906.cif $
#------------------------------------------------------------------------------
#
# This file is available in the Crystallography Open Database (COD),
# http://www.crystallography.net/. The original data for this entry
# were provided by IUCr Journals, http://journals.iucr.org/.
#
# The file may be used within the scientific community so long as
# proper attribution is given to the journal article from which the
# data were obtained.
#
data_2020906
loop_
_publ_author_name
'Liu, Feng-Yi'
'Zhou, Dong-Mei'
'Zhao, Xiao-Lan'
'Kou, Jun-Feng'
_publ_section_title
;
 Complexes of nickel(II) and copper(II) with 1,2,4-triazole-3-carboxylic
 acid and of cobalt(III) with 3-amino-1,2,4-triazole-5-carboxylic acid
;
_journal_coeditor_code           FP3038
_journal_issue                   11
_journal_name_full               'Acta Crystallographica Section C'
_journal_page_first              1010
_journal_page_last               1016
_journal_paper_doi               10.1107/S2053229617012943
_journal_volume                  73
_journal_year                    2017
_chemical_formula_iupac          '[Cu (C3 H N3 O2) (N H3)2 (H2 O)], H2 O'
_chemical_formula_moiety         'C3 H9 Cu N5 O3, H2 O'
_chemical_formula_sum            'C3 H11 Cu N5 O4'
_chemical_formula_weight         244.72
_chemical_name_systematic
;<i>catena</i>-Poly[[[diamminediaquacopper(II)]-\m-1,2,4-triazol-4-ide-3-carboxylato-\k^3^<i>N</i>^1^:<i>N</i>^4^,<i>O</i>-[diamminecopper(II)]-\m-1,2,4-triazol-4-ide-3-carboxylato-\k^3^<i>N</i>^4^,<i>O</i>:<i>N</i>^1^]
dihydrate]
;
_space_group_crystal_system      triclinic
_space_group_IT_number           2
_space_group_name_Hall           '-P 1'
_space_group_name_H-M_alt        'P -1'
_symmetry_space_group_name_Hall  '-P 1'
_symmetry_space_group_name_H-M   'P -1'
_atom_sites_solution_hydrogens   geom
_atom_sites_solution_primary     direct
_atom_sites_solution_secondary   difmap
_audit_creation_method           SHELXL-2014/7
_cell_angle_alpha                72.45(3)
_cell_angle_beta                 68.82(3)
_cell_angle_gamma                62.74(3)
_cell_formula_units_Z            2
_cell_length_a                   7.2183(14)
_cell_length_b                   7.4079(15)
_cell_length_c                   9.887(2)
_cell_measurement_reflns_used    4227
_cell_measurement_temperature    293(2)
_cell_measurement_theta_max      24.994
_cell_measurement_theta_min      3.136
_cell_volume                     432.3(2)
_computing_cell_refinement       CrystalStructure
_computing_data_collection
;
CrystalStructure (Rigaku/MSC, 2006)
;
_computing_data_reduction        CrystalStructure
_computing_molecular_graphics
;
SHELXTL (Sheldrick, 2008)
;
_computing_publication_material  SHELXTL
_computing_structure_refinement
;
SHELXL-2014/7 (Sheldrick, 2015)'
;
_computing_structure_solution
;
SHELXL-2014/7 (Sheldrick, 2015)
;
_diffrn_ambient_temperature      293(2)
_diffrn_measured_fraction_theta_full 0.990
_diffrn_measured_fraction_theta_max 0.990
_diffrn_measurement_device_type  'Rigaku MM007-HF CCD (Saturn 724+)'
_diffrn_measurement_method       '\w scans at fixed \c = 45\%'
_diffrn_radiation_type           MoK\a
_diffrn_radiation_wavelength     0.71073
_diffrn_reflns_av_R_equivalents  0.0550
_diffrn_reflns_limit_h_max       8
_diffrn_reflns_limit_h_min       -8
_diffrn_reflns_limit_k_max       8
_diffrn_reflns_limit_k_min       -8
_diffrn_reflns_limit_l_max       11
_diffrn_reflns_limit_l_min       -11
_diffrn_reflns_number            3353
_diffrn_reflns_theta_full        24.994
_diffrn_reflns_theta_max         24.994
_diffrn_reflns_theta_min         3.136
_exptl_absorpt_coefficient_mu    2.521
_exptl_absorpt_correction_T_max  0.5602
_exptl_absorpt_correction_T_min  0.5087
_exptl_absorpt_correction_type   multi-scan
_exptl_absorpt_process_details   SADABS
_exptl_crystal_colour            blue
_exptl_crystal_density_diffrn    1.880
_exptl_crystal_density_method    'not measured'
_exptl_crystal_description       block
_exptl_crystal_F_000             250
_exptl_crystal_size_max          0.310
_exptl_crystal_size_mid          0.280
_exptl_crystal_size_min          0.260
_refine_diff_density_max         1.404
_refine_diff_density_min         -0.667
_refine_ls_extinction_method     none
_refine_ls_goodness_of_fit_ref   1.036
_refine_ls_hydrogen_treatment    constr
_refine_ls_matrix_type           full
_refine_ls_number_parameters     123
_refine_ls_number_reflns         1500
_refine_ls_number_restraints     0
_refine_ls_restrained_S_all      1.036
_refine_ls_R_factor_all          0.0576
_refine_ls_R_factor_gt           0.0521
_refine_ls_shift/su_max          0.000
_refine_ls_shift/su_mean         0.000
_refine_ls_structure_factor_coef Fsqd
_refine_ls_weighting_details
'w=1/[\s^2^(Fo^2^)+(0.0940P)^2^] where P=(Fo^2^+2Fc^2^)/3'
_refine_ls_weighting_scheme      calc
_refine_ls_wR_factor_gt          0.1392
_refine_ls_wR_factor_ref         0.1450
_reflns_number_gt                1248
_reflns_number_total             1500
_reflns_threshold_expression     'I > 2\s(I)'
_cod_data_source_file            fp3038sup1.cif
_cod_data_source_block           II
_cod_database_code               2020906
_shelx_space_group_comment
;
The symmetry employed for this shelxl refinement is uniquely defined
by the following loop, which should always be used as a source of
symmetry information in preference to the above space-group names.
They are only intended as comments.
;
_shelx_estimated_absorpt_t_min   0.509
_shelx_estimated_absorpt_t_max   0.560
_shelx_hkl_file
;
   0   0  -2 1018.22   51.42
   0   0   2  982.54   54.15
   0   0  -3   10.50    1.89
   0   0   3   10.32    0.98
   0   0  -4    5.49    1.67
   0   0   4    6.52    1.40
   0   0  -5   15.41    1.74
   0   0   5   19.65    1.70
   0   0  -6  365.73   24.91
   0   0   6  377.04   23.68
   0   0  -7  110.78    7.98
   0   0   7  108.80   10.23
   0   0  -8  244.63   22.86
   0   0   8  209.47   12.59
   0   0   8  220.34   12.69
   0   0  -9   55.09    9.84
   0   0   9   47.99    7.98
   0   0   9   49.05    7.51
   0   0 -10  235.26   18.46
   0   0  10  239.25   15.86
   0   0  10  224.19   15.56
   0   0 -11    1.57    2.55
   0   0  11    1.31    1.12
   0  -1  11   86.22   13.70
   0  -1  11   61.05    5.53
   0   1 -11   72.25    8.02
   0  -1  10    0.08    0.95
   0  -1  10    0.96    1.55
   0   1 -10    0.69    1.56
   0  -1   9  235.28   18.65
   0  -1   9  263.49   18.44
   0   1  -9  286.57   19.58
   0  -1   8   30.38    4.86
   0   1  -8   34.99    6.73
   0  -1   7  192.80   14.69
   0   1  -7  200.01   20.42
   0  -1   6  136.59    9.78
   0   1  -6  137.99    9.09
   0  -1   5  733.35   43.27
   0   1  -5  781.00   43.43
   0  -1   4  444.96   19.24
   0   1  -4  475.43   27.64
   0  -1   3 1296.57   68.99
   0   1  -3 1142.99   69.36
   0  -1   2  687.66   34.64
   0  -1   1  869.02   44.12
   0  -1   0  239.36    6.81
   0   1   0  239.96    7.60
   0  -1  -2    2.05    0.82
   0   1   2    5.60    0.30
   0  -1  -3 2476.58  188.38
   0   1   3 2364.75  180.04
   0  -1  -4   63.11    5.69
   0   1   4   66.79    5.54
   0  -1  -5 1172.87   81.82
   0   1   5 1155.58   78.95
   0  -1  -6   59.49    7.78
   0   1   6   62.47    6.71
   0   1   6   57.66    2.86
   0  -1  -7  536.80   42.93
   0   1   7  513.85   30.53
   0   1   7  503.97   29.04
   0  -1  -8   56.04   10.12
   0   1   8   57.48    5.32
   0   1   8   56.66    3.81
   0  -1  -9  133.57   10.49
   0   1   9  138.96   11.22
   0  -1 -10    5.12    2.10
   0   1  10    5.02    2.16
   0  -1 -11   27.88    5.53
   0   1  11   26.19    3.10
   0  -2  11    3.45    2.56
   0  -2  11    4.73    1.97
   0  -2  10   59.85    6.68
   0  -2  10   67.20   13.17
   0   2 -10   55.44    5.44
   0  -2   9   -0.19    0.76
   0   2  -9   -0.29    0.58
   0  -2   8  121.39    8.92
   0   2  -8  108.72   11.04
   0  -2   7   59.38    3.77
   0   2  -7   47.84    6.74
   0  -2   6  529.76   30.52
   0   2  -6  455.43   24.21
   0  -2   5   15.11    3.04
   0   2  -5   35.20    3.21
   0  -2   4  252.76   12.04
   0   2  -4  200.63   12.37
   0  -2   3  109.49    6.93
   0  -2   2  699.52   25.26
   0   2  -2  274.95   13.41
   0  -2   1  686.48   31.58
   0   2  -1  692.19   30.19
   0  -2   0  478.03   24.26
   0   2   0  475.48   23.17
   0  -2  -1   90.53    3.96
   0  -2  -3   17.21    2.78
   0  -2  -4 2548.02  211.78
   0   2   4 2652.13  183.26
   0  -2  -5    9.12    2.57
   0   2   5    8.35    0.84
   0  -2  -6  400.65   28.64
   0   2   6  356.59   13.81
   0  -2  -7   53.80    7.84
   0   2   7   41.88    2.65
   0  -2  -8   48.68    9.24
   0   2   8   44.21    3.15
   0  -2  -9    0.54    2.27
   0   2   9    1.70    0.78
   0  -2 -10  270.40   33.47
   0   2  10  260.01   15.75
   0  -2 -11    0.03    0.73
   0  -3  10    2.40    1.71
   0  -3  10    2.75    0.69
   0   3 -10   -0.27    0.67
   0  -3   9   21.32    1.63
   0   3  -9   -1.26    0.88
   0  -3   8   -0.08    0.60
   0  -3   7  135.37    5.72
   0   3  -7    6.64    4.43
   0  -3   6   63.79    3.92
   0   3  -6    4.40    2.94
   0  -3   5  503.69   17.01
   0   3  -5   93.09    9.03
   0  -3   4    4.97    0.85
   0   3  -4    1.26    1.06
   0  -3   3  838.30   52.55
   0   3  -3  914.00   46.95
   0  -3   2  229.95    9.93
   0   3  -2  255.50    9.90
   0  -3   1  958.71   57.96
   0   3  -1  910.59   47.86
   0  -3   0   34.68    3.54
   0   3   0   33.23    1.97
   0  -3  -1  644.00   31.53
   0  -3  -2  659.26   33.17
   0  -3  -3  144.27    7.64
   0  -3  -3  150.64    3.41
   0  -3  -3  132.29    7.53
   0  -3  -4    3.24    1.03
   0  -3  -5  487.67   28.01
   0  -3  -6   -0.15    0.65
   0  -3  -7  596.60   39.23
   0  -3  -8    2.21    1.36
   0  -3  -9  386.69   28.34
   0   3   9  364.76   12.90
   0  -3 -10    7.71    3.02
   0  -3 -11   57.38    9.38
   0  -4   9    3.91    2.69
   0  -4   8   74.20    7.00
   0   4  -8   79.86    5.09
   0  -4   7    0.74    0.81
   0   4  -7   -1.65    0.72
   0  -4   6  113.73    4.41
   0   4  -6    0.02    2.97
   0  -4   5   10.34    1.36
   0   4  -5   -0.58    0.91
   0  -4   4  164.15   13.67
   0   4  -4  164.31   10.13
   0  -4   3    0.78    0.54
   0   4  -3    0.36    0.75
   0  -4   2  568.09   36.37
   0   4  -2  605.56   29.92
   0  -4   1    2.87    1.34
   0   4  -1    2.02    1.09
   0  -4   0  640.77   39.96
   0   4   0  651.25   33.61
   0  -4  -1   51.58    3.57
   0  -4  -2  568.14   37.40
   0  -4  -3    1.68    1.40
   0  -4  -4  633.86   46.27
   0  -4  -4  633.13   38.10
   0  -4  -5   46.44    7.97
   0  -4  -5   43.95    4.85
   0  -4  -6  155.40   18.98
   0  -4  -7   12.51    5.23
   0  -4  -8  416.47   44.48
   0  -4  -9    0.11    0.86
   0  -4 -10  158.64   16.85
   0  -4 -11   -0.01    0.93
   0  -5   7   92.06    8.08
   0   5  -7   77.13    7.53
   0  -5   6    1.79    0.54
   0   5  -6   -1.12    0.44
   0  -5   5   55.05    3.26
   0   5  -5   -2.05    2.08
   0  -5   4   57.63    4.25
   0   5  -4   55.15    3.55
   0  -5   3  180.97   14.90
   0   5  -3  185.11   13.38
   0  -5   2    0.76    0.99
   0   5  -2    0.26    0.80
   0  -5   1  363.10   20.17
   0   5  -1  351.33   23.96
   0  -5   0    0.57    0.63
   0  -5  -1  536.36   39.50
   0  -5  -2   16.58    2.50
   0  -5  -3  790.31   50.39
   0  -5  -3  792.80   40.58
   0  -5  -4   23.45    3.74
   0  -5  -4   22.77    0.78
   0  -5  -4   28.03    3.58
   0  -5  -5  106.87    9.55
   0  -5  -5  105.03    9.02
   0  -5  -6   29.75    4.39
   0  -5  -6   27.37    4.67
   0  -5  -7  198.85   17.51
   0  -5  -7  179.82   24.37
   0  -5  -8    2.35    1.46
   0  -5  -8    0.39    1.56
   0  -5  -9  120.89   13.80
   0  -5  -9  136.82   23.20
   0  -5 -10    0.84    1.39
   0  -5 -10   -0.02    2.51
   0  -6   6   56.18    4.42
   0   6  -6   51.55    3.84
   0  -6   5    0.28    0.56
   0   6  -5   -1.03    0.67
   0  -6   4   87.75    8.98
   0   6  -4   74.33    4.92
   0  -6   3   18.00    4.02
   0   6  -3   15.07    3.27
   0  -6   2  164.04   14.75
   0   6  -2  156.90    9.33
   0  -6   1   92.07   10.62
   0  -6   0  188.75   12.23
   0  -6  -1    3.56    2.13
   0  -6  -2  195.25   13.13
   0  -6  -3   27.38    3.74
   0  -6  -3   25.42    2.63
   0  -6  -4  211.74   15.20
   0  -6  -4  213.87   15.73
   0  -6  -4  202.01    7.03
   0  -6  -5    2.57    2.38
   0  -6  -5    1.89    1.51
   0  -6  -6  484.84   36.88
   0  -6  -6  473.56   36.67
   0  -6  -7    7.90    4.93
   0  -6  -7    7.72    5.25
   0  -6  -8  150.86   25.65
   0  -6  -8  124.89   22.45
   0  -6  -9   13.34    4.29
   0  -6  -9   14.44    4.79
   0  -7   5   70.21    5.98
   0  -7   4    1.40    0.97
   0  -7   3  120.85    8.81
   0  -7   2    6.99    1.93
   0  -7   1   34.52    7.13
   0  -7   0    0.03    0.57
   0  -7  -1  142.42   17.10
   0  -7  -1  144.26    8.83
   0  -7  -2   22.43    3.43
   0  -7  -2   18.55    3.60
   0  -7  -3  272.14   14.95
   0  -7  -3  246.98   18.88
   0  -7  -3  255.69   19.75
   0  -7  -4   15.71    6.06
   0  -7  -4   15.42    1.33
   0  -7  -4   14.31    5.64
   0  -7  -5  215.10   18.37
   0  -7  -5  220.92   19.68
   0  -7  -6   -0.63    0.92
   0  -7  -6    1.12    1.01
   0  -7  -7  159.77   17.08
   0  -7  -7  182.18   30.16
   0  -7  -8    2.41    4.49
   0  -7  -8    3.83    3.92
   0  -8   2  112.69   18.97
   0  -8   1    2.42    1.52
   0  -8   0   68.16   12.35
   0  -8  -1   -0.59    1.82
   0  -8  -2   44.72    6.82
   0  -8  -2   81.10   11.49
   0  -8  -3   -0.48    1.92
   0  -8  -3   11.75    2.99
   0  -8  -4   84.65   16.67
   0  -8  -4   78.63   15.27
   0  -8  -5   11.14    3.60
   0  -8  -5   10.00    6.32
   0  -8  -6   54.72    9.70
  -1  -8  -7   85.38   19.44
  -1  -8  -7   91.07   12.76
  -1  -8  -6    1.10    2.94
  -1  -8  -6    1.78    1.72
  -1  -8  -5   90.95   16.91
  -1  -8  -5   92.05   11.54
  -1  -8  -4    0.68    1.92
  -1  -8  -4    0.67    0.73
  -1  -8  -3   66.15    8.25
  -1  -8  -2    1.28    1.41
  -1  -8  -1   81.40   15.46
  -1  -8   0    4.84    3.49
  -1  -8   1   76.68    9.32
  -1  -8   2    0.74    1.78
   1   8  -3   68.93    7.12
  -1  -8   3   80.24    8.97
  -1  -7  -9    2.03    2.47
  -1  -7  -9    3.01    2.17
  -1  -7  -8   96.50   13.26
  -1  -7  -8  103.63   12.29
  -1  -7  -7    9.77    4.95
  -1  -7  -7    7.54    3.19
  -1  -7  -6  132.47   13.34
  -1  -7  -6  119.19   12.58
  -1  -7  -5    3.11    0.62
  -1  -7  -5   -0.48    1.78
  -1  -7  -5    7.15    2.90
  -1  -7  -4  259.32   28.96
  -1  -7  -3   35.25    8.02
  -1  -7  -2  276.18   28.54
  -1  -7  -1    9.85    4.28
   1   7   0   25.93    4.10
  -1  -7   0   39.13    4.56
   1   7  -1    2.43    1.68
  -1  -7   1    0.11    1.94
   1   7  -2   89.80    7.62
  -1  -7   2  134.36   12.16
   1   7  -3    0.03    1.30
  -1  -7   3    0.90    0.93
   1   7  -4   65.40    6.16
  -1  -7   4   79.98   11.96
   1   7  -5    0.13    1.06
  -1  -7   5    0.57    1.35
  -1  -6 -10   -0.18    0.99
  -1  -6 -10    0.30    0.97
  -1  -6  -9   53.69    8.30
  -1  -6  -9   51.76    8.74
  -1  -6  -8    0.07    1.11
  -1  -6  -8    0.73    1.11
  -1  -6  -7  405.10   30.79
  -1  -6  -7  386.14   42.56
  -1  -6  -6   61.64    7.53
  -1  -6  -6   66.24    7.44
  -1  -6  -5  211.95   23.85
  -1  -6  -5  216.82    6.89
  -1  -6  -4   72.79   11.72
  -1  -6  -3  108.75   14.63
  -1  -6  -2  142.63   16.76
   1   6   1  169.61   11.40
  -1  -6  -1  169.52   12.79
   1   6   0   81.58    6.50
  -1  -6   0   97.67   12.23
   1   6  -1  276.80   16.90
  -1  -6   1  269.82   16.95
   1   6  -2    7.33    3.09
  -1  -6   2   12.58    2.79
   1   6  -3  114.81   12.11
  -1  -6   3  130.11   15.93
   1   6  -4    6.72    1.62
  -1  -6   4    9.48    3.25
   1   6  -5   67.33    8.53
  -1  -6   5   65.40    9.21
   1   6  -6    5.04    1.52
  -1  -6   6    6.38    2.65
   1   6  -7   59.14    5.71
  -1  -6   7   71.77    5.46
  -1  -5 -11   -0.08    1.43
  -1  -5 -11    1.45    1.32
  -1  -5 -10  113.25   12.17
  -1  -5 -10  128.18   21.32
  -1  -5  -9    0.65    1.89
  -1  -5  -9    0.44    1.03
  -1  -5  -8  289.68   21.81
  -1  -5  -8  309.99   33.17
  -1  -5  -7   24.47    7.15
  -1  -5  -7   30.68    4.50
  -1  -5  -6   52.46    6.29
  -1  -5  -6   48.94    5.92
  -1  -5  -5    0.09    0.14
  -1  -5  -5    0.83    1.06
  -1  -5  -4  573.01   46.59
  -1  -5  -3   26.85    5.70
  -1  -5  -2  427.75   24.67
   1   5   1   58.35    4.56
  -1  -5  -1   65.39    8.46
   1   5   0  551.15   31.31
  -1  -5   0  535.73   32.25
   1   5  -1   17.54    3.57
  -1  -5   1   14.69    2.42
   1   5  -2  340.80   26.68
  -1  -5   2  403.89   26.34
   1   5  -3   30.39    5.12
  -1  -5   3   28.90    3.92
   1   5  -4    7.63    1.71
  -1  -5   4   12.27    2.09
   1   5  -5   12.60    2.19
  -1  -5   5   13.52    2.04
   1   5  -6   72.53    9.39
  -1  -5   6   76.59    8.60
   1   5  -7    5.60    3.08
  -1  -5   7    8.80    2.86
   1   5  -8   73.09   11.42
  -1  -5   8   91.79    7.07
  -1  -4 -11   96.17   11.31
  -1  -4 -11   93.13   10.47
  -1  -4 -10    2.51    1.56
  -1  -4 -10    1.76    1.53
  -1  -4  -9  378.54   26.81
  -1  -4  -9  372.52   26.41
  -1  -4  -8   29.89    4.64
  -1  -4  -8   29.91    4.20
  -1  -4  -7  225.66   15.72
  -1  -4  -7  228.63   23.04
  -1  -4  -6    2.56    1.18
  -1  -4  -6    1.93    2.00
  -1  -4  -5  190.32    5.53
  -1  -4  -5  189.71   17.19
  -1  -4  -4   84.08    5.80
  -1  -4  -4   73.23    1.84
  -1  -4  -3  630.12   43.09
   1   4   2   98.59    5.78
  -1  -4  -2  101.61    6.30
   1   4   1  708.90   39.00
  -1  -4  -1  710.58   39.35
   1   4   0  207.54   14.21
  -1  -4   0  203.68   11.12
   1   4  -1  106.94    5.96
  -1  -4   1   92.60    5.95
   1   4  -2   72.14    7.76
  -1  -4   2   72.53   10.41
   1   4  -3  431.21   30.30
  -1  -4   3  372.83   21.31
   1   4  -4  159.73   15.57
  -1  -4   4  167.64   10.90
   1   4  -5  421.98   33.53
  -1  -4   5  424.35   24.12
   1   4  -6    6.09    2.43
  -1  -4   6    4.96    1.80
   1   4  -7   40.36    4.41
  -1  -4   7   44.66    6.09
   1   4  -8   29.91    3.90
  -1  -4   8   33.16    5.31
   1   4  -9   16.04    3.27
  -1  -4   9   21.37    2.71
  -1  -3 -12  144.60   15.79
  -1  -3 -11    5.83    2.46
   1   3  10  133.06    8.13
  -1  -3 -10  154.51   12.47
   1   3   9   38.24    3.11
  -1  -3  -9   49.29    5.05
   1   3   8    3.54    1.06
  -1  -3  -8   12.56    1.77
   1   3   7   51.08    2.63
  -1  -3  -7   53.97    5.07
  -1  -3  -6  758.33   54.40
  -1  -3  -5   24.20    2.47
  -1  -3  -5   22.89    2.45
  -1  -3  -4 1485.98   83.18
  -1  -3  -4 1455.69   96.64
  -1  -3  -3    2.37    1.35
   1   3   2   90.45    6.95
  -1  -3  -2   98.45    5.08
   1   3   1    2.79    0.70
  -1  -3  -1    1.93    1.27
   1   3   0  571.90   27.93
  -1  -3   0  585.62   29.32
   1   3  -1  188.24   12.10
  -1  -3   1  157.06    8.11
   1   3  -2 1137.20   68.81
  -1  -3   2 1037.19   74.51
   1   3  -3   15.86    2.94
  -1  -3   3   12.21    1.82
   1   3  -4  214.37   17.68
  -1  -3   4  226.15   15.99
   1   3  -5   68.95    5.63
  -1  -3   5   70.36    4.79
   1   3  -6  283.62   27.75
  -1  -3   6  272.57   15.32
   1   3  -7    5.67    3.15
  -1  -3   7    5.20    2.32
   1   3  -8   54.21   10.02
  -1  -3   8   48.70    6.49
   1   3  -9   -0.46    4.26
  -1  -3   9    9.53    1.67
   1   3 -10   -0.67    5.60
  -1  -3  10   24.15    2.88
   1   2  12   10.11    1.84
  -1  -2 -12   10.10    5.04
   1   2  11   59.38    6.75
  -1  -2 -11   59.53   10.32
   1   2  10   29.07    4.03
  -1  -2 -10   21.53    7.01
   1   2   9  343.96   16.56
  -1  -2  -9  363.33   31.79
   1   2   8   17.78    1.65
  -1  -2  -8   16.01    4.46
   1   2   7  566.21   30.82
  -1  -2  -7  563.87   39.88
   1   2   6   16.35    1.85
  -1  -2  -6   19.26    2.05
   1   2   5  359.05   15.39
  -1  -2  -5  334.93   20.15
   1   2   4   14.98    1.13
  -1  -2  -4   14.69    1.16
  -1  -2  -3  426.08   16.25
  -1  -2  -3  413.80   17.93
   1   2   2    0.50    0.37
  -1  -2  -2    0.95    0.76
   1   2   1  568.88   32.80
  -1  -2  -1  598.38   36.72
   1   2   0  278.86   13.09
  -1  -2   0  259.68   13.09
   1   2  -1 1505.74  103.02
  -1  -2   1 1433.92   90.31
   1   2  -2   17.65    2.14
  -1  -2   2   16.17    1.75
   1   2  -3  308.84   14.97
  -1  -2   3  329.40   19.02
   1   2  -4   21.48    2.67
  -1  -2   4   23.40    3.22
   1   2  -5  225.52   21.71
  -1  -2   5  243.91   12.70
   1   2  -6   39.99    7.78
  -1  -2   6   37.30    5.75
   1   2  -7  140.79   17.46
  -1  -2   7  147.83   13.09
   1   2  -8    8.58    4.63
  -1  -2   8   12.44    3.27
   1   2  -9  158.26   14.65
  -1  -2   9  172.64   17.09
   1   2 -10    0.42    2.47
  -1  -2  10   11.33    2.54
   1   1  12   76.20   10.92
  -1  -1 -12   95.09   14.59
   1   1  11   -0.20    0.54
  -1  -1 -11    0.15    1.22
   1   1  10  148.30   14.37
  -1  -1 -10  161.75   17.10
   1   1   9    1.84    0.86
  -1  -1  -9    2.21    1.56
   1   1   8  130.20   11.41
  -1  -1  -8  150.63   14.09
   1   1   7    0.42    1.17
  -1  -1  -7    4.06    1.42
   1   1   6  263.92   15.24
  -1  -1  -6  289.13   16.86
   1   1   5  159.05    6.37
  -1  -1  -5  172.47    6.87
   1   1   4  787.46   41.76
  -1  -1  -4  884.47   42.10
   1   1   3    0.54    0.59
  -1  -1  -3    1.34    0.59
   1   1   2 1102.36   53.02
   1   1   2  869.61   44.11
  -1  -1  -2 1148.66   59.94
  -1  -1  -2 1021.28   53.75
   1   1   1    1.90    0.61
  -1  -1  -1    2.04    0.41
   1   1   0 1942.84  135.30
  -1  -1   0 1924.57  126.14
   1   1  -1   25.78    2.62
  -1  -1   1   21.20    2.60
   1   1  -2   15.81    4.25
  -1  -1   2   28.17    3.31
   1   1  -3   86.78    8.32
  -1  -1   3   75.32    5.83
   1   1  -4  610.41   44.23
  -1  -1   4  663.32   34.19
   1   1  -5    3.07    4.03
  -1  -1   5   16.16    1.80
   1   1  -6  507.94   44.06
  -1  -1   6  433.10   24.11
   1   1  -7    0.95    1.10
  -1  -1   7    0.52    0.69
   1   1  -8  183.73   15.58
  -1  -1   8  160.99   11.09
   1   1  -9   30.01    8.75
  -1  -1   9   25.36    5.78
   1   1 -10  116.78   13.22
  -1  -1  10   95.29   13.67
   1   1 -11   -0.48    3.22
  -1  -1  11    5.36    2.47
  -1  -1  11    0.53    2.27
   1   0  12   -0.30    1.27
  -1   0 -12    0.28    0.77
   1   0  11   65.56    7.37
  -1   0 -11   81.68    7.84
   1   0  10    3.21    2.79
  -1   0 -10    5.09    2.46
   1   0   9  104.85    8.66
  -1   0  -9  128.23   11.86
   1   0   8    1.09    1.61
   1   0   8    1.25    0.59
  -1   0  -8    1.57    0.83
   1   0   7  455.86   21.49
   1   0   7  474.03   27.17
  -1   0  -7  501.98   24.86
   1   0   6   43.94    3.30
   1   0   6   44.95    3.47
  -1   0  -6   33.77    3.17
   1   0   5  823.89   42.57
   1   0   5  802.54   44.02
   1   0   4   29.23    1.74
   1   0   4   27.37    2.14
   1   0   3   38.39    4.16
  -1   0  -3   46.32    1.67
   1   0   2   17.26    1.32
  -1   0  -2   16.59    1.45
  -1   0  -2   13.16    0.66
  -1   0  -2   13.14    0.60
   1   0   1 1132.19   58.29
   1   0   1 1126.09   53.80
  -1   0  -1 1481.22   76.15
  -1   0  -1 1107.43   55.32
   1   0   0    1.46    0.50
  -1   0   0    1.85    0.35
   1   0  -1  861.77   47.83
  -1   0   1  770.64   40.36
   1   0  -2    5.79    2.02
  -1   0   2    5.88    1.05
   1   0  -3  951.42   61.28
  -1   0   3 1015.37   56.74
   1   0  -4  162.36    8.68
  -1   0   4  174.71   12.26
   1   0  -5  299.47   22.60
  -1   0   5  306.60   15.84
   1   0  -6   17.43    3.29
  -1   0   6   21.79    2.70
   1   0  -7  109.55   15.51
  -1   0   7  104.77   12.55
   1   0  -8    2.00    1.90
  -1   0   8    4.57    1.40
   1   0  -9  180.63   23.13
  -1   0   9  151.19   11.67
   1   0 -10   -1.20    1.10
  -1   0  10    1.05    1.38
  -1   0  10   -0.37    0.66
   1   0 -11  140.86   16.63
  -1   0  11  108.14   11.39
  -1   0  11  120.74    9.88
   1  -1  11   10.43    1.68
  -1   1 -11   -0.18    0.86
   1  -1  10   -0.29    0.38
  -1   1 -10    0.15    0.63
   1  -1   9   19.22    1.69
   1  -1   9   17.96    3.75
   1  -1   8  105.37    4.74
   1  -1   8  113.88    9.47
   1  -1   7   19.37    2.07
   1  -1   7    6.30    4.95
   1  -1   6  201.25    9.34
   1  -1   6  181.32   11.86
  -1   1  -6  201.16   10.10
   1  -1   5   21.82    1.61
   1  -1   5   12.39    2.36
  -1   1  -5   21.84    1.97
   1  -1   4  366.57   12.74
   1  -1   4  316.45   15.45
  -1   1  -4  281.49   11.33
   1  -1   3    7.18    1.31
   1  -1   3   10.63    0.73
  -1   1  -3   11.00    0.96
   1  -1   2 1591.10   89.94
   1  -1   2 1452.02  102.38
  -1   1  -2 1630.42   89.70
   1  -1   1  335.93   10.33
   1  -1   1  324.58   18.03
   1  -1   1  344.13   11.96
   1  -1   0  572.52   27.18
   1  -1   0  618.72   25.96
  -1   1   0  594.82   27.61
   1  -1  -1    0.29    0.29
   1  -1  -1    0.52    0.68
  -1   1   1    0.91    0.39
   1  -1  -2  466.53   27.20
  -1   1   2  422.23   20.50
  -1   1   2  524.97   17.94
   1  -1  -3   16.85    3.11
  -1   1   3   17.19    1.81
   1  -1  -4  397.99   21.22
  -1   1   4  406.57   20.65
   1  -1  -5   10.31    2.10
  -1   1   5   10.91    3.02
   1  -1  -6  653.69   55.13
  -1   1   6  610.58   47.71
   1  -1  -7   34.30    8.38
  -1   1   7   30.70    4.08
   1  -1  -8  320.63   22.73
  -1   1   8  335.33   31.07
   1  -1  -9    2.77    1.98
  -1   1   9    3.49    1.53
  -1   1   9    3.33    1.63
   1  -1 -10   68.09   12.67
  -1   1  10   57.89    6.17
  -1   1  10   32.31    6.35
   1  -1 -11   10.22    4.16
   1  -2  11   45.69    8.11
   1  -2  10   -0.12    1.75
   1  -2  10    0.43    0.37
  -1   2 -10    0.00    0.42
   1  -2   9   62.85    3.05
   1  -2   9   76.86    8.14
  -1   2  -9   48.25    3.33
   1  -2   8    2.67    2.54
   1  -2   8    3.33    0.84
  -1   2  -8    1.74    0.62
   1  -2   7  190.84   14.59
   1  -2   7  194.52    9.17
  -1   2  -7  175.80   10.35
   1  -2   6   30.83    4.61
   1  -2   6   35.04    2.50
  -1   2  -6   39.42    3.09
   1  -2   5  155.76    7.01
  -1   2  -5  154.93    7.56
   1  -2   4    3.43    0.92
  -1   2  -4    3.79    0.66
   1  -2   3 1004.45   56.17
  -1   2  -3 1028.95   51.72
   1  -2   2  108.22    4.67
  -1   2  -2  101.02    3.64
   1  -2   1  740.51   34.93
   1  -2   1  692.44   34.58
   1  -2   0    6.33    0.71
   1  -2   0    6.21    0.68
   1  -2   0    5.64    1.19
   1  -2  -1   96.40    4.27
   1  -2  -1   91.18    3.50
   1  -2  -2   11.14    2.12
   1  -2  -2    8.86    0.49
   1  -2  -3 1351.14  100.64
   1  -2  -4   36.34    4.86
  -1   2   4   25.32    2.91
   1  -2  -5  772.23   48.08
  -1   2   5  753.34   46.51
  -1   2   5  747.11   30.19
   1  -2  -6   66.09    6.66
  -1   2   6   60.76    6.23
  -1   2   6   64.87    3.18
   1  -2  -7   31.91    5.30
  -1   2   7   33.54    1.98
   1  -2  -8   58.87   11.40
  -1   2   8   47.23    3.00
   1  -2  -9  177.90   25.09
  -1   2   9  146.54    7.67
   1  -2 -10   12.48    3.67
   1  -2 -11  116.67   15.49
   1  -3  10   17.67    8.97
   1  -3   9   61.12    9.66
   1  -3   8   84.32   14.48
   1  -3   8   68.83    4.43
  -1   3  -8   65.94    5.23
   1  -3   7    2.21    1.53
   1  -3   7    1.75    0.69
  -1   3  -7    2.18    0.80
   1  -3   6  392.66   28.02
   1  -3   6  417.53   19.53
  -1   3  -6  394.86   18.88
   1  -3   5  173.49    8.65
  -1   3  -5  161.06    7.68
   1  -3   4  295.15   14.36
  -1   3  -4  259.69   11.56
   1  -3   3   25.94    2.80
  -1   3  -3   20.71    1.71
   1  -3   2   44.91    3.48
   1  -3   1  157.18    6.08
   1  -3   1  146.58    7.45
   1  -3   0  725.80   41.89
   1  -3   0  734.96   41.82
   1  -3  -1   56.64    3.45
   1  -3  -1   55.97    5.23
   1  -3  -1   61.07    3.65
   1  -3  -2  721.82   31.82
   1  -3  -2  716.65   39.27
   1  -3  -3   79.49    5.57
   1  -3  -4  229.04   14.45
   1  -3  -5   10.78    2.48
   1  -3  -6  213.16   16.15
   1  -3  -7   28.66    7.86
   1  -3  -8  426.54   46.61
   1  -3  -9    2.90    2.17
   1  -3 -10  126.48   16.06
   1  -3 -11    1.02    1.66
   1  -4   9   81.57   13.44
   1  -4   8   11.80    7.05
   1  -4   7  101.77   11.23
   1  -4   7   92.59    5.51
  -1   4  -7   83.64    5.10
   1  -4   6   28.82    2.28
   1  -4   6   25.77    5.23
  -1   4  -6   30.04    2.48
   1  -4   5   18.55    4.25
   1  -4   5   25.78    2.72
  -1   4  -5   25.51    2.37
   1  -4   4   38.80    4.00
  -1   4  -4   36.46    2.95
   1  -4   3  283.90   12.58
   1  -4   2    2.57    0.75
   1  -4   1  382.11   20.56
   1  -4   1  393.83   22.97
   1  -4   0  102.94    5.46
   1  -4   0  106.68    8.75
   1  -4  -1  383.32   20.18
   1  -4  -1  402.12   21.33
   1  -4  -1  405.94   20.67
   1  -4  -2   31.32    2.23
   1  -4  -2   36.81    3.17
   1  -4  -2   35.55    5.47
   1  -4  -3  606.08   48.26
   1  -4  -3  653.80   26.76
   1  -4  -3  620.98   37.65
   1  -4  -4    0.84    1.55
   1  -4  -5   60.51    7.07
   1  -4  -6   29.85    4.84
   1  -4  -7  317.57   25.67
   1  -4  -8   -0.46    2.04
   1  -4  -9  141.89   25.23
   1  -4 -10    0.11    1.18
   1  -5   8   60.94   11.56
   1  -5   7    0.37    2.21
   1  -5   6   34.58   13.67
   1  -5   6   61.86    4.42
  -1   5  -6   53.82    4.24
   1  -5   5    0.23    0.65
   1  -5   5    0.43    0.96
   1  -5   4  134.37   13.09
   1  -5   4  165.72    8.13
   1  -5   3    2.22    1.20
   1  -5   3    1.59    0.66
   1  -5   2  299.23   18.90
   1  -5   2  325.32   20.94
   1  -5   1   98.40   10.64
   1  -5   1   91.57    8.78
   1  -5   0  142.60    8.49
   1  -5   0  138.72   12.23
   1  -5  -1   95.26    6.47
   1  -5  -1   92.08    6.72
   1  -5  -1   98.31    7.56
   1  -5  -2   71.11    9.99
   1  -5  -2   68.75    9.42
   1  -5  -2   74.91    4.87
   1  -5  -3   64.27    9.71
   1  -5  -3   61.21    9.85
   1  -5  -3   62.03    2.86
   1  -5  -4  222.16   16.20
   1  -5  -4  213.10   14.99
   1  -5  -5   71.28   11.75
   1  -5  -5   64.54    7.98
   1  -5  -6  441.03   47.65
   1  -5  -6  434.76   32.64
   1  -5  -7    0.59    1.23
   1  -5  -7    0.98    2.14
   1  -5  -8   51.81    9.00
   1  -5  -9    1.51    2.06
   1  -6   5   47.69    5.60
   1  -6   5   28.70   12.65
   1  -6   4    0.26    0.46
   1  -6   4   -0.13    1.51
   1  -6   3  101.70    9.54
   1  -6   3   91.22   14.87
   1  -6   2    7.06    3.32
   1  -6   2    5.78    2.30
   1  -6   1   45.05    4.85
   1  -6   1   41.50    6.55
   1  -6   0   22.29    4.60
   1  -6   0   23.33    4.60
   1  -6  -1  328.48   21.33
   1  -6  -1  304.22   19.41
   1  -6  -1  310.11   18.90
   1  -6  -2   45.64    7.98
   1  -6  -2   37.86    3.65
   1  -6  -2   48.60    4.60
   1  -6  -3  250.16   11.19
   1  -6  -3  250.61   26.61
   1  -6  -3  248.52   17.37
   1  -6  -4   18.58    5.93
   1  -6  -4   16.45    3.73
   1  -6  -5  133.60   20.69
   1  -6  -5  114.47   12.09
   1  -6  -6    0.40    1.72
   1  -6  -6    0.02    1.49
   1  -6  -7  110.05   13.88
   1  -6  -7  108.65   12.52
   1  -6  -8    2.94    1.82
   1  -6  -8   -0.11    2.10
   1  -7   3    2.38    1.27
   1  -7   2   58.80    5.22
   1  -7   1    0.54    0.79
   1  -7   1    2.00    1.45
   1  -7   0   86.25   11.50
   1  -7   0   86.22    6.63
   1  -7   0   80.06    7.04
   1  -7  -1   -0.17    1.04
   1  -7  -1    0.66    0.75
   1  -7  -1   -0.46    1.12
   1  -7  -2   88.92   12.80
   1  -7  -2   85.63    4.52
   1  -7  -2   91.31    8.72
   1  -7  -3    1.77    1.77
   1  -7  -3   -0.20    1.95
   1  -7  -4   94.46   16.22
   1  -7  -4  103.15   11.36
   1  -7  -5    0.64    1.30
   1  -7  -5    1.32    1.55
   1  -7  -6   92.75   20.62
   1  -7  -6   81.97   17.73
   1  -8  -1  105.26   15.22
   1  -8  -1   84.09    9.13
   1  -8  -2    0.56    1.76
  -2  -9  -5   79.40   20.09
  -2  -9  -4   -0.44    1.44
  -2  -9  -3   67.15   11.31
  -2  -9  -2    7.00    3.47
  -2  -9  -1   30.53    7.10
  -2  -8  -8   41.65    7.89
  -2  -8  -8   37.92   13.21
  -2  -8  -7    3.55    3.97
  -2  -8  -7    3.68    2.40
  -2  -8  -6   74.99    9.93
  -2  -8  -5    7.49    4.95
  -2  -8  -4  186.76   27.24
  -2  -8  -3    1.33    2.65
  -2  -8  -2  150.98   24.74
   2   8   1   21.77    4.16
  -2  -8  -1   20.04    8.12
   2   8   0   20.82    6.29
  -2  -8   0   22.37    8.03
   2   8  -1   -0.64    1.85
  -2  -8   1    2.45    1.65
   2   8  -2   54.73    7.10
  -2  -8   2   64.53   12.75
   2   8  -3   -0.20    0.68
  -2  -8   3    0.16    0.82
  -2  -7 -10    3.74    3.88
  -2  -7 -10    3.37    4.15
  -2  -7  -9  156.16   24.79
  -2  -7  -9  139.05   15.19
  -2  -7  -8   -1.16    1.30
  -2  -7  -8    0.18    2.20
  -2  -7  -7  244.35   21.01
  -2  -7  -7  250.96   31.97
  -2  -7  -6    3.04    0.67
  -2  -7  -6    3.46    1.86
  -2  -7  -5   34.72    5.41
  -2  -7  -4   11.17    4.90
  -2  -7  -3   60.84   12.08
   2   7   2    2.30    1.32
  -2  -7  -2    1.57    1.48
   2   7   1  120.79   10.65
  -2  -7  -1  151.20   12.49
   2   7   0   17.11    3.18
  -2  -7   0   13.33    5.82
   2   7  -1  147.88   19.83
  -2  -7   1  220.58   19.77
   2   7  -2   43.16    8.55
  -2  -7   2   47.37    9.54
   2   7  -3   52.67    6.32
  -2  -7   3   63.76    7.14
   2   7  -4   -0.51    1.14
  -2  -7   4    0.32    1.39
   2   7  -5   25.30    7.51
  -2  -7   5   37.58    5.28
  -2  -6 -11    0.88    2.84
  -2  -6 -11    1.53    1.63
  -2  -6 -10  100.76   11.54
  -2  -6 -10  101.66   19.81
  -2  -6  -9   20.50    6.75
  -2  -6  -9   15.93    4.05
  -2  -6  -8  262.79   30.21
  -2  -6  -8  253.00   30.24
  -2  -6  -7    3.48    2.68
  -2  -6  -7   15.76    2.72
  -2  -6  -6   94.05    4.27
  -2  -6  -6   84.53   14.19
  -2  -6  -5    0.05    0.23
  -2  -6  -5    1.67    0.76
  -2  -6  -4  283.07   19.94
   2   6   3    0.21    0.78
  -2  -6  -3   -1.07    0.84
   2   6   2  114.00    9.30
  -2  -6  -2  132.25   10.99
   2   6   1    4.67    1.67
  -2  -6  -1    4.95    3.17
   2   6   0  173.81   18.21
  -2  -6   0  170.86   13.47
   2   6  -1   24.53    3.52
  -2  -6   1   26.79    8.46
   2   6  -2  195.84   14.00
  -2  -6   2  206.87   22.59
   2   6  -3    1.24    1.75
  -2  -6   3    1.61    1.17
   2   6  -4   47.40    9.21
  -2  -6   4   68.20   10.88
   2   6  -5    0.29    1.36
  -2  -6   5   -0.67    0.81
   2   6  -6   57.15    6.73
  -2  -6   6   72.04   10.41
  -2  -6   7    7.97    3.48
  -2  -5 -12    0.21    1.71
  -2  -5 -11   37.58    6.29
  -2  -5 -11   38.22    6.17
  -2  -5 -10    4.86    2.34
  -2  -5 -10    6.46    2.40
  -2  -5  -9  182.90   15.01
  -2  -5  -9  176.48   15.00
  -2  -5  -8    1.27    1.24
  -2  -5  -8   -0.21    0.71
  -2  -5  -7  151.17   11.81
  -2  -5  -7  153.97   12.11
  -2  -5  -7  158.86    6.08
  -2  -5  -6   27.71    1.84
  -2  -5  -6   15.71    6.58
  -2  -5  -5  746.46   47.04
  -2  -5  -5  681.80   33.77
  -2  -5  -4  113.42    8.85
   2   5   3  340.99   19.88
  -2  -5  -3  363.26   29.48
   2   5   2   21.90    3.28
  -2  -5  -2   32.70    3.76
   2   5   1  106.79   11.83
  -2  -5  -1  117.06   14.22
   2   5   0    6.60    1.67
  -2  -5   0    5.56    1.80
   2   5  -1  144.26   10.39
  -2  -5   1  174.47   14.41
   2   5  -2    1.89    1.16
  -2  -5   2    1.73    2.31
   2   5  -3   98.80   13.87
  -2  -5   3  106.18   13.88
   2   5  -4   49.01    9.08
  -2  -5   4   47.33    5.71
   2   5  -5  130.86   11.01
  -2  -5   5  135.90   15.04
   2   5  -6    7.29    2.17
  -2  -5   6    6.04    2.97
   2   5  -7   73.12   13.24
  -2  -5   7   86.07   11.90
   2   5  -8   -0.15    1.62
  -2  -5   8    0.60    0.87
  -2  -4 -12   59.86   11.53
  -2  -4 -12   58.57    7.94
  -2  -4 -11    7.63    2.41
  -2  -4 -11    6.38    3.68
  -2  -4 -10  173.17   13.69
  -2  -4 -10  172.85   19.55
  -2  -4  -9    3.15    1.49
  -2  -4  -9    3.60    2.33
  -2  -4  -8  157.83   16.85
  -2  -4  -8  159.56   17.35
  -2  -4  -7   11.48    2.32
  -2  -4  -7   10.77    0.84
  -2  -4  -7    9.75    2.15
  -2  -4  -6  188.32    8.06
  -2  -4  -6  219.20   18.07
  -2  -4  -5  122.69    5.97
  -2  -4  -5  121.48   12.21
  -2  -4  -4  304.54   23.10
   2   4   3    0.92    0.99
  -2  -4  -3    0.72    0.68
   2   4   2  733.20   42.88
  -2  -4  -2  874.08   60.30
   2   4   1   69.67    5.11
  -2  -4  -1   72.11    8.84
   2   4   0  341.56   25.58
   2   4  -1  104.02    7.37
  -2  -4   1   78.57   11.12
   2   4  -2  198.60   13.22
  -2  -4   2  185.02   19.66
   2   4  -3   25.69    3.45
  -2  -4   3   11.51    5.64
   2   4  -4  228.82   23.72
  -2  -4   4  239.60   15.37
   2   4  -5   20.32    3.32
  -2  -4   5   20.85    4.76
   2   4  -6  112.78   14.93
  -2  -4   6  117.55    8.06
   2   4  -7    2.94    2.67
  -2  -4   7    4.22    2.38
   2   4  -8   10.97    5.18
  -2  -4   8   17.11    4.45
  -2  -4   9    8.66    2.21
   2   3  12    0.27    0.72
  -2  -3 -12    0.42    1.27
  -2  -3 -12   -0.49    0.63
   2   3  11  235.44   17.97
  -2  -3 -11  275.60   24.57
  -2  -3 -11  304.05   27.85
   2   3  10   19.49    3.23
  -2  -3 -10   22.28    5.19
  -2  -3 -10   19.19    4.64
   2   3   9   37.02    4.47
  -2  -3  -9   43.07    6.42
  -2  -3  -9   48.25    4.30
   2   3   8   39.08    4.12
  -2  -3  -8   42.33    6.45
  -2  -3  -8   37.97    3.70
   2   3   7   54.58    4.38
  -2  -3  -7   54.37    4.28
  -2  -3  -7   59.74    4.48
   2   3   6   94.47    3.96
  -2  -3  -6   99.94    6.03
  -2  -3  -6   99.21    5.70
  -2  -3  -5  581.31   30.08
  -2  -3  -5  567.16   28.24
  -2  -3  -4   32.78    2.63
  -2  -3  -4   30.68    2.52
   2   3   3  631.50   33.38
  -2  -3  -3  718.87   36.78
   2   3   2  254.06   17.33
  -2  -3  -2  325.14   15.73
   2   3   1 1116.05   76.56
  -2  -3  -1 1110.31   67.96
   2   3   0  132.79    7.93
  -2  -3   0  113.70   11.71
   2   3  -1  897.10   65.26
  -2  -3   1  873.84   53.27
   2   3  -2    4.05    1.95
  -2  -3   2    2.77    1.18
   2   3  -3   27.21    6.92
  -2  -3   3   24.73    4.95
   2   3  -4    0.24    1.26
  -2  -3   4   -0.21    0.84
   2   3  -5  138.92   18.23
  -2  -3   5  151.12    9.03
   2   3  -6   18.61    3.80
  -2  -3   6   29.98    3.33
   2   3  -7   54.75    6.54
  -2  -3   7   64.57    9.18
   2   3  -8    2.92    1.53
  -2  -3   8    1.44    2.02
   2   3  -9   62.80   12.47
  -2  -3   9   58.63   10.01
   2   2  12    7.75    3.06
  -2  -2 -12    6.54    3.16
  -2  -2 -12    6.25    2.89
   2   2  11    6.48    2.87
  -2  -2 -11    8.51    1.73
  -2  -2 -11    7.45    3.55
   2   2  10  135.54    9.19
  -2  -2 -10  167.47   10.92
  -2  -2 -10  143.61    8.85
   2   2   9    0.12    0.54
  -2  -2  -9    0.59    0.61
  -2  -2  -9    0.69    0.54
   2   2   8  503.40   27.57
  -2  -2  -8  557.42   36.21
  -2  -2  -8  533.43   27.84
   2   2   7    5.57    1.83
  -2  -2  -7    5.83    1.10
  -2  -2  -7    5.54    1.68
   2   2   6  702.25   41.25
  -2  -2  -6  663.72   33.13
  -2  -2  -6  664.86   33.19
  -2  -2  -6  655.06   32.75
   2   2   5   27.40    3.18
  -2  -2  -5   25.28    2.90
  -2  -2  -5   27.17    1.92
   2   2   4  266.05   10.44
  -2  -2  -4  287.88   11.20
  -2  -2  -4  296.36   15.02
   2   2   3  137.68    8.44
  -2  -2  -3  143.21    7.91
  -2  -2  -3  159.77    6.55
   2   2   2  421.27   18.94
  -2  -2  -2  475.24   22.03
   2   2   1  243.71   13.84
  -2  -2  -1  455.46   18.74
   2   2   0  521.99   27.14
  -2  -2   0  568.21   38.10
   2   2  -1   80.64    9.10
  -2  -2   1   99.80    6.04
   2   2  -2 1709.01  124.63
  -2  -2   2 1719.20  121.24
   2   2  -3    0.69    1.37
  -2  -2   3    0.92    1.06
   2   2  -4  554.47   34.26
  -2  -2   4  508.28   27.61
   2   2  -5  127.32   12.05
  -2  -2   5  156.08   14.47
   2   2  -6   52.62   12.02
  -2  -2   6   61.30    8.75
   2   2  -7   43.20    6.41
  -2  -2   7   44.46    7.20
   2   2  -8  121.54   13.17
   2   2  -9    1.75    2.90
  -2  -2   9    1.58    1.93
   2   2 -10   26.71   11.19
  -2  -2  10   27.48    7.54
   2   1  12    2.31    1.40
  -2  -1 -12    2.51    1.93
  -2  -1 -12    1.86    0.90
   2   1  11   71.45   12.12
  -2  -1 -11   86.91   10.55
   2   1  10   11.47    4.21
  -2  -1 -10   18.56    3.60
   2   1   9  100.60   11.78
  -2  -1  -9  128.26    9.34
   2   1   8    7.44    1.57
  -2  -1  -8    8.17    1.98
   2   1   7  431.27   29.18
   2   1   6  164.83   13.03
  -2  -1  -6  180.62    8.49
   2   1   5  101.91    5.47
  -2  -1  -5  103.60    5.34
  -2  -1  -5  107.55    5.06
   2   1   4  316.46   14.17
  -2  -1  -4  346.06   11.80
  -2  -1  -4  326.04   14.34
   2   1   3   37.65    2.11
   2   1   3   35.23    2.45
  -2  -1  -3   29.84    2.19
  -2  -1  -3   44.68    2.62
   2   1   2  412.43   20.59
   2   1   2  358.51   13.63
  -2  -1  -2  335.73   14.75
  -2  -1  -2  319.86   13.37
   2   1   1 3906.51  387.44
  -2  -1  -1 4170.54  420.66
  -2  -1  -1 4238.48  403.42
   2   1   0  435.20   22.36
  -2  -1   0  505.25   31.10
   2   1  -1   38.03    5.21
  -2  -1   1   31.22    2.74
   2   1  -2  172.07   11.66
  -2  -1   2  235.84   10.10
   2   1  -3   70.99    9.94
  -2  -1   3   79.47    5.39
   2   1  -4  160.09   11.65
  -2  -1   4  168.98    9.94
   2   1  -5  455.89   42.59
  -2  -1   5  415.31   24.77
   2   1  -6    3.03    3.94
  -2  -1   6    5.57    1.59
   2   1  -7  127.57   13.74
  -2  -1   7  114.38    8.94
   2   1  -8   30.78    6.36
  -2  -1   8   24.08    6.68
   2   1  -9  127.88   22.98
  -2  -1   9   98.17   15.36
   2   1 -10   -2.18    2.00
  -2  -1  10   -0.88    1.23
   2   0  12   48.96    6.76
   2   0  11    0.92    0.83
  -2   0 -11    0.03    0.59
   2   0  10  109.56   16.11
  -2   0 -10  125.60   11.43
   2   0   9   62.95    6.60
  -2   0  -9   73.56    6.43
   2   0   8   13.93    3.62
  -2   0  -8   36.07    3.26
   2   0   7   75.93    5.34
  -2   0  -7   50.40    2.71
   2   0   6  414.17   23.62
  -2   0  -6  460.71   20.01
   2   0   5    3.10    1.15
  -2   0  -5    6.07    0.44
  -2   0  -5    4.41    0.52
   2   0   4 1598.30  105.55
  -2   0  -4 1737.43  114.84
  -2   0  -4 1448.23   81.21
  -2   0  -4 1592.66   87.37
   2   0   3  167.98    7.68
  -2   0  -3  160.52    3.61
  -2   0  -3  166.99   10.95
   2   0   2  929.21   53.36
   2   0   2  848.67   38.07
  -2   0  -2  793.50   35.36
  -2   0  -2  860.36   48.80
   2   0   1  756.72   35.73
   2   0   1  658.54   34.32
  -2   0  -1  725.52   39.33
  -2   0  -1  691.30   31.33
   2   0   0  271.01   15.59
  -2   0   0  277.60   13.80
   2   0  -1  140.35   10.48
  -2   0   1  149.70   10.92
   2   0  -2  121.52    7.65
  -2   0   2   57.83    4.63
   2   0  -3   -0.10    1.49
  -2   0   3    2.03    0.79
   2   0  -4  351.69   23.33
  -2   0   4  519.58   33.04
   2   0  -5    1.12    1.07
  -2   0   5    0.93    0.86
   2   0  -6  616.30   59.37
  -2   0   6  581.71   50.31
   2   0  -7    1.91    1.32
  -2   0   7    0.27    0.98
   2   0  -8  192.63   28.58
  -2   0   8  171.61   13.44
   2   0  -9   27.75    5.82
  -2   0   9   16.26    6.77
   2   0 -10    9.60    7.72
  -2   0  10   12.48    3.24
   2  -1  11   70.93    9.36
   2  -1  10    0.75    1.23
  -2   1 -10    1.06    0.85
   2  -1   9   72.68   11.37
  -2   1  -9   58.24    4.75
   2  -1   8   19.26    6.54
  -2   1  -8   23.48    2.23
   2  -1   7  156.37   10.60
  -2   1  -7  111.31    4.52
   2  -1   6    0.54    0.67
  -2   1  -6    0.21    0.23
   2  -1   5   25.19    3.02
   2  -1   4   15.07    3.45
   2  -1   3  625.82   32.37
   2  -1   2   52.60    3.10
  -2   1  -2   56.85    5.26
   2  -1   1  881.22   44.93
   2  -1   1  821.15   43.42
  -2   1  -1  908.68   44.97
  -2   1  -1  861.38   44.67
   2  -1   0  394.21   17.19
   2  -1   0  342.41   17.76
  -2   1   0  348.53   13.84
  -2   1   0  307.00   11.82
   2  -1  -1  750.42   47.26
  -2   1   1  826.74   48.81
   2  -1  -2   -0.04    0.58
   2  -1  -3  735.62   44.88
  -2   1   3  767.18   54.07
   2  -1  -4   68.36   11.06
  -2   1   4   77.40    9.45
   2  -1  -5   51.39    6.67
  -2   1   5   54.64    5.56
   2  -1  -6   31.54    7.76
  -2   1   6   29.76    4.42
   2  -1  -7   11.05    3.03
  -2   1   7   12.30    4.58
   2  -1  -8    5.61    3.03
  -2   1   8    8.42    2.44
   2  -1  -9  304.21   41.93
  -2   1   9  280.64   33.98
   2  -1 -10   -0.69    1.24
  -2   1  10    0.56    0.89
   2  -2  11    5.25    2.91
   2  -2  10   20.55    8.20
   2  -2   9   12.90    3.74
   2  -2   8  138.57   12.11
  -2   2  -8  115.27    3.31
   2  -2   7   17.74    3.66
   2  -2   6  218.56   24.76
   2  -2   5   47.26    8.27
   2  -2   4   90.59    1.95
   2  -2   4  114.53    7.30
   2  -2   3   44.93    2.34
   2  -2   3   40.16    1.54
   2  -2   3   55.11    3.82
   2  -2   2  187.06    7.17
   2  -2   2  191.99    7.66
   2  -2   2  213.25    9.82
   2  -2   1   52.99    2.99
   2  -2   1   56.76    2.52
   2  -2   0  809.65   39.50
   2  -2   0  767.79   45.20
   2  -2  -1    0.79    0.26
   2  -2  -1    2.40    0.78
  -2   2   1   -0.20    0.27
   2  -2  -2  297.14   14.85
  -2   2   2  269.81   13.64
  -2   2   2  255.98    8.54
   2  -2  -3  129.60   13.54
  -2   2   3  134.37    4.44
  -2   2   3  151.60    8.92
   2  -2  -4  201.18   13.23
  -2   2   4  168.54    5.47
  -2   2   4  209.00   12.61
   2  -2  -5    3.01    2.31
  -2   2   5    1.45    0.50
  -2   2   5    2.83    1.22
   2  -2  -6  172.95   24.20
  -2   2   6  167.75   13.85
   2  -2  -7    6.62    2.66
  -2   2   7    5.26    2.32
   2  -2  -8  175.74   24.21
  -2   2   8  158.84    6.51
  -2   2   8  149.47   15.02
   2  -2  -9    5.52    2.73
   2  -2 -10   61.31   11.04
   2  -3  10    3.53    4.51
   2  -3   9   63.38   10.22
   2  -3   8    1.27    1.56
   2  -3   7  125.04   20.10
   2  -3   6   17.37    6.22
   2  -3   5   93.65    2.75
   2  -3   5  108.15   14.77
   2  -3   4    2.04    0.27
   2  -3   4    2.05    0.55
   2  -3   4    0.62    2.04
   2  -3   3  146.81    6.92
   2  -3   3  144.26    6.24
   2  -3   3  164.90   10.27
   2  -3   2   16.52    1.79
   2  -3   2   15.89    1.81
   2  -3   2   15.19    3.65
   2  -3   1   75.29    5.26
   2  -3   1   74.90    5.46
   2  -3   1   83.28    7.04
   2  -3   0   72.40    5.80
   2  -3   0   75.21    3.86
   2  -3   0   77.41    6.29
   2  -3  -1  258.29   12.74
   2  -3  -1  248.48   13.24
   2  -3  -2   80.66    8.93
   2  -3  -2   72.42    3.44
   2  -3  -3  653.14   52.49
   2  -3  -4   36.78    4.92
   2  -3  -5  191.83   24.60
   2  -3  -6    0.81    2.01
   2  -3  -7  220.17   21.39
   2  -3  -8    0.04    1.58
   2  -3  -9   29.12    7.46
   2  -3 -10    5.03    3.15
   2  -4   9   -0.20    1.30
   2  -4   8   60.04   10.09
   2  -4   7    0.64    1.29
   2  -4   6   41.21    1.47
   2  -4   6   40.45   10.44
   2  -4   6   39.05    1.53
   2  -4   5    3.33    2.19
   2  -4   5    1.76    0.29
   2  -4   5    0.84    0.47
   2  -4   4  165.02    7.88
   2  -4   4  189.02   19.72
   2  -4   4  163.93    5.86
   2  -4   3   14.57    3.14
   2  -4   3   18.28    2.11
   2  -4   3   19.35    1.43
   2  -4   2  181.20   11.04
   2  -4   2  200.21   17.84
   2  -4   2  187.14   11.18
   2  -4   1    1.61    1.12
   2  -4   1    1.66    1.18
   2  -4   1    2.98    0.90
   2  -4   0   99.25    8.69
   2  -4   0   96.47    5.16
   2  -4   0  100.79    6.11
   2  -4  -1    0.57    0.47
   2  -4  -1   -0.37    0.79
   2  -4  -1   -0.14    0.42
   2  -4  -2  269.54   12.85
   2  -4  -2  268.78   17.17
   2  -4  -2  254.85   15.27
   2  -4  -3    5.38    2.98
   2  -4  -4   73.12   12.14
   2  -4  -5    2.41    1.64
   2  -4  -6  223.65   31.36
   2  -4  -7   22.26    5.66
   2  -4  -8  112.11   15.32
   2  -4  -9    0.11    2.08
   2  -5   7   12.74    4.45
   2  -5   6    2.26    1.88
   2  -5   5   38.75    2.96
   2  -5   5   38.92    3.24
   2  -5   5   48.04    6.39
   2  -5   4   35.95    3.39
   2  -5   4   35.78    5.24
   2  -5   4   30.47    3.12
   2  -5   3  155.72   11.78
   2  -5   3  136.01    9.11
   2  -5   3  140.63    9.41
   2  -5   2    5.17    2.28
   2  -5   2    3.34    0.91
   2  -5   2    3.47    0.87
   2  -5   1  157.15   12.32
   2  -5   1  148.52   11.30
   2  -5   1  160.65    9.63
   2  -5   0    4.92    1.12
   2  -5   0    4.53    2.04
   2  -5   0    4.17    0.98
   2  -5  -1   78.17    6.22
   2  -5  -1   71.12    8.65
   2  -5  -1   72.58    9.49
   2  -5  -2    4.42    1.19
   2  -5  -2    6.53    2.62
   2  -5  -2    6.17    1.76
   2  -5  -3   22.52    0.98
   2  -5  -3   29.12    3.49
   2  -5  -3   22.29    6.63
   2  -5  -4   11.77    2.85
   2  -5  -4   12.73    3.19
   2  -5  -5  207.75   27.59
   2  -5  -5  191.41   16.60
   2  -5  -6    0.12    0.96
   2  -5  -7  126.89   16.41
   2  -5  -8    3.26    4.68
   2  -6   3    2.68    1.35
   2  -6   3    3.66    1.36
   2  -6   3   -0.70    2.47
   2  -6   2   12.34    2.39
   2  -6   2   12.15    2.71
   2  -6   2    8.93    1.74
   2  -6   1    5.50    1.42
   2  -6   1    7.04    2.45
   2  -6   1    9.81    2.74
   2  -6   0  130.15   12.46
   2  -6   0  133.38    7.80
   2  -6   0  127.26    9.34
   2  -6  -1    0.54    1.07
   2  -6  -1    0.20    0.74
   2  -6  -1    0.46    1.20
   2  -6  -2  182.89   11.03
   2  -6  -2  178.90   13.10
   2  -6  -2  203.21   15.51
   2  -6  -3    1.64    2.11
   2  -6  -3    0.59    1.90
   2  -6  -4   83.00   10.04
   2  -6  -4   80.12   14.77
   2  -6  -5    2.82    3.63
   2  -6  -5    3.25    1.90
   2  -6  -6   27.50    7.47
   2  -6  -6   39.93    6.54
   2  -6  -7    1.30    3.12
   2  -6  -7    0.84    2.63
   2  -7   2    0.26    0.91
   2  -7   2    0.12    0.54
   2  -7   1   16.24    2.55
   2  -7   1    8.36    4.19
   2  -7   0    2.58    1.24
   2  -7   0    2.51    2.16
   2  -7  -1   40.14    8.13
   2  -7  -1   53.69    9.69
   2  -7  -2   -0.03    1.33
   2  -7  -2   -0.46    0.95
   2  -7  -3   75.98   15.69
   2  -7  -3   71.84    8.26
   2  -7  -4    0.44    0.99
   2  -7  -4    0.15    1.15
  -3  -9  -6   91.15   15.61
  -3  -9  -5   -0.97    3.28
  -3  -9  -4  101.14   15.75
  -3  -9  -3    0.61    1.65
   3   9   2   70.26   10.21
  -3  -9  -2   80.75   12.66
   3   9   1    0.01    2.50
  -3  -9  -1    2.43    2.17
   3   9   0   37.20    6.59
  -3  -9   0   44.88   10.56
  -3  -8  -9   86.68   12.51
  -3  -8  -9   94.37   19.86
  -3  -8  -8    0.78    1.47
  -3  -8  -7   79.12   18.17
  -3  -8  -6   21.61    2.66
  -3  -8  -6   22.61    5.36
  -3  -8  -5  147.41   17.36
  -3  -8  -4   49.79   14.12
   3   8   3  190.93   17.41
  -3  -8  -3  207.05   31.41
   3   8   2    6.62    2.60
  -3  -8  -2   10.46    5.19
   3   8   1   40.21    6.58
  -3  -8  -1   44.62   12.66
   3   8   0    0.64    3.52
  -3  -8   0    7.55    3.43
   3   8  -1   78.88    9.30
  -3  -8   1   83.47   10.81
   3   8  -2   -0.27    1.49
  -3  -8   2   -0.16    1.89
   3   8  -3   -0.61    3.82
  -3  -8   3   42.20    5.10
  -3  -7 -10   62.19    9.15
  -3  -7 -10   61.85   14.88
  -3  -7  -9    0.59    1.50
  -3  -7  -9    2.04    1.50
  -3  -7  -8  324.06   38.60
  -3  -7  -8  319.26   14.01
  -3  -7  -7   49.15    2.46
  -3  -7  -7   41.66    6.97
  -3  -7  -6  126.13    7.44
  -3  -7  -6  131.63   19.22
  -3  -7  -5    8.54    2.84
   3   7   4   44.25    6.59
  -3  -7  -4   57.96    7.53
   3   7   3   28.82    4.48
  -3  -7  -3   28.83    5.46
   3   7   2   89.36    9.31
  -3  -7  -2   92.91   10.60
   3   7   1   50.49    6.53
  -3  -7  -1   60.46   12.22
   3   7   0  201.31   16.86
  -3  -7   0  276.87   37.05
   3   7  -1   -0.93    1.78
  -3  -7   1   -0.60    1.31
   3   7  -2  132.14   12.56
  -3  -7   2  137.65   21.76
   3   7  -3    2.94    2.04
  -3  -7   3    0.30    1.50
   3   7  -4   42.25    6.62
  -3  -7   4   54.66    8.04
   3   7  -5   -0.12    2.06
  -3  -7   5    2.40    2.37
  -3  -6 -11   88.22   16.63
  -3  -6 -11   76.13    9.84
  -3  -6 -10    2.31    2.52
  -3  -6 -10    1.73    1.53
  -3  -6  -9  215.95   26.31
  -3  -6  -9  220.31   26.85
  -3  -6  -8   12.36    1.58
  -3  -6  -8   13.34    5.13
  -3  -6  -7   92.78    3.86
  -3  -6  -7   94.28    9.16
  -3  -6  -6    0.17    0.87
  -3  -6  -6    0.54    0.59
  -3  -6  -5  461.07   32.80
   3   6   4   15.14    2.94
  -3  -6  -4   14.00    5.94
   3   6   3  236.21   17.70
  -3  -6  -3  258.90   20.25
   3   6   2   97.55    8.88
  -3  -6  -2   95.90   10.29
   3   6   1  180.01   14.05
  -3  -6  -1  220.67   25.59
   3   6   0    3.12    1.66
  -3  -6   0    4.29    2.44
   3   6  -1  185.57   14.81
  -3  -6   1  194.13   16.58
   3   6  -2   19.12    3.74
  -3  -6   2   18.73    6.90
   3   6  -3   27.55    7.23
  -3  -6   3   22.92    4.50
   3   6  -4   32.82    5.71
  -3  -6   4   34.93    8.48
   3   6  -5   86.58   10.55
  -3  -6   5   96.06   10.13
   3   6  -6   -0.15    3.02
  -3  -6   6    4.20    2.69
  -3  -5 -12   60.00   12.67
  -3  -5 -12   62.23   12.58
  -3  -5 -11   -0.45    0.97
  -3  -5 -11   -0.34    1.53
  -3  -5 -10  282.65   29.80
  -3  -5 -10  280.11   20.70
  -3  -5  -9   35.18    7.55
  -3  -5  -9   37.06    7.82
  -3  -5  -8  163.32   12.52
  -3  -5  -8  162.64    9.44
  -3  -5  -7   15.34    4.52
  -3  -5  -7   12.22    2.02
  -3  -5  -6  222.42   12.80
  -3  -5  -6  175.09   22.11
   3   5   5   33.09    4.40
  -3  -5  -5   45.24    3.85
  -3  -5  -5   38.03    7.78
   3   5   4  503.05   40.47
  -3  -5  -4  500.22   43.33
   3   5   3   29.12    3.54
  -3  -5  -3   28.60    7.03
   3   5   2  490.95   41.06
  -3  -5  -2  536.50   34.68
   3   5   1   62.83    6.16
  -3  -5  -1   65.61   11.18
   3   5   0   60.30    6.91
  -3  -5   0   76.52    9.40
   3   5  -1    2.44    1.49
  -3  -5   1    0.92    2.75
   3   5  -2  194.12   17.09
  -3  -5   2  202.03   16.63
   3   5  -3  139.80   20.83
  -3  -5   3  153.10   20.89
   3   5  -4  280.56   22.91
  -3  -5   4  289.13   21.18
   3   5  -5    1.92    1.42
  -3  -5   5    0.73    1.92
   3   5  -6   47.19   11.27
  -3  -5   6   47.66    5.44
   3   5  -7    1.16    9.81
  -3  -5   7   43.18    5.54
   3   4  12    1.14    1.05
  -3  -4 -12    8.40    2.99
  -3  -4 -12   10.22    1.70
  -3  -4 -11   99.27   13.74
  -3  -4 -11  100.82    9.02
  -3  -4 -10   11.77    2.54
  -3  -4 -10   13.33    2.48
  -3  -4  -9    8.02    3.25
  -3  -4  -9   10.11    2.02
  -3  -4  -8    8.32    2.95
  -3  -4  -8    7.42    1.69
  -3  -4  -8    7.15    1.94
  -3  -4  -7  377.34   32.09
  -3  -4  -7  419.74   23.62
  -3  -4  -6   62.09    3.40
  -3  -4  -6   57.08    5.28
   3   4   5  803.98   50.28
  -3  -4  -5  829.46   52.07
  -3  -4  -5  976.01   56.74
   3   4   4    9.03    1.41
  -3  -4  -4    6.96    2.70
  -3  -4  -4    5.63    0.98
   3   4   3  266.12   14.46
  -3  -4  -3  282.23   16.73
   3   4   2    3.61    1.03
  -3  -4  -2   -1.15    1.89
   3   4   1  554.62   43.63
  -3  -4  -1  579.77   35.11
   3   4   0   68.57    6.37
  -3  -4   0   59.55    6.31
   3   4  -1  664.85   45.12
  -3  -4   1  690.67   59.91
   3   4  -2    2.20    1.55
  -3  -4   2    3.57    1.58
  -3  -4   3  102.47   14.69
   3   4  -4    0.77    1.18
  -3  -4   4    1.30    1.04
   3   4  -5   87.33    9.80
  -3  -4   5  130.84   13.53
   3   4  -6    3.06    2.77
  -3  -4   6    2.28    2.44
   3   4  -7   35.87   11.03
  -3  -4   7   52.38    6.25
   3   4  -8    0.95    2.03
  -3  -4   8    0.55    1.01
   3   3  12   34.06    3.88
  -3  -3 -12   27.62    6.24
  -3  -3 -12   36.17    4.58
   3   3  11    2.22    1.00
  -3  -3 -11    1.76    1.80
  -3  -3 -11    1.76    1.64
   3   3  10  188.49   11.26
  -3  -3 -10  182.39   16.50
  -3  -3 -10  192.88   16.23
   3   3   9   15.09    3.61
  -3  -3  -9   17.27    2.22
  -3  -3  -9   18.43    2.29
   3   3   8  403.68   27.58
  -3  -3  -8  433.85   29.86
  -3  -3  -8  430.28   22.51
   3   3   7   19.04    3.52
  -3  -3  -7   20.42    2.31
  -3  -3  -7   26.73    3.56
   3   3   6  295.54   14.22
  -3  -3  -6  324.24   16.08
  -3  -3  -6  301.82   13.84
   3   3   5    8.97    1.21
  -3  -3  -5    9.84    1.39
  -3  -3  -5    9.55    1.91
   3   3   4  226.57   15.98
  -3  -3  -4  264.47   14.60
  -3  -3  -4  332.92   13.43
   3   3   3   52.90    3.56
  -3  -3  -3   52.72    6.71
   3   3   2  315.64   24.47
  -3  -3  -2  453.23   29.44
   3   3   1   40.66    7.32
  -3  -3  -1   57.83    9.39
   3   3   0 1095.26   74.68
  -3  -3   0 1360.80  104.19
   3   3  -1    5.10    1.57
  -3  -3   1    4.36    1.64
   3   3  -2  486.30   35.02
  -3  -3   2  489.74   39.60
   3   3  -3    1.04    1.18
  -3  -3   3    1.29    1.02
   3   3  -4  107.62   11.29
  -3  -3   4  121.91    9.24
   3   3  -5    4.67    2.87
  -3  -3   5    1.96    2.01
   3   3  -6   58.52   13.09
  -3  -3   6   71.23   10.89
   3   3  -7   32.47    9.61
  -3  -3   7   32.34    7.42
   3   3  -8   82.34   17.15
  -3  -3   8   79.22   13.14
   3   3  -9    1.85    2.07
  -3  -3   9    2.72    2.52
   3   2  12    2.16    1.11
  -3  -2 -12    1.35    1.21
  -3  -2 -12   -0.08    1.16
   3   2  11  113.93    9.61
  -3  -2 -11   99.07   10.00
  -3  -2 -11  126.15    7.72
   3   2  10    0.52    0.90
  -3  -2 -10    0.44    0.95
  -3  -2 -10    2.12    1.07
   3   2   9   89.44    7.26
  -3  -2  -9   95.47    4.86
  -3  -2  -9   85.67    7.24
   3   2   8   17.31    4.89
  -3  -2  -8   27.67    2.86
  -3  -2  -8   16.79    2.94
   3   2   7  199.11   17.53
  -3  -2  -7  250.13   16.79
  -3  -2  -7  182.68    8.38
   3   2   6   41.50    6.18
  -3  -2  -6   50.77    3.53
  -3  -2  -6   37.85    3.98
   3   2   5  609.60   39.06
  -3  -2  -5  609.95   30.43
  -3  -2  -5  571.29   27.42
   3   2   4   16.23    1.77
   3   2   4   14.56    1.18
  -3  -2  -4   33.22    2.76
  -3  -2  -4   13.64    1.55
   3   2   3  755.33   41.78
  -3  -2  -3  707.34   36.81
  -3  -2  -3  733.71   43.71
   3   2   2   79.93    7.64
  -3  -2  -2   88.20    4.46
  -3  -2  -2   88.89    8.05
   3   2   1 1180.56   76.39
  -3  -2  -1 1468.87  102.97
   3   2   0   19.71    5.15
  -3  -2   0   40.55    5.56
   3   2  -1  147.43    8.91
  -3  -2   1   94.11    7.12
   3   2  -2   10.99    4.16
  -3  -2   2   12.22    3.51
   3   2  -3  428.08   32.02
  -3  -2   3  557.68   29.80
   3   2  -4   21.25    8.13
  -3  -2   4   27.02    3.71
  -3  -2   5  389.46   25.80
   3   2  -6    2.55    2.39
  -3  -2   6    0.74    0.99
   3   2  -7  107.96   19.68
  -3  -2   7   89.33    8.45
   3   2  -8    2.52    2.58
  -3  -2   8    4.57    2.76
   3   2  -9   63.97    9.39
  -3  -2   9   20.39   10.03
   3   1  12   58.26    7.58
   3   1  11    2.86    2.60
  -3  -1 -11    4.36    1.47
  -3  -1 -11    2.00    1.06
   3   1  10   79.16   12.36
  -3  -1 -10   89.68    6.61
  -3  -1 -10   72.52    5.19
   3   1   9    2.57    3.15
  -3  -1  -9    6.23    1.32
  -3  -1  -9    6.60    0.72
   3   1   8  233.79   23.37
  -3  -1  -8  234.82   11.14
  -3  -1  -8  260.36   13.34
   3   1   7    2.84    1.23
  -3  -1  -7    2.98    0.70
  -3  -1  -7    2.19    0.72
   3   1   6  615.45   43.65
  -3  -1  -6  544.15   24.32
  -3  -1  -6  564.90   25.82
  -3  -1  -6  639.82   43.40
   3   1   5   23.58    2.71
  -3  -1  -5   23.84    1.81
  -3  -1  -5   23.70    2.54
   3   1   4  234.81   12.07
   3   1   4  215.03    7.88
  -3  -1  -4  196.79   10.07
  -3  -1  -4  262.08   11.83
   3   1   3   33.07    2.45
   3   1   3   32.64    4.09
  -3  -1  -3   27.26    2.39
  -3  -1  -3   30.89    2.81
   3   1   2 1192.09   69.24
   3   1   2 1056.38   61.21
  -3  -1  -2 1048.14   65.91
  -3  -1  -2  979.61   58.16
   3   1   1   57.31    4.05
  -3  -1  -1   84.79    6.21
  -3  -1  -1   74.73    3.70
   3   1   0  603.33   41.13
  -3  -1   0  596.83   37.58
   3   1  -1   71.42    9.80
  -3  -1   1   67.69    4.35
   3   1  -2  457.14   32.32
  -3  -1   2  655.85   34.97
   3   1  -3   50.21   10.50
  -3  -1   3   50.25    4.91
   3   1  -4  353.59   38.33
  -3  -1   4  332.22   30.04
   3   1  -5    3.34    3.97
  -3  -1   5    3.46    2.55
   3   1  -6  145.79   16.63
  -3  -1   6  143.29   11.31
   3   1  -7    3.96    2.69
  -3  -1   7    3.46    1.67
   3   1  -8  181.88   31.37
  -3  -1   8  121.65   19.44
   3   1  -9   -0.71    1.95
  -3  -1   9    0.34    1.24
   3   0  12    1.11    1.53
   3   0  11   92.77   11.19
   3   0  10    8.44    3.65
  -3   0 -10    4.74    0.96
  -3   0 -10    4.83    0.69
   3   0   9   90.03   13.47
  -3   0  -9   91.84    3.23
  -3   0  -9   87.93    3.87
   3   0   8    9.45    3.85
  -3   0  -8   10.06    0.70
  -3   0  -8    9.87    0.57
   3   0   7  177.18   20.29
   3   0   6   38.13    4.36
   3   0   5  264.34   23.01
  -3   0  -5  288.40   16.27
   3   0   4   40.77    3.63
  -3   0  -4   49.09    6.21
   3   0   3 1010.75   44.58
   3   0   3  825.84   47.90
  -3   0  -3  980.85   53.27
  -3   0  -3  694.88   33.86
   3   0   2   57.05    3.48
   3   0   2   48.66    3.55
  -3   0  -2   57.00    5.58
  -3   0  -2   49.15    3.35
   3   0   1  640.23   32.76
   3   0   1  703.25   39.56
  -3   0  -1  737.38   42.63
  -3   0  -1  683.63   39.00
   3   0   0    0.80    0.64
  -3   0   0    1.68    0.84
  -3   0   0    0.55    0.96
   3   0  -1  496.98   34.01
  -3   0   1  468.63   23.98
  -3   0   1  411.22   22.60
   3   0  -2    1.02    1.97
  -3   0   2    4.31    1.81
   3   0  -3  197.53   20.94
  -3   0   3  189.14   12.42
   3   0  -4   58.56   12.54
  -3   0   4   62.34    9.62
   3   0  -5  256.73   25.65
  -3   0   5  357.70   22.70
   3   0  -6   17.66    4.57
  -3   0   6   14.06    5.65
   3   0  -7  342.01   41.39
  -3   0   7  241.22   20.30
   3   0  -8    7.10    4.87
  -3   0   8   16.19    3.38
   3   0  -9   93.51   23.01
  -3   0   9   75.93   15.59
   3  -1  11    4.94    4.18
   3  -1  10   19.04    4.39
   3  -1   9    0.29    0.90
   3  -1   8  121.88   10.97
   3  -1   7    7.05    2.12
   3  -1   6  122.25    9.86
   3  -1   5    2.91    1.23
   3  -1   4  676.43   41.06
   3  -1   3   75.49    8.21
   3  -1   3   74.94    3.26
  -3   1  -3   85.73    8.87
   3  -1   2  449.31   20.62
   3  -1   2  476.22   24.17
  -3   1  -2  444.81   23.05
  -3   1  -2  475.95   20.40
   3  -1   1   10.18    1.04
   3  -1   1   12.79    2.32
  -3   1  -1   12.53    1.74
  -3   1  -1   12.34    1.38
   3  -1   0  223.28   15.33
  -3   1   0  214.71   13.68
  -3   1   0  216.19   12.63
   3  -1  -1    5.31    2.73
  -3   1   1    9.10    2.46
  -3   1   1    8.41    0.92
   3  -1  -2  889.42   65.80
  -3   1   2  726.12   46.12
   3  -1  -3   42.67    7.29
  -3   1   3   34.47    7.57
   3  -1  -4  415.07   27.95
  -3   1   4  386.00   18.79
  -3   1   4  485.11   39.23
   3  -1  -5    7.86    2.59
  -3   1   5    7.95    2.46
   3  -1  -6    8.18    4.86
  -3   1   6    7.64    2.53
   3  -1  -7    8.93    3.80
  -3   1   7   13.31    5.20
   3  -1  -8  151.93   28.17
  -3   1   8  126.24   13.85
   3  -1  -9    2.25    2.59
  -3   1   9    1.90    3.06
   3  -2  10   10.46    3.78
   3  -2   9   19.30    7.39
   3  -2   8    2.14    2.78
   3  -2   7  228.56   27.63
   3  -2   6   91.33   14.13
   3  -2   5  205.91   21.19
   3  -2   4    1.92    1.06
   3  -2   3   69.51    9.34
   3  -2   3   69.64    2.70
   3  -2   3   76.20    3.44
   3  -2   2   31.76    1.90
   3  -2   2   30.15    4.95
   3  -2   1  361.06   18.74
   3  -2   1  366.11   22.69
  -3   2  -1  433.84   20.88
   3  -2   0   54.68    6.63
   3  -2   0   57.72    3.35
  -3   2   0   58.54    3.60
   3  -2  -1  409.84   17.70
   3  -2  -1  456.81   33.09
  -3   2   1  404.98   17.60
  -3   2   1  411.40   22.17
   3  -2  -2   54.39    5.86
  -3   2   2   61.57    5.22
   3  -2  -3  261.28   18.73
  -3   2   3  277.85   24.32
  -3   2   3  233.65   10.59
   3  -2  -4    1.99    2.18
  -3   2   4    0.92    0.51
  -3   2   4    2.28    1.85
   3  -2  -5  196.37   15.78
  -3   2   5  145.35    6.04
  -3   2   5  192.49   21.27
   3  -2  -6   27.10   11.54
  -3   2   6   54.43    6.11
  -3   2   6   34.26    2.68
   3  -2  -7  244.64   23.57
  -3   2   7  264.81   23.36
   3  -2  -8    0.13    2.34
   3  -2  -8   -0.41    2.52
  -3   2   8    1.02    1.34
   3  -2  -9   75.14    8.24
  -3   2   9   -0.16    6.49
   3  -3   9    9.64    6.32
   3  -3   8   39.66   11.78
   3  -3   7    1.53    1.55
   3  -3   6    4.19    1.99
   3  -3   5   -0.27    1.31
   3  -3   4  154.31   11.46
   3  -3   4  149.57    4.79
   3  -3   4  164.89    5.16
   3  -3   3    4.23    1.33
   3  -3   3    3.38    0.84
   3  -3   3    3.85    0.75
   3  -3   2  317.03   18.18
   3  -3   2  272.48   15.54
   3  -3   2  320.56   15.25
   3  -3   1   49.02    3.50
   3  -3   1   40.57    3.91
   3  -3   1   31.96    2.78
   3  -3   0  243.72   18.97
   3  -3   0  297.59   18.68
   3  -3  -1   45.43    3.93
   3  -3  -1   46.45    7.01
   3  -3  -2  351.34   23.01
   3  -3  -3    1.39    1.21
   3  -3  -4   30.47    8.87
   3  -3  -5   12.89    3.82
   3  -3  -6  285.06   40.75
   3  -3  -7   -0.53    1.50
   3  -3  -8   94.28   21.72
   3  -4   8    2.58    3.79
   3  -4   7   38.58   11.39
   3  -4   6    6.74    4.43
   3  -4   5   73.24   13.53
   3  -4   4    3.95    2.02
   3  -4   4    1.80    0.54
   3  -4   4    1.69    0.56
   3  -4   3  189.84    7.26
   3  -4   3  159.41    9.29
   3  -4   3  167.38   11.95
   3  -4   2  102.29   11.30
   3  -4   2   98.55    4.44
   3  -4   2   83.05    6.97
   3  -4   1   99.17    9.22
   3  -4   1   78.49    7.99
   3  -4   1   89.86    7.06
   3  -4   0   35.43    2.86
   3  -4   0   35.13    2.88
   3  -4   0   30.34    5.28
   3  -4  -1   51.56    4.27
   3  -4  -1   50.24    4.59
   3  -4  -1   49.01    4.83
   3  -4  -2   24.64    1.46
   3  -4  -2   25.40    3.62
   3  -4  -3  123.98   17.42
   3  -4  -4   51.85    7.37
   3  -4  -5  314.52   42.69
   3  -4  -6    0.39    1.36
   3  -4  -7   51.14   17.00
   3  -4  -8    0.07    1.30
   3  -5   4   61.23    7.12
   3  -5   3    0.10    0.57
   3  -5   3    0.38    0.48
   3  -5   3   -0.31    0.46
   3  -5   2    9.04    2.48
   3  -5   2   17.12    2.68
   3  -5   2   14.95    2.75
   3  -5   1    2.19    1.58
   3  -5   1    3.10    1.40
   3  -5   1    2.31    1.74
   3  -5   0  187.30   14.39
   3  -5   0  181.96   10.56
   3  -5   0  165.63   16.52
   3  -5  -1   26.87    6.75
   3  -5  -1   35.59    4.16
   3  -5  -1   33.74    3.83
   3  -5  -2  156.79   13.42
   3  -5  -2  173.30   11.96
   3  -5  -2  173.77    9.28
   3  -5  -3   17.32    6.48
   3  -5  -3   19.36    5.64
   3  -5  -4   86.63   16.65
   3  -5  -4   83.47    9.25
   3  -5  -5   -0.34    1.22
   3  -5  -6   79.50   20.87
   3  -6   2    1.06    1.23
   3  -6   2    1.81    1.32
   3  -6   1   51.13    6.18
   3  -6   1   41.94    7.24
   3  -6   0    2.75    1.68
   3  -6   0    3.00    2.08
   3  -6   0    2.34    1.10
   3  -6  -1   48.98    9.91
   3  -6  -1   54.00    8.40
   3  -6  -1   56.06    6.12
   3  -6  -2    0.26    1.04
   3  -6  -2    1.31    1.46
   3  -6  -3   63.20    7.68
   3  -6  -3   59.80    8.45
   3  -6  -4    0.05    1.37
   3  -6  -4   -0.02    1.12
  -4  -9  -7  105.56   30.21
  -4  -9  -6    7.51    3.62
  -4  -9  -6    3.94    1.07
  -4  -9  -5  160.81   36.60
   4   9   4    7.42    3.18
  -4  -9  -4    4.05    7.12
   4   9   3   74.41   10.78
  -4  -9  -3   91.42   14.43
   4   9   2    3.75    3.65
  -4  -9  -2    3.11    3.19
   4   9   1   18.45    5.22
  -4  -9  -1   21.23    8.17
   4   9   0    0.29    3.02
  -4  -9   0    4.49    4.00
  -4  -8  -9    8.45    3.87
  -4  -8  -8  191.12   21.60
  -4  -8  -7    4.34    1.64
  -4  -8  -7    6.77    3.12
  -4  -8  -6   77.10    4.79
  -4  -8  -6   91.77   20.54
   4   8   5   11.70    3.68
  -4  -8  -5   12.24    4.63
   4   8   4   78.42    9.73
  -4  -8  -4   88.19   13.18
   4   8   3    0.40    1.60
  -4  -8  -3    3.29    1.98
   4   8   2  106.94   18.17
  -4  -8  -2  101.20   14.79
   4   8   1   42.56    6.82
  -4  -8  -1   47.35   11.60
   4   8   0   78.33   10.13
  -4  -8   0   84.44   13.87
   4   8  -1   -0.38    2.65
  -4  -8   1    4.58    3.35
   4   8  -2   -0.21    3.31
  -4  -8   2   38.07    6.35
   4   8  -3   -0.53    2.33
  -4  -8   3   -1.16    3.07
  -4  -7 -11   60.34    9.13
  -4  -7 -11   63.95    8.85
  -4  -7 -10    0.76    0.92
  -4  -7 -10   -1.33    0.98
  -4  -7  -9  109.99    5.24
  -4  -7  -9   99.51   18.89
  -4  -7  -8    5.06    1.55
  -4  -7  -8    5.54    2.47
  -4  -7  -7   32.78   10.15
  -4  -7  -7   35.46    4.48
  -4  -7  -6   13.74    2.75
  -4  -7  -6   19.28    4.31
   4   7   5  217.03   26.15
  -4  -7  -5  229.56   21.56
   4   7   4   -0.55    0.83
  -4  -7  -4    0.39    1.01
   4   7   3  204.77   16.65
  -4  -7  -3  194.06   19.59
   4   7   2    2.06    2.77
  -4  -7  -2    3.22    2.15
   4   7   1  167.32   24.84
  -4  -7  -1  200.14   23.99
   4   7   0    5.17    4.02
  -4  -7   0    5.86    2.94
   4   7  -1  113.90   12.19
  -4  -7   1  126.97   25.39
   4   7  -2    7.17    4.44
  -4  -7   2    4.60    5.08
   4   7  -3   -0.23    4.25
  -4  -7   3   33.21    4.72
   4   7  -4   -0.79    2.27
  -4  -7   4   -0.70    1.44
  -4  -6 -11    0.22    1.63
  -4  -6 -11    0.49    1.54
  -4  -6 -10  202.68    9.79
  -4  -6 -10  191.02   23.10
  -4  -6 -10  187.90   24.20
  -4  -6  -9    0.75    1.01
  -4  -6  -9    0.57    0.83
  -4  -6  -8   72.77   12.73
  -4  -6  -8   78.20    6.89
  -4  -6  -7   11.11    2.86
  -4  -6  -7   11.73    2.59
   4   6   6  234.35   16.31
  -4  -6  -6  248.82   19.32
  -4  -6  -6  215.67   14.83
   4   6   5    1.49    1.54
  -4  -6  -5    0.56    0.58
  -4  -6  -5    1.43    1.96
   4   6   4  210.96   23.26
  -4  -6  -4  218.35   28.81
   4   6   3   26.27    4.27
  -4  -6  -3   26.45    5.23
   4   6   2  199.27   16.56
  -4  -6  -2  202.75   19.80
   4   6   1    0.71    1.02
  -4  -6  -1    0.27    1.60
   4   6   0  209.30   17.80
  -4  -6   0  191.12   28.89
   4   6  -1    0.01    1.55
  -4  -6   1    0.23    0.95
   4   6  -2   80.66    9.85
  -4  -6   2   69.72   10.30
   4   6  -3    3.07    3.68
  -4  -6   3    4.01    3.53
   4   6  -4   69.91   10.35
  -4  -6   4   75.92   14.99
   4   6  -5   -0.09    2.83
  -4  -6   5    2.44    2.50
   4   6  -6   -0.88   12.52
  -4  -6   6   46.69    6.38
  -4  -5 -12    1.03    1.41
  -4  -5 -12    0.10    0.92
  -4  -5 -11  117.49   10.60
  -4  -5 -11  117.46    9.90
  -4  -5 -10    0.16    0.76
  -4  -5 -10    1.31    1.41
  -4  -5  -9  230.43   16.36
  -4  -5  -9  225.02   22.86
  -4  -5  -8    0.62    0.88
  -4  -5  -8    1.02    0.89
  -4  -5  -7  291.48   19.56
  -4  -5  -7  287.09   14.70
   4   5   6    8.23    3.29
  -4  -5  -6   10.02    1.61
  -4  -5  -6    8.21    4.29
   4   5   5  161.31   11.06
  -4  -5  -5  140.81   11.70
  -4  -5  -5  160.17   19.33
   4   5   4   92.57   11.89
  -4  -5  -4   95.11    9.28
   4   5   3  171.57   12.57
  -4  -5  -3  175.09   14.21
   4   5   2   23.37    3.64
  -4  -5  -2   21.74    7.62
   4   5   1  190.30   24.27
  -4  -5  -1  216.75   28.61
   4   5   0   12.92    5.36
  -4  -5   0    8.62    3.62
   4   5  -1  303.92   37.91
  -4  -5   1  293.03   36.64
   4   5  -2    2.14    1.73
  -4  -5   2    1.93    2.86
   4   5  -3  228.49   31.22
  -4  -5   3  232.80   18.61
   4   5  -4    7.23    2.97
  -4  -5   4    8.10    2.73
   4   5  -5   67.72    9.21
  -4  -5   5   73.51   13.08
   4   5  -6   -0.88    0.99
  -4  -5   6    1.07    1.31
  -4  -5   7   15.37    7.10
   4   4  12   95.26    7.63
  -4  -4 -12   91.83    7.96
  -4  -4 -12   98.24    8.21
   4   4  11    1.93    0.97
  -4  -4 -11    1.24    1.67
  -4  -4 -11    1.42    1.06
  -4  -4 -10   15.97    4.14
  -4  -4 -10   14.84    2.31
  -4  -4  -9    1.44    0.86
  -4  -4  -9    2.29    1.57
  -4  -4  -9    1.88    1.45
  -4  -4  -8  130.79    8.79
  -4  -4  -8  125.97   11.34
  -4  -4  -7   10.22    2.10
  -4  -4  -7   10.25    2.91
   4   4   6  617.30   44.49
  -4  -4  -6  662.48   42.63
  -4  -4  -6  743.42   50.52
   4   4   5    0.83    0.96
  -4  -4  -5    0.50    0.91
  -4  -4  -5    0.02    0.72
   4   4   4  542.06   38.61
  -4  -4  -4  543.93   36.10
  -4  -4  -4  535.84   44.13
   4   4   3    0.95    0.65
  -4  -4  -3   -0.20    0.80
   4   4   2  394.82   25.61
  -4  -4  -2  428.89   31.19
   4   4   1   61.52    6.65
  -4  -4  -1   68.19   12.67
   4   4   0  297.95   34.70
  -4  -4   0  343.24   24.62
   4   4  -1   17.94    3.84
  -4  -4   1   20.48    6.84
   4   4  -2   81.69    9.99
  -4  -4   2   85.95   14.55
   4   4  -3    2.93    2.13
  -4  -4   3    0.30    1.12
   4   4  -4  186.85   30.64
  -4  -4   4  168.47   13.72
   4   4  -5    8.72    3.77
  -4  -4   5    7.76    2.29
   4   4  -6   56.30   10.66
  -4  -4   6   58.43    7.72
   4   4  -7   -0.23    1.79
  -4  -4   7    2.03    2.03
   4   3  12    8.69    2.61
  -4  -3 -12    3.91    1.94
  -4  -3 -12    2.18    1.15
   4   3  11   61.40    9.99
  -4  -3 -11   58.11    7.31
  -4  -3 -11   65.62    7.07
   4   3  10   13.17    5.55
  -4  -3 -10   32.95    4.27
  -4  -3 -10   32.60    4.46
   4   3   9  134.25    9.12
  -4  -3  -9  138.94   10.09
  -4  -3  -9  138.18    7.55
  -4  -3  -9  132.88    9.57
   4   3   8   45.89    7.18
  -4  -3  -8   50.03    7.42
  -4  -3  -8   44.33    3.05
  -4  -3  -8   54.43    5.83
   4   3   7  277.37   16.59
  -4  -3  -7  268.72   15.85
  -4  -3  -7  297.44   21.31
   4   3   6    0.58    0.45
  -4  -3  -6    0.19    0.69
  -4  -3  -6    2.14    1.05
   4   3   5  684.95   41.28
  -4  -3  -5  671.71   37.76
  -4  -3  -5  644.69   37.19
   4   3   4    1.26    0.62
  -4  -3  -4    1.12    0.71
  -4  -3  -4    1.44    1.30
   4   3   3  147.03   12.73
  -4  -3  -3  142.39   12.13
  -4  -3  -3  169.36   11.72
   4   3   2  100.21   11.36
  -4  -3  -2   96.32   13.02
   4   3   1  281.26   17.31
  -4  -3  -1  311.72   19.11
   4   3   0   56.32   10.54
  -4  -3   0   78.59   11.79
   4   3  -1  452.33   36.74
  -4  -3   1  527.43   33.08
   4   3  -2  115.84   12.13
  -4  -3   2  143.40   11.29
   4   3  -3  293.19   33.76
  -4  -3   3  238.57   17.88
   4   3  -4   20.83    9.53
  -4  -3   4   27.26    3.71
   4   3  -5  103.31   18.71
  -4  -3   5   78.73    8.95
   4   3  -6   13.49    7.86
  -4  -3   6   14.45    3.47
   4   3  -7  126.84   24.68
  -4  -3   7  102.22   11.13
   4   3  -8    0.17    2.15
  -4  -3   8   -0.31    0.95
   4   2  12   86.09    9.91
   4   2  11   27.95    4.44
  -4  -2 -11   27.75    3.67
  -4  -2 -11   23.12    1.98
   4   2  10  118.49   10.33
  -4  -2 -10  107.54    7.47
  -4  -2 -10  111.08    7.82
   4   2   9   16.49    3.01
  -4  -2  -9   14.47    2.02
  -4  -2  -9   13.22    2.14
   4   2   8  183.96   20.89
  -4  -2  -8  177.32   12.91
  -4  -2  -8  180.12    7.06
  -4  -2  -8  195.78   11.42
   4   2   7    2.05    1.29
  -4  -2  -7    2.38    0.67
  -4  -2  -7    4.03    1.99
   4   2   6   13.07    4.08
  -4  -2  -6   15.93    2.34
  -4  -2  -6   14.95    2.45
   4   2   5    4.68    0.94
   4   2   5    2.36    1.99
  -4  -2  -5    2.75    1.18
  -4  -2  -5    2.73    1.34
   4   2   4   85.76    3.82
  -4  -2  -4   81.54    4.60
   4   2   3  135.63    6.75
  -4  -2  -3  131.70   11.30
  -4  -2  -3  129.50   12.39
   4   2   2 2912.03  276.81
  -4  -2  -2 2929.82  266.86
  -4  -2  -2 3117.02  274.34
   4   2   1   17.59    4.13
  -4  -2  -1   57.60    6.03
   4   2   0  503.09   42.87
  -4  -2   0  560.94   42.10
   4   2  -1   12.14    6.65
  -4  -2   1   27.32    3.32
   4   2  -2   91.64    9.46
  -4  -2   2   85.59    7.00
   4   2  -3    0.48    1.34
  -4  -2   3    1.09    1.04
   4   2  -4  184.21   29.32
  -4  -2   4  190.21   22.65
   4   2  -5   30.79   11.42
  -4  -2   5   37.56    8.45
   4   2  -6   74.07   19.46
  -4  -2   6   80.62   13.63
   4   2  -7    1.19    2.89
  -4  -2   7    4.78    1.93
   4   2  -8  122.23   16.77
  -4  -2   8   92.00   11.08
   4   1  12    0.43    1.19
   4   1  11  120.38   19.73
   4   1  10   18.15    6.20
  -4  -1 -10   15.95    1.34
  -4  -1 -10   16.24    1.33
   4   1   9   85.18   14.35
  -4  -1  -9   92.86    3.66
  -4  -1  -9   85.27    3.47
   4   1   8   37.47    5.03
  -4  -1  -8   37.11    2.17
  -4  -1  -8   31.61    2.19
   4   1   7  299.92   20.39
  -4  -1  -7  283.67   19.63
  -4  -1  -7  272.58    9.18
  -4  -1  -7  269.93    9.97
   4   1   6   77.85    7.40
  -4  -1  -6   75.87    3.59
  -4  -1  -6   75.00   10.75
   4   1   5  429.73   35.90
   4   1   5  437.77   17.38
  -4  -1  -5  425.68   19.35
  -4  -1  -5  423.24   24.86
   4   1   4   78.30    9.32
   4   1   4   80.31    4.19
  -4  -1  -4   81.39    4.85
  -4  -1  -4   86.42    8.77
   4   1   3  284.23   15.78
   4   1   3  309.33   15.63
  -4  -1  -3  258.61   14.41
  -4  -1  -3  286.45   15.86
   4   1   2   19.52    2.10
  -4  -1  -2   21.27    3.35
  -4  -1  -2   48.47    4.50
   4   1   1  100.21    9.61
  -4  -1  -1   95.75    8.08
  -4  -1  -1   90.60    5.81
   4   1   0    8.25    1.97
  -4  -1   0    8.49    2.54
  -4  -1   0   10.35    2.38
   4   1  -1  621.78   48.69
  -4  -1   1  462.88   29.85
   4   1  -2    2.52    2.30
  -4  -1   2    6.81    1.79
   4   1  -3  419.46   36.58
  -4  -1   3  464.21   40.90
   4   1  -4   14.61    4.98
  -4  -1   4   17.26    3.37
   4   1  -5  372.84   33.15
  -4  -1   5  301.85   22.64
   4   1  -6   13.04    5.18
  -4  -1   6   12.81    5.26
   4   1  -7  116.08   25.84
  -4  -1   7   83.36    9.79
   4   1  -8    1.47    5.52
  -4  -1   8    3.70    2.13
   4   0  11    3.66    2.32
   4   0  10   24.85    5.10
   4   0   9   12.08    3.27
   4   0   8  180.05   15.33
   4   0   7   15.54    3.35
   4   0   6  184.80   20.62
  -4   0  -6  157.68   13.07
   4   0   5    5.29    1.84
  -4   0  -5    5.18    1.78
   4   0   4  403.63   25.37
   4   0   4  411.67   15.25
  -4   0  -4  385.50   14.53
  -4   0  -4  388.93   24.02
   4   0   3   87.96    5.19
   4   0   3  104.13    7.06
  -4   0  -3   99.33    9.75
  -4   0  -3   90.14    4.87
   4   0   2  132.42   12.52
   4   0   2  213.29   11.31
  -4   0  -2  132.05    8.55
  -4   0  -2  154.08    9.25
   4   0   1   44.78    3.62
  -4   0  -1   39.29    5.37
  -4   0  -1   43.16    4.90
   4   0   0  281.01   18.25
  -4   0   0  395.81   24.50
  -4   0   0  408.85   26.44
   4   0  -1    7.86    6.69
  -4   0   1   34.88    2.70
  -4   0   1   31.75    3.61
   4   0  -2  840.17   73.67
  -4   0   2  727.25   46.64
  -4   0   2  730.77   48.93
   4   0  -3    2.18    2.84
  -4   0   3    8.59    1.21
  -4   0   3    4.50    3.67
   4   0  -4  216.82   32.83
  -4   0   4  225.63   17.43
   4   0  -5   15.13    8.48
  -4   0   5   22.98    6.61
   4   0  -6   23.63    6.89
  -4   0   6   33.72    5.49
   4   0  -7   -0.67    1.34
  -4   0   7    0.49    1.67
   4   0  -8  161.58   34.50
  -4   0   8  137.55   15.38
   4  -1  11    4.71    5.01
   4  -1  10    1.39    1.71
   4  -1   9   42.01    7.36
   4  -1   8   40.28    6.62
   4  -1   7  173.14   23.99
   4  -1   6   21.17    6.44
   4  -1   5  227.47   17.04
   4  -1   4   44.60    1.51
   4  -1   4   51.57    5.66
   4  -1   4   53.38    1.46
  -4   1  -4   46.30    5.38
   4  -1   3  311.36   14.83
   4  -1   3  336.71   20.34
  -4   1  -3  317.50   19.99
   4  -1   2    3.21    1.08
   4  -1   2    1.03    1.07
  -4   1  -2    2.56    0.57
  -4   1  -2    3.88    1.82
   4  -1   1  386.02   25.74
   4  -1   1  360.67   24.84
  -4   1  -1  378.23   18.19
  -4   1  -1  375.54   26.25
   4  -1   0  112.57    7.91
  -4   1   0  140.88   11.07
  -4   1   0  112.86    9.34
   4  -1  -1   84.20    7.87
  -4   1   1   98.38    8.09
  -4   1   1  132.43   12.29
   4  -1  -2    1.47    1.85
  -4   1   2    5.30    2.89
  -4   1   2    6.75    1.59
   4  -1  -3  133.72   13.93
  -4   1   3  206.53   20.30
   4  -1  -4    3.26    2.63
  -4   1   4    9.56    2.34
   4  -1  -5  200.09   19.82
  -4   1   5  251.81   18.18
  -4   1   5  173.89   10.56
   4  -1  -6    2.79    3.19
  -4   1   6    1.32    2.53
  -4   1   6    1.30    0.49
   4  -1  -7  223.53   24.94
  -4   1   7  223.35   19.33
  -4   1   7  165.18   10.44
   4  -1  -8    1.76    5.88
  -4   1   8    4.40    2.58
   4  -2  10   27.47    7.33
   4  -2   9    1.62    1.86
   4  -2   8   43.09    7.49
   4  -2   7   -0.24    1.00
   4  -2   6   29.73    5.10
   4  -2   5    1.14    1.91
   4  -2   4  188.57   14.63
   4  -2   4  203.65    6.75
   4  -2   4  206.35    5.57
   4  -2   3    0.33    0.41
   4  -2   3    0.02    0.29
   4  -2   3    0.17    0.63
   4  -2   2  300.38   17.88
   4  -2   2  322.11   19.12
  -4   2  -2  278.57   17.32
   4  -2   1   32.79    5.13
   4  -2   1   28.01    2.57
  -4   2  -1   34.96    5.40
   4  -2   0  205.14   18.29
   4  -2   0  233.80   11.72
  -4   2   0  250.75   18.77
   4  -2  -1    1.15    1.83
  -4   2   1    1.82    0.93
  -4   2   1    1.11    0.65
   4  -2  -2  255.34   27.01
  -4   2   2  310.43   27.47
   4  -2  -3   11.89    5.01
  -4   2   3   13.60    4.86
  -4   2   3   13.62    1.81
   4  -2  -4   63.92    8.11
  -4   2   4   81.95   12.88
  -4   2   4   64.28    4.15
   4  -2  -5    8.40    3.48
  -4   2   5   14.03    5.73
  -4   2   5   11.66    1.54
   4  -2  -6  197.99   34.69
  -4   2   6  210.69   20.90
   4  -2  -7   -0.42    1.58
  -4   2   7    1.30    1.42
   4  -2  -8   22.60   21.36
  -4   2   8   71.40   11.00
   4  -3   9   42.24    9.37
   4  -3   8    0.53    1.39
   4  -3   7   24.99    5.65
   4  -3   6   25.87    5.21
   4  -3   5   61.84    7.80
   4  -3   4   10.20    0.80
   4  -3   4    9.79    0.75
   4  -3   4    6.11    4.15
   4  -3   3   96.10    5.23
   4  -3   3  110.60   13.09
   4  -3   3  107.26    5.18
   4  -3   2   10.07    1.65
   4  -3   2   13.90    3.39
   4  -3   2    8.20    2.15
   4  -3   1  181.41   15.32
   4  -3   1  156.07   13.54
   4  -3   0    5.99    2.55
   4  -3   0    5.93    1.12
   4  -3  -1  333.56   30.86
   4  -3  -2    2.72    2.64
   4  -3  -3   83.98   10.22
   4  -3  -4   12.57    4.05
   4  -3  -5   99.26   22.08
   4  -3  -6    3.12    2.31
   4  -3  -7   36.95   13.97
   4  -4   6   41.73    7.40
   4  -4   5    6.38    2.58
   4  -4   4   81.17   13.76
   4  -4   3   33.40    4.68
   4  -4   3   37.04    3.05
   4  -4   3   36.99    3.66
   4  -4   2   60.02    5.80
   4  -4   2   56.96    6.11
   4  -4   2   57.06    4.91
   4  -4   1    7.03    1.76
   4  -4   1    8.85    2.17
   4  -4   1    7.90    1.60
   4  -4   0   79.32    8.07
   4  -4   0   71.35    7.72
   4  -4   0   68.74    6.24
   4  -4  -1   -0.02    0.34
   4  -4  -1   -0.41    0.65
   4  -4  -2   90.51    9.54
   4  -4  -3    3.65    3.56
   4  -4  -4  213.35   33.85
   4  -4  -5    0.57    1.58
   4  -4  -6   93.69   25.49
   4  -5   2    0.87    0.59
   4  -5   2    0.26    0.83
   4  -5   2    0.05    0.74
   4  -5   1   61.90    4.48
   4  -5   1   68.66    5.88
   4  -5   1   62.16    8.76
   4  -5   0   20.72    4.79
   4  -5   0   16.85    3.57
   4  -5   0   12.32    3.78
   4  -5  -1   86.45   11.17
   4  -5  -1   92.11    5.14
   4  -5  -1   82.83   13.95
   4  -5  -2   -0.22    2.31
   4  -5  -2   12.84    2.87
   4  -5  -3   91.28    9.47
   4  -5  -3   89.17   11.63
   4  -5  -4    0.05    1.65
  -5  -9  -7   -0.34    0.98
  -5  -9  -7   -2.21    3.29
  -5  -9  -6   80.83    6.56
  -5  -9  -6  113.39   17.53
   5   9   5    5.93    5.94
  -5  -9  -5    9.19    4.84
   5   9   4   81.73   11.52
  -5  -9  -4  103.32   27.49
   5   9   3    2.11    1.97
  -5  -9  -3   -0.72    4.64
   5   9   2    7.09    5.48
  -5  -9  -2    8.22   10.57
   5   9   1   -0.63    1.29
  -5  -9  -1    0.95    2.89
  -5  -8  -9  105.22    6.70
  -5  -8  -9  116.15   16.75
  -5  -8  -8   20.44    4.28
  -5  -8  -8   27.74   11.10
  -5  -8  -7   38.69    3.74
  -5  -8  -7   46.99    9.39
   5   8   6   19.98    7.40
  -5  -8  -6   21.38    5.96
  -5  -8  -6   15.53    2.40
   5   8   5   43.01    6.96
  -5  -8  -5   42.27   15.73
   5   8   4   62.60    9.31
  -5  -8  -4   65.43   20.12
   5   8   3   71.34    9.83
  -5  -8  -3   78.34   22.53
   5   8   2    9.54    3.52
  -5  -8  -2   13.27   10.40
   5   8   1   81.40   18.38
  -5  -8  -1   92.02   25.06
   5   8   0    2.34    1.95
  -5  -8   0    0.10    4.15
   5   8  -1   30.31   10.81
  -5  -8   1   31.11   13.12
   5   8  -2    9.69    3.98
  -5  -8   2   13.72    8.80
  -5  -7 -11    1.07    1.47
  -5  -7 -11    0.78    1.21
  -5  -7 -10   94.82   19.54
  -5  -7 -10   90.98    9.27
  -5  -7  -9   10.22    3.43
  -5  -7  -9    7.23    2.58
  -5  -7  -8   12.55    6.80
  -5  -7  -8   11.69    3.19
   5   7   7    0.79    1.27
  -5  -7  -7    1.83    1.69
  -5  -7  -7    1.32    1.32
   5   7   6  133.28   12.29
  -5  -7  -6  116.00   12.05
  -5  -7  -6  150.17   16.05
   5   7   5    6.15    2.39
  -5  -7  -5    4.08    5.06
   5   7   4  110.19   11.24
  -5  -7  -4  116.48   24.37
   5   7   3   10.79    3.23
  -5  -7  -3   13.13    7.68
   5   7   2  140.24   14.58
  -5  -7  -2  186.75   38.14
   5   7   1    4.76    2.47
  -5  -7  -1    7.04    5.36
   5   7   0  106.52   20.72
  -5  -7   0  112.34   25.96
   5   7  -1   12.98    4.31
  -5  -7   1   15.85    8.86
   5   7  -2    4.70    4.35
  -5  -7   2    3.21    2.67
   5   7  -3    5.22    3.23
  -5  -7   3    5.80    3.10
   5   7  -4   -1.08    4.84
  -5  -7   4   24.55    4.90
  -5  -6 -11  151.54    9.51
  -5  -6 -11  145.13   18.43
  -5  -6 -11  146.82   13.53
  -5  -6 -10    3.49    2.95
  -5  -6 -10    3.40    1.16
  -5  -6  -9   95.55    9.96
  -5  -6  -9   87.87    5.87
  -5  -6  -8    0.21    1.00
  -5  -6  -8    1.11    1.72
   5   6   7   50.54    5.71
  -5  -6  -7   54.06    7.44
  -5  -6  -7   56.20    7.25
   5   6   6    8.90    3.88
  -5  -6  -6    9.56    3.04
  -5  -6  -6    9.90    3.07
   5   6   5   79.54    7.64
  -5  -6  -5   73.26    5.81
  -5  -6  -5   74.17   15.20
   5   6   4   30.95    4.53
  -5  -6  -4   28.00   10.33
   5   6   3  121.45   11.50
  -5  -6  -3  144.48   30.55
   5   6   2   34.03    5.33
  -5  -6  -2   31.76    7.07
   5   6   1   53.78    7.65
  -5  -6  -1   54.21    9.70
   5   6   0   28.96    6.01
  -5  -6   0   26.75    6.25
   5   6  -1  138.25   24.78
  -5  -6   1  137.22   16.27
   5   6  -2   17.22    5.13
  -5  -6   2   18.36    4.93
   5   6  -3  137.95   25.61
  -5  -6   3  128.74   22.66
   5   6  -4    2.47    2.53
  -5  -6   4    5.28    3.83
   5   6  -5   -0.84    2.24
  -5  -6   5    7.03    3.02
  -5  -5 -12   45.55    5.48
  -5  -5 -12   47.56    5.45
  -5  -5 -11    6.83    2.99
  -5  -5 -11    6.98    1.99
  -5  -5 -10    0.26    0.66
  -5  -5 -10    0.54    1.32
  -5  -5 -10    0.73    1.15
  -5  -5  -9   14.29    2.29
  -5  -5  -9   14.55    2.89
  -5  -5  -8  159.67   18.40
  -5  -5  -8  163.32   15.51
   5   5   7   -1.00    1.13
  -5  -5  -7    0.14    1.46
  -5  -5  -7   -0.31    1.16
   5   5   6  382.81   23.87
  -5  -5  -6  364.86   22.45
  -5  -5  -6  372.19   26.28
   5   5   5    0.74    1.45
  -5  -5  -5    1.23    1.14
  -5  -5  -5    0.74    0.77
   5   5   4   86.73    7.35
  -5  -5  -4   64.46    6.16
  -5  -5  -4   85.83    9.43
   5   5   3    0.41    1.53
  -5  -5  -3    1.00    2.63
   5   5   2   94.87   16.38
  -5  -5  -2   90.49   19.76
   5   5   1   35.75   10.20
  -5  -5  -1   33.93   11.88
   5   5   0  143.71   23.75
  -5  -5   0  147.72   16.68
   5   5  -1    1.27    1.04
  -5  -5   1   -0.80    1.05
   5   5  -2   54.10    8.57
  -5  -5   2   63.78    8.06
   5   5  -3   13.80    4.36
  -5  -5   3   16.56    4.01
   5   5  -4  103.45   19.22
  -5  -5   4   86.93   10.67
   5   5  -5   -0.84    5.26
  -5  -5   5    7.94    2.49
   5   5  -6    3.55    9.15
  -5  -5   6   22.84    5.13
   5   4  12    3.18    1.80
  -5  -4 -12    3.81    1.91
  -5  -4 -12    3.11    2.04
  -5  -4 -11   73.55    8.60
  -5  -4 -11   75.29    9.57
  -5  -4 -10    5.95    2.20
  -5  -4 -10    7.05    1.63
  -5  -4 -10    6.38    3.10
  -5  -4  -9  172.63   15.88
  -5  -4  -9  162.56   11.63
  -5  -4  -8    6.72    2.37
  -5  -4  -8    4.74    1.45
   5   4   7  131.88    7.49
  -5  -4  -7  128.50    9.49
  -5  -4  -7  131.27    9.28
   5   4   6    9.22    2.54
  -5  -4  -6    6.40    1.86
  -5  -4  -6    6.91    1.84
   5   4   5  133.51    8.34
  -5  -4  -5  131.27   14.20
  -5  -4  -5  134.34   10.56
   5   4   4    7.32    1.68
  -5  -4  -4    8.64    2.82
  -5  -4  -4    6.05    1.67
   5   4   3   89.64   12.09
  -5  -4  -3   71.06   14.34
   5   4   2   21.46    3.82
  -5  -4  -2   15.98    7.53
   5   4   1  233.97   19.12
  -5  -4  -1  252.47   22.00
   5   4   0    6.27    2.53
  -5  -4   0    6.62    2.86
   5   4  -1   91.52   11.25
  -5  -4   1   98.31   10.44
   5   4  -2    6.86    4.39
  -5  -4   2    5.68    2.39
   5   4  -3   70.77   11.85
  -5  -4   3   66.69    8.14
   5   4  -4   10.97    4.87
  -5  -4   4   12.16    3.06
   5   4  -5   54.25   11.62
  -5  -4   5   58.06    8.43
   5   4  -6    0.70    2.63
  -5  -4   6    2.50    1.84
   5   3  12   43.98    6.32
   5   3  11    0.77    1.13
  -5  -3 -11    1.08    0.92
  -5  -3 -11    0.98    0.98
   5   3  10   51.73    6.05
  -5  -3 -10   52.75    4.87
  -5  -3 -10   47.98    3.49
   5   3   9    5.72    2.25
  -5  -3  -9    3.53    1.35
  -5  -3  -9    0.08    0.81
  -5  -3  -9    4.63    1.22
   5   3   8   50.59    5.55
  -5  -3  -8   37.74    4.72
  -5  -3  -8   41.87    8.09
   5   3   7    0.73    2.09
  -5  -3  -7    9.14    1.75
  -5  -3  -7    8.32    2.11
   5   3   6  111.16    8.67
  -5  -3  -6  122.01   13.78
  -5  -3  -6  105.43   14.12
   5   3   5    0.15    0.42
  -5  -3  -5   -0.26    0.94
  -5  -3  -5    0.48    0.63
   5   3   4  223.75   12.26
  -5  -3  -4  237.22   15.44
  -5  -3  -4  229.77   21.97
   5   3   3    2.80    1.19
  -5  -3  -3    2.23    1.36
  -5  -3  -3    2.67    1.12
   5   3   2  492.56   42.03
  -5  -3  -2  566.79   36.76
  -5  -3  -2  491.21   30.23
   5   3   1    4.08    2.00
  -5  -3  -1   11.39    3.69
   5   3   0   62.30    9.22
  -5  -3   0   60.68   11.32
   5   3  -1    2.98    3.78
  -5  -3   1    5.85    3.41
   5   3  -2   60.47    9.69
  -5  -3   2  110.16   13.49
   5   3  -3    2.31    3.19
  -5  -3   3    2.60    1.44
   5   3  -4   96.48   20.83
  -5  -3   4   87.15   10.22
   5   3  -5    1.29    2.70
  -5  -3   5    4.64    2.07
   5   3  -6   11.98   15.66
  -5  -3   6   47.29    7.09
   5   3  -7    1.99    6.96
  -5  -3   7    7.90    4.79
   5   2  12    1.40    2.70
   5   2  11   32.16    9.63
   5   2  10    5.58    1.86
  -5  -2 -10    2.67    0.80
  -5  -2 -10    2.82    0.82
   5   2   9  103.76   10.52
  -5  -2  -9   93.80    9.86
  -5  -2  -9  110.77    6.76
  -5  -2  -9   95.49    4.84
   5   2   8    8.85    3.08
  -5  -2  -8    9.62    1.75
  -5  -2  -8    2.51    0.77
  -5  -2  -8    2.89    1.01
   5   2   7  211.50   15.46
  -5  -2  -7  206.22   12.58
  -5  -2  -7  200.96   23.03
   5   2   6    0.89    0.64
   5   2   6    0.95    1.93
  -5  -2  -6    1.80    0.94
  -5  -2  -6    0.85    0.96
   5   2   5   50.65    4.23
   5   2   5   50.48    5.92
  -5  -2  -5   50.77    5.91
  -5  -2  -5   51.19    5.57
   5   2   4    3.43    1.81
  -5  -2  -4    8.19    2.22
  -5  -2  -4    5.62    2.79
   5   2   3  200.56   16.05
  -5  -2  -3  217.70   17.67
  -5  -2  -3  218.27   14.30
   5   2   2    0.28    1.01
  -5  -2  -2    0.17    1.03
  -5  -2  -2    0.23    0.63
   5   2   1  119.87   10.00
  -5  -2  -1  158.12   15.62
  -5  -2  -1  132.06   13.86
   5   2   0    0.48    0.98
  -5  -2   0    3.18    1.35
  -5  -2   0   -0.18    0.69
   5   2  -1  250.94   31.70
  -5  -2   1  229.58   15.85
   5   2  -2   40.56    6.53
  -5  -2   2   31.76    5.42
   5   2  -3  114.62   14.31
  -5  -2   3  137.28   18.32
   5   2  -4    3.87    2.52
  -5  -2   4    3.07    3.24
   5   2  -5    3.74    5.34
  -5  -2   5   22.24    3.93
   5   2  -6    1.10    2.44
  -5  -2   6    2.45    1.70
   5   2  -7    7.14    6.17
  -5  -2   7   20.29    6.68
   5   1  11    2.59    3.62
   5   1  10   31.90   10.32
   5   1   9    9.72    3.35
   5   1   8   90.61    9.97
  -5  -1  -8   74.77    8.75
   5   1   7    4.41    3.42
  -5  -1  -7    4.23    1.94
   5   1   6   98.29    8.99
  -5  -1  -6   74.68    2.87
  -5  -1  -6   88.90    8.15
   5   1   5    2.76    0.65
   5   1   5    2.33    1.44
  -5  -1  -5    2.30    0.70
  -5  -1  -5    2.28    2.26
   5   1   4  193.59   13.03
   5   1   4  174.26    9.70
  -5  -1  -4  146.50    6.22
  -5  -1  -4  184.01   18.71
   5   1   3   17.20    3.19
  -5  -1  -3   13.35    2.65
  -5  -1  -3   22.60    2.79
   5   1   2   91.25    9.99
  -5  -1  -2  100.37   10.04
  -5  -1  -2  103.16    7.67
   5   1   1   -0.65    0.92
  -5  -1  -1    0.36    0.50
  -5  -1  -1   -0.05    0.52
  -5  -1   0  165.66   16.45
  -5  -1   0  189.03   19.05
   5   1  -1    2.06    2.42
  -5  -1   1    6.04    2.32
  -5  -1   1    7.22    2.00
   5   1  -2  174.69   26.16
  -5  -1   2  149.11    9.72
  -5  -1   2  180.55   13.36
   5   1  -3    0.49    1.77
  -5  -1   3   -0.07    1.23
   5   1  -4  186.33   34.42
  -5  -1   4  179.48   15.80
   5   1  -5    2.90    6.05
  -5  -1   5    6.42    3.89
   5   1  -6  101.64   25.15
  -5  -1   6   81.88   10.22
   5   1  -7    0.16    1.49
  -5  -1   7   -0.02    1.58
   5   0  11   17.17    5.50
   5   0  10    0.41    1.30
   5   0   9   56.75    8.89
   5   0   8    0.60    1.26
   5   0   7   27.23    8.90
   5   0   6    2.74    1.74
  -5   0  -6    2.33    2.72
   5   0   5  229.35    6.76
   5   0   5  235.47   28.00
  -5   0  -5  238.83    7.13
  -5   0  -5  218.51   25.51
   5   0   4    1.00    1.99
   5   0   4    0.89    0.64
  -5   0  -4    2.27    0.66
  -5   0  -4    1.96    1.90
   5   0   3  209.62   20.21
   5   0   3  171.20   11.51
  -5   0  -3  181.07   18.30
  -5   0  -3  186.35   10.98
   5   0   2   -0.06    0.77
  -5   0  -2    0.25    1.00
  -5   0  -2   -0.41    0.67
   5   0   1   47.90    7.03
  -5   0  -1   38.82    3.89
  -5   0  -1   34.83    3.54
   5   0   0    6.81    3.29
  -5   0   0   16.62    4.19
  -5   0   0   19.04    2.35
   5   0  -1  175.96   24.21
  -5   0   1  183.91   11.41
  -5   0   1  226.57   21.14
   5   0  -2    3.97    3.10
  -5   0   2   12.90    2.85
  -5   0   2   12.43    2.59
   5   0  -3  174.78   17.86
  -5   0   3  175.56   13.40
  -5   0   3  182.36   15.22
   5   0  -4    7.76    5.34
  -5   0   4   23.53    3.51
  -5   0   4   24.51    7.03
   5   0  -5   24.27   10.64
  -5   0   5   20.77    3.82
  -5   0   5   24.42    5.12
   5   0  -6   12.05   11.02
  -5   0   6   19.78    2.24
  -5   0   6   24.44    8.44
   5   0  -7   75.01   16.51
  -5   0   7   68.65   10.63
   5  -1  10   10.60    7.11
   5  -1   9   -0.36    2.14
   5  -1   8  132.52   24.38
   5  -1   7   30.45    6.04
   5  -1   6   94.94   17.18
   5  -1   5    0.68    1.03
  -5   1  -5    0.31    0.93
   5  -1   4   21.11    2.56
   5  -1   4   14.54    6.14
  -5   1  -4   17.00    5.94
   5  -1   3   14.35    5.01
   5  -1   3   10.41    2.29
  -5   1  -3   16.94    1.24
  -5   1  -3   12.45    4.64
   5  -1   2  150.06   15.93
   5  -1   2  149.00    8.68
  -5   1  -2  151.77    7.46
  -5   1  -2  143.25   16.08
   5  -1   1    5.18    1.46
  -5   1  -1    5.79    2.12
  -5   1  -1    5.84    2.49
   5  -1   0  128.42   15.24
  -5   1   0  123.16    8.45
  -5   1   0  118.27    7.26
   5  -1  -1   18.24    3.56
  -5   1   1   17.59    2.22
  -5   1   1   17.83    2.96
   5  -1  -2   74.23    8.83
  -5   1   2   68.90    7.11
  -5   1   2   72.99    7.73
   5  -1  -3    3.20    2.41
  -5   1   3    3.53    1.61
  -5   1   3    6.46    2.01
   5  -1  -4   73.51   11.26
  -5   1   4   70.44    9.16
   5  -1  -5   12.89    5.06
  -5   1   5   16.67    6.70
  -5   1   5   13.30    2.68
   5  -1  -6  139.37   32.75
  -5   1   6  147.67   17.11
   5  -1  -7   -1.94    2.27
  -5   1   7    2.66    1.72
   5  -2   9   22.24    6.25
   5  -2   8    5.52    4.94
   5  -2   7    0.14    2.18
   5  -2   7    1.14    2.28
   5  -2   6    2.53    1.90
   5  -2   5   68.62   13.87
   5  -2   4    2.65    0.45
   5  -2   4    1.35    1.66
   5  -2   4    2.81    0.60
   5  -2   3  119.63    8.32
   5  -2   3  123.97   10.18
   5  -2   2   12.83    2.70
   5  -2   2   13.47    2.26
  -5   2  -2   12.05    2.40
   5  -2   1  137.03    8.77
   5  -2   1  144.69   13.66
  -5   2  -1  138.33    9.58
   5  -2   0   10.13    3.03
  -5   2   0   10.60    2.69
  -5   2   0    4.14    1.61
   5  -2  -1  181.18   14.79
  -5   2   1  204.83   14.06
  -5   2   1  195.21   10.95
   5  -2  -2    0.93    0.93
  -5   2   2    0.23    0.84
  -5   2   2    0.02    0.73
   5  -2  -3    2.91    2.78
  -5   2   3    7.55    2.49
  -5   2   3    7.00    1.02
   5  -2  -4    0.75    1.47
  -5   2   4    1.09    1.33
  -5   2   4    0.76    0.76
   5  -2  -5   59.17   19.10
  -5   2   5   75.36   10.79
   5  -2  -6    1.58    2.22
  -5   2   6    0.75    1.83
   5  -3   6   43.92   12.69
   5  -3   5    0.62    1.23
   5  -3   4  120.27   18.90
   5  -3   3   45.91    4.21
   5  -3   3   49.63    9.39
   5  -3   3   40.08    3.25
   5  -3   2   41.79    5.37
   5  -3   2   36.05    3.95
   5  -3   2   32.08    7.29
   5  -3   1   14.00    2.36
   5  -3   1   13.86    3.50
   5  -3   0   11.57    3.80
   5  -3  -1   17.82    5.46
   5  -3  -2   56.33   11.40
   5  -3  -3    0.05    1.33
   5  -3  -4  157.28   28.44
   5  -3  -5    0.54    1.58
   5  -4   5   30.13    6.34
   5  -4   4   -0.16    1.49
   5  -4   3    8.19    2.62
   5  -4   2    2.61    0.97
   5  -4   2    3.42    0.81
   5  -4   2    4.47    1.51
   5  -4   1   84.28    8.20
   5  -4   1   79.48    9.17
   5  -4   1   86.25    6.41
   5  -4   0   11.89    1.88
   5  -4   0   13.68    2.77
   5  -4   0    3.12    1.44
   5  -4  -1   67.61    7.00
   5  -4  -2    0.08    0.75
   5  -4  -3   38.04    6.60
   6   9   7   22.61    5.71
  -6  -9  -7   17.25    5.02
  -6  -9  -7   25.37    8.11
   6   9   6    3.60    3.95
  -6  -9  -6    2.82    6.08
  -6  -9  -6    3.00    1.46
   6   9   5   18.51    9.50
  -6  -9  -5   20.36    8.48
   6   9   4    0.78    3.48
  -6  -9  -4    2.78    3.79
   6   9   3   27.50    7.12
  -6  -9  -3   35.04   10.66
   6   9   2   13.97    8.52
  -6  -9  -2   18.97   14.14
  -6  -8  -9    2.04    3.43
  -6  -8  -9    1.05    0.90
  -6  -8  -8   31.50    6.75
  -6  -8  -8   32.56    8.70
   6   8   7    0.25    1.74
  -6  -8  -7    0.44    1.49
  -6  -8  -7   -0.53    0.70
   6   8   6   93.47   17.63
  -6  -8  -6  109.84   25.50
  -6  -8  -6   80.85   11.97
   6   8   5   -0.29    2.54
  -6  -8  -5   -1.57    2.22
   6   8   4   52.63   15.80
  -6  -8  -4   88.52   18.16
   6   8   3    6.06    2.99
  -6  -8  -3    6.87    4.50
   6   8   2   58.82    9.96
  -6  -8  -2   62.51   14.89
   6   8   1    0.19    2.26
  -6  -8  -1    1.10    3.36
   6   8   0   45.31    9.11
  -6  -8   0   51.31   20.22
   6   8  -1    2.16    3.80
  -6  -8   1    1.47    4.85
  -6  -7 -10    5.01    4.32
  -6  -7 -10    3.57    2.17
  -6  -7  -9   20.15    5.28
  -6  -7  -9   26.01    9.14
  -6  -7  -8    1.01    1.51
  -6  -7  -8    0.65    0.90
   6   7   7  124.73   12.40
  -6  -7  -7  130.04   15.86
  -6  -7  -7  133.25   16.07
   6   7   6    5.54    2.42
  -6  -7  -6    5.48    1.67
  -6  -7  -6    7.44    5.52
   6   7   5  119.67   12.07
  -6  -7  -5  144.66   27.79
  -6  -7  -5  111.17    9.43
   6   7   4    0.65    1.37
  -6  -7  -4    2.77    2.57
   6   7   3   79.24   10.53
  -6  -7  -3   90.01   14.96
   6   7   2    0.35    1.04
  -6  -7  -2   -0.13    1.61
   6   7   1   44.38    8.51
  -6  -7  -1   54.30   11.48
   6   7   0   -0.36    2.16
  -6  -7   0    0.77    1.64
   6   7  -1   15.88    5.76
  -6  -7   1   19.29    6.36
   6   7  -2   -0.52    3.06
  -6  -7   2   -0.85    1.61
  -6  -6 -11    0.51    0.90
  -6  -6 -11    1.33    1.22
  -6  -6 -11    0.77    1.59
  -6  -6 -10   44.64    4.81
  -6  -6 -10   32.95   10.62
  -6  -6  -9    5.23    2.96
  -6  -6  -9    5.87    2.37
   6   6   8   53.18    5.95
  -6  -6  -8   48.99   12.12
  -6  -6  -8   59.65    5.83
   6   6   7   -0.52    1.27
  -6  -6  -7   -0.02    1.25
  -6  -6  -7    1.02    1.00
   6   6   6   65.22    7.24
  -6  -6  -6   66.42    6.74
  -6  -6  -6   78.33    9.77
   6   6   5    5.01    1.95
  -6  -6  -5    5.06    3.47
  -6  -6  -5    5.43    2.72
   6   6   4  109.86   10.74
  -6  -6  -4  110.54   23.49
   6   6   3    3.21    2.71
  -6  -6  -3   -0.05    4.23
   6   6   2   80.48   16.81
  -6  -6  -2   95.06   22.99
   6   6   1    5.90    3.12
  -6  -6  -1   10.15    6.68
   6   6   0   98.52   13.63
  -6  -6   0  114.65   25.56
   6   6  -1    3.25    4.08
  -6  -6   1    2.46    3.65
   6   6  -2   78.94   12.50
  -6  -6   2   75.50   17.65
   6   6  -3    5.41    3.28
  -6  -6   3    4.68    4.86
   6   6  -4   21.76    6.85
  -6  -6   4   22.97    9.42
  -6  -5 -12    2.73    1.18
  -6  -5 -11   33.12    5.50
  -6  -5 -11   29.68    6.80
  -6  -5 -11   28.46    7.80
  -6  -5 -10    7.93    2.32
  -6  -5 -10    8.63    2.17
  -6  -5  -9   48.47    8.46
  -6  -5  -9   50.88    8.66
   6   5   8   17.08    2.44
  -6  -5  -8   11.60    3.06
  -6  -5  -8   18.85    3.09
   6   5   7  109.11   12.58
  -6  -5  -7  100.07   10.04
  -6  -5  -7  112.18   14.87
   6   5   6   16.20    4.24
  -6  -5  -6   20.16    7.34
  -6  -5  -6   13.83    3.06
   6   5   5   98.92    8.29
  -6  -5  -5   93.13   13.31
  -6  -5  -5   98.44   17.26
   6   5   4   -0.81    0.76
  -6  -5  -4    0.54    1.73
  -6  -5  -4    0.74    1.22
   6   5   3  172.26   23.95
  -6  -5  -3  191.39   30.24
   6   5   2    0.06    1.30
  -6  -5  -2   -0.20    1.54
   6   5   1  188.84   28.94
  -6  -5  -1  208.20   32.58
   6   5   0    1.75    1.84
  -6  -5   0    2.75    3.32
   6   5  -1   19.33    5.10
  -6  -5   1   23.80    8.08
   6   5  -2   -1.83    1.58
  -6  -5   2   -0.21    1.52
   6   5  -3    4.71   12.38
  -6  -5   3   45.00    6.83
   6   5  -4    0.50    2.41
  -6  -5   4    4.17    2.03
   6   5  -5    2.74    4.97
  -6  -5   5   20.80    4.77
  -6  -4 -11    3.07    1.55
  -6  -4 -11    1.26    1.17
  -6  -4 -11    2.93    1.51
  -6  -4 -10  114.48   11.40
  -6  -4 -10  131.35   17.89
  -6  -4  -9   -1.33    1.48
  -6  -4  -9   -0.04    1.10
  -6  -4  -8  152.42   11.64
  -6  -4  -8  163.96   15.85
   6   4   7    2.06    1.52
  -6  -4  -7    2.97    1.50
  -6  -4  -7    1.67    2.37
   6   4   6  163.92   13.96
  -6  -4  -6  173.01   12.39
  -6  -4  -6  161.38   12.83
   6   4   5    7.55    2.88
  -6  -4  -5    9.90    2.61
  -6  -4  -5    7.60    2.37
   6   4   4    5.84    3.30
  -6  -4  -4    7.08    3.67
  -6  -4  -4    8.40    2.57
   6   4   3    5.22    2.05
  -6  -4  -3    6.68    4.26
  -6  -4  -3    4.83    3.18
   6   4   2   64.28    7.99
  -6  -4  -2   79.16   15.65
   6   4   1    3.41    1.91
  -6  -4  -1    3.77    3.37
   6   4   0  147.63   22.58
  -6  -4   0  146.50   22.32
   6   4  -1    4.84    2.92
  -6  -4   1   13.53    4.67
   6   4  -2  144.89   28.80
  -6  -4   2  118.68   13.22
   6   4  -3    3.82    5.61
  -6  -4   3   18.37    3.78
   6   4  -4    7.61    9.99
  -6  -4   4   54.21    7.61
   6   4  -5    1.42    3.20
  -6  -4   5    3.47    2.43
   6   3  12   -0.13    1.78
   6   3  11   29.65   10.27
   6   3  10   10.93    2.75
  -6  -3 -10   -0.55    3.94
  -6  -3 -10   -0.01    1.76
  -6  -3 -10    7.02    0.83
   6   3   9  103.08   11.29
  -6  -3  -9   90.13    5.40
  -6  -3  -9   98.99   15.51
   6   3   8    0.56    2.09
  -6  -3  -8    0.01    1.84
  -6  -3  -8    9.64    1.77
   6   3   7   67.29    5.49
  -6  -3  -7   80.01    8.15
  -6  -3  -7   62.82    6.87
   6   3   6   15.25    1.64
  -6  -3  -6   15.14    5.38
  -6  -3  -6   14.71    2.33
   6   3   5   62.61    7.18
  -6  -3  -5   75.93    6.29
  -6  -3  -5   62.55   11.78
   6   3   4   55.89    8.04
  -6  -3  -4   60.60    9.80
  -6  -3  -4   46.47    6.40
   6   3   3  522.50   34.96
  -6  -3  -3  561.50   49.46
  -6  -3  -3  550.47   37.20
   6   3   2   52.41    8.96
  -6  -3  -2   39.17    8.99
  -6  -3  -2   41.50    5.15
   6   3   1   61.65   13.51
  -6  -3  -1   81.97    8.23
  -6  -3  -1   71.70    7.18
   6   3   0    0.88    2.03
  -6  -3   0    2.99    1.47
   6   3  -1    8.85    4.39
  -6  -3   1   25.28    3.65
   6   3  -2    2.94    2.37
  -6  -3   2    6.57    3.63
   6   3  -3   43.08   16.33
  -6  -3   3   80.41   14.87
   6   3  -4   -0.01    3.99
  -6  -3   4    2.47    1.93
   6   3  -5    1.15   10.57
  -6  -3   5   20.04    5.00
  -6  -3   6    2.86    4.00
   6   2  11   21.56    8.92
   6   2  10   10.55    5.92
   6   2   9    0.20    1.00
  -6  -2  -9    0.26    1.56
   6   2   8   83.87   14.09
  -6  -2  -8   62.80    3.66
  -6  -2  -8   77.74   13.08
   6   2   7   22.54    1.96
   6   2   7   22.78    4.74
  -6  -2  -7   22.32    2.39
  -6  -2  -7   18.22    6.59
   6   2   6  125.97   14.96
   6   2   6  195.95    7.54
  -6  -2  -6  187.07   11.92
  -6  -2  -6  183.88   13.85
   6   2   5   -0.06    0.29
  -6  -2  -5    0.04    0.35
  -6  -2  -5   -0.08    0.65
   6   2   4  209.75   16.51
  -6  -2  -4  214.06   15.62
  -6  -2  -4  224.22   17.47
   6   2   3   44.02    7.15
  -6  -2  -3   47.65    4.34
  -6  -2  -3   48.06    5.95
   6   2   2   42.02    5.74
  -6  -2  -2   35.71    6.32
  -6  -2  -2   38.34    8.54
   6   2   1    1.23    1.46
  -6  -2  -1    2.74    1.21
  -6  -2  -1    5.73    2.32
   6   2   0   17.25   11.99
  -6  -2   0   55.21    6.45
  -6  -2   0   57.63    5.26
   6   2  -1   -0.16    0.99
  -6  -2   1    0.50    1.39
  -6  -2   1    0.31    0.65
   6   2  -2   66.52   17.40
  -6  -2   2   77.78    9.10
   6   2  -3    1.87    3.06
  -6  -2   3   10.57    3.89
   6   2  -4  105.30   16.55
  -6  -2   4  123.68   20.36
   6   2  -5    0.20    2.09
  -6  -2   5    1.48    1.50
   6   2  -6   10.88   14.77
  -6  -2   6   31.02   10.14
   6   1  11   23.17   10.98
   6   1  10    5.21    3.13
   6   1   9   42.33    8.12
   6   1   8   -0.69    1.85
  -6  -1  -8    0.13    1.64
   6   1   7   15.98    3.93
  -6  -1  -7   13.86    6.46
   6   1   6   11.02    5.66
   6   1   6   13.36    1.07
  -6  -1  -6   12.49    1.25
  -6  -1  -6   10.28    5.47
   6   1   5  137.53   12.66
   6   1   5  135.26    7.34
  -6  -1  -5  131.06   17.83
  -6  -1  -5  121.71    7.88
   6   1   4    3.60    1.51
  -6  -1  -4    6.34    3.07
  -6  -1  -4    6.86    1.67
   6   1   3  134.09    8.74
  -6  -1  -3  130.33   15.79
  -6  -1  -3  105.76    7.16
   6   1   2    1.97    1.82
  -6  -1  -2    2.09    2.11
  -6  -1  -2    2.93    1.74
   6   1   1  144.16   18.42
  -6  -1  -1  144.54   15.86
  -6  -1  -1  165.59   17.39
   6   1   0    0.87    1.12
  -6  -1   0    0.59    0.93
  -6  -1   0    1.27    0.98
  -6  -1   1  225.12   14.35
  -6  -1   1  196.68   16.26
   6   1  -2    2.21    2.72
  -6  -1   2    5.90    2.37
  -6  -1   2    6.24    3.42
   6   1  -3   12.18    7.95
  -6  -1   3   41.70    6.10
  -6  -1   3   40.14    5.86
   6   1  -4    5.62    3.44
  -6  -1   4    4.54    2.48
  -6  -1   4    4.87    3.99
   6   1  -5    2.17    3.06
  -6  -1   5    2.79    1.19
  -6  -1   5    2.15    2.06
   6   1  -6    0.70    2.60
  -6  -1   6    1.31    0.90
  -6  -1   6   -0.68    2.91
   6   0  10   71.11   13.04
   6   0   9    8.12    3.97
   6   0   8  110.87   23.29
   6   0   7   27.29    5.94
  -6   0  -7   24.31    5.31
   6   0   6   45.95   11.89
  -6   0  -6   41.28    6.66
   6   0   5    0.51    0.96
   6   0   5    0.51    0.33
  -6   0  -5    0.27    0.35
  -6   0  -5    0.77    1.59
   6   0   4   36.68    4.97
   6   0   4   30.06    1.93
  -6   0  -4   33.84    3.10
  -6   0  -4   26.43    7.40
   6   0   3    0.09    0.63
  -6   0  -3   -0.40    0.65
  -6   0  -3    0.02    1.11
   6   0   2  120.53   12.28
  -6   0  -2  123.85   14.18
  -6   0  -2  123.76   11.30
   6   0   1    2.79    2.07
  -6   0  -1    2.67    1.16
  -6   0  -1    1.54    1.04
   6   0   0   94.26   14.62
  -6   0   0   91.99    7.09
  -6   0   0   86.53    7.73
   6   0  -1   12.42    5.80
  -6   0   1   10.91    4.45
  -6   0   1   10.00    3.55
   6   0  -2   66.76   10.57
  -6   0   2   66.50   12.98
  -6   0   2   73.47    9.22
   6   0  -3    0.51    1.03
  -6   0   3   -0.10    0.80
  -6   0   3   -0.14    0.49
   6   0  -4   41.47   10.23
  -6   0   4   48.99    7.80
  -6   0   4   43.45    7.03
   6   0  -5    2.46    2.99
  -6   0   5    1.91    1.67
  -6   0   5    2.83    3.44
   6  -1   9   34.75    9.02
   6  -1   8    9.10    4.25
   6  -1   7   34.48   12.30
   6  -1   6    4.12    2.44
   6  -1   5   75.65   13.69
  -6   1  -5   54.92    7.76
   6  -1   4    1.55    1.43
   6  -1   4    2.17    0.59
  -6   1  -4    1.92    1.53
   6  -1   3   53.58    5.92
   6  -1   3   56.42    6.45
  -6   1  -3   60.07    3.50
  -6   1  -3   51.01   10.38
   6  -1   2   46.31    4.37
  -6   1  -2   50.89    6.07
  -6   1  -2   48.51    5.51
   6  -1   1   45.90    8.68
  -6   1  -1   45.90    4.42
  -6   1  -1   46.66    4.92
   6  -1   0    1.00    1.74
  -6   1   0    0.65    1.38
  -6   1   0    0.47    1.18
   6  -1  -1  116.50   17.43
  -6   1   1  109.28   14.81
  -6   1   1   98.24    6.93
   6  -1  -2    2.29    1.80
  -6   1   2    2.85    1.59
  -6   1   2   -0.31    2.53
   6  -1  -3   49.71    8.74
  -6   1   3   49.54    4.15
  -6   1   3   42.73   12.08
   6  -1  -4   -0.77    1.62
  -6   1   4   -0.38    0.79
  -6   1   4   -1.92    2.21
   6  -1  -5   87.97   15.43
  -6   1   5   78.05   12.46
   6  -2   7    5.25    3.30
   6  -2   6   64.90   17.33
   6  -2   5   -0.40    1.15
   6  -2   4   84.92   14.28
   6  -2   3    2.80    2.03
   6  -2   3    1.33    1.09
   6  -2   2   37.29    3.68
   6  -2   2   32.54    4.19
  -6   2  -2   29.92    4.40
   6  -2   1   -0.59    0.95
  -6   2  -1    0.47    0.99
   6  -2   0   57.79   11.10
  -6   2   0   63.57    5.78
   6  -2  -1    4.53    2.82
  -6   2   1    0.42    1.44
  -6   2   1    3.89    1.72
   6  -2  -2   -0.11    1.98
  -6   2   2    0.47    1.01
   6  -2  -3    0.54    3.04
  -6   2   3    0.04    1.52
  -6   2   3    1.51    0.68
   6  -2  -4   44.40   19.15
  -6   2   4   62.76    9.84
   6  -3   5   46.45   13.11
   6  -3   4    1.67    2.66
   6  -3   3   49.86    6.16
   6  -3   2    2.93    1.24
   6  -3   2    1.75    1.64
   6  -3   2    1.33    1.26
   6  -3   1   40.87    7.77
   6  -3   0    0.42    0.95
   6  -3  -1    0.43    1.15
   6  -3  -2    0.14    1.07
   7   8   8    6.93    3.15
  -7  -8  -8   -0.27    2.78
  -7  -8  -8    1.62    2.60
   7   8   7  146.78   24.71
  -7  -8  -7  142.92   13.06
  -7  -8  -7  182.25   36.02
   7   8   6    3.64    3.70
  -7  -8  -6    6.19    3.92
  -7  -8  -6    2.08    1.57
   7   8   5   88.01   18.58
  -7  -8  -5   76.39    9.17
  -7  -8  -5  105.45   16.92
   7   8   4   25.03    6.01
  -7  -8  -4   17.76   15.96
   7   8   3   47.26    9.24
  -7  -8  -3   52.25   22.89
   7   8   2    8.55    6.25
  -7  -8  -2    7.37    5.47
   7   8   1   30.04    8.09
  -7  -8  -1   40.29   11.72
  -7  -7 -10   48.49    5.64
  -7  -7 -10   33.31   13.72
  -7  -7  -9   13.67    7.22
  -7  -7  -9   11.34    4.88
   7   7   8   42.40    9.83
  -7  -7  -8   53.64    9.03
  -7  -7  -8   43.15    6.42
   7   7   7    5.95    1.68
  -7  -7  -7   -1.68    2.87
  -7  -7  -7    0.03    1.55
   7   7   6   90.77   10.64
  -7  -7  -6   97.70   15.55
  -7  -7  -6  121.11   30.63
   7   7   5    6.85    2.54
  -7  -7  -5    9.75    3.72
  -7  -7  -5   -0.15    3.68
   7   7   4  117.02   13.89
  -7  -7  -4  129.05   20.30
   7   7   3    5.22    2.69
  -7  -7  -3    4.86    3.86
   7   7   2   36.97    7.83
  -7  -7  -2   47.85   18.78
   7   7   1    0.57    2.36
  -7  -7  -1    0.08    3.19
   7   7   0   43.10   10.26
  -7  -7   0   46.83   19.47
   7   7  -1   29.15   14.33
  -7  -7   1   29.22    7.36
  -7  -6 -10    0.71    1.18
  -7  -6 -10    0.39    1.70
  -7  -6  -9   71.28   14.45
  -7  -6  -9   64.38    7.79
   7   6   8   23.13    3.78
  -7  -6  -8   26.31    4.53
  -7  -6  -8   34.79    6.88
   7   6   7  146.21   19.31
  -7  -6  -7  190.88   32.37
  -7  -6  -7  140.29   20.50
   7   6   6   15.47    3.28
  -7  -6  -6   14.59    5.81
  -7  -6  -6   17.93    4.80
   7   6   5   94.99    9.82
  -7  -6  -5  103.50   14.18
  -7  -6  -5   82.94    8.85
   7   6   4    2.15    1.42
  -7  -6  -4    2.10    3.43
  -7  -6  -4    0.74    1.35
   7   6   3  127.23   14.09
  -7  -6  -3  143.83   28.66
   7   6   2    8.85    3.62
  -7  -6  -2    8.06    4.41
   7   6   1  127.85   27.40
  -7  -6  -1  147.71   20.56
   7   6   0    0.20    2.89
  -7  -6   0    1.05    1.66
   7   6  -1   21.88    6.66
  -7  -6   1   23.49    6.42
   7   6  -2    0.95    1.60
  -7  -6   2   -0.83    2.51
  -7  -5 -11    5.83    4.07
  -7  -5 -11    0.03    3.96
  -7  -5 -11    5.73    1.34
  -7  -5 -10  127.82   20.83
  -7  -5 -10  161.38   15.15
  -7  -5  -9    0.04    5.24
  -7  -5  -9   10.77    2.57
   7   5   8   94.77    7.21
  -7  -5  -8  104.77   10.56
  -7  -5  -8  109.38   10.30
   7   5   7    7.88    2.91
  -7  -5  -7    5.46    4.14
  -7  -5  -7    6.53    4.25
   7   5   6   58.35    9.58
  -7  -5  -6   66.28    9.16
  -7  -5  -6   64.33   12.67
   7   5   5   17.09    3.11
  -7  -5  -5   13.53    3.70
  -7  -5  -5   20.97    4.45
   7   5   4   37.93    4.93
  -7  -5  -4   40.64   11.38
  -7  -5  -4   24.84    4.92
   7   5   3    2.86    1.58
  -7  -5  -3    2.09    3.15
  -7  -5  -3    0.70    1.41
   7   5   2  164.90   17.59
  -7  -5  -2  183.37   20.00
   7   5   1    1.99    1.82
  -7  -5  -1    1.55    1.82
   7   5   0  123.06   24.02
  -7  -5   0  133.22   15.88
   7   5  -1    0.75    1.64
  -7  -5   1    1.61    2.70
   7   5  -2   40.93   15.25
  -7  -5   2   51.63   14.98
   7   5  -3   -2.52    2.89
  -7  -5   3    0.74    2.58
  -7  -4 -11   32.53   10.70
  -7  -4 -10    0.07    2.71
  -7  -4 -10   10.58    2.57
  -7  -4  -9   62.98    5.83
  -7  -4  -9   49.77    7.54
   7   4   8    0.29    0.56
  -7  -4  -8   -0.05    0.92
  -7  -4  -8   -0.31    0.66
   7   4   7   99.46    6.59
  -7  -4  -7  113.19    9.24
  -7  -4  -7  107.66   17.70
   7   4   6    5.82    1.42
  -7  -4  -6    4.90    3.55
  -7  -4  -6    2.80    3.58
   7   4   5  106.30   13.16
  -7  -4  -5  138.47   18.17
  -7  -4  -5  117.30   18.43
   7   4   4   35.74    4.72
  -7  -4  -4   25.70    8.93
  -7  -4  -4   37.22    5.91
   7   4   3  199.15   24.79
  -7  -4  -3  208.32   17.68
  -7  -4  -3  192.59   23.54
   7   4   2   14.11    6.12
  -7  -4  -2   15.15    6.44
  -7  -4  -2   15.14    5.40
   7   4   1   39.25    6.42
  -7  -4  -1   48.67    6.57
  -7  -4  -1   36.84    5.79
   7   4   0    2.61    2.56
  -7  -4   0    7.06    2.43
   7   4  -1   75.07   17.42
  -7  -4   1   71.62    9.48
   7   4  -2    2.06    3.32
  -7  -4   2    0.22    2.32
   7   4  -3   86.33   17.74
  -7  -4   3   96.48   14.76
   7   4  -4    1.05    2.35
  -7  -4   4    0.61    1.88
   7   3  11   13.90    4.95
   7   3  10    1.73    6.38
  -7  -3 -10   52.02    6.29
  -7  -3  -9    0.33    1.10
   7   3   8  111.45    5.19
  -7  -3  -8  109.50    9.99
  -7  -3  -8  109.25   11.71
   7   3   7    4.87    1.51
  -7  -3  -7    5.08    1.98
  -7  -3  -7    4.31    2.11
   7   3   6   88.72    8.30
  -7  -3  -6   88.09    6.58
  -7  -3  -6   98.63   10.38
   7   3   5    7.11    2.49
  -7  -3  -5    7.91    3.12
  -7  -3  -5    6.99    2.45
   7   3   4  189.64   13.00
  -7  -3  -4  206.00   14.74
  -7  -3  -4  188.21   16.46
   7   3   3   10.13    3.77
  -7  -3  -3    9.27    4.06
  -7  -3  -3   10.28    3.02
   7   3   2   60.92   11.43
  -7  -3  -2   63.56    7.00
  -7  -3  -2   65.46    7.56
   7   3   1    7.49    6.26
  -7  -3  -1   15.89    3.18
  -7  -3  -1   19.55    3.32
   7   3   0   71.21   11.35
  -7  -3   0   62.96   12.17
  -7  -3   0   74.65   12.36
   7   3  -1    0.30    2.17
  -7  -3   1   -0.09    1.27
  -7  -3   1    1.03    0.99
   7   3  -2   73.45   11.07
  -7  -3   2   73.29   17.43
   7   3  -3    0.02    1.20
  -7  -3   3    0.47    1.90
   7   3  -4   29.90    9.87
  -7  -3   4   53.30    9.04
   7   2  10    0.18    2.63
  -7  -2 -10    0.76    1.47
   7   2   9   54.92    9.88
  -7  -2  -9   56.30    9.41
   7   2   8   17.41    3.49
  -7  -2  -8    0.07    3.13
   7   2   7   55.66    2.57
  -7  -2  -7   53.33    4.55
  -7  -2  -7   51.87    7.71
   7   2   6   21.08    2.64
  -7  -2  -6   16.69    4.08
   7   2   5  124.32    6.73
  -7  -2  -5   94.88    9.20
  -7  -2  -5  124.46   19.12
   7   2   4    0.33    0.55
  -7  -2  -4   -0.27    1.00
  -7  -2  -4    1.18    1.47
   7   2   3  100.26   12.46
  -7  -2  -3  115.32    8.84
  -7  -2  -3  122.87   17.26
   7   2   2    0.64    1.11
  -7  -2  -2    0.90    1.51
  -7  -2  -2    0.41    1.74
   7   2   1  119.60   17.65
  -7  -2  -1  141.22   11.96
  -7  -2  -1  115.08   17.62
   7   2   0    0.23    3.49
  -7  -2   0    3.98    1.83
  -7  -2   0    5.63    1.99
   7   2  -1   61.58    9.81
  -7  -2   1   65.66   10.45
  -7  -2   1   61.18   12.91
   7   2  -2   18.52    5.80
  -7  -2   2   19.69    3.42
  -7  -2   2   19.49    4.60
   7   2  -3   55.82   10.87
  -7  -2   3   50.71    9.98
  -7  -2   3   46.39   13.59
   7   2  -4   11.83    9.83
  -7  -2   4   11.93    2.97
  -7  -2   4   13.66    4.40
   7   1  10   34.60    8.38
   7   1   9    0.93    1.74
   7   1   8   29.31    7.69
  -7  -1  -8   -0.88    7.57
   7   1   7    2.38    2.12
  -7  -1  -7    2.83    3.40
   7   1   6   93.51   11.99
   7   1   6   99.76    3.64
  -7  -1  -6  102.94    5.86
  -7  -1  -6  101.53   18.46
   7   1   5   17.46    2.53
  -7  -1  -5   17.03    4.00
  -7  -1  -5   17.11    2.69
   7   1   4   89.69    5.30
  -7  -1  -4   96.83    9.46
  -7  -1  -4   94.66    8.76
   7   1   3    6.48    2.94
  -7  -1  -3    6.85    2.23
  -7  -1  -3    4.32    2.39
   7   1   2   68.22    6.43
  -7  -1  -2   80.94   12.23
  -7  -1  -2   73.34    9.88
   7   1   1   10.73    2.74
  -7  -1  -1   11.80    4.16
  -7  -1  -1    8.42    2.36
   7   1   0  136.60   22.56
  -7  -1   0  130.74   12.10
  -7  -1   0  160.91   12.28
   7   1  -1   12.04    3.58
  -7  -1   1   10.23    4.41
  -7  -1   1    7.84    4.93
   7   1  -2   73.76   11.78
  -7  -1   2   82.22   12.40
  -7  -1   2   72.90   15.19
   7   1  -3    2.38    2.23
  -7  -1   3    0.60    1.18
  -7  -1   3   -0.57    1.03
   7   1  -4    3.90    5.73
  -7  -1   4    3.59    1.66
  -7  -1   4    6.11    4.22
   7   0   9   65.94   21.39
   7   0   8   17.85    5.51
   7   0   7   65.96    9.56
  -7   0  -7   52.37    9.41
   7   0   6    3.66    2.45
  -7   0  -6    4.63    2.46
   7   0   5   21.43    5.23
   7   0   5   26.76    2.35
  -7   0  -5   23.46    8.37
   7   0   4    1.82    0.97
  -7   0  -4    1.10    1.02
  -7   0  -4    0.81    2.36
   7   0   3   56.61    7.30
  -7   0  -3   69.20    7.37
  -7   0  -3   63.75    7.45
   7   0   2   27.85    3.50
  -7   0  -2   23.72    3.95
  -7   0  -2   18.32    5.31
   7   0   1   64.81    7.03
  -7   0  -1   65.14   10.41
  -7   0  -1   65.87    6.64
   7   0   0    1.17    2.20
  -7   0   0    2.24    1.10
  -7   0   0    0.01    1.19
   7   0  -1   88.05   12.13
  -7   0   1   93.34   12.28
  -7   0   1   89.16   10.00
   7   0  -2    0.68    1.97
  -7   0   2    1.81    1.04
  -7   0   2    0.35    2.64
   7   0  -3   69.36   12.79
  -7   0   3   66.23    9.47
  -7   0   3   50.08   16.21
   7  -1   7    0.58    2.43
   7  -1   6   46.56    8.01
   7  -1   5    1.26    1.29
  -7   1  -5    0.18    1.26
   7  -1   4    9.29    4.75
  -7   1  -4   82.34    8.81
   7  -1   3    7.77    3.17
  -7   1  -3   17.51    3.40
   7  -1   2   73.34    6.64
  -7   1  -2   84.40    6.36
  -7   1  -2   79.57    8.47
   7  -1   1   26.15    7.41
  -7   1  -1   30.50    6.32
  -7   1  -1   27.19    7.52
   7  -1   0  104.52   11.64
  -7   1   0  102.49    9.79
  -7   1   0  105.90    8.99
   7  -1  -1   -0.46    3.32
  -7   1   1   -0.06    1.52
  -7   1   1    5.64    1.88
   7  -1  -2    0.08    3.13
  -7   1   2    0.16    2.34
  -7   1   2   11.29    2.33
   7  -2   4   27.34    5.32
   7  -2   2    0.52    0.98
  -7   2  -2   -0.08    0.74
   7  -2   1   11.78    5.28
  -7   2  -1   16.63    4.91
   7  -2   0    1.31    1.29
  -7   2   0   -0.12    1.55
   8   8   6   35.30    7.07
  -8  -8  -6   20.55   10.53
  -8  -8  -6   44.24   11.21
   8   8   5    7.45    2.99
  -8  -8  -5    8.29    7.66
  -8  -8  -5    0.11    4.14
   8   8   4   32.41    5.60
  -8  -8  -4   36.51    7.83
  -8  -8  -4   -0.46    4.66
   8   7   8    0.30    1.96
  -8  -7  -8    1.57    1.75
  -8  -7  -8    0.19    2.31
   8   7   7   41.26   10.97
  -8  -7  -7   52.24   17.60
  -8  -7  -7   44.67    7.60
   8   7   6    3.49    1.81
  -8  -7  -6   -0.04    1.84
  -8  -7  -6    9.56    4.66
   8   7   5   28.54    7.01
  -8  -7  -5   55.22    9.86
   8   7   4    1.37    1.57
  -8  -7  -4    1.47    3.90
  -8  -7  -4    0.01    2.43
   8   7   3   19.42    5.56
  -8  -7  -3   25.10    7.64
  -8  -7  -3   -0.15    2.94
   8   7   2    0.52    2.56
  -8  -7  -2    0.48    2.10
   8   7   1   37.36    9.92
  -8  -7  -1   40.49   11.29
   8   6   9    3.68    3.20
  -8  -6  -9    6.75    2.85
  -8  -6  -9   12.35    5.15
   8   6   8   67.06   12.13
  -8  -6  -8   70.72    9.46
  -8  -6  -8   76.12   11.18
   8   6   7    1.69    1.16
  -8  -6  -7    2.79    2.93
  -8  -6  -7   -0.04    1.51
   8   6   6   63.66   12.95
  -8  -6  -6   73.97   11.33
  -8  -6  -6   69.61    9.77
   8   6   5    4.66    2.29
  -8  -6  -5    0.23    1.58
  -8  -6  -5    0.79    2.09
   8   6   4   68.66   14.71
  -8  -6  -4   85.02   20.49
  -8  -6  -4   63.30    8.76
   8   6   3    3.71    4.15
  -8  -6  -3    7.20    3.29
  -8  -6  -3   -0.74    3.70
   8   6   2   62.15   17.71
  -8  -6  -2   73.19   12.58
  -8  -6  -2   56.33    9.13
   8   6   1   -0.31    1.48
  -8  -6  -1   -0.66    3.01
   8   6   0    7.69    7.36
  -8  -6   0   10.04    7.93
  -8  -5 -10    0.07    3.90
  -8  -5 -10   11.83    3.10
   8   5   9   32.48    3.21
  -8  -5  -9   34.42    4.70
  -8  -5  -9   -0.43    5.31
   8   5   8    1.41    0.88
  -8  -5  -8    0.05    1.99
  -8  -5  -8   -0.03    1.46
   8   5   7   63.60    9.77
  -8  -5  -7   63.80    9.59
  -8  -5  -7   77.72    9.35
   8   5   6    0.61    0.75
  -8  -5  -6   -0.42    1.76
  -8  -5  -6   -0.11    1.05
   8   5   5   19.40    4.70
  -8  -5  -5   19.81    4.20
  -8  -5  -5    0.15    3.92
   8   5   4    4.68    2.50
  -8  -5  -4    2.19    2.97
  -8  -5  -4    0.04    1.65
   8   5   3   56.23   12.91
  -8  -5  -3   51.95    9.24
  -8  -5  -3   47.78    7.38
   8   5   2    3.80    3.78
  -8  -5  -2    1.74    3.25
  -8  -5  -2    3.56    2.64
   8   5   1   58.81    9.40
  -8  -5  -1   49.24   16.56
  -8  -5  -1   47.99    8.18
   8   5   0   12.64    5.77
  -8  -5   0   16.41    3.85
  -8  -5   0   -0.18    2.99
   8   5  -1   36.73    9.09
  -8  -5   1   47.54    8.69
  -8  -4 -10   -0.25    1.22
  -8  -4  -9   -0.35    1.17
   8   4   8    9.14    2.30
  -8  -4  -8   11.10    3.18
  -8  -4  -8   -0.17    2.82
   8   4   7    0.95    1.16
  -8  -4  -7    1.89    1.55
  -8  -4  -7   -0.10    1.46
   8   4   6   10.76    3.28
  -8  -4  -6    0.39    3.37
  -8  -4  -6   15.70    2.60
   8   4   5   26.69    3.83
  -8  -4  -5   27.77    7.92
  -8  -4  -5   29.06    5.72
   8   4   4  199.65   25.04
  -8  -4  -4  228.99   19.76
  -8  -4  -4  201.32   20.69
   8   4   3    7.61    5.03
  -8  -4  -3   11.80    5.68
  -8  -4  -3   13.32    5.72
   8   4   2   62.00   13.10
  -8  -4  -2   62.65    9.67
  -8  -4  -2   65.44   14.19
   8   4   1    0.77    1.13
  -8  -4  -1    1.35    0.98
  -8  -4  -1   -0.99    1.04
   8   4   0   19.48    5.84
  -8  -4   0   28.18    9.71
  -8  -4   0   29.00    8.32
   8   4  -1    1.37    1.66
  -8  -4   1    1.02    1.83
  -8  -4   1    0.35    1.33
   8   4  -2    1.41   13.17
  -8  -4   2   18.31    4.77
  -8  -4   2   33.96   10.87
  -8  -3  -9   57.19    9.98
  -8  -3  -8    0.04    0.91
   8   3   7   52.79    5.32
  -8  -3  -7   45.23    6.29
  -8  -3  -7   53.72    7.77
   8   3   6    5.00    1.14
  -8  -3  -6    1.48    2.04
  -8  -3  -6    7.03    2.57
   8   3   5   44.21    4.45
  -8  -3  -5   37.94    6.95
  -8  -3  -5   38.99   11.16
   8   3   4    0.50    1.31
  -8  -3  -4    0.25    0.77
  -8  -3  -4    1.07    1.80
   8   3   3   12.48    4.60
  -8  -3  -3   13.65    4.84
  -8  -3  -3   12.30    6.19
   8   3   2    1.06    3.05
  -8  -3  -2    3.44    2.15
  -8  -3  -2    4.97    2.17
   8   3   1    0.23    8.76
  -8  -3  -1   43.03    8.81
  -8  -3  -1   37.59    8.70
   8   3   0   -0.74    1.23
  -8  -3   0    0.60    0.88
  -8  -3   0    0.08    1.01
   8   3  -1   61.81   12.26
  -8  -3   1   54.53    7.52
  -8  -3   1   58.21   10.52
   8   3  -2    2.49    6.18
  -8  -3   2    5.65    2.56
  -8  -3   2    9.65    3.60
  -8  -2  -9   -0.12    1.21
  -8  -2  -8   -0.23    1.24
  -8  -2  -7    0.48    2.10
   8   2   6   69.12    6.08
  -8  -2  -6   64.82   15.64
  -8  -2  -6   66.82    7.11
   8   2   5    8.86    2.17
  -8  -2  -5    8.25    2.52
  -8  -2  -5   -0.72    2.35
   8   2   4   28.74    3.54
  -8  -2  -4   35.84    5.94
  -8  -2  -4   30.68    6.46
   8   2   3   -0.26    2.68
  -8  -2  -3    8.37    2.24
  -8  -2  -3    4.35    2.97
   8   2   2    1.51    8.36
  -8  -2  -2   33.16    7.09
  -8  -2  -2   32.15    8.19
   8   2   1   13.11    6.51
  -8  -2  -1   10.98    3.11
  -8  -2  -1   10.32    3.33
   8   2   0   68.35   10.20
  -8  -2   0  102.18   15.50
  -8  -2   0   72.32   14.90
   8   2  -1   -0.11    2.39
  -8  -2   1    5.18    2.01
  -8  -2   1    4.11    3.53
  -8  -2   2   28.55    8.34
  -8  -2   2   26.67    6.48
   8   1   8    4.61    3.46
  -8  -1  -8    8.61    5.83
  -8  -1  -7   35.54   13.06
  -8  -1  -6   -0.38    1.24
   8   1   5   32.63    4.11
  -8  -1  -5   30.21    6.10
   8   1   4    0.13    0.54
  -8  -1  -4    0.89    1.78
  -8  -1  -4    1.36    1.03
   8   1   3   50.27    8.12
  -8  -1  -3   60.11    7.35
  -8  -1  -3   51.82    5.42
   8   1   2    7.38    3.33
  -8  -1  -2    7.88    2.09
  -8  -1  -2    0.33    1.63
  -8  -1  -1    2.99    2.13
  -8  -1  -1    0.37    1.20
   8   1   0    0.64    2.23
  -8  -1   0    1.30    1.05
  -8  -1   0   -0.18    1.12
   8   1  -1   -1.06    1.36
  -8  -1   1    2.10    1.51
  -8  -1   1    0.15    1.73
  -8   0  -6   18.65    9.15
  -8   0  -5    0.35    2.05
  -8   0  -4   56.73    8.70
   8   0   3    9.16    2.36
  -8   0  -3    8.84    3.19
  -8   0  -3    9.66    4.99
   8   0   2   40.46    5.14
  -8   0  -2   44.74    8.28
  -8   0  -2   50.93    6.87
   8   0   1   -0.74    1.31
  -8   0  -1    2.01    1.13
  -8   0  -1    2.32    1.99
  -8   0   0   39.24    6.42
  -8   0   0   46.79    5.71
   9   6   6    3.00    1.61
  -9  -6  -6    0.12    3.52
  -9  -6  -6    0.87    2.34
   9   6   5   10.47    2.72
  -9  -6  -5    8.37    5.93
  -9  -6  -5   -0.28    3.48
   9   6   4   -0.29    0.90
  -9  -6  -4    1.59    1.11
  -9  -6  -4   -0.83    0.99
   9   6   3   32.94    7.38
  -9  -6  -3   22.38   10.86
   9   5   7    0.24    1.12
  -9  -5  -7   -0.03    3.25
  -9  -5  -7    4.12    1.45
   9   5   6   20.02    5.39
  -9  -5  -6   -0.56    8.18
  -9  -5  -6   24.66    6.99
   9   5   5   -2.16    1.17
  -9  -5  -5    0.58    2.70
  -9  -5  -5    0.81    1.46
   9   5   4   75.39   10.44
  -9  -5  -4   86.32   19.19
  -9  -5  -4   72.98   12.30
   9   5   3    2.22    1.81
  -9  -5  -3    1.68    2.14
  -9  -5  -3    0.75    1.96
   9   5   2   18.89    8.89
  -9  -5  -2   24.48   12.00
  -9  -5  -2   14.32    9.00
   9   4   7    5.71    2.39
  -9  -4  -7    5.74    1.76
  -9  -4  -7   -0.05    5.33
   9   4   6    2.71    1.24
  -9  -4  -6    1.62    2.44
  -9  -4  -6    4.61    4.05
   9   4   5   26.24    6.71
  -9  -4  -5   26.78    7.11
  -9  -4  -5   25.46    6.29
  -9  -4  -4    1.30    1.95
  -9  -4  -4    0.03    1.48
   9   4   3   17.11    6.18
  -9  -4  -3   11.41    6.55
  -9  -4  -3   11.15    7.68
   9   4   2    2.03    1.94
  -9  -4  -2    0.88    2.71
  -9  -4  -2   -0.56    1.28
   9   3   6   13.67    3.60
  -9  -3  -6   15.76    4.62
  -9  -3  -6   14.69    4.49
   9   3   5    0.42    0.84
  -9  -3  -5    1.02    1.46
  -9  -3  -5    0.62    1.53
   9   3   4    8.23    4.00
  -9  -3  -4    7.69    3.43
  -9  -3  -4    8.50    2.68
   9   3   3   10.60    3.30
  -9  -3  -3    1.80    4.15
  -9  -3  -3    1.84    2.28
   9   3   2   12.39    6.23
  -9  -3  -2   15.43    4.55
  -9  -3  -2   15.29    7.52
   9   2   4   -0.58    0.94
  -9  -2  -4    1.12    2.56
  -9  -2  -4    3.00    1.03
  -9  -2  -3   12.53    3.95
  -9  -2  -3    9.99    3.03
   0   0   0    0.00    0.00
;
_shelx_hkl_checksum              65341
_shelx_res_file
;
    1.res created by SHELXL-2014/7
TITL 1 in P-1
CELL  0.71073    7.2183    7.4079    9.8870    72.450    68.820    62.740
ZERR  2           0.0014    0.0015    0.0020     0.030     0.030     0.030
LATT 1
SFAC
SFAC C   2.3100 20.8439  1.0200 10.2075  1.5886  0.5687  0.8650 51.6512  =
        0.2156  0.0033  0.0016 11.5000 0.680 12.01000
SFAC
SFAC H   0.4930 10.5109  0.3229 26.1257  0.1402  3.1424  0.0408 57.7998  =
        0.0030  0.0000  0.0000  0.6240 0.350  1.00800
SFAC
SFAC Cu 13.3380  3.5828  7.1676  0.2470  5.6158 11.3966  1.6735 64.8127  =
        1.1910  0.3201  1.2651 5180.0000 1.520 63.55000
SFAC
SFAC N  12.2126  0.0057  3.1322  9.8933  2.0125 28.9975  1.1663  0.5826  =
       -11.5290  0.0061  0.0033 19.6000 0.680 14.01000
SFAC
SFAC O   3.0485 13.2771  2.2868  5.7011  1.5463  0.3239  0.8670 32.9089  =
        0.2508  0.0106  0.0060 32.5000 0.680 16.00000
UNIT 6 22 2 10 8
omit 1 -1 10
omit 1 0  4
omit -6 2 2
omit -1 -1 1
omit -5 3 3
omit 1 -3 3
omit 1 -2 2
omit 1 -2 6
omit 2 4 5
omit 2 2 0
omit 1 0 2
omit 2 -3 6
OMIT   0.00  50.00
L.S. 10
ACTA
BOND $H
FMAP 2
PLAN 20
size 0.26 0.28 0.31
htab
EQIV $1 -x+1, -y+1, -z
HTAB N3 O4W_$1
EQIV $2 x+1, y, z-1
HTAB N3 O2_$2
EQIV $3 x+1, y, z
HTAB N3 O4W_$3
EQIV $4 x, y+1, z
HTAB N5 O1_$4
EQIV $5 -x+2, -y, -z+1
HTAB N5 O1_$5
EQIV $6 -x+2, -y, -z
HTAB O3W O4W_$6
HTAB O3W O2_$5
EQIV $7 -x+1, -y, -z+1
HTAB O4W O1_$7
EQIV $8 x-1, y+1, z
HTAB O4W O3W_$8
HTAB C2 O4W_$1
CONF
WGHT    0.094000
FVAR       0.59006
CU1   3    0.500000    0.500000    0.500000    10.50000    0.02048    0.01779 =
         0.02161   -0.01286   -0.00066   -0.00446
CU2   3    1.000000    0.000000    0.000000    10.50000    0.03676    0.02075 =
         0.01502   -0.00965    0.00221   -0.01048
N1    4    0.860140    0.094778    0.195149    11.00000    0.03787    0.01689 =
         0.01932   -0.00689   -0.00250   -0.00532
N2    4    0.858252   -0.037152    0.326580    11.00000    0.03556    0.01990 =
         0.01733   -0.00899   -0.00063   -0.00714
N3    4    1.139714    0.212600   -0.081515    11.00000    0.04175    0.03958 =
         0.03353   -0.01669   -0.00256   -0.01650
AFIX 137
H3A   2    1.043832    0.334280   -0.110956    11.00000   -1.50000
H3B   2    1.253384    0.171667   -0.157359    11.00000   -1.50000
H3C   2    1.182247    0.223642   -0.011426    11.00000   -1.50000
AFIX   0
N4    4    0.673227    0.286727    0.369834    11.00000    0.02486    0.01711 =
         0.01673   -0.00940   -0.00116   -0.00396
N5    4    0.775340    0.500225    0.506688    11.00000    0.02496    0.03506 =
         0.06341   -0.02518   -0.01084   -0.00703
AFIX 137
H5A   2    0.786531    0.459673    0.598799    11.00000   -1.50000
H5B   2    0.773557    0.626755    0.474411    11.00000   -1.50000
H5C   2    0.887660    0.414348    0.449809    11.00000   -1.50000
AFIX   0
O1    5    0.783651   -0.176687    0.634690    11.00000    0.06053    0.02675 =
         0.02158   -0.00588   -0.00445   -0.01265
O2    5    0.588187    0.151809    0.670695    11.00000    0.04076    0.02734 =
         0.01859   -0.01135    0.00014   -0.00911
O3W   5    1.328214   -0.243184    0.103114    11.00000    0.05067    0.04366 =
         0.03639   -0.01188   -0.01082   -0.01449
AFIX   3
H3WA  2    1.435566   -0.294364    0.038915    11.00000   -1.50000
H3WB  2    1.321730   -0.179882    0.162979    11.00000   -1.50000
AFIX   0
O4W   5    0.279022    0.393739    0.103440    11.00000    0.06598    0.04072 =
         0.03088   -0.00294   -0.01084   -0.02186
AFIX   3
H4WA  2    0.311034    0.274683    0.149542    11.00000   -1.50000
H4WB  2    0.275565    0.487240    0.134369    11.00000   -1.50000
AFIX   0
C1    1    0.744902    0.084103    0.428329    11.00000    0.02897    0.01791 =
         0.01745   -0.00525   -0.00176   -0.00952
C2    1    0.748593    0.285382    0.224104    11.00000    0.03555    0.02206 =
         0.01985   -0.01245   -0.00008   -0.00787
AFIX  43
H2    2    0.725472    0.402961    0.152815    11.00000   -1.20000
AFIX   0
C3    1    0.702393    0.013816    0.591725    11.00000    0.02968    0.02566 =
         0.02176   -0.00998   -0.00206   -0.01063
HKLF 4
REM  1 in P-1
REM R1 =  0.0521 for    1248 Fo > 4sig(Fo)  and  0.0576 for all    1500 data
REM    123 parameters refined using      0 restraints
END
WGHT      0.0941      0.0000
REM Instructions for potential hydrogen bonds
HTAB N3 O4W_$1
HTAB N3 O2_$2
HTAB N3 O4W_$3
HTAB N5 O1_$4
HTAB N5 O1_$5
HTAB O3W O4W_$6
HTAB O3W O2_$5
HTAB O4W O1_$7
HTAB O4W O3W_$8
HTAB C2 O4W_$1
REM Highest difference peak  1.404,  deepest hole -0.667,  1-sigma level  0.139
Q1    1   0.3614  0.5096  0.4980  11.00000  0.05    1.40
Q2    1   1.1363 -0.0092  0.0037  11.00000  0.05    1.18
Q3    1   0.1597  0.3785  0.0996  11.00000  0.05    0.81
Q4    1   1.2259 -0.1986  0.0668  11.00000  0.05    0.79
Q5    1   1.2524  0.2379 -0.0989  11.00000  0.05    0.77
Q6    1   0.6693 -0.1473  0.6044  11.00000  0.05    0.63
Q7    1   0.8401  0.3786  0.5291  11.00000  0.05    0.50
Q8    1   0.7229  0.1079  0.1897  11.00000  0.05    0.40
Q9    1   0.9269  0.0795  0.1137  11.00000  0.05    0.37
Q10   1   0.6936  0.2927  0.3042  11.00000  0.05    0.37
Q11   1   0.5611  0.3078  0.6087  11.00000  0.05    0.35
Q12   1   0.2544  0.3657  0.1861  11.00000  0.05    0.35
Q13   1   0.6903  0.0941  0.7408  11.00000  0.05    0.35
Q14   1   0.7232  0.7532  0.3689  11.00000  0.05    0.35
Q15   1   0.7553  0.5883  0.5613  11.00000  0.05    0.34
Q16   1   1.1302  0.0751 -0.1130  11.00000  0.05    0.33
Q17   1   0.8622 -0.1923  0.5604  11.00000  0.05    0.33
Q18   1   0.7451  0.0307  0.4941  11.00000  0.05    0.32
Q19   1   0.2823  0.4636 -0.0082  11.00000  0.05    0.31
Q20   1   0.7602 -0.1393  0.6800  11.00000  0.05    0.31
;
_shelx_res_checksum              49107
loop_
_space_group_symop_operation_xyz
'x, y, z'
'-x, -y, -z'
loop_
_atom_site_type_symbol
_atom_site_label
_atom_site_fract_x
_atom_site_fract_y
_atom_site_fract_z
_atom_site_U_iso_or_equiv
_atom_site_adp_type
_atom_site_calc_flag
_atom_site_occupancy
Cu Cu1 0.5000 0.5000 0.5000 0.0203(3) Uani d 1
Cu Cu2 1.0000 0.0000 0.0000 0.0256(3) Uani d 1
N N1 0.8601(6) 0.0948(5) 0.1951(4) 0.0275(8) Uani d 1
N N2 0.8583(6) -0.0372(5) 0.3266(4) 0.0262(8) Uani d 1
N N3 1.1397(6) 0.2126(6) -0.0815(4) 0.0377(9) Uani d 1
H H3A 1.0438 0.3343 -0.1110 0.056 Uiso calc 1
H H3B 1.2534 0.1717 -0.1574 0.056 Uiso calc 1
H H3C 1.1822 0.2236 -0.0114 0.056 Uiso calc 1
N N4 0.6732(5) 0.2867(5) 0.3698(4) 0.0210(7) Uani d 1
N N5 0.7753(5) 0.5002(6) 0.5067(5) 0.0391(10) Uani d 1
H H5A 0.7865 0.4597 0.5988 0.059 Uiso calc 1
H H5B 0.7736 0.6268 0.4744 0.059 Uiso calc 1
H H5C 0.8877 0.4143 0.4498 0.059 Uiso calc 1
O O1 0.7837(6) -0.1767(5) 0.6347(4) 0.0396(9) Uani d 1
O O2 0.5882(5) 0.1518(5) 0.6707(3) 0.0312(7) Uani d 1
O O3W 1.3282(5) -0.2432(5) 0.1031(4) 0.0441(9) Uani d 1
H H3WA 1.4356 -0.2944 0.0389 0.066 Uiso d 1
H H3WB 1.3217 -0.1799 0.1630 0.066 Uiso d 1
O O4W 0.2790(7) 0.3937(6) 0.1034(4) 0.0468(10) Uani d 1
H H4WA 0.3110 0.2747 0.1495 0.070 Uiso d 1
H H4WB 0.2756 0.4872 0.1344 0.070 Uiso d 1
C C1 0.7449(6) 0.0841(6) 0.4283(4) 0.0221(9) Uani d 1
C C2 0.7486(6) 0.2854(7) 0.2241(5) 0.0272(10) Uani d 1
H H2 0.7255 0.4030 0.1528 0.033 Uiso calc 1
C C3 0.7024(7) 0.0138(7) 0.5917(5) 0.0257(9) Uani d 1
loop_
_atom_site_aniso_label
_atom_site_aniso_U_11
_atom_site_aniso_U_22
_atom_site_aniso_U_33
_atom_site_aniso_U_12
_atom_site_aniso_U_13
_atom_site_aniso_U_23
Cu1 0.0205(4) 0.0178(4) 0.0216(5) -0.0045(3) -0.0007(3) -0.0129(3)
Cu2 0.0368(5) 0.0207(5) 0.0150(4) -0.0105(3) 0.0022(3) -0.0097(3)
N1 0.0379(19) 0.0169(17) 0.0193(18) -0.0053(15) -0.0025(16) -0.0069(14)
N2 0.0356(19) 0.0199(17) 0.0173(17) -0.0071(14) -0.0006(15) -0.0090(14)
N3 0.042(2) 0.040(2) 0.034(2) -0.0165(18) -0.0026(18) -0.0167(18)
N4 0.0249(16) 0.0171(16) 0.0167(16) -0.0040(14) -0.0012(14) -0.0094(14)
N5 0.0250(18) 0.035(2) 0.063(3) -0.0070(16) -0.0108(18) -0.025(2)
O1 0.061(2) 0.0268(18) 0.0216(17) -0.0126(16) -0.0044(16) -0.0059(15)
O2 0.0408(16) 0.0273(16) 0.0186(14) -0.0091(13) 0.0001(13) -0.0113(13)
O3W 0.051(2) 0.044(2) 0.0364(19) -0.0145(16) -0.0108(16) -0.0119(17)
O4W 0.066(2) 0.041(2) 0.031(2) -0.0219(19) -0.0108(19) -0.0029(17)
C1 0.029(2) 0.0179(19) 0.017(2) -0.0095(16) -0.0018(17) -0.0053(16)
C2 0.036(2) 0.022(2) 0.020(2) -0.0079(18) -0.0001(19) -0.0125(17)
C3 0.030(2) 0.026(2) 0.022(2) -0.0106(18) -0.0021(18) -0.0100(19)
loop_
_atom_type_symbol
_atom_type_description
_atom_type_scat_dispersion_real
_atom_type_scat_dispersion_imag
_atom_type_scat_source
C C 0.0033 0.0016 'International Tables Vol C Tables 4.2.6.8 and 6.1.1.4'
H H 0.0000 0.0000 'International Tables Vol C Tables 4.2.6.8 and 6.1.1.4'
Cu Cu 0.3201 1.2651 'International Tables Vol C Tables 4.2.6.8 and 6.1.1.4'
N N 0.0061 0.0033 'International Tables Vol C Tables 4.2.6.8 and 6.1.1.4'
O O 0.0106 0.0060 'International Tables Vol C Tables 4.2.6.8 and 6.1.1.4'
loop_
_geom_angle_atom_site_label_1
_geom_angle_atom_site_label_2
_geom_angle_atom_site_label_3
_geom_angle_site_symmetry_1
_geom_angle_site_symmetry_3
_geom_angle
N4 Cu1 N4 2_666 . 180.00(16)
N4 Cu1 N5 2_666 . 90.48(14)
N4 Cu1 N5 . . 89.52(14)
N4 Cu1 N5 2_666 2_666 89.52(14)
N4 Cu1 N5 . 2_666 90.48(14)
N5 Cu1 N5 . 2_666 180.0
N4 Cu1 O2 2_666 2_666 73.78(12)
N4 Cu1 O2 . 2_666 106.22(12)
N5 Cu1 O2 . 2_666 92.24(14)
N5 Cu1 O2 2_666 2_666 87.76(14)
N4 Cu1 O2 2_666 . 106.22(12)
N4 Cu1 O2 . . 73.78(12)
N5 Cu1 O2 . . 87.76(14)
N5 Cu1 O2 2_666 . 92.24(14)
O2 Cu1 O2 2_666 . 180.0
N1 Cu2 N1 . 2_755 180.0
N1 Cu2 N3 . . 91.79(15)
N1 Cu2 N3 2_755 . 88.21(15)
N1 Cu2 N3 . 2_755 88.21(15)
N1 Cu2 N3 2_755 2_755 91.79(15)
N3 Cu2 N3 . 2_755 180.0
N1 Cu2 O3W . . 86.07(13)
N1 Cu2 O3W 2_755 . 93.93(13)
N3 Cu2 O3W . . 87.72(13)
N3 Cu2 O3W 2_755 . 92.28(13)
N1 Cu2 O3W . 2_755 93.93(13)
N1 Cu2 O3W 2_755 2_755 86.07(13)
N3 Cu2 O3W . 2_755 92.28(13)
N3 Cu2 O3W 2_755 2_755 87.72(13)
O3W Cu2 O3W . 2_755 180.0
C2 N1 N2 . . 107.8(3)
C2 N1 Cu2 . . 128.8(3)
N2 N1 Cu2 . . 123.3(3)
C1 N2 N1 . . 104.9(3)
Cu2 N3 H3A . . 109.5
Cu2 N3 H3B . . 109.5
H3A N3 H3B . . 109.5
Cu2 N3 H3C . . 109.5
H3A N3 H3C . . 109.5
H3B N3 H3C . . 109.5
C2 N4 C1 . . 103.3(3)
C2 N4 Cu1 . . 136.3(3)
C1 N4 Cu1 . . 120.4(3)
Cu1 N5 H5A . . 109.5
Cu1 N5 H5B . . 109.5
H5A N5 H5B . . 109.5
Cu1 N5 H5C . . 109.5
H5A N5 H5C . . 109.5
H5B N5 H5C . . 109.5
C3 O2 Cu1 . . 107.8(2)
Cu2 O3W H3WA . . 112.1
Cu2 O3W H3WB . . 103.6
H3WA O3W H3WB . . 125.4
H4WA O4W H4WB . . 121.7
N2 C1 N4 . . 112.7(3)
N2 C1 C3 . . 125.8(3)
N4 C1 C3 . . 121.4(3)
N1 C2 N4 . . 111.3(4)
N1 C2 H2 . . 124.4
N4 C2 H2 . . 124.4
O1 C3 O2 . . 127.0(4)
O1 C3 C1 . . 116.5(4)
O2 C3 C1 . . 116.5(4)
loop_
_geom_bond_atom_site_label_1
_geom_bond_atom_site_label_2
_geom_bond_site_symmetry_2
_geom_bond_distance
_geom_bond_publ_flag
Cu1 N4 2_666 1.992(3) ?
Cu1 N4 . 1.992(3) y
Cu1 N5 . 2.013(3) y
Cu1 N5 2_666 2.013(3) ?
Cu1 O2 2_666 2.560(3) ?
Cu1 O2 . 2.560(3) y
Cu2 N1 . 1.999(3) y
Cu2 N1 2_755 1.999(3) ?
Cu2 N3 . 2.061(4) y
Cu2 N3 2_755 2.061(4) ?
Cu2 O3W . 2.574(3) y
Cu2 O3W 2_755 2.574(3) ?
N1 C2 . 1.327(5) ?
N1 N2 . 1.370(5) ?
N2 C1 . 1.329(5) ?
N3 H3A . 0.8900 ?
N3 H3B . 0.8900 ?
N3 H3C . 0.8900 ?
N4 C2 . 1.345(5) ?
N4 C1 . 1.355(5) ?
N5 H5A . 0.8900 ?
N5 H5B . 0.8900 ?
N5 H5C . 0.8900 ?
O1 C3 . 1.256(6) ?
O2 C3 . 1.256(5) ?
O3W H3WA . 0.8171 ?
O3W H3WB . 0.8365 ?
O4W H4WA . 0.8282 ?
O4W H4WB . 0.8248 ?
C1 C3 . 1.502(6) ?
C2 H2 . 0.9300 ?
loop_
_geom_hbond_atom_site_label_D
_geom_hbond_atom_site_label_H
_geom_hbond_atom_site_label_A
_geom_hbond_site_symmetry_A
_geom_hbond_distance_DH
_geom_hbond_distance_HA
_geom_hbond_distance_DA
_geom_hbond_angle_DHA
N3 H3A O4W 2_665 0.89 2.27 3.115(6) 158.1
N3 H3B O2 1_654 0.89 2.37 3.207(5) 157.1
N3 H3C O4W 1_655 0.89 2.37 3.194(5) 154.4
N5 H5B O1 1_565 0.89 2.49 3.057(5) 121.9
N5 H5C O1 2_756 0.89 2.25 3.106(5) 161.7
O3W H3WA O4W 2_755 0.82 1.98 2.783(6) 168.9
O3W H3WB O2 2_756 0.84 2.07 2.844(4) 154.2
O4W H4WA O1 2_656 0.83 2.00 2.608(5) 129.4
O4W H4WB O3W 1_465 0.82 2.11 2.869(5) 152.2
C2 H2 O4W 2_665 0.93 2.53 3.401(7) 156.0
loop_
_geom_torsion_atom_site_label_1
_geom_torsion_atom_site_label_2
_geom_torsion_atom_site_label_3
_geom_torsion_atom_site_label_4
_geom_torsion
C2 N1 N2 C1 -0.4(4)
Cu2 N1 N2 C1 -177.9(3)
N1 N2 C1 N4 0.1(4)
N1 N2 C1 C3 -177.7(4)
C2 N4 C1 N2 0.1(4)
Cu1 N4 C1 N2 -179.8(3)
C2 N4 C1 C3 178.1(4)
Cu1 N4 C1 C3 -1.8(5)
N2 N1 C2 N4 0.5(5)
Cu2 N1 C2 N4 177.8(3)
C1 N4 C2 N1 -0.4(4)
Cu1 N4 C2 N1 179.5(3)
Cu1 O2 C3 O1 177.6(4)
Cu1 O2 C3 C1 -2.9(4)
N2 C1 C3 O1 0.7(6)
N4 C1 C3 O1 -177.0(4)
N2 C1 C3 O2 -178.9(4)
N4 C1 C3 O2 3.5(6)

_cod_database_fobs_code 2020906
