#------------------------------------------------------------------------------
#$Date: 2016-05-07 03:58:52 +0300 (Sat, 07 May 2016) $
#$Revision: 182820 $
#$URL: svn://www.crystallography.net/cod/cif/2/02/05/2020507.cif $
#------------------------------------------------------------------------------
#
# This file is available in the Crystallography Open Database (COD),
# http://www.crystallography.net/. The original data for this entry
# were provided by IUCr Journals, http://journals.iucr.org/.
#
# The file may be used within the scientific community so long as
# proper attribution is given to the journal article from which the
# data were obtained.
#
data_2020507
loop_
_publ_author_name
'Hall, Victoria M.'
'Bertke, Jeffery A.'
'Swift, Jennifer A.'
_publ_section_title
;
 Two tautomeric forms of 2-amino-5,6-dimethylpyrimidin-4-one
;
_journal_coeditor_code           SK3624
_journal_issue                   6
_journal_name_full               'Acta Crystallographica Section C'
_journal_page_first
;
;
_journal_paper_doi               10.1107/S2053229616007403
_journal_volume                  72
_journal_year                    2016
_chemical_formula_iupac          'C6 H9 N3 O'
_chemical_formula_moiety         'C6 H9 N3 O'
_chemical_formula_sum            'C6 H9 N3 O'
_chemical_formula_weight         139.16
_chemical_name_systematic
;
2-Amino-5,6-dimethylpyrimidin-4(1<i>H</i>)-one
;
_space_group_crystal_system      triclinic
_space_group_IT_number           2
_space_group_name_Hall           '-P 1'
_space_group_name_H-M_alt        'P -1'
_symmetry_space_group_name_Hall  '-P 1'
_symmetry_space_group_name_H-M   'P -1'
_atom_sites_solution_hydrogens   mixed
_audit_creation_method           SHELXL-2014/7
_cell_angle_alpha                97.374(10)
_cell_angle_beta                 104.521(9)
_cell_angle_gamma                92.038(10)
_cell_formula_units_Z            2
_cell_length_a                   6.613(2)
_cell_length_b                   7.018(3)
_cell_length_c                   7.078(3)
_cell_measurement_reflns_used    1892
_cell_measurement_temperature    100(2)
_cell_measurement_theta_max      28.5865
_cell_measurement_theta_min      2.934
_cell_volume                     314.6(2)
_computing_cell_refinement
;
SAINT (Bruker, 2014)
;
_computing_data_collection
;
APEX2 (Bruker, 2014)
;
_computing_data_reduction
;
SAINT, XPREP, and SADABS (Bruker, 2014)
;
_computing_molecular_graphics
;
SHELXTL (Bruker, 2014)
;
_computing_publication_material
;
XCIF (Bruker, 2014) and publCIF (Westrip, 2010)
;
_computing_structure_refinement
;
SHELXL2014 (Sheldrick, 2015b)
;
_computing_structure_solution
;
SHELXT (Sheldrick, 2015a)
;
_diffrn_ambient_temperature      100(2)
_diffrn_measured_fraction_theta_full 0.988
_diffrn_measured_fraction_theta_max 0.988
_diffrn_measurement_device       'Bruker Kappa/APEXII CCD'
_diffrn_measurement_method       'profile data from \f and \w scans'
_diffrn_radiation_monochromator  'multilayer mirrors'
_diffrn_radiation_source         'microfocus sealed tube'
_diffrn_radiation_type           MoK\a
_diffrn_radiation_wavelength     0.71073
_diffrn_reflns_av_R_equivalents  0.0560
_diffrn_reflns_limit_h_max       7
_diffrn_reflns_limit_h_min       -7
_diffrn_reflns_limit_k_max       8
_diffrn_reflns_limit_k_min       -8
_diffrn_reflns_limit_l_max       8
_diffrn_reflns_limit_l_min       -8
_diffrn_reflns_number            4211
_diffrn_reflns_theta_full        24.987
_diffrn_reflns_theta_max         24.987
_diffrn_reflns_theta_min         2.934
_exptl_absorpt_coefficient_mu    0.105
_exptl_absorpt_correction_T_max  0.9766
_exptl_absorpt_correction_T_min  0.8541
_exptl_absorpt_correction_type   multi-scan
_exptl_absorpt_process_details
;
(SADABS; Bruker, 2014)
;
_exptl_crystal_colour            colorless
_exptl_crystal_density_diffrn    1.469
_exptl_crystal_density_method    'not measured'
_exptl_crystal_description       prism
_exptl_crystal_F_000             148
_exptl_crystal_size_max          0.354
_exptl_crystal_size_mid          0.060
_exptl_crystal_size_min          0.016
_refine_diff_density_max         0.495
_refine_diff_density_min         -0.309
_refine_ls_extinction_method     none
_refine_ls_goodness_of_fit_ref   1.064
_refine_ls_hydrogen_treatment    mixed
_refine_ls_matrix_type           full
_refine_ls_number_parameters     102
_refine_ls_number_reflns         1096
_refine_ls_number_restraints     1
_refine_ls_restrained_S_all      1.064
_refine_ls_R_factor_all          0.1033
_refine_ls_R_factor_gt           0.0738
_refine_ls_shift/su_max          0.000
_refine_ls_shift/su_mean         0.000
_refine_ls_structure_factor_coef Fsqd
_refine_ls_weighting_details
'w=1/[\s^2^(Fo^2^)+(0.1559P)^2^+0.0319P] where P=(Fo^2^+2Fc^2^)/3'
_refine_ls_weighting_scheme      calc
_refine_ls_wR_factor_gt          0.2119
_refine_ls_wR_factor_ref         0.2277
_reflns_number_gt                794
_reflns_number_total             1096
_reflns_threshold_expression     'I > 2\s(I)'
_cod_data_source_file            sk3624sup1.cif
_cod_data_source_block           I
_cod_database_code               2020507
_shelx_space_group_comment
;
The symmetry employed for this shelxl refinement is uniquely defined
by the following loop, which should always be used as a source of
symmetry information in preference to the above space-group names.
They are only intended as comments.
;
_shelx_estimated_absorpt_t_min   0.964
_shelx_estimated_absorpt_t_max   0.998
_shelx_hkl_file
;
  -1   0   0   50.67    2.88
  -1   0   0   48.94    2.89
  -1   0   0   49.30    2.89
  -1   0   0   50.02    2.90
  -1   0   0   49.20    2.88
   1   0   0   50.78    2.88
   1   0   0   47.62    2.89
   1   0   0   49.02    2.89
   1   0   0   47.35    2.91
   1   0   0   51.25    2.88
  -2   0   0   54.84    3.74
  -2   0   0   68.69    3.73
  -2   0   0   64.11    3.77
   2   0   0   71.99    3.73
   2   0   0   66.08    3.73
   2   0   0   55.89    3.75
   2   0   0   64.14    3.74
   2   0   0   63.74    3.75
  -3   0   0   18.29    1.07
  -3   0   0   18.40    1.15
  -3   0   0   17.86    1.13
   3   0   0   17.74    1.07
   3   0   0   17.65    1.10
   3   0   0   17.26    1.10
   3   0   0   15.54    1.11
  -4   0   0   19.63    1.32
  -4   0   0   18.88    1.19
   4   0   0   18.60    1.19
   4   0   0   19.52    1.22
  -5   0   0   44.78    2.67
  -5   0   0   42.19    2.60
   5   0   0   42.40    2.67
  -6   0   0    1.83    0.50
   6   0   0    2.73    0.93
   6   0   0    1.37    0.73
   6   0   0    2.00    0.45
   7   0   0    7.69    1.10
  -7   1   0    1.55    0.64
  -7   1   0    0.21    0.63
   6  -1   0   13.70    1.07
   6  -1   0   14.93    1.53
  -6   1   0   13.19    1.16
  -5   1   0    1.56    0.36
  -5   1   0    1.71    0.28
   4  -1   0    1.04    0.21
   4  -1   0    1.08    0.23
  -4   1   0    1.17    0.21
  -4   1   0    1.06    0.18
   3  -1   0    6.86    0.51
   3  -1   0    6.81    0.48
   3  -1   0    7.65    0.51
   3  -1   0    6.70    0.51
  -3   1   0    6.81    0.51
  -3   1   0    6.10    0.64
  -3   1   0    6.87    0.52
  -3   1   0    7.09    0.48
   2  -1   0   41.90    2.51
   2  -1   0   43.72    2.50
   2  -1   0   39.86    2.51
  -2   1   0   42.59    2.56
  -2   1   0   43.64    2.51
   1  -1   0   40.52    2.45
   1  -1   0   41.99    2.43
   1  -1   0   43.05    2.43
   1  -1   0   44.06    2.47
   1  -1   0   42.42    2.44
   1  -1   0   40.53    2.45
  -1   1   0   42.91    2.44
  -1   1   0   42.29    2.43
  -1   1   0   43.02    2.43
  -1   1   0   40.64    2.44
  -1   1   0   35.35    2.45
   0  -1   0   41.65    2.43
   0  -1   0   41.81    2.43
   0  -1   0   41.65    2.45
   0  -1   0   41.18    2.44
   0  -1   0   41.28    2.45
   0   1   0   41.16    2.45
   0   1   0   40.85    2.43
   0   1   0   44.54    2.46
   0   1   0   40.66    2.43
   0   1   0   41.60    2.44
  -1  -1   0   18.71    1.13
  -1  -1   0   18.90    1.14
  -1  -1   0   19.10    1.13
  -1  -1   0   19.37    1.14
  -1  -1   0   18.66    1.13
   1   1   0   18.48    1.14
   1   1   0   18.20    1.14
   1   1   0   19.56    1.14
   1   1   0   19.36    1.13
   1   1   0   19.69    1.15
   1   1   0   18.39    1.13
   1   1   0   18.86    1.13
   1   1   0   19.85    1.11
  -2  -1   0    3.35    0.26
   2   1   0    3.28    0.26
   2   1   0    3.42    0.27
   2   1   0    3.38    0.27
   2   1   0    3.62    0.29
   2   1   0    3.12    0.24
  -3  -1   0    3.83    0.36
  -3  -1   0    4.07    0.39
  -3  -1   0    3.81    0.32
   3   1   0    3.66    0.34
   3   1   0    3.69    0.30
   3   1   0    3.99    0.36
   3   1   0    3.99    0.35
  -4  -1   0    0.47    0.23
  -4  -1   0    0.10    0.18
   4   1   0    0.43    0.16
   4   1   0    0.46    0.25
   4   1   0    0.17    0.16
  -5  -1   0    3.41    0.48
   5   1   0    3.73    0.53
   5   1   0    3.78    0.43
   5   1   0    3.50    1.01
   5   1   0    3.66    0.55
  -6  -1   0   21.07    1.56
  -6  -1   0   20.64    1.49
   6   1   0   21.88    1.50
   6   1   0   19.39    1.44
   6   1   0   22.37    1.92
  -7  -1   0    2.89    0.74
  -7  -1   0    1.36    0.90
  -7  -1   0    2.72    0.63
   7   1   0    0.47    0.72
  -7   2   0   -0.25    0.64
   6  -2   0   11.48    1.45
   6  -2   0   12.75    0.99
  -6   2   0   11.42    1.10
   5  -2   0    0.97    0.53
   5  -2   0   -0.34    0.68
  -5   2   0    0.41    0.18
  -5   2   0    1.06    0.35
  -4   2   0    9.45    0.61
  -4   2   0    8.77    0.71
   3  -2   0    7.22    0.55
   3  -2   0    7.47    0.53
   3  -2   0    6.47    0.59
  -3   2   0    7.71    0.55
  -3   2   0    7.39    0.72
   2  -2   0   48.67    2.89
   2  -2   0   47.67    2.96
   2  -2   0   49.14    2.86
   2  -2   0   49.74    2.88
   2  -2   0   48.44    2.87
  -2   2   0   47.62    2.93
  -2   2   0   48.72    2.88
  -2   2   0   47.96    2.87
   1  -2   0    2.75    0.20
   1  -2   0    2.72    0.22
   1  -2   0    2.83    0.22
   1  -2   0    2.63    0.25
   1  -2   0    2.89    0.25
  -1   2   0    2.65    0.21
  -1   2   0    2.65    0.21
  -1   2   0    2.93    0.31
  -1   2   0    2.69    0.27
   0  -2   0  151.01    8.55
   0  -2   0  147.36    8.57
   0  -2   0  147.99    8.53
   0  -2   0  146.14    8.53
   0   2   0  146.55    8.53
   0   2   0  146.12    8.53
   0   2   0  147.82    8.57
   0   2   0  140.22    8.56
  -1  -2   0    8.21    0.51
  -1  -2   0    8.28    0.55
  -1  -2   0    8.14    0.54
   1   2   0    8.35    0.53
   1   2   0    8.26    0.51
   1   2   0    8.69    0.57
   1   2   0    8.46    0.57
  -2  -2   0    2.73    0.26
  -2  -2   0    2.66    0.23
  -2  -2   0    2.92    0.27
   2   2   0    2.95    0.20
   2   2   0    2.99    0.23
   2   2   0    2.44    0.28
   2   2   0    2.67    0.24
   2   2   0    2.34    0.28
   2   2   0    2.43    0.25
   2   2   0    2.78    0.29
   2   2   0    2.46    0.25
  -3  -2   0    0.15    0.17
  -3  -2   0    0.19    0.11
  -3  -2   0    0.14    0.14
  -3  -2   0    0.15    0.15
   3   2   0    0.19    0.20
   3   2   0    0.25    0.15
   3   2   0    0.21    0.19
   3   2   0    0.07    0.18
   3   2   0    0.21    0.13
  -4  -2   0    1.40    0.28
   4   2   0    1.88    0.28
   4   2   0    1.57    0.25
   5   2   0   81.18    5.08
   5   2   0   79.55    4.92
   5   2   0   86.84    4.97
  -6  -2   0    8.88    0.95
   6   2   0   10.15    0.98
   6   2   0   10.78    1.49
   6   2   0   10.23    0.87
  -7  -2   0    1.90    1.11
   7   2   0    0.94    0.66
   6  -3   0    1.40    0.50
   6  -3   0    1.03    0.94
  -6   3   0    0.41    0.51
  -6   3   0    1.26    0.43
   5  -3   0   -0.19    0.52
   5  -3   0   -0.60    0.69
  -5   3   0    0.24    0.26
  -5   3   0    0.05    0.20
  -5   3   0    0.82    0.38
   4  -3   0    0.32    0.17
  -4   3   0   -0.06    0.26
   3  -3   0   20.39    1.29
   3  -3   0   20.17    1.27
  -3   3   0   20.18    1.29
  -3   3   0   21.38    1.29
   2  -3   0    4.38    0.35
   2  -3   0    4.33    0.33
   2  -3   0    4.27    0.35
  -2   3   0    4.25    0.34
  -2   3   0    4.03    0.35
  -2   3   0    3.82    0.47
  -2   3   0    4.29    0.54
   1  -3   0    7.73    0.52
   1  -3   0    7.54    0.59
   1  -3   0    7.92    0.53
  -1   3   0    7.95    0.51
  -1   3   0    7.54    0.60
  -1   3   0    7.47    0.51
  -1   3   0    8.02    0.64
   0  -3   0   18.66    1.17
   0  -3   0   18.89    1.11
   0  -3   0   18.94    1.14
   0   3   0   18.21    1.19
   0   3   0   17.99    1.13
   0   3   0   18.05    1.11
   0   3   0   17.14    1.16
   0   3   0   18.50    1.14
  -1  -3   0   10.93    0.73
  -1  -3   0    9.66    0.66
  -1  -3   0    9.81    0.61
  -1  -3   0   10.31    0.70
   1   3   0    9.15    0.71
   1   3   0    9.33    0.65
   1   3   0    9.68    0.66
   1   3   0    9.90    0.64
   1   3   0    9.70    0.70
  -2  -3   0   12.13    0.83
   2   3   0   12.71    0.84
   2   3   0   13.25    0.79
   2   3   0   12.63    0.82
  -3  -3   0   10.82    0.74
  -3  -3   0   10.20    0.70
   3   3   0   10.21    0.69
   3   3   0    9.81    0.76
   3   3   0   10.50    0.73
   4   3   0    0.07    0.22
   4   3   0    0.07    0.19
   4   3   0    0.08    0.17
   4   3   0    0.26    0.36
  -5  -3   0    1.50    0.51
   5   3   0    2.85    0.74
   5   3   0    2.48    0.46
   5   3   0    2.75    0.33
  -6  -3   0    1.81    0.64
   6   3   0    3.12    0.54
   6   3   0    1.40    1.09
   6   3   0    3.60    0.63
   7   3   0    0.40    0.69
   7   3   0    1.39    0.64
  -7   4   0    0.40    0.74
  -6   4   0    5.66    0.81
  -6   4   0    6.32    0.73
   5  -4   0    0.17    0.76
  -5   4   0    0.32    0.31
  -5   4   0    0.11    0.41
   4  -4   0    0.35    0.22
  -4   4   0   -0.49    0.41
  -4   4   0    0.76    0.24
   3  -4   0   29.64    1.74
   3  -4   0   28.06    1.75
  -3   4   0   26.86    1.86
   2  -4   0    0.06    0.12
   2  -4   0    0.22    0.27
   2  -4   0   -0.22    0.18
  -2   4   0   -0.08    0.15
  -2   4   0   -0.13    0.13
  -2   4   0   -0.07    0.36
   1  -4   0    2.43    0.28
   1  -4   0    2.61    0.27
   1  -4   0    2.44    0.35
   1  -4   0    2.15    0.28
  -1   4   0    2.20    0.25
  -1   4   0    2.43    0.43
   0  -4   0    7.27    0.51
   0  -4   0    7.57    0.51
   0  -4   0    8.05    0.59
   0   4   0    7.18    0.53
   0   4   0    7.40    0.58
   0   4   0    6.96    0.50
   0   4   0    7.18    0.50
   0   4   0    6.05    0.62
  -1  -4   0    0.12    0.20
  -1  -4   0    0.14    0.11
   1   4   0   -0.05    0.14
   1   4   0    0.15    0.12
   1   4   0   -0.12    0.14
   1   4   0   -0.03    0.14
  -2  -4   0   21.69    1.29
   2   4   0   21.11    1.37
   3   4   0    2.04    0.35
   3   4   0    2.35    0.29
   3   4   0    2.44    0.36
   4   4   0    9.69    0.90
   4   4   0    7.18    0.69
  -5  -4   0    4.47    0.72
   5   4   0    4.62    0.85
   5   4   0    4.26    0.60
  -6  -4   0    2.37    0.75
   6   4   0    1.84    0.55
  -6   5   0    1.91    0.78
   5  -5   0   -0.31    0.65
   5  -5   0   -0.06    0.42
   5  -5   0   -0.36    0.88
  -5   5   0    0.83    0.50
  -5   5   0    0.58    0.37
   4  -5   0    8.08    1.12
   4  -5   0    5.85    0.73
  -4   5   0    5.97    0.61
   3  -5   0    0.62    0.21
   3  -5   0    1.49    0.61
   3  -5   0    1.19    0.46
  -3   5   0    0.36    0.99
  -3   5   0    0.59    0.26
   2  -5   0    1.90    0.39
  -2   5   0    1.06    0.24
   1  -5   0    9.88    0.74
  -1   5   0    8.70    0.63
  -1   5   0    8.32    0.62
  -1   5   0    8.35    0.64
   0  -5   0    1.77    0.36
   0   5   0    1.40    0.22
   0   5   0    0.84    0.26
  -1  -5   0   -0.41    0.26
  -1  -5   0   -0.17    0.15
   1   5   0   -0.11    0.18
   1   5   0    0.09    0.16
   1   5   0   -0.17    0.18
  -2  -5   0    8.07    0.56
   2   5   0    8.19    0.67
   2   5   0    7.80    0.76
   2   5   0    8.31    0.60
   2   5   0    9.20    0.68
   3   5   0    7.71    0.68
  -4  -5   0    0.68    0.56
  -4  -5   0    0.10    0.42
   4   5   0    0.24    0.36
   4   5   0    0.14    0.32
   5   5   0    0.78    0.44
   5  -6   0    0.49    0.48
  -5   6   0    0.88    0.63
   4  -6   0    3.01    0.49
   4  -6   0    3.38    0.96
  -4   6   0    2.23    0.44
   3  -6   0    3.32    0.59
   3  -6   0    4.24    1.02
   3  -6   0    2.40    0.34
  -3   6   0    2.56    0.45
  -3   6   0    1.99    0.38
   2  -6   0    0.39    0.62
   2  -6   0    0.93    0.47
  -2   6   0    0.70    0.33
  -2   6   0    1.49    0.29
   1  -6   0   20.00    1.44
   1  -6   0   19.14    1.34
  -1   6   0   18.02    1.21
  -1   6   0   16.99    1.32
   0  -6   0    0.77    0.42
   0   6   0    1.09    0.30
   0   6   0    1.58    0.32
   0   6   0    1.11    0.26
  -1  -6   0    1.04    0.77
  -1  -6   0    1.88    0.49
   1   6   0    1.48    0.34
   1   6   0    1.09    0.25
   2   6   0   22.91    1.54
   2   6   0   22.90    1.45
   2   6   0   23.18    1.54
   3   6   0    0.07    0.36
   3   6   0    0.36    0.26
   3   6   0   -0.03    0.34
   4   6   0    1.52    0.48
   4   6   0    0.61    0.43
   5   6   0    5.78    0.87
   5   6   0    8.03    1.36
   5   6   0    5.72    0.82
   5  -7   0    0.37    0.52
  -5   7   0   -0.94    0.50
  -5   7   0    1.03    0.48
   4  -7   0    2.16    0.50
   3  -7   0   -0.31    0.60
   3  -7   0    0.48    0.41
  -3   7   0    0.43    0.37
  -3   7   0    0.44    0.40
  -3   7   0    0.03    0.37
   2  -7   0    1.66    0.57
  -2   7   0    0.33    0.33
  -2   7   0    0.47    0.33
  -2   7   0    0.53    0.36
   1  -7   0    1.27    0.86
  -1   7   0    0.61    0.55
  -1   7   0    0.75    0.36
   0  -7   0    0.44    0.52
   0  -7   0    0.14    0.69
   0   7   0    0.56    0.34
   0   7   0    0.60    0.30
   0   7   0    0.69    0.35
  -1  -7   0   -0.14    0.50
  -1  -7   0    0.68    0.65
   1   7   0    0.84    0.37
   1   7   0   -0.03    0.29
   1   7   0    0.44    0.38
  -2  -7   0    1.26    0.43
   2   7   0    1.60    0.47
  -3  -7   0   -0.08    0.46
   4   7   0    1.50    0.59
   3  -8   0    0.78    0.55
   3  -8   0    1.41    0.79
  -3   8   0    1.23    0.50
  -3   8   0    1.02    0.46
   2  -8   0    1.85    0.74
   2  -8   0    2.12    0.53
  -2   8   0    1.75    0.47
  -2   8   0    1.81    0.49
   1  -8   0   19.90    1.64
   1  -8   0   17.92    1.42
  -1   8   0   17.90    1.33
  -1   8   0   17.53    1.29
   0  -8   0   -0.13    0.45
   0   8   0   -0.13    0.37
   0   8   0    0.57    0.45
  -1  -8   0    0.68    0.50
   1   8   0    0.03    0.53
   1   8   0    0.74    0.47
   1   8   0    1.34    0.49
  -2  -8   0    0.80    0.52
   2   8   0   -0.09    0.51
   2   8   0    0.41    0.58
   2   8  -1    8.12    1.19
   2   8  -1    9.76    1.05
   1   8  -1    0.71    0.49
   1   8  -1    0.74    0.39
   1   8  -1    0.43    0.65
  -1  -8   1   -0.01    0.86
   0   8  -1    0.29    0.36
   0   8  -1    0.25    0.70
   0  -8   1    1.39    0.76
  -1   8  -1    6.45    0.71
  -1   8  -1    5.48    0.77
   1  -8   1    7.87    1.10
  -2   8  -1    0.40    0.42
  -2   8  -1    0.54    0.43
   2  -8   1   -1.06    0.98
  -3   8  -1    1.14    0.52
  -3   8  -1    1.35    0.60
   3  -8   1    3.15    0.98
   4   7  -1   -0.08    0.51
   4   7  -1    0.08    0.54
  -4  -7   1    0.98    0.53
   3   7  -1    4.62    0.59
   3   7  -1    4.52    0.70
   2   7  -1    3.21    0.61
   2   7  -1    3.17    0.50
  -2  -7   1    4.20    0.79
   1   7  -1    0.17    0.34
   1   7  -1   -0.48    0.32
   1   7  -1   -0.12    0.28
  -1  -7   1   -0.20    0.57
   0   7  -1    1.18    0.39
   0   7  -1    0.87    0.32
   0  -7   1    1.98    0.63
  -1   7  -1    1.50    0.36
  -1   7  -1    1.74    0.44
   1  -7   1    2.24    0.67
  -2   7  -1    0.74    0.36
   2  -7   1    1.01    1.00
   2  -7   1    0.64    0.42
   2  -7   1    1.67    1.03
  -3   7  -1    1.22    0.66
   3  -7   1    1.77    0.82
   3  -7   1    1.66    0.40
  -4   7  -1    0.98    0.46
  -4   7  -1    1.35    0.44
   4  -7   1    1.72    0.85
   4  -7   1    0.89    0.56
   5   6  -1    5.56    0.83
  -5  -6   1    8.61    1.13
   4   6  -1    2.73    0.54
  -4  -6   1    2.46    0.50
   3   6  -1    2.61    0.37
   3   6  -1    2.56    0.49
   3   6  -1    2.17    0.47
   2   6  -1    7.33    0.70
   2   6  -1    7.08    0.69
   2   6  -1    7.83    0.61
  -2  -6   1    6.57    0.83
   1   6  -1    0.51    0.28
   1   6  -1    0.34    0.27
   1   6  -1    0.77    0.24
  -1  -6   1    0.86    0.45
   0   6  -1    2.29    0.36
   0   6  -1    1.77    0.35
   0   6  -1    1.69    0.28
   0  -6   1    3.24    0.57
  -1   6  -1    2.31    0.36
  -1   6  -1    2.21    0.38
   1  -6   1    3.37    0.60
  -2   6  -1    0.70    0.33
   2  -6   1    0.75    0.55
   2  -6   1    0.92    0.65
  -3   6  -1   12.58    1.06
  -3   6  -1   10.97    0.88
   3  -6   1   10.70    1.09
   3  -6   1   11.91    1.31
  -4   6  -1    0.30    0.45
  -4   6  -1    0.51    0.36
   4  -6   1    0.44    0.70
   4  -6   1    3.07    1.27
  -5   6  -1    0.63    0.59
   5  -6   1    0.75    0.48
   6   5  -1    3.53    0.64
   6   5  -1    3.57    0.53
  -6  -5   1    2.02    0.94
   5   5  -1    2.50    0.50
   5   5  -1    2.98    0.57
   5   5  -1    3.52    0.90
  -5  -5   1    2.20    0.95
  -5  -5   1    2.99    0.58
   4   5  -1   -0.23    0.26
   4   5  -1   -0.32    0.53
   4   5  -1    0.44    0.34
   4   5  -1    0.36    0.33
  -4  -5   1   -0.06    0.42
  -4  -5   1    0.58    0.51
   3   5  -1    3.71    0.50
   3   5  -1    4.05    0.41
   3   5  -1    4.04    0.51
   3   5  -1    3.69    0.63
  -3  -5   1    4.35    0.63
   2   5  -1    3.92    0.47
   2   5  -1    4.56    0.46
   2   5  -1    4.17    0.40
  -2  -5   1    4.67    0.58
   1   5  -1    4.84    0.46
   1   5  -1    4.81    0.47
   1   5  -1    4.66    0.40
   1   5  -1    4.57    0.41
  -1  -5   1    4.74    0.55
   0   5  -1   12.59    0.84
   0   5  -1   12.37    0.81
   0  -5   1   12.78    0.96
  -1   5  -1    2.86    0.30
  -1   5  -1    2.64    0.33
   1  -5   1    3.18    0.53
  -2   5  -1    2.47    0.34
  -2   5  -1    2.07    0.31
   2  -5   1    2.37    0.26
   2  -5   1    3.42    0.56
  -3   5  -1    5.83    0.54
   3  -5   1    6.94    0.81
   3  -5   1    5.36    0.48
  -4   5  -1   -0.01    0.31
  -4   5  -1   -0.02    0.36
   4  -5   1    0.69    0.77
  -5   5  -1    0.13    0.48
   5  -5   1    0.19    0.46
   7   4  -1    0.77    0.74
   7   4  -1    0.65    1.42
   6   4  -1    9.10    0.86
   6   4  -1   10.81    1.10
   6   4  -1    9.65    0.90
   6   4  -1    8.89    0.85
   5   4  -1   56.89    3.86
   5   4  -1   63.76    3.71
   5   4  -1   63.51    3.90
   5   4  -1   63.35    3.75
   5   4  -1   64.56    3.78
   4   4  -1   -0.04    0.25
   4   4  -1    0.36    0.26
   4   4  -1    0.24    0.24
   4   4  -1   -0.26    0.38
   4   4  -1    0.15    0.24
   3   4  -1    1.21    0.26
   3   4  -1    0.69    0.21
   3   4  -1    1.08    0.21
   3   4  -1    0.69    0.35
  -3  -4   1    1.23    0.35
   2   4  -1    1.33    0.25
   2   4  -1    1.48    0.22
   2   4  -1    0.87    0.33
   2   4  -1    1.07    0.23
   2   4  -1    0.86    0.19
  -2  -4   1    1.07    0.27
  -2  -4   1    1.12    0.17
   1   4  -1    1.43    0.19
  -1  -4   1    1.30    0.20
  -1  -4   1    1.73    0.31
   0   4  -1   67.86    4.10
   0  -4   1   67.74    4.04
   0  -4   1   69.80    4.13
  -1   4  -1    0.55    0.38
  -1   4  -1    0.52    0.15
   1  -4   1    0.30    0.16
  -2   4  -1   16.63    1.43
  -2   4  -1   18.44    1.23
  -2   4  -1   22.59    1.36
  -2   4  -1   20.07    1.25
   2  -4   1   20.52    1.23
   2  -4   1   19.78    1.26
   2  -4   1   22.35    1.39
  -3   4  -1    3.29    0.42
  -3   4  -1    3.08    0.42
  -3   4  -1    2.83    0.35
   3  -4   1    2.67    0.42
   3  -4   1    3.95    0.75
   3  -4   1    2.49    0.33
  -4   4  -1    6.41    0.58
  -4   4  -1    5.31    0.62
   4  -4   1    8.13    1.00
   4  -4   1    6.06    0.87
  -5   4  -1    0.13    0.55
  -5   4  -1    0.77    0.34
   5  -4   1   -0.71    1.19
   5  -4   1    0.20    0.33
   5  -4   1   -0.19    0.71
  -6   4  -1   10.00    1.14
  -7   4  -1    0.03    0.67
  -7   4  -1   -1.00    0.76
   7   3  -1    2.99    0.62
   7   3  -1    4.32    1.95
   7   3  -1    2.82    0.92
   6   3  -1   21.85    1.43
   6   3  -1   22.58    1.95
   6   3  -1   24.41    1.65
   6   3  -1   22.34    1.53
  -6  -3   1   23.37    1.77
   5   3  -1    0.50    0.31
   5   3  -1    0.50    0.28
   5   3  -1    0.21    0.66
   5   3  -1    1.40    0.39
  -5  -3   1    1.74    0.58
   4   3  -1    0.08    0.16
   4   3  -1    0.11    0.21
   4   3  -1    0.05    0.26
   3   3  -1    5.48    0.46
   3   3  -1    5.63    0.46
   3   3  -1    6.06    0.43
   3   3  -1    6.34    0.48
   3   3  -1    5.95    0.42
   3   3  -1    5.27    0.52
   3   3  -1    5.35    0.57
   2   3  -1    0.70    0.23
   2   3  -1    0.85    0.15
   2   3  -1    0.90    0.18
   2   3  -1    0.54    0.23
   2   3  -1    0.55    0.25
   2   3  -1    0.54    0.14
   2   3  -1    0.85    0.24
   2   3  -1    0.89    0.15
  -2  -3   1    0.77    0.21
  -2  -3   1    0.76    0.13
  -2  -3   1    0.62    0.15
   1   3  -1   13.38    0.98
   1   3  -1   14.94    0.92
   1   3  -1   14.76    0.90
   1   3  -1   13.48    0.93
   1   3  -1   14.51    0.94
  -1  -3   1   14.46    0.88
  -1  -3   1   13.76    0.90
  -1  -3   1   14.42    0.96
   0   3  -1   45.13    2.83
   0   3  -1   47.68    2.78
   0   3  -1   45.21    2.79
   0   3  -1   46.36    2.75
   0  -3   1   47.78    2.82
   0  -3   1   45.62    2.76
   0  -3   1   46.87    2.75
  -1   3  -1    9.21    0.62
  -1   3  -1    9.36    0.66
  -1   3  -1    9.52    0.73
  -1   3  -1    9.63    0.61
  -1   3  -1    8.81    0.75
  -1   3  -1    9.01    0.61
   1  -3   1    9.47    0.63
   1  -3   1   10.45    0.73
   1  -3   1    9.81    0.59
   1  -3   1    9.38    0.62
  -2   3  -1    9.05    0.65
  -2   3  -1    9.40    0.61
  -2   3  -1    9.11    0.63
  -2   3  -1    9.94    0.90
   2  -3   1    8.98    0.66
   2  -3   1    9.49    0.75
   2  -3   1    9.20    0.61
   2  -3   1    9.35    0.61
  -3   3  -1    0.56    0.36
  -3   3  -1    0.89    0.23
  -3   3  -1    1.62    0.24
   3  -3   1    0.98    0.20
   3  -3   1    1.33    0.20
   3  -3   1    0.97    0.26
   3  -3   1    0.98    0.45
  -4   3  -1    1.10    0.38
  -5   3  -1    2.56    0.53
  -5   3  -1    3.66    0.52
  -5   3  -1    3.36    0.47
   5  -3   1    2.97    0.90
   5  -3   1    4.10    0.89
  -6   3  -1    8.88    0.86
  -6   3  -1    9.50    1.05
   6  -3   1   10.23    1.09
   7   2  -1    3.74    0.70
   7   2  -1    4.75    1.52
  -7  -2   1    2.14    0.78
   6   2  -1    0.50    0.32
   6   2  -1    1.78    0.89
   6   2  -1    0.76    0.44
   5   2  -1   20.36    1.29
  -5  -2   1   16.02    1.40
   4   2  -1    8.96    0.71
   4   2  -1    9.67    0.70
   4   2  -1   10.26    0.68
   3   2  -1    5.16    0.41
   3   2  -1    5.45    0.37
   3   2  -1    5.30    0.44
   3   2  -1    5.38    0.44
   3   2  -1    5.00    0.48
   3   2  -1    5.12    0.45
   3   2  -1    5.49    0.42
   3   2  -1    5.78    0.51
  -3  -2   1    5.19    0.49
   2   2  -1   18.60    1.17
   2   2  -1   19.74    1.17
   2   2  -1   18.09    1.19
   2   2  -1   19.12    1.18
   2   2  -1   19.47    1.16
   2   2  -1   19.45    1.20
   2   2  -1   18.17    1.21
  -2  -2   1   19.30    1.20
   1   2  -1   41.41    2.53
   1   2  -1   43.25    2.56
   1   2  -1   43.21    2.48
   1   2  -1   38.50    2.50
   1   2  -1   42.66    2.51
   1   2  -1   43.66    2.53
  -1  -2   1   43.20    2.49
  -1  -2   1   42.22    2.51
  -1  -2   1   43.92    2.49
   0   2  -1  941.92   56.24
   0   2  -1  975.91   56.26
   0   2  -1 1000.00   56.21
   0   2  -1  965.23   56.21
   0   2  -1  957.74   56.10
   0  -2   1  938.45   56.20
   0  -2   1  952.03   56.22
   0  -2   1  999.31   56.11
  -1   2  -1    7.26    0.55
  -1   2  -1    7.25    0.48
  -1   2  -1    6.85    0.45
  -1   2  -1    6.38    0.57
  -1   2  -1    6.92    0.45
   1  -2   1    7.32    0.45
   1  -2   1    7.62    0.45
   1  -2   1    6.83    0.45
   1  -2   1    7.09    0.47
  -2   2  -1   13.14    0.84
  -2   2  -1   13.53    0.85
  -2   2  -1   13.65    0.85
  -2   2  -1   13.87    0.97
  -2   2  -1   13.25    0.86
   2  -2   1   13.91    0.85
   2  -2   1   13.12    0.85
   2  -2   1   13.86    0.85
   2  -2   1   13.03    0.82
  -3   2  -1    5.85    0.54
  -3   2  -1    6.88    0.49
   3  -2   1    6.28    0.47
   3  -2   1    5.89    0.48
   3  -2   1    5.67    0.64
   3  -2   1    6.15    0.49
  -4   2  -1    5.87    0.47
  -4   2  -1    4.92    0.50
   4  -2   1    3.56    0.71
  -5   2  -1   31.65    2.27
   5  -2   1   41.36    2.67
  -6   2  -1    0.70    0.51
   6  -2   1   -0.10    0.80
   6  -2   1   -0.47    0.46
  -7   2  -1    6.53    0.94
  -7   2  -1    6.99    0.95
  -8  -1   1   -1.37    0.93
  -8  -1   1    1.57    1.00
   7   1  -1   -0.25    0.52
   7   1  -1   -0.99    1.18
  -7  -1   1    1.25    0.67
   6   1  -1    9.38    1.52
   6   1  -1   14.03    1.04
  -6  -1   1   12.87    1.14
  -5  -1   1    0.94    0.30
   4   1  -1   -0.16    0.16
   4   1  -1    0.14    0.26
   4   1  -1    0.10    0.13
   4   1  -1   -0.04    0.23
   4   1  -1   -0.25    0.18
  -4  -1   1    0.01    0.35
  -4  -1   1   -0.30    0.17
  -4  -1   1    0.22    0.21
   3   1  -1   12.99    0.84
   3   1  -1   13.68    0.85
   3   1  -1   13.72    0.87
   3   1  -1   11.56    0.88
   3   1  -1   13.01    0.86
   3   1  -1   13.08    0.85
   3   1  -1   13.59    0.86
  -3  -1   1   12.28    0.87
  -3  -1   1   13.25    0.86
  -3  -1   1   14.27    0.89
  -3  -1   1   13.35    0.86
   2   1  -1   52.13    3.09
   2   1  -1   51.72    3.08
   2   1  -1   51.72    3.06
   2   1  -1   52.66    3.07
   2   1  -1   53.99    3.09
   2   1  -1   52.20    3.07
  -2  -1   1   49.94    3.08
   1   1  -1   58.60    3.66
   1   1  -1   54.00    3.70
   1   1  -1   62.84    3.65
   1   1  -1   61.34    3.64
   1   1  -1   63.14    3.64
   1   1  -1   64.65    3.64
   1   1  -1   65.52    3.68
   1   1  -1   60.90    3.67
   1   1  -1   63.22    3.64
  -1  -1   1   61.11    3.64
  -1  -1   1   61.03    3.65
  -1  -1   1   68.09    3.64
  -1  -1   1   66.14    3.67
  -1  -1   1   62.08    3.64
  -1  -1   1   62.75    3.67
  -1  -1   1   62.28    3.67
   0   1  -1   13.11    0.97
   0   1  -1   15.00    0.88
   0   1  -1   14.85    0.89
   0   1  -1   16.09    0.92
   0   1  -1   14.99    0.91
   0  -1   1   14.99    0.95
   0  -1   1   15.36    0.91
   0  -1   1   15.68    0.88
   0  -1   1   13.76    0.90
   0  -1   1   15.29    0.91
  -1   1  -1   10.67    0.64
  -1   1  -1   10.93    0.71
  -1   1  -1   10.53    0.65
  -1   1  -1   10.77    0.65
  -1   1  -1   10.08    0.65
  -1   1  -1    8.96    0.65
   1  -1   1   11.07    0.65
   1  -1   1   11.13    0.66
   1  -1   1   10.96    0.65
   1  -1   1   10.70    0.65
   1  -1   1   11.01    0.70
   1  -1   1   11.17    0.65
  -2   1  -1    6.08    0.44
  -2   1  -1    5.90    0.47
  -2   1  -1    6.72    0.57
   2  -1   1    6.41    0.43
   2  -1   1    6.08    0.42
   2  -1   1    6.92    0.44
  -3   1  -1    1.50    0.22
  -3   1  -1    1.24    0.19
  -3   1  -1    1.30    0.37
  -3   1  -1    1.19    0.18
   3  -1   1    0.97    0.31
   3  -1   1    1.20    0.21
   3  -1   1    1.25    0.19
   3  -1   1    0.91    0.19
  -4   1  -1    0.57    0.18
  -4   1  -1    0.29    0.17
   4  -1   1    0.26    0.36
  -5   1  -1    7.84    0.70
  -5   1  -1    6.78    0.70
  -6   1  -1   14.39    1.23
   6  -1   1   15.84    1.26
  -7   1  -1    1.62    0.66
   7  -1   1    1.78    1.77
  -8   0   1    4.15    1.02
  -8   0   1    4.57    1.02
   7   0  -1   -0.72    1.09
  -7   0   1   -0.33    0.64
   6   0  -1   11.72    1.02
   6   0  -1   14.40    1.07
   6   0  -1   14.41    1.53
  -6   0   1   17.44    1.21
   5   0  -1    0.91    0.24
   5   0  -1    0.53    0.30
  -5   0   1    0.86    0.21
   4   0  -1   14.45    0.91
  -4   0   1   14.14    1.01
  -4   0   1   13.41    0.87
   3   0  -1   16.58    0.98
   3   0  -1   14.79    1.03
   3   0  -1   16.64    1.05
   3   0  -1   17.18    1.01
   3   0  -1   17.09    1.04
   3   0  -1   15.55    1.01
   3   0  -1   16.70    1.01
  -3   0   1   14.51    1.04
  -3   0   1   15.81    1.06
  -3   0   1   17.92    1.04
  -3   0   1   17.12    1.07
   2   0  -1   75.35    4.31
   2   0  -1   70.47    4.31
   2   0  -1   73.36    4.30
   2   0  -1   78.36    4.29
   2   0  -1   78.08    4.30
   2   0  -1   67.35    4.26
  -2   0   1   70.49    4.30
  -2   0   1   75.35    4.31
  -2   0   1   77.05    4.31
  -2   0   1   66.35    4.30
   1   0  -1    8.96    0.61
   1   0  -1   11.40    0.63
   1   0  -1   11.04    0.63
   1   0  -1    8.48    0.61
   1   0  -1    9.54    0.61
   1   0  -1   10.69    0.64
  -1   0   1   10.08    0.61
  -1   0   1   10.03    0.63
  -1   0   1    8.89    0.61
  -1   0   1    8.62    0.61
  -1   0   1   11.19    0.63
  -1   0   1   10.62    0.62
  -1   0   1   11.35    0.64
   0   0  -1  144.63    9.13
   0   0  -1  166.31    9.13
   0   0  -1  146.40    9.13
   0   0  -1  146.37    9.12
   0   0   1  148.43    9.13
   0   0   1  152.23    9.12
   0   0   1  181.76    9.14
   0   0   1  157.47    9.16
   0   0   1  175.73    9.15
   0   0   1  163.77    9.13
   0   0   1  146.06    9.13
  -1   0  -1   14.36    0.88
  -1   0  -1   15.83    0.92
  -1   0  -1   14.52    0.89
  -1   0  -1   13.00    0.89
   1   0   1   16.90    0.93
   1   0   1   14.32    0.89
   1   0   1   14.11    0.89
   1   0   1   15.45    0.93
   1   0   1   14.83    0.88
  -2   0  -1    0.38    0.10
  -2   0  -1    0.31    0.11
  -2   0  -1    0.63    0.19
   2   0   1    0.35    0.10
   2   0   1    0.24    0.07
   2   0   1    0.11    0.09
  -3   0  -1    0.21    0.13
  -3   0  -1    0.78    0.28
   3   0   1    0.48    0.19
   3   0   1    0.22    0.16
   3   0   1    0.21    0.15
   3   0   1    0.09    0.11
  -4   0  -1   13.33    0.82
  -4   0  -1   12.09    0.82
   4   0   1   12.43    0.92
   4   0   1   11.42    0.88
   4   0   1   12.17    0.81
  -5   0  -1  135.79    7.78
  -5   0  -1  141.26    7.83
   5   0   1  116.78    7.77
  -6   0  -1   14.74    1.21
  -6   0  -1   14.70    1.16
   6   0   1   12.26    1.17
  -7   0  -1    1.24    0.68
   7   0   1    0.38    0.92
   8  -1  -1    2.02    0.85
  -8   1   1    0.77    0.96
  -8   1   1    2.29    0.96
   7  -1  -1    1.30    1.10
  -7   1   1    0.06    0.61
   6  -1  -1    4.14    0.94
   6  -1  -1    2.85    0.45
  -6   1   1    2.02    0.57
  -6   1   1    2.77    0.58
   5  -1  -1    1.38    0.29
   5  -1  -1    1.53    0.26
  -5   1   1    1.55    0.45
  -5   1   1    0.89    0.18
   4  -1  -1   -0.23    0.26
  -4   1   1    0.51    0.42
  -4   1   1   -0.02    0.16
  -4   1   1   -0.05    0.19
   3  -1  -1   37.94    2.52
   3  -1  -1   44.84    2.52
   3  -1  -1   42.28    2.47
   3  -1  -1   41.10    2.50
   3  -1  -1   42.63    2.53
  -3   1   1   42.49    2.51
  -3   1   1   40.22    2.54
  -3   1   1   45.65    2.53
  -3   1   1   40.37    2.57
   2  -1  -1    5.55    0.38
   2  -1  -1    5.49    0.41
   2  -1  -1    5.88    0.36
  -2   1   1    4.84    0.40
  -2   1   1    5.81    0.39
  -2   1   1    5.54    0.46
   1  -1  -1   14.93    0.89
   1  -1  -1   14.85    0.88
   1  -1  -1   15.12    0.89
   1  -1  -1   14.62    0.89
   1  -1  -1   14.66    0.91
   1  -1  -1   14.20    0.90
  -1   1   1   15.52    0.90
  -1   1   1   15.31    0.88
  -1   1   1   14.63    0.90
  -1   1   1   14.44    0.89
  -1   1   1   14.71    0.91
   0  -1  -1   10.11    0.60
   0  -1  -1   10.21    0.62
   0  -1  -1    9.84    0.62
   0  -1  -1   10.30    0.60
   0  -1  -1    9.49    0.62
   0   1   1   10.76    0.62
   0   1   1    9.98    0.62
   0   1   1    9.83    0.60
   0   1   1    9.77    0.60
   0   1   1    9.86    0.62
   0   1   1   10.26    0.62
  -1  -1  -1   13.65    0.81
  -1  -1  -1   13.00    0.83
  -1  -1  -1   12.87    0.81
  -1  -1  -1   13.90    0.83
   1   1   1   13.50    0.85
   1   1   1   13.22    0.82
   1   1   1   13.61    0.81
   1   1   1   13.32    0.83
   1   1   1   13.11    0.81
   1   1   1   13.57    0.85
  -2  -1  -1   34.49    2.08
  -2  -1  -1   35.72    2.07
   2   1   1   34.59    2.06
   2   1   1   36.47    2.08
   2   1   1   34.46    2.07
   2   1   1   31.68    2.07
  -3  -1  -1   17.20    1.14
  -3  -1  -1   17.62    1.11
   3   1   1   18.19    1.12
   3   1   1   16.83    1.10
   4   1   1    0.05    0.15
   4   1   1    0.26    0.23
  -5  -1  -1    2.51    0.41
  -5  -1  -1    2.11    0.44
   5   1   1    3.08    0.93
   5   1   1    3.27    0.46
   5   1   1    2.35    0.61
  -6  -1  -1    3.18    0.54
  -6  -1  -1    2.42    0.58
   6   1   1    2.10    0.65
   6   1   1    2.37    0.54
  -7  -1  -1    0.80    0.68
   7   1   1    0.92    0.90
  -8   2   1    1.99    0.98
   7  -2  -1    1.38    1.13
  -7   2   1    0.89    0.66
   6  -2  -1    9.44    0.84
   6  -2  -1    5.76    1.67
  -6   2   1    9.80    0.88
  -6   2   1    9.40    0.99
  -5   2   1   -0.11    0.30
   4  -2  -1    1.90    0.22
   4  -2  -1    1.92    0.28
  -4   2   1    1.77    0.33
   3  -2  -1   52.44    3.19
   3  -2  -1   54.89    3.16
   3  -2  -1   54.44    3.20
  -3   2   1   53.71    3.26
  -3   2   1   53.14    3.23
  -3   2   1   53.02    3.19
  -3   2   1   53.11    3.19
   2  -2  -1    3.66    0.30
   2  -2  -1    4.05    0.33
   2  -2  -1    4.10    0.31
  -2   2   1    3.86    0.31
  -2   2   1    3.84    0.30
   1  -2  -1    5.36    0.36
   1  -2  -1    5.00    0.34
   1  -2  -1    4.46    0.38
   1  -2  -1    5.05    0.32
  -1   2   1    5.09    0.42
  -1   2   1    4.96    0.35
  -1   2   1    4.91    0.33
  -1   2   1    4.93    0.35
   0  -2  -1   47.23    2.76
   0  -2  -1   45.90    2.75
   0  -2  -1   46.48    2.73
   0   2   1   44.95    2.75
   0   2   1   47.08    2.72
   0   2   1   47.06    2.77
   0   2   1   48.07    2.73
   0   2   1   45.72    2.77
  -1  -2  -1    0.41    0.12
  -1  -2  -1    0.35    0.08
  -1  -2  -1    0.40    0.11
  -1  -2  -1    0.42    0.12
   1   2   1    0.57    0.12
   1   2   1    0.60    0.13
   1   2   1    0.51    0.08
   1   2   1    0.35    0.15
  -2  -2  -1   68.89    4.02
  -2  -2  -1   68.83    4.05
   2   2   1   68.66    4.01
   2   2   1   64.02    4.05
   2   2   1   72.34    4.05
   2   2   1   66.87    4.03
  -3  -2  -1    1.33    0.22
   3   2   1    1.51    0.24
   3   2   1    1.00    0.19
  -4  -2  -1   14.87    1.06
   4   2   1   16.05    1.06
  -5  -2  -1    1.08    0.39
   5   2   1    1.57    0.77
   5   2   1    1.47    0.42
  -6  -2  -1    0.44    0.56
  -6  -2  -1    1.56    0.48
   6   2   1    1.14    0.56
  -7  -2  -1    1.60    0.67
   7   2   1    2.46    0.92
   7   2   1    3.34    0.78
   7  -3  -1    5.68    1.57
   6  -3  -1    1.90    0.50
   6  -3  -1    3.21    0.99
  -6   3   1    1.57    0.45
  -6   3   1    1.85    0.61
   5  -3  -1    1.93    0.35
  -5   3   1    2.48    0.50
  -5   3   1    2.51    0.43
   4  -3  -1   15.47    1.02
  -4   3   1   16.25    1.15
  -4   3   1   15.83    1.05
   3  -3  -1    0.11    0.18
   3  -3  -1    0.15    0.14
   3  -3  -1    0.48    0.16
  -3   3   1    0.24    0.14
   2  -3  -1    7.96    0.55
   2  -3  -1    8.93    0.57
   2  -3  -1    7.82    0.56
   2  -3  -1    7.66    0.55
  -2   3   1    8.14    0.61
  -2   3   1    7.39    0.70
  -2   3   1    7.76    0.56
   1  -3  -1   34.88    2.12
   1  -3  -1   34.54    2.12
   1  -3  -1   36.37    2.10
  -1   3   1   35.85    2.14
  -1   3   1   34.77    2.10
  -1   3   1   35.55    2.10
  -1   3   1   33.59    2.15
   0  -3  -1   -0.13    0.08
   0  -3  -1   -0.10    0.18
   0  -3  -1   -0.05    0.12
   0  -3  -1   -0.08    0.10
   0  -3  -1   -0.05    0.11
   0   3   1    0.05    0.16
   0   3   1    0.06    0.11
   0   3   1    0.03    0.10
   0   3   1    0.11    0.17
   0   3   1    0.10    0.09
  -1  -3  -1   -0.06    0.13
  -1  -3  -1    0.06    0.14
   1   3   1   -0.02    0.18
   1   3   1    0.05    0.16
   1   3   1   -0.03    0.13
  -2  -3  -1   30.43    1.89
  -2  -3  -1   30.93    1.94
   2   3   1   30.49    1.84
   2   3   1   31.62    1.90
  -3  -3  -1    5.09    0.45
  -3  -3  -1    5.34    0.48
   3   3   1    4.72    0.42
   3   3   1    5.83    0.48
  -4  -3  -1    0.16    0.45
  -4  -3  -1   -0.40    0.26
  -4  -3  -1    0.51    0.25
   4   3   1    0.01    0.52
   4   3   1    0.17    0.26
   4   3   1    0.69    0.44
  -5  -3  -1    1.14    0.39
   5   3   1   -0.14    0.37
   5   3   1   -0.21    0.82
  -6  -3  -1    1.88    0.83
   6   3   1    0.63    0.56
   7  -4  -1    6.93    1.50
  -7   4   1    3.75    0.90
   6  -4  -1   20.64    1.89
  -6   4   1   17.98    1.55
  -5   4   1    0.63    0.32
  -5   4   1    1.09    0.45
  -4   4   1    4.96    0.51
  -4   4   1    5.51    0.62
   3  -4  -1    2.53    0.36
  -3   4   1    2.38    0.47
  -3   4   1    2.68    0.33
   2  -4  -1    0.38    0.14
   2  -4  -1    0.35    0.20
  -2   4   1    0.27    0.15
  -2   4   1    0.24    0.32
  -2   4   1    0.53    0.15
   1  -4  -1   55.46    3.11
   1  -4  -1   52.14    3.06
  -1   4   1   49.49    3.07
  -1   4   1   49.90    3.07
  -1   4   1   50.17    3.13
   0  -4  -1    0.18    0.14
   0   4   1    0.40    0.20
   0   4   1    0.54    0.14
  -1  -4  -1    0.98    0.17
   1   4   1    1.28    0.23
   1   4   1    1.28    0.22
   2   4   1   49.80    3.02
  -3  -4  -1    1.84    0.53
   3   4   1    1.29    0.30
   3   4   1    1.81    0.52
   3   4   1    1.03    0.21
  -4  -4  -1    1.18    0.37
  -4  -4  -1    1.47    0.45
   4   4   1    0.85    0.59
   5   4   1    9.70    0.93
   5   4   1   12.16    1.66
   5   4   1    9.94    0.82
  -6  -4  -1    0.00    0.71
   6   4   1    2.03    1.87
   6   4   1   -0.58    0.56
   6  -5  -1    1.75    0.53
  -6   5   1   -0.69    0.66
   5  -5  -1    0.25    0.89
   5  -5  -1    0.21    0.48
   5  -5  -1    1.23    0.40
  -5   5   1    0.15    0.34
  -5   5   1    0.38    0.51
  -4   5   1    0.94    0.31
  -4   5   1    1.07    0.23
   3  -5  -1    0.14    0.22
   3  -5  -1    0.86    0.74
  -3   5   1    0.44    0.57
  -3   5   1    0.76    0.25
   2  -5  -1    1.96    0.47
  -2   5   1    1.76    0.28
  -2   5   1    1.48    0.27
   1  -5  -1    3.49    0.48
  -1   5   1    3.43    0.36
   0  -5  -1   -0.23    0.18
   0   5   1    0.03    0.16
   0   5   1    0.17    0.19
  -1  -5  -1    0.79    0.17
   1   5   1    1.38    0.32
   1   5   1    0.78    0.24
   2   5   1    1.88    0.35
   2   5   1    1.63    0.32
  -3  -5  -1    0.68    0.48
   3   5   1    0.34    0.32
   3   5   1    0.34    0.50
  -4  -5  -1    3.68    0.66
   4   5   1    2.94    0.54
   4   5   1    3.78    0.81
   4   5   1    4.09    0.57
   5   5   1    2.46    0.72
   6  -6  -1   -0.18    1.33
   6  -6  -1   -0.21    0.53
   5  -6  -1    4.70    0.70
  -5   6   1    3.90    0.76
  -5   6   1    4.82    0.67
  -5   6   1    4.22    0.69
   4  -6  -1    0.25    0.43
   4  -6  -1   -0.10    0.37
  -4   6   1    0.31    0.32
  -4   6   1    0.29    0.36
   3  -6  -1    0.97    0.66
   3  -6  -1    1.67    0.45
  -3   6   1    0.98    0.33
  -3   6   1    1.00    0.35
   2  -6  -1    6.04    0.89
   2  -6  -1    4.50    0.64
  -2   6   1    5.18    0.52
  -1   6   1   29.86    1.86
   0  -6  -1   -0.37    0.85
   0   6   1    0.52    0.29
   0   6   1    0.25    0.24
   0   6   1    0.17    0.25
  -1  -6  -1    1.25    0.42
  -1  -6  -1    0.66    0.37
   1   6   1    0.83    0.25
   1   6   1    1.01    0.31
   1   6   1    1.07    0.34
   2   6   1   -0.02    0.31
   2   6   1    0.10    0.34
  -3  -6  -1    0.52    0.60
   3   6   1    0.79    0.41
   3   6   1    0.46    0.37
   4   6   1    7.64    1.24
  -5   7   1    0.13    0.52
  -5   7   1   -0.28    0.51
   4  -7  -1   13.17    1.52
   3  -7  -1    7.12    0.82
  -3   7   1    6.18    0.67
  -3   7   1    7.06    0.97
  -3   7   1    6.77    0.71
   2  -7  -1    1.47    0.80
   2  -7  -1    0.16    0.41
  -2   7   1    1.46    0.37
  -2   7   1    0.88    0.42
   1  -7  -1    0.01    0.71
  -1   7   1    0.09    0.35
  -1   7   1    0.41    0.31
   0  -7  -1    1.86    0.78
   0   7   1    1.49    0.43
   0   7   1    1.16    0.38
   0   7   1    0.99    0.35
   1   7   1    0.64    0.40
  -3  -7  -1   -0.98    0.90
   3   7   1    0.21    0.48
   3   7   1   -0.45    0.49
   3  -8  -1    1.21    0.62
   3  -8  -1    1.87    1.25
  -3   8   1    1.72    0.79
  -3   8   1    0.18    0.45
   2  -8  -1   -0.29    0.72
  -2   8   1   -0.43    0.46
  -2   8   1    0.17    0.51
   1  -8  -1   -0.45    0.49
  -1   8   1    0.36    0.41
   0   8   1    0.72    0.51
   0   8   1    0.69    0.48
   1   8   1    2.47    0.58
   3   8  -2    2.33    0.69
   3   8  -2    2.40    0.69
  -3  -8   2    0.49    1.06
   2   8  -2    3.25    0.67
   2   8  -2    4.07    0.66
   2   8  -2    4.13    0.72
  -2  -8   2    4.47    1.01
   1   8  -2    0.25    0.38
   0   8  -2    0.63    0.40
   0   8  -2    1.00    0.76
   0  -8   2    2.24    0.95
  -1   8  -2    1.45    0.57
  -1   8  -2    1.43    0.46
   1  -8   2    2.34    0.90
  -3   8  -2    4.53    0.69
   4   7  -2    0.28    0.55
   4   7  -2    0.02    0.53
  -4  -7   2    0.76    0.54
   3   7  -2    1.92    0.51
   3   7  -2    1.09    0.46
   2   7  -2    0.88    0.47
   2   7  -2    1.13    0.43
   2   7  -2    1.09    0.43
  -2  -7   2    1.30    0.67
   1   7  -2    3.07    0.64
   1   7  -2    2.89    0.47
   1   7  -2    2.94    0.53
  -1  -7   2    3.64    0.77
   0   7  -2    6.27    0.65
   0  -7   2    7.42    0.98
  -1   7  -2    0.97    0.35
  -1   7  -2    1.11    0.41
   1  -7   2    1.02    0.73
  -2   7  -2    1.60    0.40
  -2   7  -2    1.99    0.46
   2  -7   2    2.00    0.84
  -3   7  -2    1.94    0.65
  -3   7  -2    2.75    0.52
   3  -7   2    0.83    0.90
  -4   7  -2    0.16    0.44
  -4   7  -2    0.17    0.48
   4  -7   2   -0.75    1.01
   5   6  -2   37.43    2.37
   5   6  -2   29.21    2.78
   5   6  -2   39.27    2.42
  -5  -6   2   35.21    2.36
   4   6  -2    0.70    0.44
   4   6  -2   -0.48    0.36
   4   6  -2   -0.03    0.42
  -4  -6   2    0.05    0.44
   3   6  -2    0.90    0.37
   3   6  -2    0.47    0.37
   3   6  -2    0.31    0.32
  -3  -6   2    1.34    0.58
   2   6  -2    0.28    0.27
   2   6  -2   -0.11    0.31
   2   6  -2   -0.25    0.31
  -2  -6   2    0.53    0.49
   1   6  -2   -0.29    0.25
  -1  -6   2   -0.41    0.68
   0   6  -2   31.46    2.01
   0  -6   2   32.78    2.18
  -1   6  -2    0.40    0.25
   1  -6   2    0.28    0.58
  -2   6  -2    9.59    0.81
   2  -6   2   10.99    1.13
   2  -6   2   10.62    1.22
  -3   6  -2    1.18    0.37
   3  -6   2    1.47    0.30
   3  -6   2    1.91    1.14
   3  -6   2    2.00    0.83
  -4   6  -2    3.75    0.58
   4  -6   2    3.72    0.55
   4  -6   2    2.46    0.98
  -5   6  -2    0.43    0.62
   5  -6   2   -0.74    1.49
   5  -6   2    0.86    0.53
   6   5  -2   17.84    1.35
   6   5  -2   16.74    1.24
  -6  -5   2   16.26    1.53
   5   5  -2    0.01    0.40
   5   5  -2    0.72    0.50
   5   5  -2   -0.58    0.33
   5   5  -2   -0.41    0.67
   5   5  -2    0.20    0.41
  -5  -5   2   -0.14    0.99
  -5  -5   2   -0.64    0.47
   4   5  -2    0.06    0.33
   4   5  -2   -0.07    0.20
   4   5  -2   -0.21    0.33
   4   5  -2    0.07    0.27
  -4  -5   2    0.13    0.49
   3   5  -2    3.73    0.43
   3   5  -2    3.90    0.51
   3   5  -2    3.46    0.44
   3   5  -2    3.29    0.48
  -3  -5   2    3.64    0.64
   2   5  -2    1.38    0.28
   2   5  -2    1.42    0.31
  -2  -5   2    1.51    0.43
   1   5  -2    6.73    0.56
  -1  -5   2    6.46    0.70
   0   5  -2   19.82    1.29
   0  -5   2   20.66    1.45
  -1   5  -2    2.08    0.31
  -1   5  -2    2.05    0.32
   1  -5   2    2.12    0.58
   1  -5   2    1.60    0.22
  -2   5  -2    1.95    0.34
   2  -5   2    1.71    0.26
   2  -5   2    1.75    0.62
  -3   5  -2    0.95    0.51
  -3   5  -2    1.19    0.51
   3  -5   2   -0.08    0.89
  -4   5  -2    2.73    0.46
  -4   5  -2    3.41    0.52
   4  -5   2    2.45    0.89
  -5   5  -2    5.92    0.75
   5  -5   2    4.38    1.11
   5  -5   2    4.45    0.70
   6  -5   2    5.99    0.93
   6  -5   2    6.80    1.75
   7   4  -2    2.06    0.60
  -7  -4   2    2.43    1.13
   6   4  -2    0.36    0.35
   6   4  -2   -0.35    0.86
   6   4  -2   -0.01    0.44
   6   4  -2   -0.27    0.35
   6   4  -2    0.56    0.41
   6   4  -2    0.09    0.52
  -6  -4   2    0.05    0.60
   5   4  -2    8.34    1.23
   5   4  -2    8.77    0.72
   5   4  -2    9.10    0.78
   5   4  -2    9.31    0.80
   5   4  -2    9.16    0.70
   5   4  -2    9.84    0.87
   4   4  -2    5.51    0.53
   4   4  -2    4.40    0.69
   4   4  -2    4.97    0.57
   4   4  -2    4.59    0.46
  -4  -4   2    5.04    0.65
   3   4  -2    0.41    0.15
   3   4  -2    0.47    0.25
   3   4  -2    1.03    0.26
   3   4  -2    0.49    0.18
   3   4  -2    0.54    0.21
  -3  -4   2    0.43    0.34
   2   4  -2    4.03    0.40
   2   4  -2    3.76    0.40
   2   4  -2    4.34    0.37
   2   4  -2    3.75    0.32
  -2  -4   2    4.00    0.50
   1   4  -2   29.57    1.80
  -1  -4   2   29.07    1.90
   0   4  -2  253.99   15.24
   0  -4   2  264.08   15.19
   0  -4   2  266.19   15.35
  -1   4  -2    1.42    0.22
  -1   4  -2    1.35    0.18
  -1   4  -2    1.01    0.33
   1  -4   2    1.45    0.18
   1  -4   2    1.94    0.48
   1  -4   2    1.24    0.32
  -2   4  -2    3.11    0.33
  -2   4  -2    3.18    0.50
  -2   4  -2    2.30    0.30
   2  -4   2    2.96    0.29
   2  -4   2    3.97    0.64
   2  -4   2    2.66    0.30
  -3   4  -2    1.50    0.40
   3  -4   2    1.26    0.29
   3  -4   2    1.84    0.61
  -4   4  -2    1.49    0.38
  -4   4  -2    1.38    0.35
   4  -4   2    2.55    0.77
  -5   4  -2   22.91    1.62
  -5   4  -2   23.16    1.55
   5  -4   2   24.38    1.52
   5  -4   2   19.40    1.86
   6  -4   2   -0.38    1.36
   6  -4   2    0.20    0.47
   7   3  -2    0.47    0.38
   7   3  -2    0.24    0.57
   7   3  -2    0.53    0.48
  -7  -3   2    0.09    0.88
   6   3  -2    9.14    0.71
   6   3  -2    8.75    0.96
   6   3  -2    8.72    0.78
   6   3  -2   10.55    1.29
   6   3  -2    9.78    0.80
  -6  -3   2    6.97    1.10
   5   3  -2    0.48    0.34
   5   3  -2    0.33    0.22
   5   3  -2    0.17    0.25
   5   3  -2    0.15    0.27
   5   3  -2   -0.21    0.53
   4   3  -2    0.02    0.23
   4   3  -2   -0.05    0.16
   4   3  -2    0.14    0.21
   3   3  -2    8.68    0.67
   3   3  -2    9.17    0.68
   3   3  -2    8.97    0.64
   3   3  -2    8.15    0.73
   3   3  -2    8.45    0.60
   3   3  -2    9.38    0.65
   3   3  -2    8.71    0.60
   3   3  -2    8.82    0.74
   2   3  -2   13.88    0.85
   2   3  -2   13.34    0.89
   2   3  -2   13.83    0.98
   2   3  -2   12.27    0.99
   2   3  -2   13.26    0.91
   2   3  -2   15.35    0.96
   2   3  -2   12.81    0.95
   2   3  -2   13.36    0.92
  -2  -3   2   14.04    0.96
  -2  -3   2   14.12    0.85
   1   3  -2   29.91    1.80
   1   3  -2   28.17    1.76
   1   3  -2   25.04    1.83
   1   3  -2   28.83    1.73
  -1  -3   2   29.14    1.72
  -1  -3   2   30.47    1.70
  -1  -3   2   28.97    1.83
   0   3  -2   10.17    0.74
   0   3  -2    9.95    0.76
   0   3  -2    8.93    0.84
   0   3  -2   10.70    0.69
   0   3  -2   10.50    0.68
   0  -3   2    9.94    0.67
   0  -3   2   11.11    0.82
   0  -3   2   10.51    0.64
  -1   3  -2    5.09    0.47
  -1   3  -2    4.92    0.37
  -1   3  -2    5.25    0.42
  -1   3  -2    3.90    0.59
   1  -3   2    4.99    0.58
   1  -3   2    4.58    0.34
   1  -3   2    4.39    0.37
  -2   3  -2    0.39    0.39
  -2   3  -2    0.33    0.22
  -2   3  -2    0.57    0.27
   2  -3   2    0.69    0.16
   2  -3   2    0.47    0.15
   3  -3   2    0.45    0.22
   3  -3   2    0.03    0.51
  -4   3  -2    0.72    0.41
  -4   3  -2    0.70    0.35
   4  -3   2    0.69    0.72
  -5   3  -2    9.19    0.83
  -5   3  -2    6.86    0.79
   5  -3   2    7.58    1.15
   5  -3   2    9.20    0.89
   6  -3   2    3.91    1.13
   7   2  -2    0.66    0.43
   7   2  -2    0.69    0.53
   7   2  -2    0.98    0.43
   7   2  -2    2.12    1.17
  -7  -2   2   -0.40    0.73
   6   2  -2    5.78    0.70
   6   2  -2    4.38    0.95
   6   2  -2    5.68    0.53
   6   2  -2    5.84    0.85
   6   2  -2    4.49    0.59
  -6  -2   2    5.10    0.77
   5   2  -2    0.28    0.22
   5   2  -2    0.34    0.28
   5   2  -2    0.20    0.23
   5   2  -2    0.28    0.23
   5   2  -2   -0.62    0.57
  -5  -2   2    0.07    0.37
   4   2  -2    4.94    0.69
   4   2  -2    6.40    0.62
   4   2  -2    6.22    0.47
   4   2  -2    6.04    0.48
  -4  -2   2    5.03    0.60
   3   2  -2   11.78    0.94
   3   2  -2   13.04    0.87
   3   2  -2   12.10    0.88
   3   2  -2   12.70    0.83
   3   2  -2   12.32    0.81
   3   2  -2   12.98    0.91
   3   2  -2   12.83    0.82
  -3  -2   2   12.32    0.86
   2   2  -2   17.64    1.06
   2   2  -2   18.02    1.06
   2   2  -2   17.34    1.12
   2   2  -2   15.69    1.15
   2   2  -2   15.72    1.13
   2   2  -2   17.57    1.10
   2   2  -2   19.30    1.18
  -2  -2   2   17.73    1.13
  -2  -2   2   17.74    1.07
   1   2  -2    7.35    0.57
   1   2  -2    7.57    0.63
   1   2  -2    7.62    0.59
   1   2  -2    7.58    0.50
  -1  -2   2    7.89    0.48
  -1  -2   2    7.22    0.55
  -1  -2   2    7.62    0.49
  -1  -2   2    7.65    0.60
   0   2  -2   30.39    1.81
   0   2  -2   26.99    1.87
   0   2  -2   29.97    1.78
   0   2  -2   31.50    1.83
   0  -2   2   28.67    1.77
   0  -2   2   30.39    1.76
   0  -2   2   29.59    1.88
  -1   2  -2    3.05    0.26
  -1   2  -2    3.19    0.35
  -1   2  -2    2.82    0.46
  -1   2  -2    3.62    0.42
   1  -2   2    3.04    0.46
   1  -2   2    3.01    0.26
   1  -2   2    3.34    0.25
  -2   2  -2   -0.08    0.33
  -2   2  -2    0.00    0.30
   2  -2   2   -0.04    0.12
   2  -2   2    0.01    0.12
   2  -2   2   -0.28    0.38
   2  -2   2    0.10    0.12
  -3   2  -2    0.00    0.15
  -3   2  -2    0.19    0.31
   3  -2   2    0.40    0.19
   3  -2   2   -0.65    0.45
  -4   2  -2   13.01    0.86
   4  -2   2    8.91    1.17
  -5   2  -2   61.47    3.78
  -6   2  -2    7.41    0.77
   6  -2   2    4.18    1.12
  -7   2  -2   -0.23    0.60
  -7   2  -2    1.48    0.74
   7  -2   2    0.06    1.75
   8   1  -2    0.68    0.60
   8   1  -2    1.10    0.56
  -8  -1   2    0.19    0.93
  -8  -1   2    1.82    1.18
   7   1  -2    1.07    0.47
   7   1  -2    2.74    1.15
  -7  -1   2    1.62    0.72
  -7  -1   2   -0.39    0.67
   6   1  -2    3.99    0.53
   6   1  -2    3.77    0.42
   6   1  -2    4.12    0.59
   6   1  -2    2.92    0.49
   6   1  -2    5.48    1.10
  -6  -1   2    5.34    0.82
   5   1  -2    1.36    0.71
   5   1  -2    1.55    0.28
   5   1  -2    2.46    0.56
   5   1  -2    1.06    0.35
   5   1  -2    1.98    0.30
   5   1  -2    2.48    0.44
   4   1  -2    0.52    0.30
   4   1  -2    0.22    0.19
   4   1  -2    0.64    0.30
   4   1  -2    0.55    0.18
   4   1  -2    0.59    0.31
   4   1  -2    0.30    0.21
  -4  -1   2    0.59    0.27
  -4  -1   2    0.40    0.27
   3   1  -2   36.25    2.19
   3   1  -2   36.10    2.22
   3   1  -2   36.21    2.23
   3   1  -2   32.96    2.20
   3   1  -2   38.32    2.18
   3   1  -2   36.03    2.17
  -3  -1   2   38.35    2.20
   2   1  -2    0.16    0.09
   2   1  -2    0.27    0.16
   2   1  -2    0.36    0.16
   2   1  -2    0.04    0.07
   2   1  -2    0.16    0.18
   2   1  -2    0.08    0.09
   2   1  -2    0.21    0.10
  -2  -1   2    0.06    0.10
  -2  -1   2   -0.01    0.09
  -2  -1   2    0.08    0.16
  -2  -1   2    0.17    0.07
   1   1  -2    2.80    0.35
   1   1  -2    3.22    0.30
   1   1  -2    3.57    0.34
   1   1  -2    3.18    0.23
   1   1  -2    3.20    0.23
  -1  -1   2    3.06    0.23
  -1  -1   2    3.18    0.23
  -1  -1   2    3.51    0.34
  -1  -1   2    3.44    0.23
   0   1  -2   12.31    0.74
   0   1  -2   11.78    0.74
   0   1  -2   10.84    0.77
   0  -1   2   12.16    0.73
   0  -1   2   11.30    0.71
   0  -1   2   11.23    0.95
   0  -1   2   11.41    0.71
  -1   1  -2   10.67    0.69
  -1   1  -2    7.56    0.67
  -1   1  -2    8.55    0.62
  -1   1  -2    9.67    0.58
   1  -1   2   10.17    0.59
   1  -1   2    9.80    0.57
   1  -1   2    7.83    0.61
   1  -1   2    9.70    0.58
   1  -1   2    8.79    0.74
  -2   1  -2   53.90    3.27
  -2   1  -2   54.30    3.29
  -2   1  -2   53.96    3.21
   2  -1   2   52.92    3.19
   2  -1   2   55.59    3.20
   2  -1   2   53.22    3.30
   2  -1   2   54.96    3.19
  -3   1  -2   14.17    0.85
  -3   1  -2   13.20    0.90
   3  -1   2   12.01    0.86
   3  -1   2   12.79    0.84
  -4   1  -2    0.32    0.23
   4  -1   2    0.00    0.47
  -5   1  -2    1.01    0.39
  -5   1  -2    1.45    0.41
   5  -1   2    1.24    0.65
  -6   1  -2    2.28    0.58
  -6   1  -2    2.59    0.59
   6  -1   2    3.44    1.51
   6  -1   2    0.51    0.90
  -7   1  -2   -0.30    0.70
  -7   1  -2   -0.60    0.79
   7  -1   2   -1.63    1.20
   7  -1   2   -0.51    1.34
   8   0  -2    0.89    0.52
   7   0  -2    2.65    1.09
   7   0  -2    2.88    0.72
   6   0  -2   16.05    1.12
   6   0  -2   15.73    1.09
  -6   0   2   13.19    1.22
   5   0  -2   -0.10    0.19
   5   0  -2    0.46    0.29
   5   0  -2    0.23    0.61
   5   0  -2   -0.25    0.23
   4   0  -2    6.59    0.49
   4   0  -2    6.33    0.50
   4   0  -2    6.27    0.42
   4   0  -2    5.75    0.50
  -4   0   2    7.47    0.62
  -4   0   2    6.19    0.59
  -4   0   2    6.59    0.56
   3   0  -2   76.74    4.76
   3   0  -2   88.93    4.85
   3   0  -2   73.99    4.80
   3   0  -2   82.36    4.80
   3   0  -2   85.18    4.82
   3   0  -2   71.73    4.80
   3   0  -2   88.19    4.82
  -3   0   2   80.73    4.80
  -3   0   2   89.86    4.86
  -3   0   2   85.39    4.86
  -3   0   2   74.81    4.81
   2   0  -2   18.03    1.01
   2   0  -2   17.18    1.00
   2   0  -2   16.94    1.04
   2   0  -2   14.97    1.00
  -2   0   2   17.53    1.05
  -2   0   2   13.70    0.98
  -2   0   2   13.59    0.97
  -2   0   2   16.76    0.99
  -2   0   2   15.43    0.97
   1   0  -2    4.74    0.33
   1   0  -2    5.54    0.38
   1   0  -2    5.72    0.36
   1   0  -2    5.00    0.39
  -1   0   2    4.40    0.33
  -1   0   2    4.69    0.33
  -1   0   2    5.41    0.38
  -1   0   2    4.81    0.40
   0   0  -2   87.50    5.23
   0   0  -2   96.05    5.22
   0   0  -2   98.61    5.28
   0   0  -2   84.88    5.22
   0   0   2   83.34    5.29
   0   0   2   81.79    5.22
   0   0   2   88.93    5.29
   0   0   2   93.71    5.23
   0   0   2   96.87    5.21
   0   0   2   89.55    5.22
   0   0   2   83.80    5.22
  -1   0  -2    1.97    0.25
  -1   0  -2    2.55    0.19
  -1   0  -2    2.74    0.26
   1   0   2    1.88    0.29
   1   0   2    2.18    0.19
   1   0   2    2.49    0.21
   1   0   2    2.22    0.20
  -2   0  -2  130.24    7.08
  -2   0  -2  122.64    7.14
  -2   0  -2  112.06    7.07
   2   0   2  115.87    7.03
   2   0   2  118.52    7.12
   2   0   2  121.34    7.01
   2   0   2  125.63    7.04
   2   0   2  116.20    7.04
  -3   0  -2    0.43    0.17
   3   0   2    0.73    0.31
   3   0   2    0.20    0.13
  -4   0  -2   20.47    1.32
   4   0   2   18.53    1.41
   4   0   2   20.83    1.25
  -5   0  -2    0.26    0.56
  -5   0  -2   -0.08    0.36
  -5   0  -2    0.41    0.40
   5   0   2    1.09    0.58
  -6   0  -2    0.87    0.54
  -6   0  -2    1.56    0.55
   6   0   2    1.00    0.95
  -7   0  -2    2.75    0.78
  -7   0  -2    4.47    0.83
   7   0   2    4.84    1.23
   7   0   2    3.35    1.49
   8  -1  -2    0.85    0.73
   8  -1  -2    1.73    0.56
  -8   1   2   -0.21    0.91
   7  -1  -2    3.14    1.14
   7  -1  -2    5.85    0.82
  -7   1   2    3.81    0.81
   6  -1  -2    3.25    0.45
   6  -1  -2    3.39    0.49
  -6   1   2    3.40    0.64
  -6   1   2    3.08    0.62
   5  -1  -2    3.83    0.55
   5  -1  -2    2.02    0.73
   5  -1  -2    2.63    0.32
   4  -1  -2   28.42    1.75
   4  -1  -2   30.34    1.82
  -4   1   2   28.44    1.86
  -4   1   2   28.84    1.88
   3  -1  -2    0.29    0.22
   3  -1  -2    0.81    0.16
   3  -1  -2    0.69    0.14
  -3   1   2    0.58    0.31
  -3   1   2    0.86    0.18
  -3   1   2    0.45    0.20
  -3   1   2    0.74    0.18
   2  -1  -2   20.03    1.31
   2  -1  -2   21.14    1.30
   2  -1  -2   21.83    1.30
   2  -1  -2   20.71    1.34
   2  -1  -2   22.86    1.30
  -2   1   2   20.36    1.32
  -2   1   2   22.00    1.30
  -2   1   2   20.54    1.31
  -2   1   2   22.43    1.30
   1  -1  -2   70.95    4.04
   1  -1  -2   67.74    4.03
   1  -1  -2   71.95    4.03
  -1   1   2   70.19    4.03
  -1   1   2   63.06    4.05
  -1   1   2   69.26    4.03
  -1   1   2   68.57    4.04
   0  -1  -2    5.62    0.38
   0  -1  -2    6.18    0.40
   0  -1  -2    5.92    0.39
   0  -1  -2    6.58    0.41
   0   1   2    5.93    0.40
   0   1   2    6.14    0.38
   0   1   2    4.95    0.39
   0   1   2    5.85    0.40
  -1  -1  -2    0.19    0.11
  -1  -1  -2    0.10    0.08
  -1  -1  -2    0.14    0.09
   1   1   2    0.10    0.07
   1   1   2   -0.02    0.11
   1   1   2    0.08    0.12
   1   1   2    0.11    0.12
  -2  -1  -2   68.31    4.02
  -2  -1  -2   66.98    4.02
  -2  -1  -2   70.94    3.99
   2   1   2   65.42    4.01
   2   1   2   64.18    4.02
   2   1   2   71.72    4.06
   2   1   2   67.52    4.00
   3   1   2    0.94    0.27
   4   1   2    1.50    0.42
  -5  -1  -2    1.15    0.41
  -5  -1  -2    0.50    0.46
   5   1   2    0.87    0.56
  -6  -1  -2    1.44    0.57
  -6  -1  -2    1.68    0.56
   6   1   2    0.43    0.80
  -7  -1  -2    3.51    0.92
  -7  -1  -2    4.43    0.81
   7   1   2    2.49    1.15
   8  -2  -2    3.86    0.66
  -8   2   2    2.95    1.02
  -8   2   2    2.73    1.35
   7  -2  -2    5.64    1.26
  -7   2   2    5.81    0.91
  -7   2   2    5.05    0.91
   6  -2  -2   16.24    1.21
   6  -2  -2   18.87    1.64
   6  -2  -2   17.78    1.24
  -6   2   2   16.37    1.40
   5  -2  -2    1.02    0.22
   5  -2  -2    1.28    0.64
   5  -2  -2    1.40    0.32
  -5   2   2    1.14    0.41
   4  -2  -2    5.30    0.47
   4  -2  -2    5.11    0.42
  -4   2   2    4.71    0.81
  -4   2   2    5.91    0.50
   3  -2  -2    3.00    0.30
   3  -2  -2    3.50    0.32
   3  -2  -2    3.33    0.41
  -3   2   2    3.37    0.54
  -3   2   2    3.31    0.33
   2  -2  -2    1.06    0.13
   2  -2  -2    1.07    0.17
   2  -2  -2    0.94    0.16
   2  -2  -2    1.19    0.17
   2  -2  -2    1.06    0.23
  -2   2   2    0.90    0.17
  -2   2   2    1.04    0.28
  -2   2   2    0.89    0.17
  -2   2   2    1.06    0.17
   1  -2  -2  135.25    8.05
   1  -2  -2  138.04    8.03
   1  -2  -2  135.53    8.05
  -1   2   2  145.94    8.03
  -1   2   2  135.71    8.04
  -1   2   2  140.04    8.05
  -1   2   2  133.12    8.05
   0  -2  -2    0.00    0.10
   0  -2  -2    0.02    0.10
   0  -2  -2    0.01    0.10
   0   2   2    0.03    0.08
   0   2   2    0.25    0.16
   0   2   2   -0.10    0.06
   0   2   2   -0.04    0.10
   0   2   2    0.09    0.09
   0   2   2   -0.10    0.09
  -1  -2  -2    0.71    0.16
  -1  -2  -2    0.61    0.15
   1   2   2    0.62    0.11
   1   2   2    0.68    0.20
   1   2   2    0.80    0.17
  -2  -2  -2   68.35    4.02
  -2  -2  -2   67.71    4.01
   2   2   2   70.64    4.06
   2   2   2   65.10    4.00
  -3  -2  -2    1.32    0.23
   3   2   2    1.59    0.30
  -4  -2  -2    0.51    0.27
   4   2   2    0.50    0.34
  -5  -2  -2   11.03    0.94
   5   2   2   11.07    1.02
  -6  -2  -2   -0.29    0.58
   6   2   2   -0.64    0.72
   7  -3  -2    6.60    0.85
   7  -3  -2    7.62    1.36
  -7   3   2    4.49    1.01
   6  -3  -2    1.72    0.42
   6  -3  -2    0.76    0.36
  -6   3   2    0.38    0.58
  -6   3   2    1.45    0.60
   5  -3  -2   -0.07    0.38
   5  -3  -2    0.59    0.30
   5  -3  -2    0.08    0.67
  -5   3   2   -0.56    0.38
  -5   3   2    0.53    0.32
   4  -3  -2    0.65    0.23
  -4   3   2    0.70    0.25
   3  -3  -2    0.89    0.27
   3  -3  -2    1.40    0.24
  -3   3   2    1.07    0.22
  -3   3   2    1.68    0.50
   2  -3  -2    3.31    0.37
   2  -3  -2    2.44    0.27
   2  -3  -2    2.47    0.29
  -2   3   2    2.73    0.31
  -2   3   2    3.06    0.46
   1  -3  -2    6.58    0.46
   1  -3  -2    7.14    0.59
   1  -3  -2    5.75    0.51
   1  -3  -2    7.17    0.49
   1  -3  -2    5.83    0.51
  -1   3   2    6.59    0.47
  -1   3   2    7.09    0.45
  -1   3   2    6.33    0.51
  -1   3   2    7.16    0.57
  -1   3   2    6.23    0.49
  -1   3   2    7.05    0.47
   0  -3  -2    0.34    0.16
   0  -3  -2    0.38    0.16
   0  -3  -2    0.52    0.11
   0   3   2    0.52    0.25
   0   3   2    0.45    0.20
   0   3   2    0.56    0.10
   0   3   2    0.59    0.16
   0   3   2    0.42    0.13
  -1  -3  -2    2.44    0.33
  -1  -3  -2    2.62    0.41
   1   3   2    2.39    0.23
   1   3   2    2.96    0.29
  -2  -3  -2    1.33    0.26
  -2  -3  -2    1.63    0.23
   2   3   2    1.54    0.22
   2   3   2    2.24    0.30
  -3  -3  -2    0.87    0.26
   3   3   2    0.69    0.26
   3   3   2    0.71    0.22
  -4  -3  -2    5.73    0.63
   4   3   2    5.31    0.78
  -5  -3  -2    1.71    0.47
   5   3   2    1.02    0.54
  -6  -3  -2   -0.21    0.56
  -6  -3  -2    0.81    0.70
   6   3   2    0.78    0.74
   7  -4  -2    1.24    0.53
  -7   4   2    1.64    0.93
   6  -4  -2    0.05    0.98
   6  -4  -2    0.01    0.41
  -6   4   2    0.48    0.62
  -6   4   2    0.13    0.52
   5  -4  -2    7.70    1.19
   5  -4  -2    6.68    0.65
   5  -4  -2    7.64    0.71
  -5   4   2    7.59    0.89
  -5   4   2    7.32    0.70
  -5   4   2    5.64    0.63
   4  -4  -2    0.74    0.64
  -4   4   2    0.20    0.37
  -4   4   2    0.40    0.28
   3  -4  -2    1.35    0.29
  -3   4   2    1.39    0.27
  -3   4   2    1.49    0.39
   2  -4  -2   13.37    0.93
   2  -4  -2   13.92    0.87
  -2   4   2   12.94    0.93
  -2   4   2   14.90    0.90
  -2   4   2   14.13    0.99
   1  -4  -2   47.49    2.84
  -1   4   2   48.44    2.83
  -1   4   2   46.62    2.90
   0  -4  -2    0.50    0.16
   0   4   2    0.71    0.19
   0   4   2    0.36    0.18
   1   4   2    2.00    0.22
  -2  -4  -2    0.78    0.26
   2   4   2    1.00    0.17
   2   4   2    0.83    0.27
   3   4   2    0.43    0.26
   3   4   2    0.04    0.36
  -4  -4  -2    8.59    0.77
   4   4   2    6.40    0.76
  -5  -4  -2    0.10    0.57
   5   4   2   -0.28    0.54
   6  -5  -2    0.02    0.62
  -6   5   2   -0.22    0.45
  -6   5   2   -0.64    0.70
   5  -5  -2   -0.29    0.86
  -5   5   2   -0.12    0.56
  -5   5   2    0.16    0.42
   4  -5  -2   31.78    2.20
   4  -5  -2   35.53    2.32
  -4   5   2   31.19    2.07
  -4   5   2   32.23    2.07
   3  -5  -2    6.22    0.60
  -3   5   2    7.00    0.59
  -3   5   2    6.12    0.81
  -2   5   2    0.23    0.22
  -1   5   2    1.85    0.31
  -1   5   2    1.80    0.34
   0  -5  -2    2.88    0.33
   0   5   2    2.57    0.33
   0   5   2    2.49    0.38
  -1  -5  -2    3.26    0.55
   1   5   2    2.83    0.42
   1   5   2    2.74    0.43
  -2  -5  -2    0.23    0.45
   2   5   2    0.08    0.28
   2   5   2   -0.25    0.29
  -3  -5  -2   -0.06    0.40
  -3  -5  -2    0.24    0.49
   3   5   2    0.47    0.37
   3   5   2    0.11    0.32
   3   5   2    0.28    0.92
   4   5   2   -0.04    0.46
   4   5   2    0.39    0.46
   5   5   2    1.09    0.66
   6  -6  -2    1.21    0.55
  -6   6   2   -0.90    0.92
  -6   6   2    0.62    0.62
  -6   6   2   -0.11    0.61
   5  -6  -2   13.35    1.05
   4  -6  -2   30.19    2.14
  -4   6   2   28.73    1.84
  -4   6   2   25.61    1.83
   3  -6  -2    1.20    0.70
  -3   6   2    0.16    0.32
  -3   6   2    0.57    0.31
   2  -6  -2    1.24    0.62
  -2   6   2    0.91    0.32
   1  -6  -2    0.78    0.57
  -1   6   2   -0.04    0.29
  -1   6   2   -0.26    0.25
  -1   6   2    0.08    0.28
   0  -6  -2    2.20    0.60
   0   6   2    1.31    0.29
   0   6   2    1.42    0.34
   0   6   2    1.40    0.36
  -1  -6  -2    3.72    0.70
   1   6   2    2.75    0.52
   1   6   2    3.90    0.55
  -2  -6  -2    2.60    0.70
   2   6   2    1.81    0.42
   3   6   2    5.73    0.75
   4   6   2    2.74    0.68
  -4   7   2    7.73    0.87
   3  -7  -2    0.23    1.34
  -3   7   2   -0.06    0.42
   2  -7  -2   -0.31    0.55
  -2   7   2    0.02    0.37
   1  -7  -2    1.33    0.77
  -1   7   2    0.54    0.36
  -1   7   2    0.02    0.37
   0   7   2    1.13    0.43
  -3  -7  -2    1.15    1.17
   3   7   2   -0.16    0.60
   2  -8  -2    0.03    1.15
  -2   8   2    0.98    0.48
  -2   8   2   -0.11    0.50
   0  -8  -2    1.30    0.97
   0   8   2    1.47    0.55
   2   8  -3    0.68    0.58
   2   8  -3    0.10    0.56
  -2  -8   3    1.89    0.90
   1   8  -3    1.19    0.44
  -1  -8   3    0.75    0.93
   0   8  -3   17.39    1.28
   0  -8   3   16.26    1.69
  -2   8  -3    5.31    0.77
  -2   8  -3    4.92    0.74
   2  -8   3    5.27    1.26
   4   7  -3   -0.18    0.55
   4   7  -3   -0.41    0.47
  -4  -7   3    0.23    0.82
   3   7  -3    2.24    0.47
   3   7  -3    1.29    0.52
   3   7  -3    1.29    0.55
  -3  -7   3    1.50    0.80
   2   7  -3    0.63    0.38
   2   7  -3    0.87    0.45
   1   7  -3    3.77    0.53
  -1  -7   3    3.75    0.86
  -1  -7   3    4.19    1.17
   0   7  -3    8.91    0.82
   0  -7   3   10.92    1.40
   0  -7   3    9.89    1.25
  -1   7  -3    0.88    0.64
  -1   7  -3    0.83    0.39
   1  -7   3    1.34    0.84
  -2   7  -3    0.65    0.48
   2  -7   3   -0.15    0.96
  -3   7  -3    1.01    0.48
   3  -7   3    0.10    1.09
   4  -7   3    3.32    1.43
   5   6  -3    3.90    0.66
   5   6  -3    3.21    0.74
   5   6  -3    4.08    0.70
   5   6  -3    3.00    0.52
  -5  -6   3    2.59    0.70
   4   6  -3    2.58    0.55
   4   6  -3    2.30    0.50
   4   6  -3    2.82    0.58
   4   6  -3    2.99    0.49
  -4  -6   3    2.48    0.76
  -4  -6   3    2.16    0.67
  -4  -6   3    1.93    0.74
   3   6  -3    0.25    0.40
   3   6  -3    0.32    0.37
   3   6  -3   -0.01    0.34
  -3  -6   3   -0.41    0.55
   2   6  -3    2.21    0.44
   2   6  -3    2.15    0.41
  -2  -6   3    2.79    0.70
  -2  -6   3    3.37    0.75
   1   6  -3   16.06    1.27
   1   6  -3   16.55    1.18
  -1  -6   3   18.68    1.44
   0  -6   3   84.53    5.27
  -1   6  -3    0.67    0.31
   1  -6   3   -0.21    0.88
  -2   6  -3    1.76    0.39
   2  -6   3    2.95    0.95
   2  -6   3    1.07    1.22
  -3   6  -3    0.37    0.40
   3  -6   3    0.38    0.98
   4  -6   3    3.37    1.22
  -5   6  -3   12.69    1.33
   5  -6   3   15.34    1.95
   6   5  -3    4.20    0.63
   6   5  -3    4.29    0.68
   6   5  -3    5.34    0.73
   5   5  -3    0.42    0.27
   5   5  -3    0.20    0.43
   5   5  -3   -0.67    0.46
   5   5  -3   -0.83    0.63
   5   5  -3   -0.36    0.41
  -5  -5   3   -0.22    0.41
  -5  -5   3   -1.38    0.66
  -5  -5   3   -0.76    0.63
   4   5  -3   -0.04    0.35
   4   5  -3    0.00    0.30
   4   5  -3    0.15    0.34
  -4  -5   3   -0.90    0.51
   3   5  -3    6.69    0.59
   3   5  -3    6.94    0.64
   3   5  -3    5.94    0.67
  -3  -5   3    6.37    0.80
   2   5  -3    2.92    0.43
   2   5  -3    3.54    0.44
   2   5  -3    3.19    0.45
  -2  -5   3    4.01    0.68
   1   5  -3    9.38    0.73
  -1  -5   3    8.93    0.94
  -1  -5   3   10.06    0.65
   0   5  -3    2.49    0.35
   0  -5   3    2.31    0.66
   0  -5   3    2.08    0.28
  -1   5  -3    2.46    0.38
   1  -5   3    3.27    0.75
   1  -5   3    1.94    0.25
  -2   5  -3    0.21    0.26
   2  -5   3    0.73    0.74
  -3   5  -3    0.13    0.31
  -3   5  -3   -0.05    0.32
   3  -5   3    0.47    0.80
   3  -5   3   -0.94    0.79
  -4   5  -3    0.18    0.41
  -4   5  -3    0.28    0.41
   4  -5   3    0.87    1.37
   5  -5   3    6.14    1.47
   5  -5   3    7.57    0.81
   7   4  -3    0.59    0.47
   7   4  -3    0.36    0.62
   7   4  -3    0.07    0.55
   6   4  -3    3.17    0.53
   6   4  -3    2.39    0.53
   6   4  -3    2.00    0.84
   6   4  -3    1.63    0.40
   5   4  -3   -0.23    0.34
   5   4  -3   -0.40    0.34
   5   4  -3    0.46    0.29
   5   4  -3   -0.45    0.59
  -5  -4   3   -0.25    0.49
   4   4  -3    3.78    0.43
   4   4  -3    3.57    0.51
   4   4  -3    3.45    0.49
  -4  -4   3    4.10    0.68
   3   4  -3   10.20    0.72
   3   4  -3    9.61    0.67
   3   4  -3    8.65    0.81
   3   4  -3    9.52    0.89
   3   4  -3   10.34    0.76
  -3  -4   3   11.02    0.88
   2   4  -3    5.00    0.53
   2   4  -3    5.42    0.47
   2   4  -3    4.71    0.39
   2   4  -3    5.69    0.46
  -2  -4   3    5.01    0.43
  -2  -4   3    5.32    0.63
   1   4  -3    2.84    0.35
   1   4  -3    3.02    0.27
  -1  -4   3    3.95    0.61
  -1  -4   3    3.03    0.29
   0   4  -3    6.50    0.47
   0  -4   3    7.14    0.78
   0  -4   3    6.91    0.48
  -1   4  -3    1.31    0.24
   1  -4   3    1.99    0.58
   1  -4   3    0.95    0.18
   2  -4   3   -1.03    0.58
  -3   4  -3    0.16    0.49
  -3   4  -3    0.16    0.28
  -3   4  -3   -0.18    0.25
   3  -4   3    0.50    0.77
  -4   4  -3   11.88    1.21
  -4   4  -3   13.68    1.01
   4  -4   3   12.45    1.49
  -5   4  -3   36.33    2.37
  -5   4  -3   34.75    2.40
   5  -4   3   37.43    2.31
  -6   4  -3    4.16    0.84
   6  -4   3    3.97    1.52
   6  -4   3    6.21    0.89
   7   3  -3    0.94    0.49
   7   3  -3    0.71    0.47
   7   3  -3    0.27    0.54
   7   3  -3    1.42    0.42
  -7  -3   3    0.11    0.93
   6   3  -3    4.70    0.97
   6   3  -3    4.68    0.61
   6   3  -3    5.11    0.61
   6   3  -3    4.78    0.59
  -6  -3   3    6.06    0.84
   5   3  -3    2.58    0.41
   5   3  -3    2.50    0.37
   5   3  -3    3.39    0.89
   5   3  -3    2.77    0.42
   5   3  -3    2.83    0.42
   5   3  -3    2.62    0.40
  -5  -3   3    2.04    0.74
   4   3  -3    0.71    0.25
   4   3  -3    0.51    0.24
   4   3  -3    0.79    0.21
   3   3  -3   21.52    1.44
   3   3  -3   20.78    1.33
   3   3  -3   20.07    1.50
   3   3  -3   21.71    1.44
   3   3  -3   21.71    1.37
  -3  -3   3   24.09    1.52
   2   3  -3    1.48    0.27
   2   3  -3    0.89    0.28
   2   3  -3    1.73    0.24
   2   3  -3    1.14    0.17
   2   3  -3    1.36    0.27
  -2  -3   3    0.96    0.19
   1   3  -3    0.52    0.27
   1   3  -3    0.23    0.14
   1   3  -3    0.70    0.33
  -1  -3   3    0.20    0.20
  -1  -3   3    0.05    0.11
  -1  -3   3    0.40    0.34
   0   3  -3    5.93    0.63
   0   3  -3    5.52    0.57
   0   3  -3    5.83    0.45
   0  -3   3    5.75    0.65
   0  -3   3    6.10    0.42
  -1   3  -3    4.71    0.39
  -1   3  -3    4.80    0.60
   1  -3   3    5.37    0.71
   1  -3   3    4.29    0.37
  -2   3  -3   35.62    2.05
  -2   3  -3   28.64    2.03
  -2   3  -3   33.29    1.98
   2  -3   3   30.79    2.19
  -3   3  -3    5.96    0.51
   3  -3   3    4.90    0.49
   3  -3   3    5.28    0.95
  -4   3  -3   -0.19    0.31
   4  -3   3   -0.08    0.81
  -5   3  -3    1.32    0.47
  -5   3  -3    1.30    0.44
   5  -3   3    0.01    1.05
   5  -3   3    0.26    0.43
   6  -3   3   -0.75    1.30
   7   2  -3    4.66    0.61
   7   2  -3    5.02    0.65
   7   2  -3    3.68    0.56
   7   2  -3    4.30    0.67
   7   2  -3    4.08    1.20
   6   2  -3    9.77    0.76
   6   2  -3   11.48    0.88
   6   2  -3   11.12    0.87
   6   2  -3    8.94    0.76
   6   2  -3   10.03    0.83
  -6  -2   3    9.08    1.15
  -6  -2   3   10.04    1.24
   5   2  -3   -0.42    0.22
   5   2  -3    0.02    0.20
   5   2  -3    0.20    0.25
   5   2  -3   -0.11    0.21
  -5  -2   3    0.50    0.45
   4   2  -3    3.83    0.37
   4   2  -3    3.02    0.42
   4   2  -3    3.83    0.37
  -4  -2   3    3.56    0.45
   3   2  -3   23.05    1.52
   3   2  -3   23.84    1.56
   3   2  -3   23.87    1.47
   3   2  -3   24.54    1.47
   3   2  -3   22.63    1.61
   3   2  -3   23.02    1.46
   3   2  -3   25.15    1.46
  -3  -2   3   23.95    1.54
  -3  -2   3   24.65    1.57
  -3  -2   3   23.45    1.48
   2   2  -3    2.85    0.29
   2   2  -3    2.05    0.38
   2   2  -3    3.10    0.29
   2   2  -3    2.99    0.24
   2   2  -3    2.45    0.37
   2   2  -3    1.71    0.41
   2   2  -3    2.44    0.24
  -2  -2   3    3.15    0.45
  -2  -2   3    2.83    0.28
   1   2  -3    2.12    0.43
   1   2  -3    1.96    0.22
   1   2  -3    2.18    0.35
   1   2  -3    2.01    0.37
   1   2  -3    2.42    0.30
  -1  -2   3    2.02    0.20
  -1  -2   3    1.89    0.21
  -1  -2   3    2.30    0.43
   0   2  -3   14.59    0.87
   0   2  -3   11.19    1.03
   0   2  -3   14.21    0.98
   0  -2   3   13.75    0.85
   0  -2   3   14.07    1.05
   0  -2   3   13.85    0.86
  -1   2  -3    0.04    0.27
  -1   2  -3    0.09    0.31
  -1   2  -3   -0.30    0.37
   1  -2   3   -0.59    0.37
   1  -2   3    0.02    0.10
   1  -2   3    0.00    0.12
  -2   2  -3   34.60    2.01
  -2   2  -3   33.64    2.05
   2  -2   3   27.44    2.17
   2  -2   3   33.54    2.07
   2  -2   3   34.18    1.98
   2  -2   3   34.05    2.02
  -3   2  -3    0.22    0.20
  -3   2  -3    0.29    0.24
   3  -2   3    1.25    0.60
  -4   2  -3    6.85    0.67
  -4   2  -3    7.19    0.65
   4  -2   3    5.87    1.03
  -5   2  -3    0.57    0.53
  -5   2  -3    0.29    0.37
  -5   2  -3    0.45    0.42
   5  -2   3   -0.57    0.88
   5  -2   3   -0.23    0.55
  -6   2  -3    0.07    0.54
  -6   2  -3    1.13    0.50
   6  -2   3   -0.72    1.17
   8   1  -3    2.61    0.69
   8   1  -3    0.86    0.62
  -8  -1   3    0.41    0.97
  -8  -1   3    3.39    1.04
   7   1  -3    6.30    0.65
   7   1  -3    4.95    1.46
   7   1  -3    5.81    0.83
   7   1  -3    5.01    0.73
  -7  -1   3    6.34    1.04
   6   1  -3    4.35    0.60
   6   1  -3    2.91    0.38
   6   1  -3    4.34    0.53
   6   1  -3    2.65    0.96
  -6  -1   3    3.32    0.68
  -6  -1   3    3.09    0.71
   5   1  -3    1.40    0.52
   5   1  -3    1.59    0.28
   5   1  -3    1.91    0.34
   5   1  -3    1.48    0.32
   4   1  -3   27.69    1.66
   4   1  -3   29.08    1.69
   4   1  -3   26.14    1.67
  -4  -1   3   28.09    1.70
  -4  -1   3   25.03    1.85
   3   1  -3    0.18    0.14
   3   1  -3    0.22    0.17
   3   1  -3   -0.15    0.27
   3   1  -3    0.14    0.11
   3   1  -3    0.38    0.33
   3   1  -3    0.24    0.26
  -3  -1   3    0.02    0.16
  -3  -1   3    0.21    0.23
  -3  -1   3    0.45    0.19
   2   1  -3   12.66    0.82
   2   1  -3   12.18    0.90
   2   1  -3   13.11    0.82
  -2  -1   3   12.71    0.91
  -2  -1   3   14.14    0.83
  -2  -1   3   13.79    0.84
   1   1  -3   61.81    4.02
   1   1  -3   67.98    3.97
   1   1  -3   67.67    3.95
   1   1  -3   70.26    3.97
  -1  -1   3   71.06    3.95
  -1  -1   3   63.23    4.07
  -1  -1   3   65.91    4.05
  -1  -1   3   69.86    3.96
  -1  -1   3   69.69    3.97
   0   1  -3    3.99    0.51
   0   1  -3    4.99    0.46
   0   1  -3    5.36    0.34
   0   1  -3    5.54    0.37
   0   1  -3    4.00    0.44
   0   1  -3    5.38    0.37
   0  -1   3    3.82    0.53
   0  -1   3    5.41    0.37
   0  -1   3    5.38    0.36
   0  -1   3    5.63    0.35
  -1   1  -3    0.22    0.09
  -1   1  -3    0.33    0.26
  -1   1  -3    0.35    0.12
  -1   1  -3    0.27    0.25
  -1   1  -3    0.19    0.17
   1  -1   3    0.26    0.11
   1  -1   3    0.18    0.11
   1  -1   3    0.19    0.11
   1  -1   3    0.36    0.32
  -2   1  -3   39.74    2.38
   2  -1   3   40.32    2.36
   2  -1   3   38.95    2.37
  -3   1  -3    0.05    0.18
  -3   1  -3    0.35    0.21
   3  -1   3    0.82    0.49
  -4   1  -3    1.49    0.34
  -4   1  -3    1.30    0.33
   4  -1   3    0.40    0.65
  -5   1  -3    0.68    0.47
  -5   1  -3    0.98    0.42
   5  -1   3    0.07    0.81
  -6   1  -3    1.31    0.62
  -6   1  -3    1.43    0.75
   6  -1   3   -0.16    1.08
   8   0  -3    2.89    0.64
   8   0  -3    3.74    0.68
   7   0  -3    9.50    0.93
   6   0  -3   14.65    1.09
   6   0  -3   15.46    1.11
  -6   0   3   12.67    1.44
  -6   0   3   17.46    1.34
   5   0  -3    3.34    0.45
   5   0  -3    2.55    0.39
  -5   0   3    4.94    0.76
  -5   0   3    2.95    0.55
   4   0  -3    7.15    0.50
   4   0  -3    7.12    0.47
   4   0  -3    6.69    0.56
  -4   0   3    7.96    0.58
  -4   0   3    6.49    0.69
   3   0  -3    4.31    0.39
   3   0  -3    4.89    0.43
   3   0  -3    5.76    0.46
  -3   0   3    5.78    0.50
  -3   0   3    4.59    0.41
  -3   0   3    5.18    0.38
   2   0  -3    7.36    0.55
   2   0  -3    9.15    0.60
   2   0  -3    9.47    0.63
  -2   0   3    7.84    0.57
  -2   0   3    7.29    0.57
  -2   0   3    9.66    0.74
  -2   0   3    9.32    0.65
   1   0  -3  214.44   12.51
   1   0  -3  234.65   12.50
   1   0  -3  193.51   12.45
   1   0  -3  245.16   12.48
   1   0  -3  204.70   12.44
  -1   0   3  223.00   12.51
  -1   0   3  202.76   12.45
  -1   0   3  192.97   12.45
   0   0  -3    1.21    0.24
   0   0  -3    1.42    0.16
   0   0  -3    1.09    0.17
   0   0   3    0.84    0.25
   0   0   3    1.16    0.17
   0   0   3    0.63    0.22
   0   0   3    1.61    0.14
   0   0   3    1.23    0.17
  -1   0  -3    0.26    0.13
  -1   0  -3    0.11    0.16
  -1   0  -3    0.32    0.19
   1   0   3    0.23    0.13
   1   0   3    0.11    0.25
   1   0   3    0.26    0.13
   1   0   3    0.30    0.12
  -2   0  -3   73.01    3.84
   2   0   3   68.57    3.83
   2   0   3   57.44    3.98
   2   0   3   64.53    3.87
   2   0   3   62.42    3.86
   3   0   3    0.81    0.44
   3   0   3    1.11    0.18
  -4   0  -3    0.38    0.21
  -4   0  -3   -0.14    0.29
  -4   0  -3   -0.08    0.26
   4   0   3   -0.36    0.53
  -5   0  -3   12.80    1.02
  -5   0  -3   11.62    1.01
   5   0   3    9.75    1.39
   6   0   3    0.25    1.04
   8  -1  -3    2.21    0.59
  -8   1   3    1.23    0.93
  -7   1   3    6.30    1.04
  -7   1   3    4.47    0.90
   6  -1  -3    1.18    0.39
   6  -1  -3    1.68    0.36
   6  -1  -3   -0.29    0.88
  -6   1   3    1.41    0.58
   4  -1  -3    0.13    0.17
  -4   1   3   -0.19    0.30
  -4   1   3   -0.50    0.39
  -4   1   3   -0.18    0.25
   3  -1  -3    2.90    0.32
   3  -1  -3    2.76    0.30
   3  -1  -3    2.42    0.43
  -3   1   3    3.05    0.44
  -3   1   3    2.86    0.33
  -3   1   3    3.53    0.38
   2  -1  -3    3.17    0.42
   2  -1  -3    3.03    0.29
   2  -1  -3    2.68    0.30
   2  -1  -3    3.23    0.28
  -2   1   3    3.01    0.36
  -2   1   3    2.85    0.28
  -2   1   3    2.81    0.29
   1  -1  -3   12.66    0.80
   1  -1  -3   11.43    0.81
   1  -1  -3   13.32    0.81
   1  -1  -3   13.09    0.81
   1  -1  -3   12.37    0.81
  -1   1   3   12.35    0.79
  -1   1   3   12.71    0.80
   0  -1  -3    1.02    0.17
   0  -1  -3    1.02    0.24
   0  -1  -3    0.83    0.15
   0  -1  -3    0.97    0.17
   0   1   3    1.09    0.17
   0   1   3    0.50    0.24
   0   1   3    0.88    0.17
   0   1   3    0.86    0.16
  -1  -1  -3    5.81    0.40
  -1  -1  -3    5.24    0.47
  -1  -1  -3    5.08    0.42
   1   1   3    5.06    0.50
   1   1   3    5.48    0.42
   1   1   3    5.16    0.39
   1   1   3    4.75    0.43
  -2  -1  -3    3.15    0.30
  -2  -1  -3    2.93    0.32
   2   1   3    2.84    0.40
   2   1   3    2.45    0.43
  -3  -1  -3    0.58    0.24
   3   1   3    0.01    0.38
  -4  -1  -3    6.86    0.68
  -4  -1  -3    8.20    0.68
   4   1   3    6.46    0.88
  -5  -1  -3    1.11    0.44
  -5  -1  -3    0.78    0.46
   5   1   3    0.92    0.74
   6   1   3   -0.17    1.03
   8  -2  -3   -0.24    0.55
  -8   2   3    2.15    1.07
  -8   2   3    1.07    0.99
   7  -2  -3    4.02    1.15
   6  -2  -3    1.23    0.95
  -6   2   3    0.63    0.49
  -6   2   3    1.12    0.58
   5  -2  -3   10.99    0.80
   5  -2  -3   10.65    0.80
  -5   2   3    9.13    0.86
  -5   2   3    8.92    0.96
  -4   2   3    0.66    0.29
  -4   2   3    0.71    0.55
   3  -2  -3    3.46    0.54
  -3   2   3    3.93    0.57
  -3   2   3    3.48    0.41
   2  -2  -3   26.21    1.68
   2  -2  -3   26.76    1.76
   2  -2  -3   27.37    1.69
  -2   2   3   29.40    1.69
  -2   2   3   28.46    1.72
   1  -2  -3   60.57    3.65
   1  -2  -3   60.30    3.68
   1  -2  -3   63.59    3.66
  -1   2   3   64.44    3.65
  -1   2   3   64.45    3.69
  -1   2   3   58.36    3.68
  -1   2   3   60.30    3.68
  -1   2   3   64.99    3.70
  -1   2   3   61.01    3.67
   0  -2  -3    0.68    0.17
   0  -2  -3    0.82    0.18
   0  -2  -3    1.04    0.32
   0  -2  -3    0.77    0.13
   0   2   3    0.43    0.20
   0   2   3    0.78    0.21
   0   2   3    0.95    0.15
   0   2   3    1.07    0.25
  -1  -2  -3    1.57    0.27
   1   2   3    2.16    0.33
   1   2   3    2.02    0.24
   1   2   3    1.79    0.31
  -2  -2  -3    3.22    0.38
   2   2   3    4.44    0.47
  -3  -2  -3    0.25    0.25
   3   2   3    0.49    0.37
  -4  -2  -3    7.10    0.71
   4   2   3    6.89    0.88
  -5  -2  -3    0.11    0.44
  -5  -2  -3    0.42    0.47
   5   2   3    0.54    0.71
  -6  -2  -3    0.33    0.66
  -6  -2  -3    0.35    0.61
   6   2   3   -0.93    0.97
   7  -3  -3    1.98    1.22
   6  -3  -3    0.30    0.88
   6  -3  -3    0.23    0.41
  -6   3   3    0.52    0.60
  -6   3   3    0.89    0.56
   5  -3  -3    0.07    0.29
  -5   3   3   -0.03    0.39
   4  -3  -3   65.92    3.86
  -4   3   3   62.07    3.88
   3  -3  -3    5.76    0.50
   2  -3  -3    0.10    0.27
   2  -3  -3   -0.27    0.16
   2  -3  -3   -0.11    0.16
  -2   3   3    0.12    0.19
  -2   3   3    0.02    0.16
  -2   3   3    0.00    0.18
  -2   3   3    0.17    0.41
   1  -3  -3    2.80    0.32
   1  -3  -3    2.54    0.27
   1  -3  -3    2.85    0.31
  -1   3   3    2.72    0.43
  -1   3   3    2.54    0.27
  -1   3   3    2.91    0.33
   0  -3  -3    7.13    0.49
   0   3   3    7.64    0.58
   0   3   3    7.33    0.65
   0   3   3    6.86    0.54
   0   3   3    6.88    0.49
   1   3   3    9.01    0.61
  -2  -3  -3   -0.23    0.22
   2   3   3    0.21    0.27
  -3  -3  -3   -0.07    0.31
  -3  -3  -3    0.42    0.34
  -4  -3  -3   -0.12    0.38
   4   3   3    0.05    0.32
   4   3   3    0.57    0.51
  -5  -3  -3    0.57    0.57
   5   3   3    0.27    0.74
   7  -4  -3    1.46    0.73
  -7   4   3   -0.56    0.88
  -7   4   3    2.20    0.82
   6  -4  -3    1.79    1.00
   6  -4  -3    0.68    0.42
  -6   4   3   -0.18    0.50
  -6   4   3    1.51    0.70
   5  -4  -3   22.87    1.51
   5  -4  -3   26.00    1.90
   5  -4  -3   21.62    1.55
  -5   4   3   21.72    1.61
   4  -4  -3   36.85    2.28
  -4   4   3   35.35    2.29
   3  -4  -3    1.32    0.31
  -3   4   3    0.83    0.30
  -3   4   3    1.65    0.37
   2  -4  -3    0.83    0.32
   2  -4  -3    0.48    0.24
  -2   4   3    0.43    0.25
  -2   4   3    0.69    0.31
   1  -4  -3    0.66    0.19
   1  -4  -3    0.47    0.22
   1  -4  -3    0.57    0.30
  -1   4   3    0.36    0.24
  -1   4   3    0.55    0.22
  -1   4   3    0.44    0.19
   0  -4  -3    3.81    0.44
   0   4   3    3.94    0.35
   0   4   3    4.04    0.41
  -1  -4  -3    3.07    0.43
   1   4   3    3.01    0.32
   1   4   3    3.18    0.40
   1   4   3    3.31    0.42
  -2  -4  -3    3.01    0.49
  -2  -4  -3    2.27    0.59
   2   4   3    2.07    0.35
  -3  -4  -3   10.55    0.86
  -3  -4  -3    9.13    0.91
   3   4   3   10.31    1.10
   3   4   3   10.17    0.90
  -4  -4  -3    4.95    0.77
   4   4   3    3.99    0.59
   4   4   3    3.82    0.73
  -5  -4  -3    0.73    0.59
  -5  -4  -3    0.59    0.66
   5   4   3    1.28    0.80
  -6   5   3    7.60    1.25
  -6   5   3    5.05    0.88
   5  -5  -3    2.99    0.83
  -5   5   3    2.29    0.59
  -5   5   3    2.15    0.81
   4  -5  -3   16.47    1.33
  -4   5   3   11.27    1.27
  -4   5   3   14.66    1.12
   3  -5  -3    1.47    0.59
  -3   5   3    0.10    0.35
   2  -5  -3    0.35    0.33
  -2   5   3    1.68    0.33
   1  -5  -3    2.65    0.53
  -1   5   3    0.97    0.33
  -1   5   3    1.52    0.31
   0  -5  -3    0.89    0.46
   0   5   3    1.15    0.34
   1   5   3   58.85    3.21
   1   5   3   44.47    3.23
  -2  -5  -3    8.05    0.80
  -2  -5  -3    7.54    0.93
  -2  -5  -3    6.75    0.76
   2   5   3    8.44    0.77
   2   5   3    7.22    0.71
  -3  -5  -3    0.75    0.67
  -3  -5  -3    1.32    0.50
   3   5   3    0.36    0.39
   4   5   3    0.45    0.46
   4   5   3    0.44    0.62
   5  -6  -3    4.81    0.65
  -5   6   3    4.05    0.90
   4  -6  -3    8.93    1.32
  -4   6   3    7.07    0.88
  -4   6   3    7.94    0.87
   3  -6  -3    4.34    0.84
  -3   6   3    3.02    0.51
  -3   6   3    2.50    0.42
   2  -6  -3    1.05    0.65
  -2   6   3    0.04    0.35
   1  -6  -3    1.21    0.61
  -1   6   3    0.88    0.37
  -1   6   3    0.21    0.34
  -1   6   3    0.01    0.33
   0  -6  -3    5.73    0.92
   0   6   3    5.14    0.63
   0   6   3    5.13    0.59
   0   6   3    5.36    0.64
  -1  -6  -3   28.43    1.98
   1   6   3   26.20    1.82
   1   6   3   28.23    1.84
   2   6   3   -0.64    0.39
   3   6   3    1.01    0.61
  -4   7   3   -0.21    0.57
  -3   7   3    0.70    0.59
  -3   7   3    1.39    0.54
  -2   7   3    1.34    0.47
  -2   7   3    0.18    0.47
  -1   7   3    4.10    0.67
   0  -7  -3    0.60    0.79
   1   7   3    7.34    0.86
   1   7   3    5.15    1.11
   2   7   3    2.19    0.68
   2   7   3    0.40    0.56
   2   8  -4    1.31    0.54
   2   8  -4    0.16    0.64
  -2  -8   4   -0.17    1.02
   1   8  -4   11.14    1.07
  -1  -8   4   11.60    1.57
   0   8  -4   26.91    1.90
   0  -8   4   27.97    2.34
  -1   8  -4    1.32    0.58
   1  -8   4   -0.14    1.28
   4   7  -4    0.63    0.61
   4   7  -4    0.57    0.58
  -4  -7   4    0.49    0.92
   3   7  -4    4.79    0.76
   3   7  -4    5.50    0.80
   3   7  -4    4.54    0.76
   2   7  -4    2.03    0.47
   1   7  -4    6.52    0.97
  -1  -7   4    4.24    1.60
  -1  -7   4    6.29    1.28
   0  -7   4    0.76    0.91
  -1   7  -4    3.02    0.67
   1  -7   4    0.38    1.07
  -3   7  -4   -0.41    0.50
   3  -7   4    0.88    1.36
   5   6  -4   -0.04    0.83
   5   6  -4    0.26    0.77
  -5  -6   4   -1.29    0.83
  -5  -6   4    1.75    0.73
   4   6  -4    3.10    0.61
   4   6  -4    2.28    0.46
   4   6  -4    2.53    0.50
   4   6  -4    2.95    0.59
  -4  -6   4    3.31    0.86
  -4  -6   4    2.88    0.79
   3   6  -4    4.95    0.67
   3   6  -4    5.45    0.74
   2   6  -4    1.29    0.41
   2   6  -4    1.42    0.43
  -2  -6   4    1.56    0.70
   1   6  -4    0.35    0.35
  -1  -6   4   -0.32    0.71
   0   6  -4    1.27    0.40
   0   6  -4    1.25    0.28
   0   6  -4    1.44    0.40
   0  -6   4    0.73    0.86
  -1   6  -4    1.07    0.38
  -1   6  -4    0.23    0.34
   1  -6   4    0.56    0.94
   1  -6   4    0.89    0.83
  -2   6  -4    1.15    0.38
  -2   6  -4    0.50    0.44
   2  -6   4    1.63    1.07
  -3   6  -4    0.39    0.46
  -3   6  -4    0.12    0.50
   3  -6   4    0.23    1.16
  -4   6  -4    9.73    1.09
  -4   6  -4    9.47    1.07
   6   5  -4    3.52    0.73
   6   5  -4    3.45    0.61
   5   5  -4    0.47    0.32
   5   5  -4    1.83    0.52
   5   5  -4    1.21    0.44
   5   5  -4    1.64    0.50
  -5  -5   4    2.59    0.76
  -5  -5   4    1.32    0.64
   4   5  -4    0.33    0.25
   4   5  -4   -0.16    0.39
   4   5  -4    0.90    0.38
   4   5  -4    0.78    0.36
   4   5  -4   -0.15    0.30
  -4  -5   4    0.17    0.61
   3   5  -4    6.45    0.95
   3   5  -4    9.11    0.78
  -3  -5   4    9.10    1.00
   2   5  -4    0.56    0.66
  -2  -5   4    1.07    0.74
   1   5  -4    0.61    0.30
   1   5  -4    0.53    0.29
  -1  -5   4    0.38    0.20
  -1  -5   4    0.54    0.67
   0   5  -4    2.70    0.42
   0  -5   4    3.12    0.82
  -1   5  -4    1.49    0.39
   1  -5   4    1.72    0.87
   1  -5   4    2.31    1.02
  -2   5  -4   19.67    1.33
  -2   5  -4   17.62    1.28
   2  -5   4   20.83    1.77
  -3   5  -4    2.06    0.66
  -3   5  -4    2.48    0.49
   3  -5   4    1.65    0.93
   3  -5   4    3.06    1.11
  -4   5  -4    0.71    0.51
   4  -5   4   -0.12    1.28
   5  -5   4    1.81    1.77
   7   4  -4    4.43    0.72
   6   4  -4    6.59    0.80
   6   4  -4    4.56    0.64
   6   4  -4    5.73    0.69
   6   4  -4    7.18    0.79
   5   4  -4    0.70    0.33
   5   4  -4    0.14    0.32
   5   4  -4   -0.15    0.38
   5   4  -4   -0.13    0.38
   5   4  -4    0.19    0.27
  -5  -4   4    0.79    0.66
  -5  -4   4    1.46    0.57
   4   4  -4    3.35    0.42
   4   4  -4    2.28    0.32
   4   4  -4    2.52    0.56
  -4  -4   4    3.32    0.65
   3   4  -4    6.78    0.58
   3   4  -4    6.45    0.52
   3   4  -4    7.03    0.63
  -3  -4   4    6.81    0.80
   2   4  -4    0.84    0.26
   2   4  -4    0.55    0.25
   2   4  -4    0.59    0.43
  -2  -4   4    0.84    0.36
  -2  -4   4    0.66    0.72
   1   4  -4    2.46    0.50
   1   4  -4    1.47    0.30
   1   4  -4    1.52    0.23
  -1  -4   4    1.28    0.42
  -1  -4   4    1.91    0.60
   0   4  -4    4.06    0.45
   0  -4   4    4.43    0.77
  -1   4  -4    0.55    0.26
   1  -4   4    0.75    0.69
  -2   4  -4   15.31    1.03
  -2   4  -4   15.41    1.05
   2  -4   4   12.99    1.43
  -3   4  -4    0.17    0.31
  -3   4  -4    0.11    0.34
   3  -4   4    1.35    0.84
   3  -4   4    0.27    1.60
  -4   4  -4    4.64    0.60
  -4   4  -4    3.38    0.58
   4  -4   4    2.95    1.20
   4  -4   4    3.10    0.46
  -5   4  -4    0.22    0.62
   5  -4   4    0.17    1.47
   7   3  -4    3.58    0.63
   7   3  -4    4.94    0.86
   7   3  -4    3.87    0.70
  -7  -3   4    1.96    0.76
   6   3  -4    4.52    0.69
   6   3  -4    4.86    0.56
   6   3  -4    4.29    0.62
   6   3  -4    4.66    0.60
   6   3  -4    4.62    0.57
  -6  -3   4    2.29    0.90
   5   3  -4    0.85    0.32
   5   3  -4    0.49    0.33
   5   3  -4    0.70    0.26
  -5  -3   4    1.12    0.54
   4   3  -4   18.80    1.19
   4   3  -4   15.72    1.21
   4   3  -4   18.04    1.15
   3   3  -4   -0.18    0.28
   3   3  -4   -0.17    0.18
   2   3  -4    3.18    0.46
   2   3  -4    3.21    0.46
   1   3  -4   28.71    2.03
   1   3  -4   33.88    2.01
  -1  -3   4   35.23    2.10
  -1  -3   4   34.82    2.20
  -1  -3   4   31.70    1.98
   0   3  -4    1.61    0.40
   0  -3   4    2.85    0.62
   0  -3   4    1.77    0.40
   1  -3   4   -0.66    0.57
  -2   3  -4    9.66    0.98
   2  -3   4   12.28    1.21
  -3   3  -4   -0.03    0.28
   3  -3   4   -0.05    0.87
  -4   3  -4    1.55    0.45
  -4   3  -4    1.57    0.47
   4  -3   4    1.64    1.09
   4  -3   4    2.19    1.08
  -5   3  -4    2.11    0.52
  -5   3  -4    1.16    0.92
   5  -3   4    0.39    0.51
   5  -3   4    1.10    1.27
   7   2  -4    7.53    0.84
   7   2  -4    6.64    0.68
   7   2  -4    6.95    1.02
   7   2  -4    5.50    1.39
  -7  -2   4    4.44    0.82
   6   2  -4    5.74    0.58
   6   2  -4    5.91    0.58
   6   2  -4    5.83    0.72
   6   2  -4    6.68    0.64
  -6  -2   4    6.78    0.87
   5   2  -4    1.13    0.29
   5   2  -4    1.65    0.32
   5   2  -4    1.58    0.28
   5   2  -4    1.32    0.27
  -5  -2   4    0.97    0.55
   4   2  -4    2.62    0.36
   4   2  -4    2.40    0.32
   4   2  -4    2.39    0.36
   4   2  -4    3.05    0.34
  -4  -2   4    2.56    0.46
   3   2  -4    0.23    0.18
   3   2  -4    0.31    0.21
  -3  -2   4    0.31    0.24
  -3  -2   4    0.59    0.51
   2   2  -4    7.18    0.53
   2   2  -4    6.69    0.51
  -2  -2   4    7.17    0.72
  -2  -2   4    7.49    0.67
   1   2  -4   45.93    3.01
   1   2  -4   52.07    2.96
  -1  -2   4   51.70    3.07
  -1  -2   4   49.05    2.95
   0   2  -4    0.08    0.33
   0   2  -4    0.06    0.15
   0   2  -4   -0.30    0.27
   0   2  -4    0.17    0.13
   0  -2   4    0.04    0.14
   0  -2   4    0.11    0.47
  -1   2  -4    0.62    0.16
  -1   2  -4    0.22    0.32
   1  -2   4    1.62    0.56
  -2   2  -4   19.60    1.23
  -2   2  -4   18.24    1.14
   2  -2   4   17.78    1.10
   2  -2   4   13.41    1.41
  -3   2  -4    0.82    0.28
  -3   2  -4    0.65    0.47
   3  -2   4   -0.22    0.75
  -4   2  -4   -0.31    0.34
   4  -2   4    0.56    1.39
   4  -2   4    0.75    1.12
  -5   2  -4    4.91    0.70
  -5   2  -4    4.02    0.69
   5  -2   4    3.14    1.27
  -6   2  -4   -0.56    0.68
   8   1  -4    1.23    0.79
   8   1  -4    0.36    0.66
  -8  -1   4    0.98    1.52
   7   1  -4    4.24    0.64
   7   1  -4    5.21    1.51
  -7  -1   4    2.81    0.71
  -7  -1   4    2.78    0.71
   6   1  -4    0.75    0.39
   6   1  -4    0.81    0.35
   6   1  -4    0.81    0.27
  -6  -1   4    1.89    0.65
   5   1  -4    0.12    0.27
   5   1  -4   -0.06    0.70
   5   1  -4    0.29    0.21
   5   1  -4   -0.09    0.21
   5   1  -4    0.03    0.29
  -5  -1   4   -0.14    0.29
  -5  -1   4   -0.32    0.44
   4   1  -4   -0.04    0.51
   4   1  -4    1.50    0.26
   4   1  -4    1.05    0.20
   4   1  -4    1.09    0.22
  -4  -1   4    1.14    0.33
   3   1  -4    2.43    0.28
   3   1  -4    1.41    0.47
   3   1  -4    2.49    0.28
   3   1  -4    2.51    0.26
  -3  -1   4    2.72    0.49
  -3  -1   4    2.63    0.48
  -3  -1   4    2.60    0.35
   2   1  -4    2.04    0.23
   2   1  -4    1.13    0.42
   2   1  -4    1.77    0.23
  -2  -1   4    2.32    0.27
  -2  -1   4    1.82    0.36
  -2  -1   4    1.92    0.45
   1   1  -4    5.31    0.54
   1   1  -4    4.88    0.64
   1   1  -4    4.16    0.51
  -1  -1   4    6.25    0.39
  -1  -1   4    5.30    0.57
  -1  -1   4    5.46    0.65
   0   1  -4   -0.20    0.28
   0   1  -4   -0.04    0.19
   0  -1   4    0.04    0.13
   0  -1   4    0.03    0.40
   0  -1   4    0.05    0.13
  -1   1  -4    2.68    0.45
  -1   1  -4    2.73    0.36
   1  -1   4    3.27    0.32
   1  -1   4    1.66    0.55
   1  -1   4    3.07    0.30
  -2   1  -4    3.75    0.39
  -2   1  -4    4.09    0.39
  -2   1  -4    4.36    0.40
   2  -1   4    3.79    0.41
  -3   1  -4    0.00    0.24
  -3   1  -4    0.44    0.26
   3  -1   4    0.25    0.68
  -4   1  -4    6.98    0.74
  -4   1  -4    6.65    0.72
   4  -1   4   10.66    1.80
  -5   1  -4    0.84    0.53
  -6   1  -4   -0.37    0.66
   8   0  -4   -0.37    0.52
   8   0  -4    0.48    0.61
  -8   0   4    1.92    1.08
   7   0  -4    2.05    0.56
   7   0  -4    0.84    0.42
  -7   0   4    0.76    0.95
   6   0  -4    0.09    0.30
   6   0  -4    0.12    0.35
  -6   0   4   -0.51    0.98
   5   0  -4   15.63    1.12
   5   0  -4   15.95    1.06
   5   0  -4   14.23    1.08
  -5   0   4   18.21    1.29
  -5   0   4   17.50    1.11
   4   0  -4    0.64    0.36
   4   0  -4    0.83    0.18
   4   0  -4    0.86    0.20
  -4   0   4    0.92    0.39
   3   0  -4    4.88    0.56
  -3   0   4    4.10    0.43
  -3   0   4    5.51    0.55
   2   0  -4   43.71    2.63
   2   0  -4   42.30    2.72
  -2   0   4   49.02    2.73
  -2   0   4   42.11    2.64
   1   0  -4   63.27    3.42
   1   0  -4   57.59    3.47
   1   0  -4   59.03    3.44
  -1   0   4   55.24    3.47
  -1   0   4   53.27    3.51
  -1   0   4   54.13    3.38
   0   0  -4    2.69    0.28
   0   0  -4    3.51    0.41
   0   0  -4    2.81    0.32
   0   0   4    2.90    0.29
   0   0   4    2.32    0.29
  -1   0  -4    1.48    0.23
  -1   0  -4    1.17    0.31
  -1   0  -4    1.89    0.29
  -1   0  -4    1.40    0.31
  -1   0  -4    1.94    0.28
   1   0   4    1.85    0.47
   1   0   4    2.06    0.32
   1   0   4    1.76    0.26
   1   0   4    0.90    0.52
   1   0   4    2.05    0.23
  -2   0  -4    6.15    0.52
  -2   0  -4    7.12    0.49
   2   0   4    5.98    0.47
   2   0   4    5.12    0.78
  -3   0  -4    2.23    0.37
  -3   0  -4    2.25    0.31
  -3   0  -4    1.80    0.33
   3   0   4    2.78    0.31
   3   0   4    2.32    0.70
  -4   0  -4   10.31    0.83
   4   0   4    7.40    1.19
  -5   0  -4    1.09    0.54
   5   0   4   -0.08    1.03
  -6   0  -4    1.56    0.79
  -6   0  -4   -0.39    0.70
   6   0   4    0.01    1.27
   8  -1  -4    0.70    0.61
  -8   1   4    2.30    1.06
   7  -1  -4    1.38    1.37
  -7   1   4    0.05    1.18
   6  -1  -4   -0.17    0.29
   6  -1  -4    1.04    0.38
  -6   1   4    0.19    0.58
   5  -1  -4    0.36    0.24
   5  -1  -4    0.38    0.28
  -5   1   4   -0.51    0.42
  -5   1   4    0.66    0.52
   4  -1  -4   78.75    4.26
  -4   1   4   69.32    4.33
  -4   1   4   65.95    4.23
  -3   1   4    4.66    0.54
   2  -1  -4    0.12    0.15
   2  -1  -4    0.15    0.17
   2  -1  -4    0.15    0.12
  -2   1   4   -0.07    0.33
   1  -1  -4    2.74    0.33
   1  -1  -4    2.63    0.24
   1  -1  -4    2.82    0.32
   1  -1  -4    3.05    0.27
  -1   1   4    2.51    0.28
  -1   1   4    2.07    0.36
  -1   1   4    1.68    0.32
  -1   1   4    2.43    0.32
   0  -1  -4    7.78    0.62
   0  -1  -4    8.48    0.62
   0   1   4    9.00    0.62
   0   1   4    8.72    0.61
  -1  -1  -4   20.95    1.31
   1   1   4   20.66    1.33
  -2  -1  -4   -0.24    0.25
  -2  -1  -4    0.16    0.20
   2   1   4    0.15    0.45
  -3  -1  -4    2.11    0.38
  -3  -1  -4    1.36    0.30
  -3  -1  -4    1.82    0.33
   3   1   4    1.85    0.64
  -4  -1  -4    0.52    0.39
  -4  -1  -4    0.02    0.36
   4   1   4    0.26    0.74
   4   1   4   -1.23    1.17
   7  -2  -4   -0.03    1.20
  -7   2   4   -1.00    0.92
   6  -2  -4    0.51    0.39
   6  -2  -4   -0.10    0.31
  -6   2   4   -0.36    0.62
  -6   2   4    0.18    0.62
   5  -2  -4   33.22    2.02
   5  -2  -4   32.40    2.01
  -5   2   4   28.51    2.09
   4  -2  -4   39.18    2.28
  -4   2   4   32.48    2.22
  -4   2   4   31.47    2.20
   3  -2  -4    0.45    0.22
   3  -2  -4    0.50    0.23
  -3   2   4    1.17    0.44
   2  -2  -4    0.34    0.16
   2  -2  -4    0.40    0.18
  -2   2   4   -0.71    0.34
   1  -2  -4    2.91    0.30
   1  -2  -4    2.59    0.32
   1  -2  -4    2.28    0.28
  -1   2   4    2.16    0.43
  -1   2   4    1.85    0.30
  -1   2   4    2.63    0.34
  -1   2   4    1.96    0.37
   0  -2  -4    7.97    0.64
   0  -2  -4    7.21    0.53
   0  -2  -4    7.20    0.66
   0  -2  -4    8.24    0.60
   0   2   4    8.23    0.66
   0   2   4    8.58    0.73
  -1  -2  -4    3.41    0.38
   1   2   4    2.95    0.54
  -2  -2  -4    1.26    0.32
   2   2   4    0.74    0.49
   2   2   4    1.04    0.28
  -3  -2  -4   12.04    0.94
  -4  -2  -4    3.10    0.52
  -4  -2  -4    3.90    0.57
   4   2   4    2.02    1.12
  -5  -2  -4    0.88    0.74
   5   2   4    0.70    0.96
   7  -3  -4   -0.74    0.59
  -7   3   4    1.10    1.10
  -7   3   4    0.31    0.89
  -6   3   4    2.31    0.72
   5  -3  -4    4.15    0.59
  -5   3   4    3.42    0.66
   4  -3  -4   19.14    1.35
  -4   3   4   16.13    1.28
   3  -3  -4    3.16    0.41
   3  -3  -4    2.63    0.34
  -3   3   4    2.80    0.37
  -3   3   4    1.96    0.59
  -3   3   4    3.22    0.52
   2  -3  -4    2.49    0.51
  -2   3   4    2.38    0.55
   1  -3  -4    2.81    0.31
  -1   3   4    3.02    0.46
  -1   3   4    2.41    0.40
  -1   3   4    2.86    0.37
  -1   3   4    3.24    0.47
   0   3   4    0.24    0.23
  -1  -3  -4   91.06    5.46
  -1  -3  -4   92.26    5.54
   1   3   4   91.87    5.53
  -2  -3  -4    4.85    0.56
  -2  -3  -4    4.70    0.56
   2   3   4    4.26    0.68
   2   3   4    4.24    0.52
  -3  -3  -4    1.50    0.42
   3   3   4    1.50    0.61
  -4  -3  -4    0.93    0.49
   4   3   4    1.03    0.77
  -5  -3  -4    1.84    0.66
   5   3   4    0.26    1.06
  -7   4   4   -1.06    0.94
   6  -4  -4    0.21    1.13
  -6   4   4   -1.75    0.89
   5  -4  -4    5.22    0.72
  -5   4   4    4.02    0.73
   4  -4  -4    5.77    0.63
  -4   4   4    4.01    0.63
  -4   4   4    5.09    0.76
   3  -4  -4    3.40    0.47
  -3   4   4    2.75    0.51
  -3   4   4    2.09    0.52
  -3   4   4    3.29    0.56
   2  -4  -4   -0.09    0.28
  -2   4   4    0.18    0.29
  -2   4   4    0.30    0.36
   1  -4  -4   -0.14    0.22
   1  -4  -4    0.22    0.28
  -1   4   4    0.48    0.27
  -1   4   4   -0.10    0.34
   0   4   4    9.29    0.77
  -1  -4  -4   36.81    2.28
  -1  -4  -4   37.28    2.31
   1   4   4   39.41    2.46
   1   4   4   34.33    2.30
   1   4   4   33.24    2.26
  -2  -4  -4    0.64    0.42
  -2  -4  -4   -0.22    0.34
   2   4   4   -0.34    0.54
   2   4   4    0.42    0.37
   2   4   4   -0.52    0.46
  -3  -4  -4    0.58    0.40
  -3  -4  -4    0.56    0.51
   3   4   4    0.79    0.45
  -4  -4  -4    1.75    0.60
  -4  -4  -4    0.57    0.57
   4   4   4    0.47    0.80
   6  -5  -4    0.38    0.44
  -6   5   4    0.19    0.81
   5  -5  -4   11.05    0.79
   5  -5  -4    8.19    1.28
  -5   5   4    6.34    1.00
   4  -5  -4    0.94    0.39
  -4   5   4   -0.20    0.57
   3  -5  -4    2.46    0.47
   3  -5  -4    1.73    0.65
  -3   5   4    1.82    0.44
  -3   5   4    2.18    0.57
   2  -5  -4    2.37    0.47
   2  -5  -4    1.50    0.71
  -2   5   4    2.36    0.45
  -2   5   4    1.81    0.47
   1  -5  -4    6.77    0.85
   1  -5  -4    6.85    0.63
   1  -5  -4    7.18    0.72
  -1   5   4    5.61    0.68
  -1   5   4    7.39    0.72
   0  -5  -4   -0.68    0.50
   0  -5  -4    0.92    0.36
   0  -5  -4    0.40    0.25
   0   5   4    0.59    0.36
   0   5   4    0.33    0.44
  -1  -5  -4   11.18    1.03
   1   5   4    8.76    0.92
   1   5   4    9.01    0.85
  -2  -5  -4    0.03    0.40
   2   5   4    0.86    0.46
   2   5   4    0.96    0.66
  -3  -5  -4    0.14    0.75
   3   5   4   -1.06    0.68
   3   5   4   -0.45    0.73
  -5   6   4    0.48    0.79
  -4   6   4   -0.16    0.66
   3  -6  -4    0.61    0.75
  -3   6   4    0.55    0.60
   2  -6  -4   -0.05    0.68
  -2   6   4    0.95    0.55
  -2   6   4    0.33    0.46
   1  -6  -4   -0.65    0.62
  -1   6   4    0.39    0.48
   0  -6  -4    2.76    0.76
   0   6   4    3.51    0.62
   2   6   4    0.89    0.70
  -3   7   4    0.14    0.75
   2  -7  -4    8.75    1.34
  -2   7   4    9.25    1.03
   1  -7  -4    1.11    0.64
  -1   7   4    0.23    0.60
  -1   7   4    0.95    0.60
   0  -7  -4    0.37    0.61
   0   7   4    0.13    0.62
   0   7   4    0.24    0.56
   3   7  -5    2.90    0.65
   3   7  -5    4.17    0.73
  -3  -7   5    4.40    1.53
  -3  -7   5    4.49    0.97
   2   7  -5    1.22    0.64
  -2  -7   5   -1.54    0.84
  -2  -7   5   -0.67    0.95
   1   7  -5    0.20    0.51
  -1  -7   5    0.09    1.27
  -1  -7   5   -0.51    0.96
   0   7  -5    1.54    0.87
   0   7  -5    1.21    0.60
   0  -7   5    2.50    1.18
  -1   7  -5   -0.20    0.52
   1  -7   5   -0.52    1.47
  -2   7  -5   10.59    1.14
   2  -7   5   10.43    1.80
   5   6  -5   -0.76    0.79
   5   6  -5    0.03    0.91
   5   6  -5    0.61    0.50
  -5  -6   5   -1.49    0.99
   4   6  -5    1.13    0.38
   4   6  -5    1.54    0.48
  -4  -6   5    1.90    1.11
  -4  -6   5    3.46    0.76
  -3  -6   5    1.76    0.69
  -3  -6   5    1.93    0.88
   2   6  -5    0.26    0.43
  -2  -6   5   -1.18    0.82
   1   6  -5    0.64    0.42
   1   6  -5    1.05    0.33
  -1  -6   5    1.18    0.89
   0   6  -5    1.68    0.34
   0   6  -5    1.00    0.59
   0  -6   5    1.60    1.00
  -1   6  -5    1.66    0.39
   1  -6   5   -0.09    0.89
  -2   6  -5    7.60    0.82
  -2   6  -5    7.75    0.87
   2  -6   5    6.56    2.22
  -3   6  -5    0.13    0.57
  -3   6  -5   -0.18    0.55
   3  -6   5    1.27    1.84
   6   5  -5    2.86    0.59
   6   5  -5    4.55    0.74
  -6  -5   5    4.58    1.42
   5   5  -5    0.36    0.35
   5   5  -5   -0.23    0.42
   5   5  -5   -0.19    0.50
   5   5  -5    0.65    0.71
  -5  -5   5    1.46    0.82
  -5  -5   5   -0.36    0.61
   4   5  -5    8.11    0.70
   4   5  -5    9.80    1.11
   4   5  -5    7.83    0.80
  -4  -5   5    8.47    1.12
   3   5  -5    0.22    0.35
   3   5  -5   -0.26    0.27
   3   5  -5   -0.35    0.35
  -3  -5   5    0.22    0.56
  -3  -5   5   -0.52    0.69
   2   5  -5    1.17    0.41
   2   5  -5    1.07    0.27
   2   5  -5    1.87    0.41
  -2  -5   5    0.69    0.72
  -2  -5   5    2.38    0.60
   1   5  -5   13.69    0.99
   1   5  -5   14.06    1.14
   1   5  -5   14.65    1.08
  -1  -5   5   15.22    1.45
  -1  -5   5   15.63    1.23
   0   5  -5    1.18    0.38
   0   5  -5    0.84    0.28
   0  -5   5    0.99    0.89
  -1   5  -5   -0.22    0.28
  -1   5  -5   -0.48    0.37
   1  -5   5    0.93    0.96
  -2   5  -5    6.42    0.73
  -2   5  -5    7.11    0.78
   2  -5   5    8.00    1.48
   2  -5   5    7.23    1.50
  -3   5  -5   -0.25    0.45
   3  -5   5    0.73    1.23
   3  -5   5    0.00    1.34
   4  -5   5    3.14    1.62
   6   4  -5    2.99    0.54
   6   4  -5    1.82    0.57
   6   4  -5    2.11    0.59
   6   4  -5    2.59    0.52
  -6  -4   5    3.30    0.87
   5   4  -5    0.84    0.38
   5   4  -5    0.80    0.32
   5   4  -5    1.04    0.44
   5   4  -5    1.46    0.38
  -5  -4   5    0.91    0.70
   4   4  -5    0.95    0.38
   4   4  -5    0.80    0.28
   4   4  -5    0.81    0.35
  -4  -4   5    1.37    1.13
   3   4  -5    0.10    0.30
   3   4  -5   -0.15    0.22
   3   4  -5    0.01    0.29
   3   4  -5    0.69    0.69
  -3  -4   5    0.16    0.47
  -3  -4   5    0.50    0.65
   2   4  -5    7.52    0.58
   2   4  -5    7.31    0.65
  -2  -4   5    7.91    0.84
  -2  -4   5    5.96    0.99
   1   4  -5   16.36    1.14
   1   4  -5   15.31    1.07
  -1  -4   5   17.72    1.27
  -1  -4   5   17.12    1.48
   0   4  -5   -0.06    0.21
   0   4  -5   -0.12    0.29
   0  -4   5   -0.80    0.41
   0  -4   5    0.37    0.78
  -1   4  -5    0.81    0.28
   1  -4   5    0.61    0.85
   1  -4   5    0.06    0.45
  -2   4  -5    4.06    0.60
  -2   4  -5    4.87    0.66
   2  -4   5    6.09    1.30
  -3   4  -5    0.17    0.41
  -3   4  -5    0.40    0.44
   3  -4   5   -0.39    0.93
   3  -4   5   -0.42    1.18
   4  -4   5    0.18    1.55
   7   3  -5    2.56    0.55
   7   3  -5    1.90    0.50
  -7  -3   5    0.60    1.11
   6   3  -5    0.48    0.44
   6   3  -5    1.41    0.38
   6   3  -5    0.97    0.45
   6   3  -5    1.28    0.45
  -6  -3   5    0.25    0.64
   5   3  -5    0.70    0.30
   5   3  -5    0.41    0.35
   5   3  -5   -0.11    0.31
   4   3  -5    3.73    0.46
  -4  -3   5    4.25    0.75
   3   3  -5    0.52    0.24
   3   3  -5    0.34    0.33
   2   3  -5    0.50    0.25
   2   3  -5    0.32    0.20
  -2  -3   5    0.02    0.42
  -2  -3   5    0.21    0.67
   1   3  -5    1.09    0.39
  -1  -3   5    2.44    0.49
  -1  -3   5    1.09    0.63
   0   3  -5   -0.08    0.18
   0   3  -5    0.84    0.46
   0  -3   5    0.23    0.69
  -1   3  -5    0.92    0.43
  -1   3  -5    0.67    0.30
   1  -3   5    0.84    0.81
   1  -3   5    1.02    0.54
  -2   3  -5    3.48    0.62
   2  -3   5    3.15    1.03
  -3   3  -5    0.19    0.37
   3  -3   5    1.10    1.27
   3  -3   5   -0.13    0.35
   3  -3   5    0.72    1.12
   3  -3   5    0.26    0.42
  -4   3  -5    6.46    0.82
   4  -3   5    4.28    1.40
   4  -3   5    6.68    1.68
   4  -3   5    5.56    0.84
  -5   3  -5    0.12    0.65
  -5   3  -5    0.56    0.63
   5  -3   5    0.34    1.54
   7   2  -5    1.02    0.51
   6   2  -5    0.09    0.41
   6   2  -5   -0.05    0.33
   6   2  -5    0.14    0.33
  -6  -2   5   -0.80    0.78
  -6  -2   5    0.05    0.51
   5   2  -5   10.95    0.81
   5   2  -5   11.80    0.82
  -5  -2   5    8.04    1.21
   4   2  -5    0.96    0.24
  -4  -2   5    1.57    0.56
   3   2  -5    2.38    0.33
   3   2  -5    2.74    0.33
   3   2  -5    2.55    0.37
  -3  -2   5    2.17    0.35
  -3  -2   5    1.60    0.59
   2   2  -5   18.28    1.10
  -2  -2   5   15.51    1.27
   1   2  -5   16.80    1.03
  -1  -2   5   14.59    1.20
   0   2  -5    1.68    0.25
   0   2  -5    0.75    0.39
   0  -2   5    2.17    0.71
  -1   2  -5    1.99    0.30
  -1   2  -5    2.56    0.86
   1  -2   5    2.32    0.79
  -2   2  -5    2.62    0.37
   2  -2   5    1.75    0.90
  -3   2  -5    2.64    0.44
   3  -2   5    1.33    1.04
  -4   2  -5    6.63    0.72
  -4   2  -5    4.55    0.65
   4  -2   5    3.95    1.09
   4  -2   5    5.93    0.84
   4  -2   5    2.91    1.27
  -5   2  -5    1.55    0.62
  -5   2  -5   -0.12    0.67
   5  -2   5    0.30    0.67
   5  -2   5   -1.35    1.45
   7   1  -5   -0.22    0.39
  -7  -1   5   -0.66    0.91
   6   1  -5    0.76    0.32
   6   1  -5    0.93    0.37
   6   1  -5    1.34    0.43
  -6  -1   5   -0.04    0.70
   5   1  -5    0.53    0.31
   5   1  -5    0.80    0.27
   5   1  -5    1.13    0.29
  -5  -1   5    1.03    0.57
   4   1  -5   67.25    4.09
   4   1  -5   70.03    4.10
   4   1  -5   71.56    4.09
  -4  -1   5   65.76    4.23
   3   1  -5    0.75    0.21
   3   1  -5    0.13    0.54
  -3  -1   5    0.77    0.46
  -3  -1   5    0.92    0.46
   2   1  -5    0.03    0.16
   2   1  -5    0.09    0.19
  -2  -1   5   -0.44    0.37
  -2  -1   5   -0.03    0.21
  -1  -1   5    1.35    0.43
  -1  -1   5    1.79    0.28
   0   1  -5    5.27    0.42
   0   1  -5    5.46    0.44
   0   1  -5    4.52    0.43
   0  -1   5    4.76    0.42
   0  -1   5    5.10    0.84
   0  -1   5    5.39    0.43
  -1   1  -5   24.73    1.44
  -1   1  -5   21.67    1.45
   1  -1   5   18.20    1.64
   1  -1   5   21.73    1.40
   1  -1   5   25.06    1.42
  -2   1  -5   -0.34    0.21
  -2   1  -5   -0.07    0.29
  -2   1  -5   -0.04    0.30
   2  -1   5   -0.26    0.75
   3  -1   5    0.67    0.92
  -4   1  -5    0.10    0.45
   4  -1   5   -0.80    1.00
  -5   1  -5    0.85    0.61
   7   0  -5    0.21    0.52
   7   0  -5    1.45    0.43
  -7   0   5    1.24    0.89
   6   0  -5    0.85    0.42
   6   0  -5    0.17    0.32
  -6   0   5    0.12    0.82
   5   0  -5   51.07    3.16
   5   0  -5   47.50    3.13
  -5   0   5   57.22    3.33
   4   0  -5   31.41    1.91
   4   0  -5   26.63    1.97
   4   0  -5   34.15    1.93
   3   0  -5    0.26    0.21
   3   0  -5    0.44    0.21
  -3   0   5   -0.51    0.38
   2   0  -5    0.35    0.19
  -2   0   5   -0.08    0.52
  -2   0   5    0.52    0.22
  -2   0   5    0.68    0.37
   1   0  -5    2.54    0.32
  -1   0   5    1.80    0.44
  -1   0   5    2.27    0.34
   0   0  -5   12.31    0.81
   0   0  -5   10.95    0.92
   0   0   5   12.81    0.82
   0   0   5   11.22    0.81
  -1   0  -5    1.85    0.42
  -1   0  -5    1.79    0.30
   1   0   5    1.99    0.36
   1   0   5    1.31    0.60
  -2   0  -5    0.27    0.28
  -2   0  -5    0.91    0.27
  -2   0  -5    0.14    0.45
   2   0   5   -0.42    0.68
  -3   0  -5   13.60    1.04
  -3   0  -5   13.95    1.04
  -4   0  -5    3.60    0.58
   4   0   5    2.29    1.14
   4   0   5    3.17    1.12
  -5   0  -5    0.42    0.84
   5   0   5    0.34    1.34
  -7   1   5    1.03    0.96
   6  -1  -5    7.55    0.69
   6  -1  -5    5.81    0.76
  -6   1   5    6.23    1.10
   5  -1  -5    4.79    0.50
   5  -1  -5    4.59    0.59
  -5   1   5    3.54    0.71
   4  -1  -5   14.70    0.91
   4  -1  -5   10.88    0.84
   4  -1  -5   14.69    0.95
  -4   1   5   12.78    1.12
   3  -1  -5    4.35    0.46
   3  -1  -5    4.80    0.46
  -3   1   5    4.95    0.91
   2  -1  -5    1.97    0.35
  -2   1   5    1.38    0.51
  -2   1   5    0.74    0.33
  -2   1   5    1.25    0.41
  -1   1   5    2.26    0.39
  -1   1   5    0.65    0.72
  -1   1   5    3.73    0.57
   0  -1  -5    0.14    0.29
   0  -1  -5   -0.08    0.20
   0   1   5    0.04    0.28
   0   1   5    0.16    0.50
  -1  -1  -5   97.73    5.90
  -1  -1  -5  102.52    5.93
  -2  -1  -5    2.83    0.43
  -2  -1  -5    3.35    0.44
   2   1   5    2.06    0.76
  -3  -1  -5    1.64    0.41
  -3  -1  -5    1.48    0.42
   3   1   5    0.98    0.54
   3   1   5    1.48    0.85
  -4  -1  -5    0.91    0.49
   4   1   5   -0.86    1.23
  -5  -1  -5    1.71    0.68
   5   1   5   -0.95    1.38
   7  -2  -5    0.00    0.42
   7  -2  -5    0.32    0.56
  -7   2   5   -0.58    1.01
  -7   2   5    1.01    0.92
   6  -2  -5   -0.79    0.46
   6  -2  -5   -0.25    0.30
   5  -2  -5    7.71    0.68
   5  -2  -5   10.26    0.80
  -5   2   5    5.86    1.03
   4  -2  -5    3.69    0.41
  -4   2   5    2.51    0.62
   3  -2  -5    2.57    0.38
   3  -2  -5    2.39    0.34
   3  -2  -5    2.49    0.33
  -3   2   5    1.51    0.50
   2  -2  -5   -0.27    0.24
   2  -2  -5    0.11    0.18
  -2   2   5   -0.17    0.29
  -2   2   5   -0.12    0.40
  -2   2   5    0.33    0.47
   1  -2  -5    0.24    0.24
   1  -2  -5   -0.22    0.23
  -1   2   5    0.19    0.28
  -1   2   5    0.25    0.37
  -1   2   5    0.03    0.33
   0  -2  -5   12.83    0.85
   0   2   5   11.35    0.94
   0   2   5   14.71    1.00
   1   2   5   22.05    1.69
   1   2   5   22.69    1.49
  -2  -2  -5    0.05    0.34
   2   2   5   -0.65    0.61
   2   2   5    0.25    0.36
  -3  -2  -5    0.45    0.42
  -3  -2  -5    0.21    0.39
   3   2   5    0.78    0.93
   3   2   5   -0.02    0.79
   3   2   5   -0.43    0.47
  -4  -2  -5   -0.23    0.68
   4   2   5    0.03    1.02
  -7   3   5    1.03    1.07
  -6   3   5    0.00    0.77
   5  -3  -5   10.76    0.91
   5  -3  -5   10.75    0.83
  -5   3   5    9.02    1.17
   4  -3  -5    0.97    0.33
   4  -3  -5    0.53    0.36
  -4   3   5    1.10    0.47
  -4   3   5    0.85    0.60
   3  -3  -5    2.60    0.43
   3  -3  -5    2.49    0.37
  -3   3   5    2.17    0.57
   2  -3  -5    4.11    0.54
  -2   3   5    3.70    0.56
  -2   3   5    3.43    0.74
   1  -3  -5    7.30    0.72
   1  -3  -5    8.21    0.68
  -1   3   5    6.34    0.67
  -1   3   5    5.56    0.82
   0  -3  -5    0.37    0.37
   0   3   5    1.23    0.37
   0   3   5    0.67    0.53
  -1  -3  -5    8.22    0.73
  -1  -3  -5    7.34    0.69
   1   3   5    7.56    0.74
   1   3   5    8.84    1.00
  -2  -3  -5    0.10    0.40
   2   3   5   -0.23    0.41
   2   3   5    0.22    0.66
  -3  -3  -5   -0.10    0.43
   3   3   5    0.34    1.25
   3   3   5   -0.02    0.47
  -4  -3  -5   -1.11    0.57
   4   3   5   -0.85    1.03
   6  -4  -5    1.30    0.59
  -6   4   5   -1.10    1.08
   5  -4  -5    1.18    0.92
   5  -4  -5    1.05    0.41
  -5   4   5    0.67    0.79
  -5   4   5   -0.25    0.69
   4  -4  -5   -0.60    0.30
  -4   4   5    0.12    0.65
   3  -4  -5    0.22    0.36
  -3   4   5    0.31    0.57
  -3   4   5    0.50    0.89
   2  -4  -5    1.03    0.39
  -2   4   5    1.09    0.44
  -2   4   5    2.40    0.96
   1  -4  -5   -0.15    0.35
  -1   4   5    1.09    0.71
  -1   4   5    0.25    0.38
  -1   4   5   -0.13    0.45
   0  -4  -5    3.40    0.52
   0  -4  -5    3.69    0.84
   0   4   5    2.42    0.50
   0   4   5    3.68    0.70
  -1  -4  -5    3.62    0.74
   1   4   5    1.15    0.68
   1   4   5    2.38    0.51
  -2  -4  -5    1.79    0.54
   2   4   5    1.84    0.53
  -3  -4  -5   -0.26    0.54
  -3  -4  -5    1.37    0.52
   3   4   5    0.19    0.90
   3   4   5   -0.41    0.55
   5  -5  -5    4.02    0.66
   5  -5  -5    3.68    0.53
  -5   5   5    3.39    0.91
   4  -5  -5    0.59    0.72
   4  -5  -5    0.24    0.36
  -4   5   5    0.86    0.74
   3  -5  -5    0.84    0.32
   3  -5  -5   -0.07    0.72
  -3   5   5   -0.28    0.69
   2  -5  -5   11.10    0.85
   2  -5  -5   12.87    1.12
  -2   5   5   11.45    1.15
  -2   5   5   10.44    1.18
   1  -5  -5    0.72    0.31
  -1   5   5    0.34    0.60
   0  -5  -5    0.65    0.60
   0   5   5   -0.28    0.74
   0   5   5    0.13    0.64
  -2  -5  -5    0.16    0.67
   2   5   5    0.57    0.82
   4  -6  -5    0.72    0.61
  -4   6   5    1.12    1.02
   3  -6  -5    1.65    0.63
  -3   6   5    1.49    0.81
   2  -6  -5    0.66    0.58
  -2   6   5    1.61    0.77
  -2   6   5    1.37    0.67
   1  -6  -5   -1.22    0.52
  -1   6   5   -0.51    0.91
  -1   6   5    0.29    0.69
   0  -6  -5    1.14    0.61
   0   6   5    0.67    0.60
   2   7  -6    0.24    0.60
  -2  -7   6    2.91    1.38
   1   7  -6    7.07    1.07
  -1  -7   6    7.77    1.48
  -1  -7   6    6.84    1.60
   0   7  -6    0.08    0.76
   0   7  -6    0.26    0.80
   0  -7   6    0.47    1.41
   0  -7   6    0.32    1.12
   4   6  -6    0.33    0.60
   4   6  -6   -0.52    0.42
   4   6  -6   -0.04    0.53
  -4  -6   6    0.49    1.06
   3   6  -6    0.27    0.37
  -3  -6   6    0.06    0.98
  -3  -6   6   -0.20    0.95
   2   6  -6    6.55    0.91
   1   6  -6    6.13    0.82
   1   6  -6    7.32    1.13
  -1  -6   6    6.77    0.98
   0   6  -6    0.50    0.41
   0  -6   6   -1.02    1.11
   0  -6   6    0.03    0.90
  -1   6  -6    0.33    0.45
   1  -6   6   -0.31    0.98
   1  -6   6   -0.34    1.33
  -2   6  -6    2.19    0.61
  -2   6  -6    1.13    0.67
   2  -6   6    0.68    1.52
   5   5  -6    0.32    0.59
   5   5  -6    0.01    0.42
  -5  -5   6    0.24    1.10
   4   5  -6    4.47    0.76
   4   5  -6    4.60    0.61
   4   5  -6    4.85    0.77
  -4  -5   6    6.05    1.07
   3   5  -6    0.17    0.31
   3   5  -6    0.14    0.41
  -3  -5   6    1.01    0.89
   2   5  -6    0.31    0.36
   2   5  -6   -0.35    0.47
  -2  -5   6    0.34    1.00
  -2  -5   6   -0.98    0.67
   1   5  -6    0.78    0.53
  -1  -5   6    0.57    0.66
  -1  -5   6    3.29    1.05
   0   5  -6    0.81    0.46
   0   5  -6    0.93    0.35
   0  -5   6    1.91    1.06
   0  -5   6   -0.18    0.64
  -1   5  -6    0.54    0.44
  -1   5  -6    0.55    0.41
   1  -5   6   -0.06    1.57
   1  -5   6    0.07    0.64
   1  -5   6    0.62    1.16
  -2   5  -6    2.22    0.51
   2  -5   6    2.34    1.02
   2  -5   6   -0.01    2.00
   3  -5   6   -1.95    1.56
   6   4  -6   -0.02    0.58
   6   4  -6    0.87    0.50
   6   4  -6    0.32    0.96
  -6  -4   6    0.44    0.90
   5   4  -6   11.03    1.20
   5   4  -6   10.30    0.99
  -5  -4   6    9.91    1.28
   4   4  -6    0.50    0.39
   4   4  -6   -0.46    0.61
   4   4  -6    0.55    0.34
  -4  -4   6    0.56    0.83
   3   4  -6    1.47    0.41
   3   4  -6    1.74    0.36
   3   4  -6    1.09    0.39
  -3  -4   6    2.33    0.84
  -3  -4   6    1.50    0.65
   2   4  -6    7.18    0.74
   2   4  -6    8.44    0.68
  -2  -4   6    8.36    1.02
  -2  -4   6    9.03    1.20
   1   4  -6    5.12    0.68
   1   4  -6    4.76    0.66
   1   4  -6    6.03    0.55
  -1  -4   6    6.77    1.16
  -1  -4   6    6.29    0.89
   0   4  -6    2.37    0.38
   0   4  -6    2.72    0.46
   0   4  -6    2.15    0.49
   0  -4   6    2.77    1.00
   0  -4   6    2.24    0.64
  -1   4  -6    2.00    0.52
  -1   4  -6    2.29    0.64
  -1   4  -6    2.59    0.43
   1  -4   6    2.82    0.65
   1  -4   6    0.76    1.09
  -2   4  -6    1.88    0.50
   2  -4   6    1.33    0.65
   2  -4   6    3.20    0.96
  -3   4  -6    2.32    0.71
   3  -4   6   -0.56    1.39
   6   3  -6    0.30    0.47
   6   3  -6    0.85    0.61
   5   3  -6    1.65    0.40
   5   3  -6    1.82    0.40
   5   3  -6    2.04    0.41
  -5  -3   6    2.35    0.78
   4   3  -6   48.87    2.97
   4   3  -6   50.91    2.97
   4   3  -6   43.78    2.95
  -4  -3   6   50.75    3.18
   3   3  -6   -0.63    0.45
   3   3  -6   -0.63    0.29
  -3  -3   6    0.52    0.76
  -3  -3   6   -0.40    0.55
   2   3  -6    0.70    0.33
   2   3  -6    0.43    0.26
  -2  -3   6   -0.05    0.57
  -2  -3   6   -1.23    0.71
  -1  -3   6    1.83    0.59
  -1  -3   6    1.83    1.34
   0   3  -6    2.20    0.51
   0   3  -6    3.52    0.55
   0  -3   6    1.99    0.95
   0  -3   6    2.21    0.73
  -1   3  -6   20.41    1.29
   1  -3   6   19.38    1.45
   1  -3   6   15.47    1.79
  -2   3  -6    0.22    0.45
  -2   3  -6    0.25    0.36
   2  -3   6    2.63    1.18
  -3   3  -6    2.22    0.68
  -3   3  -6    2.47    0.55
   3  -3   6   -1.20    1.53
  -4   3  -6    1.28    0.62
  -4   3  -6    0.67    0.62
   4  -3   6    1.54    1.69
   7   2  -6    0.76    0.49
   7   2  -6    0.45    0.49
  -7  -2   6   -0.19    1.33
   6   2  -6    0.69    0.45
   6   2  -6    0.48    0.44
   5   2  -6   32.05    1.99
   5   2  -6   30.27    1.98
   5   2  -6   32.11    2.00
   4   2  -6   11.94    0.93
   4   2  -6   12.84    0.93
  -4  -2   6   14.02    1.27
   3   2  -6    0.56    0.29
  -3  -2   6    0.17    0.57
  -3  -2   6    1.33    0.90
  -3  -2   6    0.12    0.36
   2   2  -6    1.09    0.31
   2   2  -6    1.17    0.27
  -2  -2   6    0.99    0.57
   1   2  -6    0.30    0.24
   1   2  -6    0.56    0.29
  -1  -2   6    0.65    0.57
  -1  -2   6    0.49    0.75
   0   2  -6    7.89    0.91
   0  -2   6    8.35    1.10
  -1   2  -6    0.32    0.29
   1  -2   6    0.14    0.93
   1  -2   6    0.53    0.58
  -2   2  -6    0.24    0.44
  -2   2  -6   -0.14    0.34
   2  -2   6    0.53    1.07
  -3   2  -6    6.15    0.76
  -3   2  -6    4.78    0.76
  -4   2  -6    1.80    0.66
  -4   2  -6    1.45    0.58
   4  -2   6    1.55    0.68
   4  -2   6   -0.06    1.54
   7   1  -6    1.41    0.50
   7   1  -6    1.68    0.50
  -7  -1   6    1.80    1.01
   6   1  -6    5.08    0.66
   6   1  -6    4.46    0.61
   5   1  -6    2.12    0.39
   5   1  -6    2.88    0.46
   5   1  -6    2.60    0.43
  -5  -1   6    2.49    0.73
  -5  -1   6    3.96    0.63
  -5  -1   6    1.66    1.23
   4   1  -6    8.72    0.73
   4   1  -6    9.64    0.74
  -4  -1   6   10.63    1.11
   3   1  -6    3.18    0.41
  -3  -1   6    3.35    0.67
   2   1  -6    1.43    0.30
   2   1  -6    1.70    0.32
  -2  -1   6    2.44    0.34
  -2  -1   6    0.01    0.88
  -2  -1   6    0.47    0.56
   1   1  -6    2.90    0.37
  -1  -1   6    0.89    0.55
  -1  -1   6    2.23    0.33
  -1  -1   6    1.38    0.76
   0   1  -6    0.80    0.32
   0   1  -6    0.61    0.29
   0  -1   6   -0.51    0.57
   0  -1   6    1.52    0.82
   1  -1   6   45.90    2.89
   1  -1   6   42.38    3.10
  -2   1  -6    1.54    0.40
  -2   1  -6    1.83    0.39
   2  -1   6    0.71    1.01
   3  -1   6    1.46    1.27
   3  -1   6    3.61    1.24
  -4   1  -6   -0.30    0.59
  -4   1  -6    0.61    0.57
   4  -1   6    0.08    1.44
   7   0  -6    0.86    0.47
   7   0  -6    1.31    0.59
   6   0  -6    0.30    0.37
   6   0  -6    0.24    0.44
  -6   0   6   -1.11    1.01
   5   0  -6    9.03    0.77
   5   0  -6    8.91    0.82
   5   0  -6    9.32    0.76
  -5   0   6    9.40    1.44
  -5   0   6   11.62    1.19
   4   0  -6    1.76    0.34
   4   0  -6    1.89    0.36
   4   0  -6    1.98    0.40
  -4   0   6    1.82    0.63
   3   0  -6    2.41    0.36
   3   0  -6    3.27    0.45
  -3   0   6    2.16    1.18
  -3   0   6    4.70    0.81
   2   0  -6   -0.01    0.26
   2   0  -6   -0.05    0.25
  -2   0   6    0.42    0.56
  -2   0   6   -0.18    0.51
   1   0  -6    0.42    0.26
   1   0  -6    0.39    0.24
  -1   0   6    0.59    0.52
  -1   0   6    0.39    0.98
   0   0  -6   26.82    1.71
   0   0  -6   26.55    1.59
   0   0   6   20.93    1.96
   1   0   6   17.66    1.68
   1   0   6   18.85    1.47
  -2   0  -6    0.36    0.38
  -2   0  -6   -0.04    0.32
   2   0   6    1.10    0.97
  -3   0  -6    1.57    0.49
   3   0   6    1.38    1.19
   3   0   6    1.25    1.09
  -4   0  -6   -0.53    1.07
   4   0   6   -0.44    1.45
   7  -1  -6    4.10    0.73
  -7   1   6    2.85    1.14
   6  -1  -6    1.16    0.48
  -6   1   6   -1.20    1.46
   5  -1  -6    7.59    0.78
   5  -1  -6    8.47    0.70
  -5   1   6    6.31    1.14
   4  -1  -6    0.57    0.28
  -4   1   6    1.76    0.64
  -4   1   6    0.28    0.86
   3  -1  -6    2.57    0.42
   3  -1  -6    3.14    0.40
  -3   1   6    1.27    0.61
  -3   1   6    1.72    0.61
   2  -1  -6    6.17    0.60
  -2   1   6    4.90    0.85
   1  -1  -6    5.50    0.58
  -1   1   6    5.38    1.32
   0  -1  -6    0.88    0.32
   0   1   6   -0.13    0.51
   0   1   6    0.94    0.78
  -1  -1  -6    5.61    0.61
  -1  -1  -6    4.67    0.54
   1   1   6    3.20    0.95
  -2  -1  -6    0.71    0.40
  -2  -1  -6    0.42    0.34
   2   1   6   -0.70    0.91
  -3  -1  -6   -0.39    0.50
   3   1   6    0.05    1.12
   4   1   6   -0.61    1.42
   6  -2  -6    0.52    0.49
  -6   2   6    1.03    1.10
   5  -2  -6    2.65    0.43
   5  -2  -6    2.42    0.49
  -5   2   6    0.77    1.22
  -5   2   6    2.70    0.84
   4  -2  -6    0.04    0.37
   4  -2  -6   -0.17    0.29
  -4   2   6   -0.41    0.67
   3  -2  -6    0.11    0.27
   3  -2  -6   -0.11    0.33
  -3   2   6   -0.28    0.51
  -3   2   6   -0.91    0.58
  -2   2   6    0.97    0.48
  -2   2   6    1.78    0.59
  -1   2   6    0.32    0.73
  -1   2   6    0.28    0.45
  -1   2   6   -0.22    0.43
   0  -2  -6    2.93    0.44
   0   2   6    0.80    0.76
   0   2   6    1.71    0.67
  -1  -2  -6    2.05    0.40
  -1  -2  -6    2.23    0.43
   1   2   6    0.89    0.78
   1   2   6    1.64    0.87
  -2  -2  -6    2.23    0.51
  -2  -2  -6    1.49    0.44
   2   2   6    0.65    0.61
  -3  -2  -6   -0.17    0.55
  -3  -2  -6    0.55    0.49
   3   2   6    0.02    1.17
   3   2   6   -1.17    1.75
   6  -3  -6    0.33    0.53
  -6   3   6    0.56    0.99
  -5   3   6    3.97    1.01
   4  -3  -6    0.07    0.31
   4  -3  -6    1.22    0.71
  -4   3   6   -0.28    0.74
   3  -3  -6   -0.18    0.30
   3  -3  -6   -0.24    0.38
  -3   3   6    2.30    1.01
  -3   3   6    0.37    0.52
  -3   3   6    1.70    0.69
   2  -3  -6   13.18    1.03
   2  -3  -6   12.01    0.98
   1  -3  -6   -0.21    0.39
  -1   3   6    1.19    0.47
  -1   3   6    0.70    0.81
   0  -3  -6    0.39    0.39
   0   3   6   -1.09    0.75
   0   3   6   -0.01    0.48
  -1  -3  -6    5.25    0.97
   1   3   6    2.95    0.99
   1   3   6    2.79    1.02
  -2  -3  -6   -0.57    0.43
  -2  -3  -6   -0.79    0.58
   2   3   6   -0.87    0.96
   2   3   6   -0.35    0.59
  -3  -3  -6   11.43    1.21
   5  -4  -6    0.03    0.57
  -5   4   6    0.14    0.95
   4  -4  -6    1.71    0.51
  -4   4   6    2.07    0.88
   3  -4  -6    2.14    0.77
   3  -4  -6    2.58    0.44
  -3   4   6    0.80    1.00
  -3   4   6    2.07    0.82
   2  -4  -6    1.04    0.48
  -2   4   6    1.35    0.85
  -2   4   6    0.48    0.68
   1  -4  -6    1.78    0.52
  -1   4   6    2.11    0.88
   0  -4  -6    2.54    0.46
   0   4   6    1.51    0.88
   0   4   6    2.94    0.64
  -1  -4  -6    0.71    0.50
  -1  -4  -6    0.82    0.44
   1   4   6    0.51    0.78
  -2  -4  -6    0.34    0.52
  -2  -4  -6    0.76    0.63
   2   4   6   -0.43    1.08
   4  -5  -6    0.38    0.44
  -4   5   6   -0.90    1.01
   3  -5  -6    2.87    0.81
   3  -5  -6    2.35    0.48
  -3   5   6    2.45    0.95
   2  -5  -6   -0.11    0.39
  -2   5   6   -0.98    0.59
  -2   5   6    0.02    0.92
  -1   5   6    0.84    0.94
   0   5   6    6.90    1.71
   0   5   6    4.39    0.78
   2   6  -7    3.85    0.74
  -2  -6   7    1.88    1.39
  -2  -6   7    4.08    1.02
  -1  -6   7    1.87    1.37
  -1  -6   7    1.87    0.99
   0   6  -7    1.58    0.75
   4   5  -7   27.98    1.96
   4   5  -7   29.20    2.02
   3   5  -7    0.20    0.54
  -3  -5   7   -0.17    0.80
  -3  -5   7   -1.51    1.37
   2   5  -7    0.84    0.44
  -2  -5   7   -0.56    0.81
  -2  -5   7    0.38    1.12
   0  -5   7    1.10    1.56
   0  -5   7   -0.32    0.80
  -1   5  -7   16.23    1.63
   1  -5   7   15.88    2.09
   5   4  -7   21.24    1.59
   5   4  -7   23.11    1.65
  -5  -4   7   21.61    1.97
   4   4  -7    4.27    0.65
  -4  -4   7    5.86    1.17
   3   4  -7    1.02    0.41
  -3  -4   7    0.96    1.17
  -3  -4   7    0.70    0.99
   2   4  -7    1.22    0.38
  -2  -4   7    0.73    1.05
   1   4  -7    0.39    0.36
   0   4  -7    7.80    0.77
   0  -4   7    6.31    1.09
   0  -4   7    7.27    1.39
   1  -4   7    1.58    1.31
   1  -4   7   -0.69    0.71
  -2   4  -7    0.08    1.02
  -2   4  -7   -0.23    0.56
   2  -4   7    0.44    0.82
   2  -4   7   -0.32    1.49
   5   3  -7    1.42    0.50
  -5  -3   7    1.68    0.99
   4   3  -7    4.38    0.62
  -4  -3   7    3.02    1.01
   3   3  -7    0.61    0.36
  -3  -3   7    1.38    0.96
  -3  -3   7    0.06    0.81
   2   3  -7    0.50    0.41
   2   3  -7    0.32    0.34
  -2  -3   7    0.31    0.90
  -2  -3   7   -0.22    0.72
   1   3  -7    0.91    0.35
   1   3  -7    0.98    0.71
  -1  -3   7    1.80    1.03
  -1  -3   7    0.89    0.73
   0   3  -7    4.22    0.64
   0   3  -7    3.89    0.62
   0  -3   7    2.92    0.81
   1  -3   7   41.31    2.77
   2  -3   7    2.24    1.43
   2  -3   7   -1.71    1.16
   6   2  -7    1.17    0.67
   6   2  -7   -0.32    0.49
   6   2  -7    0.17    0.46
   5   2  -7    3.92    0.53
   5   2  -7    3.57    0.51
  -5  -2   7    3.63    0.92
   4   2  -7    0.12    0.34
   4   2  -7    0.44    0.35
  -4  -2   7    1.44    0.88
   3   2  -7    1.21    0.40
   3   2  -7    1.31    0.36
   3   2  -7    1.43    0.38
  -3  -2   7    0.44    0.97
  -3  -2   7    0.77    0.75
   2   2  -7    0.26    0.39
   2   2  -7    0.06    0.33
  -2  -2   7   -0.55    0.91
  -2  -2   7    0.30    0.72
   1   2  -7    0.65    0.41
   1   2  -7    0.03    0.30
  -1  -2   7   -0.01    0.75
  -1  -2   7   -0.56    0.96
   0   2  -7   16.29    1.16
   0   2  -7   15.98    1.22
  -1   2  -7   12.17    1.05
   1  -2   7   10.62    1.59
  -2   2  -7   -0.39    0.44
  -2   2  -7   -0.70    0.55
   2  -2   7    0.76    0.81
   2  -2   7    0.62    1.30
   2  -2   7   -0.02    1.06
  -3   2  -7   -0.08    0.58
   3  -2   7    0.47    1.22
   3  -2   7   -0.87    1.64
   6   1  -7    1.11    0.47
   6   1  -7    0.18    0.44
   6   1  -7    0.39    0.52
  -6  -1   7    0.70    0.97
   5   1  -7    4.13    0.61
   5   1  -7    4.74    0.66
  -5  -1   7    4.54    1.06
   4   1  -7    1.54    0.40
   4   1  -7    1.37    0.38
   4   1  -7    1.34    0.39
  -4  -1   7    1.15    0.81
   3   1  -7    2.20    0.41
   3   1  -7    1.14    0.37
   3   1  -7    1.98    0.37
  -3  -1   7    0.78    0.84
  -3  -1   7    0.81    0.74
   2   1  -7    6.98    0.71
   2   1  -7    8.22    0.70
   1   1  -7    4.06    0.50
   1   1  -7    3.36    0.55
  -1  -1   7    2.09    0.82
  -1  -1   7    2.47    1.03
   0   1  -7    1.11    0.37
   0   1  -7    1.06    0.36
   0   1  -7    2.34    0.47
   0  -1   7    2.11    0.79
   0  -1   7    0.08    1.03
  -1   1  -7    0.86    0.57
  -1   1  -7    1.56    0.43
  -1   1  -7    1.19    0.59
  -2   1  -7    0.11    0.59
   2  -1   7    2.37    0.93
   2  -1   7   -0.20    1.23
  -3   1  -7    0.67    0.62
  -3   1  -7    1.17    0.64
   3  -1   7    2.99    1.29
   3  -1   7    1.33    1.63
   6   0  -7    2.10    0.49
   6   0  -7    1.44    0.49
  -6   0   7    1.72    1.01
   5   0  -7    4.94    0.77
   5   0  -7    7.26    0.75
  -5   0   7    7.69    1.31
   4   0  -7    0.57    0.40
   4   0  -7    0.63    0.41
  -4   0   7    1.72    0.78
  -4   0   7    0.82    0.81
   3   0  -7    0.36    0.36
   3   0  -7    0.10    0.42
  -3   0   7    2.02    0.80
  -3   0   7    1.07    0.74
   2   0  -7    4.02    0.62
   2   0  -7    3.83    0.55
   2   0  -7    2.89    0.44
  -2   0   7    1.96    0.77
   1   0  -7    1.03    0.35
   1   0  -7    1.40    0.40
   1   0  -7    1.03    0.36
  -1   0   7    1.63    0.77
  -1   0   7    1.58    1.02
   0   0  -7    2.15    0.40
   0   0  -7    1.51    0.38
   0   0   7    0.66    1.02
   0   0   7    2.59    0.82
   1   0   7    0.18    0.80
  -2   0  -7    2.91    0.54
  -2   0  -7    3.24    0.60
   2   0   7    2.13    1.47
  -3   0  -7    0.71    0.62
   3   0   7   -0.76    1.35
   3   0   7    2.78    1.62
   6  -1  -7   -0.05    0.44
  -6   1   7    0.87    1.03
   5  -1  -7    8.82    0.91
   5  -1  -7    8.34    0.88
   5  -1  -7    8.01    0.84
   4  -1  -7    0.51    0.44
  -4   1   7    1.31    1.14
  -4   1   7    0.97    0.85
   3  -1  -7    0.40    0.34
   3  -1  -7    0.21    0.37
   3  -1  -7   -0.16    0.39
  -3   1   7    0.17    0.78
  -3   1   7    0.13    0.71
   2  -1  -7   11.49    0.91
   2  -1  -7   12.07    0.92
   2  -1  -7   12.06    0.97
   1  -1  -7    1.26    0.35
   1  -1  -7    0.58    0.40
  -1   1   7   -0.61    0.96
  -1   1   7    0.61    0.74
   0  -1  -7    0.10    0.33
   0  -1  -7    0.06    0.39
   0   1   7    0.22    0.73
   0   1   7   -1.63    0.95
  -1  -1  -7    7.27    0.81
  -1  -1  -7    6.05    0.72
   1   1   7    5.09    1.97
   2   1   7   -1.14    0.95
   2   1   7   -0.78    1.48
   5  -2  -7   -0.55    0.49
  -5   2   7    0.78    0.96
   4  -2  -7    1.65    0.50
  -4   2   7   -0.72    0.86
   3  -2  -7    5.10    0.62
   3  -2  -7    5.18    0.77
  -3   2   7    3.05    0.92
   2  -2  -7    1.66    0.42
   2  -2  -7    0.83    0.46
  -2   2   7    1.95    0.81
   1  -2  -7    4.88    0.68
   1  -2  -7    2.78    0.51
  -1   2   7    0.67    0.73
  -1   2   7    2.45    1.06
   0   2   7    0.50    1.06
   0   2   7    1.98    0.79
   1   2   7   -0.29    1.19
  -2  -2  -7    0.23    0.52
   2   2   7   -0.04    0.96
   5  -3  -7   11.26    1.04
   5  -3  -7   11.34    1.15
  -5   3   7   10.96    1.69
   4  -3  -7   -0.64    0.50
  -4   3   7   -0.40    0.94
  -3   3   7   -0.08    0.87
   2  -3  -7    0.65    0.46
  -2   3   7    0.70    0.84
  -2   3   7   -0.18    1.07
  -1   3   7    0.20    1.07
   0  -3  -7    8.49    1.25
   0   3   7    6.19    1.32
   0   3   7    4.30    0.88
  -1  -3  -7   -0.38    0.57
   1   3   7    1.12    1.83
   3  -4  -7   -0.29    0.56
  -3   4   7    1.21    0.81
  -3   4   7   -0.71    0.97
   2  -4  -7    0.24    0.44
   2  -4  -7   -1.17    0.57
  -2   4   7    1.57    1.17
  -2   4   7    0.87    0.78
   1  -4  -7    2.72    0.62
  -1   4   7    1.24    0.79
   3   4  -8   -0.04    0.60
   3   4  -8    1.10    0.50
  -3  -4   8    1.16    0.99
   2   4  -8    0.64    0.47
   2   4  -8   -0.09    0.60
  -2  -4   8    1.28    0.96
  -2  -4   8   -0.49    1.67
   1   4  -8   -0.60    0.45
   0   4  -8   10.04    1.04
   4   3  -8    1.56    0.58
   4   3  -8    0.56    0.54
  -4  -3   8   -0.98    1.10
  -4  -3   8    0.10    1.65
  -3  -3   8    1.19    1.08
  -2  -3   8    3.79    1.01
  -1  -3   8   -1.20    1.61
   0  -3   8   -0.80    1.40
   1  -3   8    1.91    1.80
   5   2  -8    3.69    0.66
   5   2  -8    3.45    0.61
   4   2  -8    0.73    0.48
  -4  -2   8    0.39    1.12
   3   2  -8    0.16    0.42
  -3  -2   8    0.16    0.96
  -3  -2   8    1.17    1.10
   2   2  -8    2.32    0.47
  -2  -2   8    1.02    0.97
  -2  -2   8    1.19    1.23
   1   2  -8    1.16    0.43
   0   2  -8    0.22    0.76
   0   2  -8   -0.39    0.48
  -1   2  -8    1.04    0.69
  -1   2  -8    0.68    0.54
   1  -2   8   -0.72    1.76
   1  -2   8   -0.36    0.99
   5   1  -8    6.92    0.82
   5   1  -8    6.48    0.91
   5   1  -8    8.08    0.87
  -5  -1   8    5.74    1.31
   4   1  -8    0.17    0.42
   4   1  -8    0.37    0.49
  -4  -1   8    1.79    1.11
   3   1  -8    0.51    0.45
   3   1  -8   -0.46    0.39
  -3  -1   8   -0.96    0.95
  -3  -1   8    0.71    1.08
  -2  -1   8    1.63    1.19
  -2  -1   8    2.61    1.07
   1   1  -8    0.53    0.43
   1   1  -8    0.93    0.52
   1   1  -8    0.80    0.44
  -1  -1   8    0.24    1.28
   0   1  -8   -0.47    0.60
   0  -1   8   -0.77    1.35
  -1   1  -8    2.47    0.59
   1  -1   8    1.80    1.12
   5   0  -8    0.38    0.53
   5   0  -8    1.06    0.56
  -5   0   8   -1.07    1.09
   4   0  -8    1.44    0.54
  -4   0   8    1.73    1.04
   3   0  -8    8.11    0.88
   2   0  -8    1.75    0.51
   2   0  -8    1.27    0.50
  -2   0   8    0.03    0.94
  -2   0   8    0.33    1.20
   1   0  -8    4.44    0.78
   1   0  -8    4.03    0.58
  -1   0   8    1.66    1.28
   0   0  -8    9.08    1.16
   0   0  -8    9.44    0.95
  -1   0  -8    0.57    0.56
  -1   0  -8    0.97    0.55
   1   0   8    0.56    1.20
   1   0   8   -0.05    1.60
   4  -1  -8    0.29    0.46
  -4   1   8   -0.63    1.25
  -4   1   8    0.43    1.09
   3  -1  -8    1.07    0.55
  -3   1   8    0.26    1.05
  -3   1   8   -1.02    1.22
   2  -1  -8    0.64    0.52
  -2   1   8    1.36    1.28
   0   1   8    3.62    1.52
   3  -2  -8   -0.16    0.52
   3  -2  -8    0.13    0.57
  -3   2   8    0.00    1.06
  -3   2   8    3.00    1.14
   2  -2  -8   -0.13    0.50
   2  -2  -8   -0.06    0.73
  -2   2   8    0.82    1.05
  -2   2   8    0.27    1.37
  -1   2   8   -1.05    1.41
  -1   2   8   -0.88    1.11
   0   0   0    0.00    0.00
;
_shelx_hkl_checksum              75943
_shelx_res_file
;
    sadnh.res created by SHELXL-2014/7
TITL sad in P-1
CELL 0.71073   6.61340   7.01820   7.07810  97.3739 104.5211  92.0383
ZERR    2.00   0.00240   0.00250   0.00260   0.0099   0.0094   0.0097
LATT  1
SFAC C H N O
UNIT 12 18 6 2
TEMP -173.150
SIZE 0.016 0.06 0.354
HTAB
EQIV $1 x+1, y, z
HTAB N1 O9_$1
HTAB N10 O9_$1
EQIV $2 -x+1, -y+1, -z+1
HTAB N10 N3_$2
MERG 2
OMIT 0 50
FMAP 2
GRID
PLAN 20
BOND $H
DFIX 0.96 0.02 N1 H13
L.S. 20
ACTA
WGHT    0.155900    0.031900
FVAR       0.33224
N3    3    0.358527    0.378964    0.261432    11.00000    0.01307    0.01518 =
         0.01630    0.00423    0.00567    0.00094
N1    3    0.573490    0.275855    0.053625    11.00000    0.00953    0.01668 =
         0.01410    0.00276    0.00486    0.00168
H13   2    0.718975    0.272933    0.054657    11.00000   -1.50000
O9    4    0.008436    0.324441    0.145843    11.00000    0.01119    0.02050 =
         0.02589    0.00365    0.00820    0.00057
C5    1    0.207819    0.226312   -0.079621    11.00000    0.01577    0.01096 =
         0.01605    0.00358    0.00405   -0.00027
N10   3    0.719048    0.419407    0.372998    11.00000    0.01565    0.02386 =
         0.01055    0.00038    0.00329    0.00167
H11   2    0.854398    0.416261    0.352970    11.00000   -1.50000
H12   2    0.705451    0.484627    0.481573    11.00000   -1.50000
C6    1    0.405001    0.209040   -0.100175    11.00000    0.01630    0.00973 =
         0.01498    0.00363    0.00502    0.00023
C4    1    0.186415    0.312213    0.112982    11.00000    0.01474    0.01054 =
         0.01924    0.00724    0.00546    0.00149
C8    1    0.014194    0.167634   -0.241452    11.00000    0.01762    0.01942 =
         0.02386    0.00072    0.00214   -0.00019
AFIX 137
H14   2   -0.087400    0.265469   -0.237883    11.00000   -1.50000
H15   2   -0.046458    0.043722   -0.223924    11.00000   -1.50000
H16   2    0.049295    0.155180   -0.368817    11.00000   -1.50000
AFIX   0
C2    1    0.547121    0.359763    0.230542    11.00000    0.01368    0.00935 =
         0.01456    0.00593    0.00141    0.00232
C7    1    0.457927    0.121054   -0.286690    11.00000    0.01580    0.01691 =
         0.01590    0.00153    0.00588    0.00135
AFIX 137
H17   2    0.337263    0.039561   -0.370835    11.00000   -1.50000
H18   2    0.578147    0.042803   -0.252866    11.00000   -1.50000
H19   2    0.492687    0.223752   -0.357299    11.00000   -1.50000
AFIX   0
HKLF 4
REM  sad in P-1
REM R1 =  0.0738 for     794 Fo > 4sig(Fo)  and  0.1033 for all    1096 data
REM    102 parameters refined using      1 restraints
END
WGHT      0.1558      0.0319
REM Instructions for potential hydrogen bonds
HTAB N1 O9_$1
HTAB N10 O9_$1
HTAB N10 N3_$2
REM Highest difference peak  0.495,  deepest hole -0.309,  1-sigma level  0.117
Q1    1   0.4159  0.0301 -0.0789  11.00000  0.05    0.50
Q2    1   0.4581 -0.0530 -0.2728  11.00000  0.05    0.46
Q3    1   0.5726  0.1346  0.0850  11.00000  0.05    0.46
Q4    1   0.4630  0.3388 -0.2478  11.00000  0.05    0.44
Q5    1   0.7075  0.2200  0.3793  11.00000  0.05    0.44
Q6    1   0.0055  0.5116  0.1370  11.00000  0.05    0.43
Q7    1  -0.0050 -0.1197 -0.1471  11.00000  0.05    0.43
Q8    1   0.5443  0.1549  0.2466  11.00000  0.05    0.43
Q9    1   0.2780  0.3184 -0.3577  11.00000  0.05    0.42
Q10   1  -0.0017  0.3880 -0.1283  11.00000  0.05    0.41
Q11   1  -0.0008  0.2695  0.2390  11.00000  0.05    0.40
Q12   1   0.6515  0.3381 -0.2427  11.00000  0.05    0.40
Q13   1   0.6426  0.2013 -0.2465  11.00000  0.05    0.40
Q14   1   0.5763  0.4630  0.0586  11.00000  0.05    0.40
Q15   1   0.4216  0.4340 -0.1045  11.00000  0.05    0.38
Q16   1  -0.0238  0.1459 -0.1597  11.00000  0.05    0.38
Q17   1  -0.0239  0.0286 -0.1474  11.00000  0.05    0.36
Q18   1   0.0009  0.3817 -0.2528  11.00000  0.05    0.34
Q19   1   0.3604  0.1919  0.2738  11.00000  0.05    0.33
Q20   1   0.2870  0.0996 -0.3724  11.00000  0.05    0.33
;
_shelx_res_checksum              32668
loop_
_space_group_symop_operation_xyz
'x, y, z'
'-x, -y, -z'
loop_
_atom_site_type_symbol
_atom_site_label
_atom_site_fract_x
_atom_site_fract_y
_atom_site_fract_z
_atom_site_U_iso_or_equiv
_atom_site_adp_type
_atom_site_calc_flag
_atom_site_occupancy
N N3 0.3585(4) 0.3790(4) 0.2614(4) 0.0143(7) Uani d 1
N N1 0.5735(4) 0.2759(4) 0.0536(4) 0.0130(7) Uani d 1
H H13 0.719(3) 0.273(5) 0.055(5) 0.020 Uiso d 1
O O9 0.0084(3) 0.3244(3) 0.1458(3) 0.0186(7) Uani d 1
C C5 0.2078(5) 0.2263(4) -0.0796(5) 0.0141(8) Uani d 1
N N10 0.7190(5) 0.4194(4) 0.3730(4) 0.0169(8) Uani d 1
H H11 0.854(7) 0.416(5) 0.353(6) 0.025 Uiso d 1
H H12 0.705(6) 0.485(5) 0.482(6) 0.025 Uiso d 1
C C6 0.4050(5) 0.2090(4) -0.1002(5) 0.0133(8) Uani d 1
C C4 0.1864(5) 0.3122(4) 0.1130(5) 0.0142(8) Uani d 1
C C8 0.0142(5) 0.1676(5) -0.2415(5) 0.0211(9) Uani d 1
H H14 -0.0874 0.2655 -0.2379 0.032 Uiso calc 1
H H15 -0.0465 0.0437 -0.2239 0.032 Uiso calc 1
H H16 0.0493 0.1552 -0.3688 0.032 Uiso calc 1
C C2 0.5471(5) 0.3598(4) 0.2305(5) 0.0125(8) Uani d 1
C C7 0.4579(5) 0.1211(4) -0.2867(5) 0.0159(8) Uani d 1
H H17 0.3373 0.0396 -0.3708 0.024 Uiso calc 1
H H18 0.5781 0.0428 -0.2529 0.024 Uiso calc 1
H H19 0.4927 0.2238 -0.3573 0.024 Uiso calc 1
loop_
_atom_site_aniso_label
_atom_site_aniso_U_11
_atom_site_aniso_U_22
_atom_site_aniso_U_33
_atom_site_aniso_U_12
_atom_site_aniso_U_13
_atom_site_aniso_U_23
N3 0.0131(16) 0.0152(14) 0.0163(15) 0.0009(11) 0.0057(13) 0.0042(12)
N1 0.0095(15) 0.0167(14) 0.0141(15) 0.0017(11) 0.0049(12) 0.0028(11)
O9 0.0112(13) 0.0205(13) 0.0259(15) 0.0006(9) 0.0082(11) 0.0037(11)
C5 0.0158(19) 0.0110(15) 0.0161(18) -0.0003(13) 0.0041(15) 0.0036(13)
N10 0.0156(17) 0.0239(16) 0.0105(15) 0.0017(12) 0.0033(13) 0.0004(12)
C6 0.0163(19) 0.0097(15) 0.0150(17) 0.0002(13) 0.0050(14) 0.0036(13)
C4 0.0147(19) 0.0105(15) 0.0192(19) 0.0015(12) 0.0055(15) 0.0072(13)
C8 0.018(2) 0.0194(17) 0.024(2) -0.0002(14) 0.0021(16) 0.0007(15)
C2 0.0137(18) 0.0093(15) 0.0146(18) 0.0023(13) 0.0014(15) 0.0059(13)
C7 0.0158(19) 0.0169(16) 0.0159(18) 0.0013(13) 0.0059(14) 0.0015(14)
loop_
_atom_type_symbol
_atom_type_description
_atom_type_scat_dispersion_real
_atom_type_scat_dispersion_imag
_atom_type_scat_source
C C 0.0033 0.0016 'International Tables Vol C Tables 4.2.6.8 and 6.1.1.4'
H H 0.0000 0.0000 'International Tables Vol C Tables 4.2.6.8 and 6.1.1.4'
N N 0.0061 0.0033 'International Tables Vol C Tables 4.2.6.8 and 6.1.1.4'
O O 0.0106 0.0060 'International Tables Vol C Tables 4.2.6.8 and 6.1.1.4'
loop_
_geom_angle_atom_site_label_1
_geom_angle_atom_site_label_2
_geom_angle_atom_site_label_3
_geom_angle
C2 N3 C4 119.0(3)
C6 N1 C2 121.0(3)
C6 N1 H13 127(2)
C2 N1 H13 112(2)
C6 C5 C4 117.1(3)
C6 C5 C8 124.2(3)
C4 C5 C8 118.7(3)
C2 N10 H11 123(2)
C2 N10 H12 118(3)
H11 N10 H12 118(4)
C5 C6 N1 120.2(3)
C5 C6 C7 124.7(3)
N1 C6 C7 115.2(3)
O9 C4 N3 118.6(3)
O9 C4 C5 120.7(3)
N3 C4 C5 120.7(3)
C5 C8 H14 109.5
C5 C8 H15 109.5
H14 C8 H15 109.5
C5 C8 H16 109.5
H14 C8 H16 109.5
H15 C8 H16 109.5
N3 C2 N10 120.8(3)
N3 C2 N1 121.9(3)
N10 C2 N1 117.3(3)
C6 C7 H17 109.5
C6 C7 H18 109.5
H17 C7 H18 109.5
C6 C7 H19 109.5
H17 C7 H19 109.5
H18 C7 H19 109.5
loop_
_geom_bond_atom_site_label_1
_geom_bond_atom_site_label_2
_geom_bond_distance
N3 C2 1.328(4)
N3 C4 1.362(4)
N1 C6 1.368(4)
N1 C2 1.369(4)
N1 H13 0.961(18)
O9 C4 1.259(4)
C5 C6 1.356(5)
C5 C4 1.461(5)
C5 C8 1.492(4)
N10 C2 1.330(4)
N10 H11 0.94(5)
N10 H12 0.87(4)
C6 C7 1.511(4)
C8 H14 0.9800
C8 H15 0.9800
C8 H16 0.9800
C7 H17 0.9800
C7 H18 0.9800
C7 H19 0.9800
loop_
_geom_hbond_atom_site_label_D
_geom_hbond_atom_site_label_H
_geom_hbond_atom_site_label_A
_geom_hbond_site_symmetry_A
_geom_hbond_distance_DH
_geom_hbond_distance_HA
_geom_hbond_distance_DA
_geom_hbond_angle_DHA
N1 H13 O9 1_655 0.961(18) 1.87(2) 2.784(4) 159(3)
N10 H11 O9 1_655 0.94(5) 2.04(4) 2.837(4) 142(3)
N10 H12 N3 2_666 0.87(4) 2.09(4) 2.956(4) 173(3)

_cod_database_fobs_code 2020507
