#------------------------------------------------------------------------------
#$Date: 2017-03-22 08:54:23 +0200 (Wed, 22 Mar 2017) $
#$Revision: 194406 $
#$URL: file:///home/coder/svn-repositories/cod/cif/2/02/07/2020747.cif $
#------------------------------------------------------------------------------
#
# This file is available in the Crystallography Open Database (COD),
# http://www.crystallography.net/. The original data for this entry
# were provided by IUCr Journals, http://journals.iucr.org/.
#
# The file may be used within the scientific community so long as
# proper attribution is given to the journal article from which the
# data were obtained.
#
data_2020747
loop_
_publ_author_name
'Pavlyuk, Volodymyr'
'Dmytriv, Grygoriy'
'Tarasiuk, Ivan'
'Ehrenberg, Helmut'
_publ_section_title
;
 Li~9~Al~4~Sn~5~ as a new ordered superstructure of the Li~13~Sn~5~ type
;
_journal_issue                   4
_journal_name_full               'Acta Crystallographica Section C'
_journal_page_first
;
;
_journal_paper_doi               10.1107/S205322961700420X
_journal_volume                  73
_journal_year                    2017
_chemical_formula_iupac          'Li9 Al4 Sn5'
_chemical_formula_moiety         'Al4 Li2 Sn5, 7(Li)'
_chemical_formula_sum            'Al4 Li9 Sn5'
_chemical_formula_weight         763.93
_chemical_name_systematic
;
Nonalithium tetraaluminium pentastannide
;
_space_group_crystal_system      trigonal
_space_group_IT_number           164
_space_group_name_Hall           '-P 3 2"'
_space_group_name_H-M_alt        'P -3 m 1'
_symmetry_space_group_name_Hall  '-P 3 2"'
_symmetry_space_group_name_H-M   'P -3 m 1'
_audit_creation_method           SHELXL-2014/7
_cell_angle_alpha                90
_cell_angle_beta                 90
_cell_angle_gamma                120
_cell_formula_units_Z            1
_cell_length_a                   4.7170(7)
_cell_length_b                   4.7170(7)
_cell_length_c                   17.077(3)
_cell_measurement_reflns_used    352
_cell_measurement_temperature    293(2)
_cell_measurement_theta_max      27.438
_cell_measurement_theta_min      2.385
_cell_volume                     329.06(9)
_computing_cell_refinement
;
CrysAlis CCD (Oxford Diffraction, 2008)
;
_computing_data_collection
;
CrysAlis CCD (Oxford Diffraction, 2008)
;
_computing_data_reduction
;
CrysAlis RED (Oxford Diffraction, 2008)
;
_computing_molecular_graphics
;
DIAMOND (Brandenburg, 2006)
;
_computing_publication_material
;
SHELXL2014 (Sheldrick, 2015)
;
_computing_structure_refinement
;
SHELXL2014 (Sheldrick, 2015)
;
_computing_structure_solution
;
SHELXS2014 (Sheldrick, 2008)
;
_diffrn_ambient_temperature      293(2)
_diffrn_measured_fraction_theta_full 0.996
_diffrn_measured_fraction_theta_max 0.997
_diffrn_measurement_device_type  'Oxford Diffraction Xcalibur3 CCD'
_diffrn_measurement_method       '\w scans'
_diffrn_radiation_type           MoK\a
_diffrn_radiation_wavelength     0.71073
_diffrn_reflns_av_R_equivalents  0.0737
_diffrn_reflns_limit_h_max       6
_diffrn_reflns_limit_h_min       -6
_diffrn_reflns_limit_k_max       6
_diffrn_reflns_limit_k_min       -6
_diffrn_reflns_limit_l_max       22
_diffrn_reflns_limit_l_min       -22
_diffrn_reflns_number            3006
_diffrn_reflns_theta_full        25.242
_diffrn_reflns_theta_max         27.438
_diffrn_reflns_theta_min         2.385
_exptl_absorpt_coefficient_mu    9.569
_exptl_absorpt_correction_T_max  0.901
_exptl_absorpt_correction_T_min  0.520
_exptl_absorpt_correction_type   analytical
_exptl_absorpt_process_details
;
(CrysAlis RED; Oxford Diffraction, 2008)
;
_exptl_crystal_colour            'metallic grey'
_exptl_crystal_density_diffrn    3.855
_exptl_crystal_density_meas      3.86(2)
_exptl_crystal_density_method    volumetric
_exptl_crystal_description       plate
_exptl_crystal_F_000             329
_exptl_crystal_size_max          0.07
_exptl_crystal_size_mid          0.06
_exptl_crystal_size_min          0.01
_refine_diff_density_max         1.268
_refine_diff_density_min         -1.241
_refine_ls_extinction_method     none
_refine_ls_goodness_of_fit_ref   1.103
_refine_ls_matrix_type           full
_refine_ls_number_parameters     24
_refine_ls_number_reflns         352
_refine_ls_number_restraints     0
_refine_ls_restrained_S_all      1.103
_refine_ls_R_factor_all          0.0243
_refine_ls_R_factor_gt           0.0205
_refine_ls_shift/su_max          0.002
_refine_ls_shift/su_mean         0.000
_refine_ls_structure_factor_coef Fsqd
_refine_ls_weighting_details
'w=1/[\s^2^(Fo^2^)+(0.0010P)^2^+0.0017P] where P=(Fo^2^+2Fc^2^)/3'
_refine_ls_weighting_scheme      calc
_refine_ls_wR_factor_gt          0.0644
_refine_ls_wR_factor_ref         0.0663
_reflns_number_gt                324
_reflns_number_total             352
_reflns_threshold_expression     'I > 2\s(I)'
_cod_data_source_file            yo3033sup1.cif
_cod_data_source_block           I
_cod_original_cell_volume        329.06(12)
_cod_database_code               2020747
_shelx_space_group_comment
;
The symmetry employed for this shelxl refinement is uniquely defined
by the following loop, which should always be used as a source of
symmetry information in preference to the above space-group names.
They are only intended as comments.
;
_shelx_hkl_file
;
   1   0   0   91.14    5.66
   2   0   0   33.03    4.30
   3   0   0 1388.49   98.46
   4   0   0    9.60    2.54
   5   0   0   14.61    2.17
  -5   1   0  465.11   36.70
  -4   1   0   14.07    2.88
  -3   1   0   20.80    3.38
  -2   1   0 2601.06  196.90
  -1   1   0   56.71    6.07
   0   1   0   85.58    5.24
   1   1   0 2594.09  196.38
   2   1   0   25.30    3.72
   3   1   0   11.08    2.65
   4   1   0  461.32   36.42
  -6   2   0    4.67    2.17
  -5   2   0    6.11    2.28
  -4   2   0  968.02   74.42
  -3   2   0   28.29    3.94
  -2   2   0   26.45    3.80
  -1   2   0 2588.37  195.95
   0   2   0   39.86    4.81
   1   2   0   18.06    3.17
   2   2   0  957.54   73.64
   3   2   0    8.80    2.48
   4   2   0    2.71    2.02
  -6   3   0  306.20   24.78
  -5   3   0   10.13    2.58
  -4   3   0    9.31    2.52
  -3   3   0 1280.07   97.83
  -2   3   0   30.33    4.09
  -1   3   0   16.40    3.05
   0   3   0 1369.63   97.04
   1   3   0   16.05    3.02
   2   3   0    5.06    2.20
   3   3   0  298.74   24.23
  -6   4   0    2.44    2.00
  -5   4   0  460.19   36.33
  -4   4   0   13.72    2.85
  -3   4   0    8.43    2.45
  -2   4   0  949.31   73.02
  -1   4   0   17.31    3.12
   0   4   0    6.13    2.28
   1   4   0  450.11   35.58
   2   4   0    5.04    2.20
  -5   5   0    2.92    2.04
  -4   5   0  453.51   35.83
  -3   5   0   11.07    2.65
  -2   5   0    4.61    2.17
  -1   5   0  447.22   35.36
   0   5   0   16.72    2.32
  -4   6   0    2.26    1.99
  -3   6   0  293.09   23.80
  -2   6   0    5.73    2.25
   2  -6   1    2.99    2.04
   3  -6   1    4.60    2.16
   4  -6   1  206.61   17.32
   0  -5   1    3.57    2.09
   1  -5   1    5.51    2.23
   2  -5   1  358.63   28.72
   3  -5   1    6.20    2.28
   4  -5   1    6.22    2.29
   5  -5   1  243.34   20.07
  -2  -4   1    2.74    2.03
  -1  -4   1    3.61    2.09
   0  -4   1  431.09   34.15
   1  -4   1   10.07    2.57
   2  -4   1   10.72    2.62
   3  -4   1  555.50   43.48
   4  -4   1    7.93    2.41
   5  -4   1    4.54    2.16
   6  -4   1  196.42   16.55
  -3  -3   1    1.08    1.90
  -2  -3   1  332.26   26.74
  -1  -3   1    9.57    2.54
   0  -3   1   10.11    2.58
   1  -3   1  926.75   71.33
   2  -3   1   19.21    3.26
   3  -3   1   11.02    2.65
   4  -3   1  538.16   42.18
   5  -3   1    5.87    2.26
   6  -3   1    1.56    1.94
  -4  -2   1  177.93   15.16
  -3  -2   1    5.28    2.22
  -2  -2   1    4.12    2.13
  -1  -2   1  889.55   68.54
   0  -2   1   27.19    3.86
   1  -2   1   17.28    3.12
   2  -2   1 1258.59   96.21
   3  -2   1   18.45    3.20
   4  -2   1    4.79    2.18
   5  -2   1  326.45   26.30
   6  -2   1    2.77    2.03
  -4  -1   1   -0.10    2.86
  -3  -1   1  491.51   38.68
  -2  -1   1   17.34    3.12
  -1  -1   1   10.52    2.61
   0  -1   1 1909.90  145.06
   1  -1   1   39.45    4.78
   2  -1   1   10.92    2.64
   3  -1   1  860.08   66.33
   4  -1   1    8.86    2.48
   5  -1   1   -0.62    3.87
  -5   0   1  199.41   16.78
  -4   0   1    6.22    2.29
  -3   0   1    1.96    1.97
  -2   0   1 1154.17   88.38
  -1   0   1   37.19    4.61
   1   0   1 1828.09  138.93
   2   0   1   24.72    3.67
   3   0   1    1.96    1.97
   4   0   1  371.92   29.71
   5   0   1    2.99    2.04
  -5   1   1    0.15    1.83
  -4   1   1  453.22   35.81
  -3   1   1   15.50    2.98
  -2   1   1    4.19    2.13
  -1   1   1 1745.17  132.71
   0   1   1   35.00    4.45
   1   1   1    4.04    2.12
   2   1   1  782.41   60.50
   3   1   1    7.79    2.40
   4   1   1    0.17    1.83
  -6   2   1  153.13   13.30
  -5   2   1    4.11    2.13
  -4   2   1    1.24    1.91
  -3   2   1  750.66   58.12
  -2   2   1   21.97    3.47
  -1   2   1    4.41    2.15
   0   2   1 1047.61   80.39
   1   2   1   14.71    2.92
   2   2   1    1.33    1.92
   3   2   1  269.33   22.02
   4   2   1    2.13    1.98
  -6   3   1    1.06    1.90
  -5   3   1  261.28   21.42
  -4   3   1    6.59    2.31
  -3   3   1    3.55    2.09
  -2   3   1  711.42   55.18
  -1   3   1   13.75    2.85
   0   3   1    3.76    2.10
   1   3   1  405.84   32.26
   2   3   1    4.01    2.12
   3   3   1    1.44    1.93
  -6   4   1    1.65    1.94
  -5   4   1    2.71    2.02
  -4   4   1  308.29   24.94
  -3   4   1    6.17    2.28
  -2   4   1    5.33    2.22
  -1   4   1  386.28   30.79
   0   4   1    4.88    2.19
   1   4   1    3.29    2.07
   2   4   1  134.89   11.94
  -5   5   1    1.88    1.96
  -4   5   1    4.70    2.17
  -3   5   1  232.70   19.27
  -2   5   1    3.38    2.07
  -1   5   1    5.16    2.21
   0   5   1  153.91   13.36
  -4   6   1    1.43    1.93
  -3   6   1    5.35    2.22
  -2   6   1  122.14   10.98
   3  -6   2    2.61    2.02
   0  -5   2   86.09    8.28
   1  -5   2    3.15    2.06
   2  -5   2    4.11    2.13
   3  -5   2  127.18   11.36
   4  -5   2    3.51    2.08
   5  -5   2    3.07    2.05
  -1  -4   2    2.17    1.98
   0  -4   2    4.14    2.13
   1  -4   2  177.26   15.11
   2  -4   2    6.56    2.31
   3  -4   2    4.77    2.18
   4  -4   2  143.90   12.61
   5  -4   2    2.60    2.02
  -3  -3   2    0.75    1.88
  -2  -3   2    3.70    2.10
  -1  -3   2  160.02   13.82
   0  -3   2    7.07    2.35
   1  -3   2    6.63    2.32
   2  -3   2  276.71   22.57
   3  -3   2    7.36    2.37
   4  -3   2    4.24    2.14
   5  -3   2  106.92    9.84
   6  -3   2   -0.98    1.89
  -3  -2   2   94.36    8.90
  -2  -2   2    3.16    2.06
  -1  -2   2    7.19    2.36
   0  -2   2  344.62   27.67
   1  -2   2   14.42    2.90
   2  -2   2    8.78    2.48
   3  -2   2  250.55   20.61
   4  -2   2    3.33    2.07
   5  -2   2    3.69    2.10
  -4  -1   2   -0.51    1.86
  -3  -1   2    6.26    2.29
  -2  -1   2  222.87   18.54
  -1  -1   2   10.67    2.62
   0  -1   2   14.74    2.93
   1  -1   2  465.31   36.72
   2  -1   2   10.66    2.62
   3  -1   2    8.43    2.45
   4  -1   2  132.56   11.76
   5  -1   2    0.54    1.86
  -5   0   2    5.06    2.20
  -4   0   2   94.95    8.94
  -3   0   2    2.22    1.99
  -2   0   2   15.00    2.94
  -1   0   2  413.66   32.84
   0   0   2   35.43    2.98
   1   0   2   20.39    3.35
   2   0   2  277.02   22.60
   3   0   2    2.22    1.99
   4   0   2    6.89    2.34
   5   0   2   54.70    5.92
  -5   1   2    0.06    1.82
  -4   1   2   10.08    2.58
  -3   1   2  179.16   15.26
  -2   1   2    5.46    2.23
  -1   1   2   28.46    3.95
   0   1   2  366.06   29.27
   1   1   2    5.58    2.24
   2   1   2   15.82    3.01
   3   1   2  105.31    9.72
   4   1   2    0.09    1.83
  -5   2   2   63.28    6.57
  -4   2   2    0.36    1.85
  -3   2   2   19.82    3.31
  -2   2   2  218.96   18.24
  -1   2   2    4.06    2.12
   0   2   2   27.53    3.88
   1   2   2  157.39   13.62
   2   2   2    0.53    1.86
   3   2   2   10.20    2.58
  -6   3   2    0.16    1.83
  -5   3   2   11.28    2.67
  -4   3   2   84.83    8.18
  -3   3   2    0.70    1.87
  -2   3   2   25.84    3.76
  -1   3   2  139.69   12.30
   0   3   2    0.94    1.89
   1   3   2   17.36    3.12
   2   3   2   54.85    5.93
   3   3   2    0.24    1.84
  -5   4   2    0.45    1.85
  -4   4   2   16.29    3.04
  -3   4   2   74.67    7.42
  -2   4   2    0.82    1.88
  -1   4   2   20.79    3.38
   0   4   2   59.22    6.26
   1   4   2    0.61    1.87
  -5   5   2   32.33    4.24
  -4   5   2    0.92    1.89
  -3   5   2   16.79    3.08
  -2   5   2   43.80    5.11
  -1   5   2    1.02    1.90
   0   5   2   13.21    2.81
  -3   6   2    1.26    1.91
   3  -6   3   12.32    2.74
   0  -5   3   14.69    2.92
   1  -5   3   12.45    2.75
   2  -5   3    2.45    2.00
   3  -5   3   18.20    3.18
   4  -5   3   12.99    2.79
   5  -5   3    2.25    1.99
  -1  -4   3    9.75    2.55
   0  -4   3    2.47    2.00
   1  -4   3   25.80    3.76
   2  -4   3   15.86    3.01
   3  -4   3    3.31    2.07
   4  -4   3   20.80    3.38
   5  -4   3   10.48    2.61
  -3  -3   3    6.26    2.29
  -2  -3   3    2.38    2.00
  -1  -3   3   26.39    3.80
   0  -3   3   14.43    2.90
   1  -3   3    4.45    2.15
   2  -3   3   38.32    4.69
   3  -3   3   14.90    2.94
   4  -3   3    3.57    2.09
   5  -3   3   17.87    3.16
   6  -3   3    6.77    2.33
  -3  -2   3   19.41    3.28
  -2  -2   3    8.53    2.46
  -1  -2   3    5.18    2.21
   0  -2   3   51.26    5.66
   1  -2   3   17.78    3.15
   2  -2   3    6.80    2.33
   3  -2   3   38.06    4.67
   4  -2   3    8.94    2.49
   5  -2   3    3.38    2.07
  -4  -1   3    4.38    2.15
  -3  -1   3    4.95    2.19
  -2  -1   3   39.48    4.78
  -1  -1   3   11.74    2.70
   0  -1   3   10.97    2.64
   1  -1   3   72.19    7.23
   2  -1   3   11.91    2.71
   3  -1   3    7.33    2.37
   4  -1   3   25.49    3.73
   5  -1   3    4.54    2.16
  -5   0   3    4.40    2.15
  -4   0   3   21.99    3.47
  -3   0   3    4.75    2.18
  -2   0   3   12.62    2.77
  -1   0   3   72.87    7.29
   0   0   3   21.30    2.37
   1   0   3   16.02    3.02
   2   0   3   51.30    5.67
   3   0   3    4.75    2.18
   4   0   3    5.90    2.26
   5   0   3   14.53    2.91
  -5   1   3    2.31    1.99
  -4   1   3    9.15    2.51
  -3   1   3   38.82    4.73
  -2   1   3    4.18    2.13
  -1   1   3   23.02    3.55
   0   1   3   73.51    7.33
   1   1   3    4.06    2.12
   2   1   3   13.31    2.82
   3   1   3   26.38    3.80
   4   1   3    2.18    1.98
  -5   2   3   18.20    3.19
  -4   2   3    1.75    1.95
  -3   2   3   18.42    3.20
  -2   2   3   51.25    5.66
  -1   2   3    2.22    1.99
   0   2   3   23.66    3.59
   1   2   3   40.09    4.83
   2   2   3    1.49    1.93
   3   2   3    8.52    2.46
  -6   3   3    1.30    1.92
  -5   3   3   11.54    2.69
  -4   3   3   25.02    3.70
  -3   3   3    1.35    1.92
  -2   3   3   23.93    3.61
  -1   3   3   39.70    4.80
   0   3   3    1.10    1.90
   1   3   3   14.85    2.93
   2   3   3   19.45    3.28
   3   3   3    1.02    1.90
  -5   4   3    1.09    1.90
  -4   4   3   16.66    3.07
  -3   4   3   25.35    3.72
  -2   4   3    1.12    1.90
  -1   4   3   19.12    3.25
   0   4   3   22.32    3.49
   1   4   3    0.73    1.87
  -5   5   3   13.44    2.83
  -4   5   3    1.09    1.90
  -3   5   3   17.29    3.12
  -2   5   3   18.61    3.22
  -1   5   3    0.84    1.88
   0   5   3   12.66    2.77
  -3   6   3    0.98    1.89
   3  -6   4   11.61    2.69
   0  -5   4   30.93    4.14
   1  -5   4   13.58    2.84
   2  -5   4    1.52    1.93
   3  -5   4   43.87    5.11
   4  -5   4   12.75    2.78
   5  -5   4    1.06    1.90
  -1  -4   4   11.71    2.70
   0  -4   4    1.26    1.91
   1  -4   4   72.06    7.22
   2  -4   4   18.21    3.19
   3  -4   4    1.32    1.92
   4  -4   4   59.82    6.31
   5  -4   4   10.44    2.60
  -3  -3   4    7.72    2.40
  -2  -3   4    0.65    1.87
  -1  -3   4   80.52    7.86
   0  -3   4   18.51    3.21
   1  -3   4    2.15    1.98
   2  -3   4  134.57   11.91
   3  -3   4   17.49    3.13
   4  -3   4    0.74    1.88
   5  -3   4   55.70    6.00
   6  -3   4    6.73    2.32
  -3  -2   4   60.34    6.35
  -2  -2   4   11.90    2.71
  -1  -2   4    2.02    1.97
   0  -2   4  204.98   17.19
   1  -2   4   23.84    3.61
   2  -2   4    3.46    2.08
   3  -2   4  152.01   13.22
   4  -2   4   10.92    2.64
   5  -2   4    0.20    1.83
  -4  -1   4    6.09    2.28
  -3  -1   4    0.61    1.87
  -2  -1   4  168.64   14.47
  -1  -1   4   17.70    3.15
   0  -1   4    8.24    2.44
   1  -1   4  336.63   27.07
   2  -1   4   17.22    3.11
   3  -1   4    1.93    1.96
   4  -1   4  102.63    9.52
   5  -1   4    5.71    2.25
  -5   0   4    0.05    1.82
  -4   0   4   91.70    8.70
  -3   0   4    7.71    2.40
  -2   0   4    4.90    2.19
  -1   0   4  377.53   30.14
   0   0   4   37.11    3.10
   1   0   4    9.69    2.55
   2   0   4  258.57   21.21
   3   0   4    7.71    2.40
   4   0   4    0.40    1.85
   5   0   4   53.45    5.83
  -5   1   4    3.56    2.09
  -4   1   4    1.17    1.91
  -3   1   4  211.44   17.68
  -2   1   4    9.08    2.50
  -1   1   4   11.98    2.72
   0   1   4  421.73   33.45
   1   1   4    9.39    2.52
   2   1   4    3.54    2.09
   3   1   4  125.50   11.23
   4   1   4    3.83    2.11
  -5   2   4   93.21    8.81
  -4   2   4    3.95    2.12
  -3   2   4    4.93    2.19
  -2   2   4  321.23   25.91
  -1   2   4    7.79    2.40
   0   2   4    8.44    2.45
   1   2   4  232.20   19.24
   2   2   4    4.36    2.15
   3   2   4    0.76    1.88
  -6   3   4    2.29    1.99
  -5   3   4    1.45    1.93
  -4   3   4  155.73   13.50
  -3   3   4    4.88    2.19
  -2   3   4    6.79    2.33
  -1   3   4  257.66   21.14
   0   3   4    5.06    2.20
   1   3   4    2.74    2.03
   2   3   4   99.71    9.30
   3   3   4    2.64    2.02
  -5   4   4    2.99    2.04
  -4   4   4    3.02    2.05
  -3   4   4  170.25   14.59
  -2   4   4    4.96    2.19
  -1   4   4    3.98    2.12
   0   4   4  134.11   11.88
   1   4   4    3.14    2.06
  -5   5   4   86.20    8.28
  -4   5   4    3.74    2.10
  -3   5   4    3.01    2.05
  -2   5   4  120.87   10.89
  -1   5   4    3.69    2.10
   0   5   4    1.51    1.93
  -3   6   4    3.44    2.08
   0  -5   5    1.58    1.94
   1  -5   5  177.84   15.16
   2  -5   5    4.64    2.17
   3  -5   5    2.26    1.99
   4  -5   5  180.69   15.37
   5  -5   5    3.10    2.05
  -1  -4   5  186.96   15.84
   0  -4   5    3.42    2.08
   1  -4   5    4.43    2.15
   2  -4   5  364.31   29.14
   3  -4   5    3.86    2.11
   4  -4   5    3.07    2.05
   5  -4   5  191.75   16.20
  -2  -3   5    1.52    1.93
  -1  -3   5    4.79    2.18
   0  -3   5  494.36   38.90
   1  -3   5    3.69    2.10
   2  -3   5    9.30    2.52
   3  -3   5  499.17   39.26
   4  -3   5    1.97    1.97
   5  -3   5    2.56    2.01
  -3  -2   5    2.93    2.04
  -2  -2   5  401.64   31.94
  -1  -2   5    2.22    1.99
   0  -2   5   15.16    2.96
   1  -2   5  969.33   74.52
   2  -2   5    3.65    2.09
   3  -2   5    9.91    2.56
   4  -2   5  406.84   32.33
   5  -2   5    0.51    1.86
  -4  -1   5  218.69   18.22
  -3  -1   5    0.68    1.87
  -2  -1   5   10.69    2.62
  -1  -1   5 1016.09   78.03
   0  -1   5    7.22    2.36
   1  -1   5   24.68    3.67
   2  -1   5 1019.40   78.27
   3  -1   5    2.26    1.99
   4  -1   5    5.37    2.22
   5  -1   5  220.77   18.38
  -5   0   5    0.07    1.83
  -4   0   5    4.34    2.15
  -3   0   5  574.35   44.90
  -2   0   5    5.84    2.26
  -1   0   5   26.13    3.78
   0   0   5 1645.96  125.27
   1   0   5   10.83    2.63
   2   0   5   17.00    3.09
   3   0   5  574.35   44.90
   4   0   5    0.67    1.87
   5   0   5    2.08    1.98
  -5   1   5  240.81   19.88
  -4   1   5    2.47    2.01
  -3   1   5   12.13    2.73
  -2   1   5 1115.07   85.45
  -1   1   5   16.97    3.09
   0   1   5   27.56    3.89
   1   1   5 1111.42   85.18
   2   1   5    5.66    2.24
   3   1   5    6.14    2.28
   4   1   5  238.51   19.71
  -5   2   5    3.90    2.11
  -4   2   5  485.87   38.26
  -3   2   5    9.76    2.55
  -2   2   5   19.01    3.25
  -1   2   5 1159.81   88.81
   0   2   5   14.41    2.90
   1   2   5   12.63    2.77
   2   2   5  479.54   37.79
   3   2   5    1.72    1.95
  -5   3   5    3.67    2.10
  -4   3   5    7.15    2.36
  -3   3   5  652.25   50.74
  -2   3   5   14.10    2.88
  -1   3   5   13.35    2.82
   0   3   5  645.77   50.25
   1   3   5    6.12    2.28
   2   3   5    3.86    2.11
  -5   4   5  271.53   22.18
  -4   4   5    7.32    2.37
  -3   4   5    7.41    2.38
  -2   4   5  519.50   40.78
  -1   4   5    9.21    2.51
   0   4   5    5.28    2.22
   1   4   5  264.47   21.66
  -5   5   5    2.89    2.04
  -4   5   5  279.06   22.75
  -3   5   5    7.12    2.35
  -2   5   5    4.31    2.14
  -1   5   5  274.44   22.40
   0   5   5    3.57    2.09
   0  -5   6    2.78    2.03
   1  -5   6    6.10    2.28
   2  -5   6  443.45   35.08
   3  -5   6    4.83    2.18
   4  -5   6    6.39    2.30
   5  -5   6  296.66   24.07
  -1  -4   6    5.62    2.24
   0  -4   6  559.89   43.81
   1  -4   6    8.29    2.44
   2  -4   6   12.25    2.74
   3  -4   6  722.08   55.98
   4  -4   6    6.65    2.32
   5  -4   6    6.10    2.28
  -2  -3   6  448.64   35.47
  -1  -3   6    8.79    2.48
   0  -3   6   14.77    2.93
   1  -3   6 1253.67   95.85
   2  -3   6   16.05    3.02
   3  -3   6   15.25    2.96
   4  -3   6  730.43   56.60
   5  -3   6    5.64    2.24
  -3  -2   6    5.77    2.25
  -2  -2   6   10.05    2.57
  -1  -2   6 1258.46   96.20
   0  -2   6   23.95    3.62
   1  -2   6   26.27    3.79
   2  -2   6 1740.57  132.36
   3  -2   6   17.73    3.15
   4  -2   6   10.54    2.61
   5  -2   6  458.90   36.24
  -4  -1   6    4.24    2.14
  -3  -1   6  730.19   56.58
  -2  -1   6   19.10    3.25
  -1  -1   6   23.33    3.57
   0  -1   6 2550.51  193.11
   1  -1   6   38.86    4.73
   2  -1   6   23.62    3.59
   3  -1   6 1270.53   97.11
   4  -1   6   11.10    2.65
   5  -1   6    4.41    2.15
  -5   0   6  301.88   24.46
  -4   0   6    9.37    2.52
  -3   0   6   10.77    2.63
  -2   0   6 1746.46  132.80
  -1   0   6   42.88    5.04
   0   0   6   30.79    4.13
   1   0   6 2555.37  193.47
   2   0   6   29.43    4.03
   3   0   6   10.78    2.63
   4   0   6  574.87   44.94
   5   0   6    4.62    2.17
  -5   1   6    3.36    2.07
  -4   1   6  735.13   56.96
  -3   1   6   23.51    3.58
  -2   1   6   18.20    3.18
  -1   1   6 2554.31  193.39
   0   1   6   47.03    5.35
   1   1   6   17.95    3.17
   2   1   6 1265.49   96.73
   3   1   6   13.11    2.80
   4   1   6    3.21    2.06
  -5   2   6    9.07    2.50
  -4   2   6    6.38    2.30
  -3   2   6 1268.90   96.99
  -2   2   6   35.34    4.47
  -1   2   6   15.76    3.00
   0   2   6 1736.26  132.04
   1   2   6   25.02    3.70
   2   2   6    6.02    2.27
   3   2   6  452.52   35.76
  -5   3   6  457.69   36.15
  -4   3   6   15.85    3.01
  -3   3   6    7.46    2.38
  -2   3   6 1259.11   96.25
  -1   3   6   27.08    3.85
   0   3   6    7.16    2.36
   1   3   6  721.44   55.93
   2   3   6    9.22    2.51
  -5   4   6    2.41    2.00
  -4   4   6  569.00   44.50
  -3   4   6   16.62    3.07
  -2   4   6    5.05    2.20
  -1   4   6  718.08   55.68
   0   4   6   12.53    2.76
   1   4   6    2.20    1.99
  -5   5   6    7.07    2.35
  -4   5   6    2.30    1.99
  -3   5   6  446.20   35.29
  -2   5   6   10.54    2.61
  -1   5   6    2.22    1.99
   0   5   6  290.09   23.58
   0  -5   7  203.05   17.05
   1  -5   7    4.79    2.18
   2  -5   7    4.42    2.15
   3  -5   7  303.69   24.60
   4  -5   7    5.12    2.20
   5  -5   7    2.89    2.04
  -1  -4   7    4.57    2.16
   0  -4   7    3.76    2.10
   1  -4   7  451.72   35.70
   2  -4   7   10.02    2.57
   3  -4   7    5.86    2.26
   4  -4   7  365.28   29.22
   5  -4   7    5.02    2.20
  -2  -3   7    1.51    1.93
  -1  -3   7  434.60   34.42
   0  -3   7   12.63    2.77
   1  -3   7    7.02    2.35
   2  -3   7  729.70   56.55
   3  -3   7   12.96    2.79
   4  -3   7    3.82    2.11
   5  -3   7  286.58   23.31
  -3  -2   7  270.74   22.13
  -2  -2   7    8.97    2.49
  -1  -2   7    3.82    2.11
   0  -2   7  940.86   72.38
   1  -2   7   24.20    3.64
   2  -2   7    6.37    2.30
   3  -2   7  704.63   54.67
   4  -2   7    9.23    2.51
   5  -2   7    0.96    1.89
  -4  -1   7    4.07    2.13
  -3  -1   7    0.62    1.87
  -2  -1   7  672.09   52.23
  -1  -1   7   22.92    3.54
   0  -1   7    5.20    2.21
   1  -1   7 1282.12   97.98
   2  -1   7   23.01    3.55
   3  -1   7    1.96    1.97
   4  -1   7  407.02   32.35
   5  -1   7    4.14    2.13
  -5   0   7    0.02    1.82
  -4   0   7  310.39   25.10
  -3   0   7   10.73    2.62
  -2   0   7    1.21    1.91
  -1   0   7 1227.45   93.88
   0   0   7   32.66    4.27
   1   0   7    2.32    1.99
   2   0   7  867.65   66.89
   3   0   7   10.73    2.62
   4   0   7    0.05    1.82
   5   0   7  171.43   14.68
  -5   1   7    3.55    2.09
  -4   1   7    0.21    1.84
  -3   1   7  618.70   48.22
  -2   1   7   20.25    3.34
  -1   1   7    1.46    1.93
   0   1   7 1172.06   89.72
   1   1   7   20.28    3.34
   2   1   7    0.50    1.86
   3   1   7  370.13   29.58
   4   1   7    3.54    2.09
  -5   2   7  231.57   19.19
  -4   2   7    6.77    2.33
  -3   2   7    1.41    1.93
  -2   2   7  791.88   61.21
  -1   2   7   18.86    3.23
   0   2   7    2.01    1.97
   1   2   7  585.66   45.74
   2   2   7    6.88    2.34
   3   2   7    0.90    1.89
  -5   3   7    1.62    1.94
  -4   3   7  339.67   27.29
  -3   3   7    8.32    2.44
  -2   3   7    3.60    2.09
  -1   3   7  558.31   43.69
   0   3   7    8.53    2.46
   1   3   7    2.64    2.02
   2   3   7  216.14   18.03
  -5   4   7    2.53    2.01
  -4   4   7    3.64    2.09
  -3   4   7  321.06   25.90
  -2   4   7    5.65    2.24
  -1   4   7    4.77    2.18
   0   4   7  253.42   20.83
   1   4   7    2.78    2.03
  -5   5   7  136.12   12.03
  -4   5   7    2.27    1.99
  -3   5   7    5.24    2.21
  -2   5   7  195.94   16.52
  -1   5   7    2.47    2.01
   0   5   7    4.32    2.14
   1  -5   8   88.93    8.49
   2  -5   8    4.03    2.12
   3  -5   8    3.70    2.10
   4  -5   8   90.90    8.64
  -1  -4   8   80.65    7.87
   0  -4   8    3.90    2.11
   1  -4   8    4.47    2.16
   2  -4   8  146.92   12.84
   3  -4   8    5.74    2.25
   4  -4   8    3.78    2.10
   5  -4   8   83.51    8.08
  -2  -3   8    2.00    1.97
  -1  -3   8    4.73    2.18
   0  -3   8  166.27   14.29
   1  -3   8    8.48    2.46
   2  -3   8    5.90    2.26
   3  -3   8  168.56   14.46
   4  -3   8    4.28    2.14
   5  -3   8    3.52    2.08
  -3  -2   8    4.60    2.17
  -2  -2   8  118.91   10.74
  -1  -2   8    6.07    2.28
   0  -2   8    8.32    2.44
   1  -2   8  259.69   21.30
   2  -2   8    9.67    2.54
   3  -2   8    6.56    2.31
   4  -2   8  121.08   10.90
   5  -2   8    1.51    1.93
  -4  -1   8   60.72    6.37
  -3  -1   8    1.76    1.95
  -2  -1   8    8.72    2.47
  -1  -1   8  231.72   19.20
   0  -1   8   11.31    2.67
   1  -1   8   13.01    2.80
   2  -1   8  232.80   19.28
   3  -1   8    4.26    2.14
   4  -1   8    6.29    2.29
   5  -1   8   61.52    6.43
  -4   0   8    7.27    2.37
  -3   0   8  120.80   10.88
  -2   0   8    4.50    2.16
  -1   0   8   17.40    3.13
   0   0   8  288.90   23.49
   1   0   8    7.86    2.41
   2   0   8   13.59    2.84
   3   0   8  120.80   10.88
   4   0   8    0.64    1.87
  -5   1   8   49.67    5.55
  -4   1   8    0.46    1.85
  -3   1   8   14.15    2.88
  -2   1   8  183.68   15.60
  -1   1   8    5.11    2.20
   0   1   8   23.23    3.56
   1   1   8  182.80   15.53
   2   1   8    1.49    1.93
   3   1   8   10.58    2.61
   4   1   8   49.01    5.50
  -5   2   8    9.36    2.52
  -4   2   8   77.03    7.60
  -3   2   8    0.67    1.87
  -2   2   8   22.67    3.52
  -1   2   8  161.60   13.94
   0   2   8    1.50    1.93
   1   2   8   18.80    3.23
   2   2   8   75.58    7.49
   3   2   8    0.02    1.82
  -5   3   8    0.03    1.82
  -4   3   8   15.11    2.95
  -3   3   8   84.53    8.16
  -2   3   8    0.27    1.84
  -1   3   8   23.01    3.55
   0   3   8   83.28    8.07
   1   3   8    0.09    1.83
   2   3   8   12.27    2.74
  -5   4   8   35.53    4.48
  -4   4   8    0.18    1.83
  -3   4   8   18.47    3.21
  -2   4   8   59.37    6.27
  -1   4   8    0.22    1.84
   0   4   8   16.52    3.06
   1   4   8   34.18    4.38
  -4   5   8   31.22    4.16
  -3   5   8    0.55    1.86
  -2   5   8   16.14    3.03
  -1   5   8   30.44    4.10
   1  -5   9   14.02    2.87
   2  -5   9    8.66    2.47
   3  -5   9    3.19    2.06
   4  -5   9   13.29    2.82
  -1  -4   9   14.46    2.90
   0  -4   9    7.19    2.36
   1  -4   9    3.85    2.11
   2  -4   9   20.59    3.36
   3  -4   9    8.30    2.44
   4  -4   9    3.76    2.10
   5  -4   9   13.24    2.81
  -2  -3   9    4.87    2.19
  -1  -3   9    3.99    2.12
   0  -3   9   25.10    3.70
   1  -3   9    7.66    2.39
   2  -3   9    5.76    2.25
   3  -3   9   24.12    3.63
   4  -3   9    6.06    2.27
   5  -3   9    3.70    2.10
  -3  -2   9    3.82    2.11
  -2  -2   9   21.84    3.46
  -1  -2   9    4.98    2.19
   0  -2   9    7.66    2.39
   1  -2   9   37.46    4.63
   2  -2   9    6.03    2.27
   3  -2   9    6.72    2.32
   4  -2   9   20.75    3.38
   5  -2   9    3.72    2.10
  -4  -1   9   14.63    2.92
  -3  -1   9    2.59    2.01
  -2  -1   9    7.86    2.41
  -1  -1   9   38.46    4.70
   0  -1   9    4.22    2.14
   1  -1   9   12.07    2.73
   2  -1   9   37.91    4.66
   3  -1   9    3.04    2.05
   4  -1   9    6.10    2.28
   5  -1   9   14.13    2.88
  -4   0   9    6.61    2.32
  -3   0   9   25.79    3.75
  -2   0   9    1.66    1.94
  -1   0   9   15.64    2.99
   0   0   9   50.81    5.63
   1   0   9    1.91    1.96
   2   0   9   12.36    2.75
   3   0   9   25.79    3.75
   4   0   9    1.57    1.94
  -5   1   9   14.27    2.89
  -4   1   9    0.78    1.88
  -3   1   9   13.10    2.80
  -2   1   9   39.22    4.76
  -1   1   9    0.53    1.86
   0   1   9   20.41    3.35
   1   1   9   39.76    4.80
   2   1   9    0.57    1.86
   3   1   9    9.22    2.51
   4   1   9   14.76    2.93
  -5   2   9    9.29    2.52
  -4   2   9   21.59    3.44
  -3   2   9    0.13    1.83
  -2   2   9   20.66    3.37
  -1   2   9   40.06    4.82
   0   2   9    0.05    1.82
   1   2   9   16.20    3.04
   2   2   9   22.65    3.52
   3   2   9    0.46    1.85
  -5   3   9    0.30    1.84
  -4   3   9   14.88    2.94
  -3   3   9   25.95    3.77
  -2   3   9    0.10    1.83
  -1   3   9   20.62    3.37
   0   3   9   26.88    3.84
   1   3   9    0.07    1.82
   2   3   9   10.69    2.62
  -5   4   9   13.83    2.86
  -4   4   9    0.23    1.84
  -3   4   9   18.03    3.17
  -2   4   9   22.26    3.49
  -1   4   9    0.17    1.83
   0   4   9   14.95    2.94
   1   4   9   14.98    2.94
  -4   5   9   14.02    2.87
  -3   5   9    0.32    1.84
  -2   5   9   15.98    3.02
  -1   5   9   14.69    2.92
   1  -5  10   31.22    4.16
   2  -5  10   10.07    2.58
   3  -5  10    1.40    1.93
   4  -5  10   31.99    4.22
  -1  -4  10   34.35    4.40
   0  -4  10    9.89    2.56
   1  -4  10    1.63    1.94
   2  -4  10   57.92    6.16
   3  -4  10   10.69    2.62
   4  -4  10    1.12    1.90
   5  -4  10   35.67    4.49
  -2  -3  10    7.34    2.37
  -1  -3  10    1.27    1.91
   0  -3  10   78.33    7.69
   1  -3  10   12.27    2.74
   2  -3  10    2.09    1.98
   3  -3  10   79.49    7.78
   4  -3  10    8.42    2.45
   5  -3  10    0.57    1.86
  -3  -2  10    0.52    1.86
  -2  -2  10   70.88    7.14
  -1  -2  10    9.62    2.54
   0  -2  10    2.87    2.03
   1  -2  10  142.58   12.51
   2  -2  10   11.12    2.65
   3  -2  10    1.64    1.94
   4  -2  10   72.22    7.24
   5  -2  10    5.34    2.22
  -4  -1  10   46.79    5.33
  -3  -1  10    5.57    2.24
  -2  -1  10    1.65    1.94
  -1  -1  10  158.41   13.70
   0  -1  10   10.48    2.61
   1  -1  10    4.48    2.16
   2  -1  10  159.17   13.76
   3  -1  10    6.83    2.33
   4  -1  10    0.59    1.86
   5  -1  10   47.41    5.38
  -4   0  10    0.36    1.85
  -3   0  10  107.85    9.91
  -2   0  10    6.08    2.28
  -1   0  10    4.73    2.17
   0   0  10  237.77   19.65
   1   0  10    7.48    2.38
   2   0  10    2.71    2.02
   3   0  10  107.85    9.91
   4   0  10    3.85    2.11
  -5   1  10   57.17    6.11
  -4   1  10    3.22    2.06
  -3   1  10    1.80    1.95
  -2   1  10  195.66   16.49
  -1   1  10    5.66    2.24
   0   1  10    5.33    2.22
   1   1  10  194.76   16.43
   2   1  10    4.14    2.13
   3   1  10    0.71    1.87
   4   1  10   56.44    6.05
  -5   2  10    0.38    1.85
  -4   2  10  107.08    9.85
  -3   2  10    3.50    2.08
  -2   2  10    3.72    2.10
  -1   2  10  215.44   17.98
   0   2  10    4.27    2.14
   1   2  10    2.33    1.99
   2   2  10  105.19    9.71
   3   2  10    2.65    2.02
  -5   3  10    2.32    1.99
  -4   3  10    1.35    1.92
  -3   3  10  144.83   12.68
  -2   3  10    3.93    2.11
  -1   3  10    3.01    2.05
   0   3  10  142.88   12.54
   1   3  10    3.02    2.05
   2   3  10    0.60    1.86
  -5   4  10   75.12    7.45
  -4   4  10    3.02    2.05
  -3   4  10    1.93    1.96
  -2   4  10  127.14   11.36
  -1   4  10    3.52    2.08
   0   4  10    1.28    1.92
   1   4  10   72.59    7.26
  -4   5  10   81.03    7.90
  -3   5  10    3.28    2.07
  -2   5  10    1.39    1.92
  -1   5  10   79.30    7.77
   1  -5  11    1.22    1.91
   2  -5  11  140.23   12.34
   3  -5  11    3.00    2.04
   4  -5  11    1.04    1.90
  -1  -4  11    1.26    1.91
   0  -4  11  177.37   15.12
   1  -4  11    2.47    2.01
   2  -4  11    2.36    2.00
   3  -4  11  219.23   18.26
   4  -4  11    1.92    1.96
   5  -4  11    1.03    1.90
  -2  -3  11  154.25   13.39
  -1  -3  11    1.27    1.91
   0  -3  11    3.31    2.07
   1  -3  11  358.41   28.70
   2  -3  11    1.84    1.96
   3  -3  11    3.15    2.06
   4  -3  11  231.64   19.19
   5  -3  11    0.78    1.88
  -3  -2  11    0.36    1.85
  -2  -2  11    2.58    2.01
  -1  -2  11  375.69   30.00
   0  -2  11    1.53    1.94
   1  -2  11    6.65    2.32
   2  -2  11  486.80   38.33
   3  -2  11    1.01    1.90
   4  -2  11    2.47    2.01
   5  -2  11  164.92   14.19
  -4  -1  11    1.27    1.92
  -3  -1  11  251.96   20.72
  -2  -1  11    0.91    1.89
  -1  -1  11    6.96    2.34
   0  -1  11  673.97   52.37
   1  -1  11    2.90    2.04
   2  -1  11    6.94    2.34
   3  -1  11  396.53   31.56
   4  -1  11    0.29    1.84
   5  -1  11    1.25    1.91
  -4   0  11    0.29    1.84
  -3   0  11    3.70    2.10
  -2   0  11  532.81   41.78
  -1   0  11    4.60    2.16
   0   0  11   10.91    2.64
   1   0  11  705.46   54.73
   2   0  11    2.76    2.03
   3   0  11    3.70    2.10
   4   0  11  216.09   18.03
  -5   1  11    1.39    1.92
  -4   1  11  276.53   22.56
  -3   1  11    3.17    2.06
  -2   1  11    7.66    2.39
  -1   1  11  736.58   57.06
   0   1  11    7.51    2.38
   1   1  11    7.62    2.39
   2   1  11  430.29   34.09
   3   1  11    1.20    1.91
   4   1  11    1.37    1.92
  -5   2  11    1.29    1.92
  -4   2  11    3.13    2.05
  -3   2  11  450.90   35.64
  -2   2  11    7.82    2.41
  -1   2  11    8.01    2.42
   0   2  11  577.38   45.12
   1   2  11    4.94    2.19
   2   2  11    3.01    2.05
   3   2  11  191.95   16.22
  -5   3  11  202.93   17.04
  -4   3  11    4.22    2.14
  -3   3  11    4.38    2.15
  -2   3  11  466.81   36.83
  -1   3  11    7.74    2.40
   0   3  11    4.21    2.14
   1   3  11  294.90   23.94
   2   3  11    1.82    1.96
  -5   4  11    1.66    1.94
  -4   4  11  253.41   20.83
  -3   4  11    5.98    2.27
  -2   4  11    3.35    2.07
  -1   4  11  306.33   24.79
   0   4  11    3.99    2.12
   1   4  11    1.44    1.93
  -4   5  11    1.67    1.95
  -3   5  11  214.72   17.92
  -2   5  11    4.43    2.15
  -1   5  11    1.51    1.93
   2  -5  12    2.78    2.03
   3  -5  12  283.61   23.09
   0  -4  12    3.08    2.05
   1  -4  12  431.31   34.17
   2  -4  12    5.43    2.23
   3  -4  12    4.09    2.13
   4  -4  12  352.33   28.24
  -2  -3  12    2.15    1.98
  -1  -3  12  433.64   34.34
   0  -3  12    7.38    2.37
   1  -3  12    5.83    2.26
   2  -3  12  698.72   54.22
   3  -3  12    7.63    2.39
   4  -3  12    3.73    2.10
   5  -3  12  291.09   23.65
  -3  -2  12  288.04   23.42
  -2  -2  12    6.27    2.29
  -1  -2  12    5.02    2.20
   0  -2  12  910.11   70.08
   1  -2  12   13.97    2.87
   2  -2  12    6.81    2.33
   3  -2  12  704.69   54.67
   4  -2  12    6.56    2.31
   5  -2  12    2.05    1.97
  -3  -1  12    2.59    2.01
  -2  -1  12  703.39   54.57
  -1  -1  12   15.27    2.97
   0  -1  12    7.71    2.40
   1  -1  12 1216.82   93.08
   2  -1  12   15.43    2.98
   3  -1  12    4.43    2.15
   4  -1  12  442.27   34.99
  -4   0  12  356.71   28.57
  -3   0  12    9.99    2.57
  -2   0  12    4.77    2.18
  -1   0  12 1218.36   93.20
   0   0  12   22.70    3.52
   1   0  12    6.44    2.30
   2   0  12  916.91   70.59
   3   0  12    9.98    2.57
   4   0  12    1.72    1.95
  -4   1  12    1.82    1.96
  -3   1  12  707.23   54.86
  -2   1  12   18.55    3.21
  -1   1  12    5.28    2.22
   0   1  12 1217.09   93.10
   1   1  12   18.37    3.20
   2   1  12    2.91    2.04
   3   1  12  439.82   34.81
  -5   2  12  292.43   23.75
  -4   2  12    9.58    2.54
  -3   2  12    2.49    2.01
  -2   2  12  915.33   70.47
  -1   2  12   20.01    3.32
   0   2  12    3.15    2.06
   1   2  12  701.03   54.40
   2   2  12    9.22    2.51
   3   2  12    0.84    1.88
  -5   3  12    0.78    1.88
  -4   3  12  440.51   34.86
  -3   3  12   12.95    2.79
  -2   3  12    2.07    1.98
  -1   3  12  698.93   54.24
   0   3  12   12.61    2.77
   1   3  12    1.18    1.91
   2   3  12  286.01   23.27
  -4   4  12    0.92    1.89
  -3   4  12  435.77   34.50
  -2   4  12   10.73    2.62
  -1   4  12    1.14    1.91
   0   4  12  348.09   27.93
  -3   5  12    0.79    1.88
  -2   5  12  282.98   23.04
   0  -4  13    4.26    2.14
   1  -4  13    2.02    1.97
   2  -4  13  299.15   24.26
   3  -4  13    5.55    2.24
   4  -4  13    1.74    1.95
  -1  -3  13    1.03    1.90
   0  -3  13  356.26   28.54
   1  -3  13    8.35    2.45
   2  -3  13    2.29    1.99
   3  -3  13  359.67   28.80
   4  -3  13    5.37    2.22
  -2  -2  13  277.21   22.61
  -1  -2  13    7.87    2.41
   0  -2  13    1.41    1.93
   1  -2  13  554.53   43.41
   2  -2  13   10.41    2.60
   3  -2  13    1.09    1.90
   4  -2  13  280.71   22.87
  -3  -1  13    4.63    2.17
  -2  -1  13    0.23    1.84
  -1  -1  13  532.41   41.75
   0  -1  13   13.10    2.80
   1  -1  13    0.65    1.87
   2  -1  13  534.11   41.88
   3  -1  13    7.49    2.38
   4  -1  13    0.13    1.83
  -4   0  13    0.14    1.83
  -3   0  13  318.53   25.71
  -2   0  13    9.06    2.50
  -1   0  13    0.01    1.82
   0   0  13  668.83   51.98
   1   0  13   12.22    2.74
   2   0  13    0.01    1.82
   3   0  13  318.53   25.71
   4   0  13    3.50    2.08
  -4   1  13    3.98    2.12
  -3   1  13    0.34    1.85
  -2   1  13  490.14   38.58
  -1   1  13   11.29    2.67
   0   1  13    0.34    1.85
   1   1  13  488.60   38.46
   2   1  13    6.36    2.30
   3   1  13    0.48    1.86
  -4   2  13  236.80   19.58
  -3   2  13    5.76    2.25
  -2   2  13    1.40    1.93
  -1   2  13  467.01   36.85
   0   2  13    7.61    2.39
   1   2  13    1.42    1.93
   2   2  13  233.86   19.36
  -4   3  13    2.10    1.98
  -3   3  13  278.39   22.70
  -2   3  13    5.17    2.21
  -1   3  13    2.95    2.04
   0   3  13  275.76   22.50
   1   3  13    3.26    2.06
  -4   4  13    2.23    1.99
  -3   4  13    3.70    2.10
  -2   4  13  212.91   17.79
  -1   4  13    2.87    2.04
   0   4  13    3.60    2.09
   0  -4  14   68.83    6.98
   1  -4  14    3.73    2.10
   2  -4  14    4.00    2.12
   3  -4  14   82.98    8.04
   4  -4  14    3.07    2.05
  -1  -3  14    2.72    2.02
   0  -3  14    4.91    2.19
   1  -3  14  108.50    9.96
   2  -3  14    5.20    2.21
   3  -3  14    4.64    2.17
   4  -3  14   75.64    7.49
  -2  -2  14    5.36    2.22
  -1  -2  14   97.31    9.12
   0  -2  14    5.24    2.21
   1  -2  14    6.93    2.34
   2  -2  14  121.13   10.90
   3  -2  14    3.84    2.11
   4  -2  14    4.96    2.19
  -3  -1  14   60.51    6.36
  -2  -1  14    2.54    2.01
  -1  -1  14    8.73    2.47
   0  -1  14  135.88   12.01
   1  -1  14    5.48    2.23
   2  -1  14    8.53    2.46
   3  -1  14   88.08    8.43
   4  -1  14    1.36    1.92
  -4   0  14    0.56    1.86
  -3   0  14    8.42    2.45
  -2   0  14   96.25    9.04
  -1   0  14    3.66    2.09
   0   0  14   12.82    2.78
   1   0  14  120.90   10.89
   2   0  14    2.41    2.00
   3   0  14    8.42    2.45
   4   0  14   46.34    5.30
  -4   1  14   48.90    5.49
  -3   1  14    0.90    1.89
  -2   1  14   13.55    2.84
  -1   1  14  107.05    9.85
   0   1  14    2.21    1.99
   1   1  14   13.81    2.86
   2   1  14   69.32    7.02
   3   1  14    0.36    1.85
  -4   2  14   10.61    2.62
  -3   2  14   61.93    6.46
  -2   2  14    0.64    1.87
  -1   2  14   16.90    3.09
   0   2  14   75.05    7.45
   1   2  14    0.35    1.85
   2   2  14   11.24    2.66
  -4   3  14    0.03    1.82
  -3   3  14   14.52    2.91
  -2   3  14   54.31    5.89
  -1   3  14    0.07    1.83
   0   3  14   15.11    2.95
   1   3  14   37.81    4.66
  -4   4  14   29.33    4.02
  -3   4  14    0.06    1.82
  -2   4  14   15.00    2.95
  -1   4  14   33.50    4.33
   0   4  14    0.07    1.83
   1  -4  15    4.19    2.13
   2  -4  15    3.78    2.10
   3  -4  15   13.00    2.80
  -1  -3  15    2.97    2.04
   0  -3  15    4.32    2.14
   1  -3  15   17.28    3.12
   2  -3  15    3.26    2.06
   3  -3  15    4.60    2.17
   4  -3  15   13.10    2.80
  -2  -2  15    4.37    2.15
  -1  -2  15   17.89    3.16
   0  -2  15    2.15    1.98
   1  -2  15    6.32    2.29
   2  -2  15   20.07    3.33
   3  -2  15    2.08    1.98
   4  -2  15    4.68    2.17
  -3  -1  15   14.17    2.88
  -2  -1  15    1.21    1.91
  -1  -1  15    7.31    2.37
   0  -1  15   24.41    3.65
   1  -1  15    1.26    1.91
   2  -1  15    7.45    2.38
   3  -1  15   17.80    3.16
   4  -1  15    1.28    1.92
  -3   0  15    7.00    2.34
  -2   0  15   21.20    3.41
  -1   0  15    0.64    1.87
   0   0  15   10.38    2.60
   1   0  15   24.97    3.69
   2   0  15    0.59    1.86
   3   0  15    7.00    2.34
  -4   1  15   14.12    2.88
  -3   1  15    0.23    1.84
  -2   1  15   11.05    2.65
  -1   1  15   25.46    3.73
   0   1  15    0.39    1.85
   1   1  15   10.90    2.64
   2   1  15   18.76    3.23
   3   1  15    0.33    1.85
  -4   2  15    9.40    2.52
  -3   2  15   18.52    3.21
  -2   2  15    0.21    1.84
  -1   2  15   13.52    2.83
   0   2  15   22.06    3.47
   1   2  15    0.13    1.83
   2   2  15    9.02    2.50
  -4   3  15    0.00    1.82
  -3   3  15   12.68    2.77
  -2   3  15   18.86    3.23
  -1   3  15    0.19    1.83
   0   3  15   12.31    2.74
   1   3  15   14.79    2.93
  -3   4  15    0.06    1.82
  -2   4  15   13.26    2.81
  -1   4  15   14.64    2.92
   1  -4  16    6.46    2.30
   2  -4  16    1.30    1.92
   3  -4  16   34.16    4.38
  -1  -3  16    5.50    2.23
   0  -3  16    1.44    1.93
   1  -3  16   51.08    5.65
   2  -3  16    6.29    2.29
   3  -3  16    1.28    1.92
   4  -3  16   37.74    4.65
  -2  -2  16    0.91    1.89
  -1  -2  16   56.06    6.02
   0  -2  16    5.65    2.24
   1  -2  16    2.16    1.98
   2  -2  16   67.69    6.90
   3  -2  16    4.92    2.19
   4  -2  16    0.76    1.88
  -3  -1  16   44.68    5.17
  -2  -1  16    4.09    2.13
  -1  -1  16    1.98    1.97
   0  -1  16   90.58    8.61
   1  -1  16    4.71    2.17
   2  -1  16    1.91    1.96
   3  -1  16   62.24    6.49
   4  -1  16    3.44    2.08
  -3   0  16    0.85    1.88
  -2   0  16   81.68    7.95
  -1   0  16    3.67    2.10
   0   0  16    2.72    2.02
   1   0  16   99.79    9.30
   2   0  16    3.40    2.08
   3   0  16    0.85    1.88
  -4   1  16   53.88    5.86
  -3   1  16    2.64    2.02
  -2   1  16    1.79    1.95
  -1   1  16  109.67   10.05
   0   1  16    3.09    2.05
   1   1  16    1.84    1.96
   2   1  16   74.23    7.39
   3   1  16    2.50    2.01
  -4   2  16    0.56    1.86
  -3   2  16   81.85    7.96
  -2   2  16    2.69    2.02
  -1   2  16    1.91    1.96
   0   2  16   97.70    9.15
   1   2  16    2.55    2.01
   2   2  16    0.62    1.87
  -4   3  16    2.16    1.98
  -3   3  16    0.99    1.89
  -2   3  16   88.87    8.49
  -1   3  16    2.69    2.02
   0   3  16    1.01    1.90
   1   3  16   62.80    6.53
  -3   4  16    2.47    2.01
  -2   4  16    0.86    1.88
  -1   4  16   68.41    6.95
   0  -3  17    0.79    1.88
   1  -3  17    1.31    1.92
   2  -3  17  177.03   15.10
   3  -3  17    0.71    1.87
  -1  -2  17    1.29    1.92
   0  -2  17  225.25   18.71
   1  -2  17    0.39    1.85
   2  -2  17    1.61    1.94
   3  -2  17  185.96   15.77
  -2  -1  17  193.16   16.31
  -1  -1  17    0.27    1.84
   0  -1  17    2.15    1.98
   1  -1  17  291.87   23.71
   2  -1  17    0.29    1.84
   3  -1  17    1.23    1.91
  -3   0  17    0.19    1.83
  -2   0  17    1.62    1.94
  -1   0  17  304.49   24.66
   0   0  17    1.09    1.90
   1   0  17    2.17    1.98
   2   0  17  246.29   20.29
   3   0  17    0.19    1.83
  -3   1  17  210.68   17.62
  -2   1  17    1.47    1.93
  -1   1  17    2.21    1.99
   0   1  17  316.91   25.59
   1   1  17    1.41    1.93
   2   1  17    1.25    1.91
  -3   2  17    1.29    1.92
  -2   2  17  266.80   21.83
  -1   2  17    2.66    2.02
   0   2  17    1.67    1.94
   1   2  17  217.28   18.12
  -3   3  17    2.35    2.00
  -2   3  17    1.31    1.92
  -1   3  17  225.61   18.74
   0   3  17    2.15    1.98
   0  -3  18  272.78   22.28
   1  -3  18    3.33    2.07
   2  -3  18    0.93    1.89
   3  -3  18  274.91   22.44
  -1  -2  18    3.63    2.09
   0  -2  18    0.85    1.88
   1  -2  18  416.44   33.05
   2  -2  18    4.66    2.17
   3  -2  18    0.73    1.87
  -2  -1  18    0.46    1.85
  -1  -1  18  417.53   33.13
   0  -1  18    6.42    2.30
   1  -1  18    0.78    1.88
   2  -1  18  418.62   33.22
   3  -1  18    4.14    2.13
  -3   0  18  276.86   22.58
  -2   0  18    5.67    2.25
  -1   0  18    0.48    1.86
   0   0  18  524.81   41.18
   1   0  18    7.10    2.35
   2   0  18    0.38    1.85
   3   0  18  276.86   22.58
  -3   1  18    0.16    1.83
  -2   1  18  419.02   33.25
  -1   1  18    7.81    2.41
   0   1  18    0.25    1.84
   1   1  18  417.91   33.16
   2   1  18    5.02    2.20
  -3   2  18    5.62    2.24
  -2   2  18    0.10    1.83
  -1   2  18  417.23   33.11
   0   2  18    6.79    2.33
   1   2  18    0.07    1.83
  -3   3  18  275.36   22.47
  -2   3  18    6.03    2.27
  -1   3  18    0.09    1.83
   0   3  18  273.16   22.31
   1  -3  19  195.45   16.48
   2  -3  19    3.35    2.07
  -1  -2  19  188.30   15.94
   0  -2  19    3.84    2.11
   1  -2  19    0.67    1.87
   2  -2  19  229.60   19.04
   3  -2  19    3.20    2.06
  -2  -1  19    2.95    2.04
  -1  -1  19    0.54    1.86
   0  -1  19  270.29   22.09
   1  -1  19    4.45    2.15
   2  -1  19    0.53    1.86
   3  -1  19  182.60   15.52
  -2   0  19  212.11   17.73
  -1   0  19    4.10    2.13
   0   0  19    0.72    1.87
   1   0  19  259.85   21.31
   2   0  19    3.34    2.07
  -3   1  19    2.50    2.01
  -2   1  19    1.16    1.91
  -1   1  19  249.18   20.51
   0   1  19    3.73    2.10
   1   1  19    1.20    1.91
   2   1  19  167.39   14.37
  -3   2  19  161.13   13.90
  -2   2  19    2.71    2.02
  -1   2  19    2.00    1.97
   0   2  19  194.02   16.37
   1   2  19    2.23    1.99
  -2   3  19  153.32   13.32
  -1   3  19    1.96    1.97
   0  -2  20   55.73    6.00
   1  -2  20    2.68    2.02
   2  -2  20    5.44    2.23
  -1  -1  20    1.90    1.96
   0  -1  20    7.14    2.36
   1  -1  20   59.29    6.27
   2  -1  20    1.93    1.96
  -2   0  20    7.70    2.40
  -1   0  20   52.88    5.79
   0   0  20   -1.74    1.95
   1   0  20    8.52    2.46
   2   0  20   44.91    5.19
  -2   1  20    0.77    1.88
  -1   1  20   10.11    2.58
   0   1  20   46.93    5.34
   1   1  20    0.75    1.88
  -2   2  20   35.54    4.49
  -1   2  20    0.39    1.85
   0   2  20   10.67    2.62
   0  -1  21    5.11    2.20
   1  -1  21   13.05    2.80
  -1   0  21   13.37    2.82
   0   0  21   -0.69    1.87
   1   0  21    5.94    2.27
  -1   1  21    7.02    2.35
   0   1  21   13.64    2.84
   0   0  22    2.54    2.01
  -1   0   0   81.20    5.66
  -2   0   0   33.07    4.30
  -3   0   0 1418.49   98.46
  -4   0   0    9.62    2.54
  -5   0   0   13.59    2.16
   5  -1   0  465.26   36.71
   4  -1   0   14.16    2.88
   3  -1   0   20.95    3.39
   2  -1   0 2601.39  196.92
   1  -1   0   57.03    6.10
   0  -1   0   95.80    5.25
  -1  -1   0 2594.42  196.40
  -2  -1   0   25.38    3.72
  -3  -1   0   11.16    2.66
  -4  -1   0  461.47   36.43
   6  -2   0    4.73    2.17
   5  -2   0    6.18    2.28
   4  -2   0  968.50   74.46
   3  -2   0   28.52    3.96
   2  -2   0   26.81    3.83
   1  -2   0 2589.03  196.00
   0  -2   0   40.13    4.83
  -1  -2   0   18.35    3.20
  -2  -2   0  958.01   73.67
  -3  -2   0    8.90    2.49
  -4  -2   0    2.73    2.02
   6  -3   0  306.50   24.81
   5  -3   0   10.29    2.59
   4  -3   0    9.52    2.53
   3  -3   0 1280.83   97.88
   2  -3   0   30.65    4.12
   1  -3   0   16.81    3.08
   0  -3   0 1470.40   97.10
  -1  -3   0   16.25    3.04
  -2  -3   0    5.18    2.21
  -3  -3   0  299.04   24.25
   6  -4   0    2.50    2.01
   5  -4   0  460.75   36.38
   4  -4   0   13.96    2.87
   3  -4   0    8.72    2.47
   2  -4   0  950.19   73.08
   1  -4   0   17.57    3.14
   0  -4   0    6.34    2.30
  -1  -4   0  450.67   35.62
  -2  -4   0    5.12    2.20
   5  -5   0    3.02    2.05
   4  -5   0  454.17   35.88
   3  -5   0   11.28    2.67
   2  -5   0    4.80    2.18
   1  -5   0  447.89   35.41
   0  -5   0   13.84    2.33
   4  -6   0    2.35    2.00
   3  -6   0  293.61   23.84
   2  -6   0    5.84    2.26
  -2   6  -1    3.11    2.05
  -3   6  -1    4.50    2.16
  -4   6  -1  206.30   17.29
   0   5  -1    3.70    2.10
  -1   5  -1    5.40    2.22
  -2   5  -1  358.05   28.67
  -3   5  -1    6.43    2.30
  -4   5  -1    6.10    2.28
  -5   5  -1  243.02   20.05
   2   4  -1    2.82    2.03
   1   4  -1    3.53    2.08
   0   4  -1  430.40   34.10
  -1   4  -1   10.35    2.60
  -2   4  -1   10.56    2.61
  -3   4  -1  554.58   43.41
  -4   4  -1    8.21    2.44
  -5   4  -1    4.46    2.15
  -6   4  -1  196.21   16.54
   3   3  -1    1.06    1.90
   2   3  -1  331.78   26.70
   1   3  -1    9.77    2.55
   0   3  -1    9.98    2.57
  -1   3  -1  924.97   71.19
  -2   3  -1   19.55    3.29
  -3   3  -1   10.89    2.64
  -4   3  -1  537.32   42.12
  -5   3  -1    6.05    2.27
  -6   3  -1    1.53    1.93
   4   2  -1  177.70   15.15
   3   2  -1    5.36    2.22
   2   2  -1    4.05    2.12
   1   2  -1  887.78   68.40
   0   2  -1   27.38    3.87
  -1   2  -1   17.13    3.10
  -2   2  -1 1256.20   96.04
  -3   2  -1   18.66    3.22
  -4   2  -1    4.73    2.17
  -5   2  -1  326.03   26.27
  -6   2  -1    2.84    2.03
   4   1  -1    0.48    1.86
   3   1  -1  490.66   38.62
   2   1  -1   17.35    3.12
   1   1  -1   10.42    2.60
   0   1  -1 1907.27  144.87
  -1   1  -1   39.48    4.78
  -2   1  -1   10.83    2.63
  -3   1  -1  858.32   66.19
  -4   1  -1    8.92    2.49
  -5   1  -1    0.61    1.87
   5   0  -1  199.12   16.75
   4   0  -1    6.18    2.28
   3   0  -1    1.93    1.96
   2   0  -1 1151.61   88.19
   1   0  -1   36.86    4.58
  -1   0  -1 1825.32  138.72
  -2   0  -1   24.48    3.66
  -3   0  -1    1.93    1.96
  -4   0  -1  371.29   29.67
  -5   0  -1    2.97    2.04
   5  -1  -1    0.15    1.83
   4  -1  -1  452.28   35.74
   3  -1  -1   15.18    2.96
   2  -1  -1    4.16    2.13
   1  -1  -1 1742.19  132.48
   0  -1  -1   34.29    4.39
  -1  -1  -1    4.00    2.12
  -2  -1  -1  780.44   60.35
  -3  -1  -1    7.60    2.39
  -4  -1  -1    0.17    1.83
   6  -2  -1  152.82   13.28
   5  -2  -1    3.94    2.12
   4  -2  -1    1.24    1.91
   3  -2  -1  748.57   57.96
   2  -2  -1   21.24    3.41
   1  -2  -1    4.39    2.15
   0  -2  -1 1044.67   80.17
  -1  -2  -1   14.14    2.88
  -2  -2  -1    1.32    1.92
  -3  -2  -1  268.73   21.97
  -4  -2  -1    2.02    1.97
   6  -3  -1    1.07    1.90
   5  -3  -1  260.63   21.37
   4  -3  -1    6.20    2.28
   3  -3  -1    3.56    2.09
   2  -3  -1  709.13   55.00
   1  -3  -1   12.99    2.79
   0  -3  -1    3.76    2.10
  -1  -3  -1  404.64   32.17
  -2  -3  -1    3.71    2.10
  -3  -3  -1    1.45    1.93
   6  -4  -1    1.50    1.93
   5  -4  -1    2.73    2.02
   4  -4  -1  307.32   24.87
   3  -4  -1    5.63    2.24
   2  -4  -1    5.34    2.22
   1  -4  -1  384.95   30.69
   0  -4  -1    4.40    2.15
  -1  -4  -1    3.30    2.07
  -2  -4  -1  134.42   11.90
   5  -5  -1    1.63    1.94
   4  -5  -1    4.73    2.18
   3  -5  -1  231.80   19.21
   2  -5  -1    2.94    2.04
   1  -5  -1    5.19    2.21
   0  -5  -1  153.28   13.32
   4  -6  -1    1.18    1.91
   3  -6  -1    5.41    2.23
   2  -6  -1  121.54   10.94
  -3   6  -2    2.84    2.03
   0   5  -2   86.34    8.30
  -1   5  -2    3.40    2.08
  -2   5  -2    4.36    2.15
  -3   5  -2  127.60   11.39
  -4   5  -2    3.79    2.10
  -5   5  -2    3.24    2.06
   1   4  -2    2.35    2.00
   0   4  -2    4.34    2.15
  -1   4  -2  177.45   15.13
  -2   4  -2    6.89    2.34
  -3   4  -2    5.03    2.20
  -4   4  -2  144.16   12.63
  -5   4  -2    2.81    2.03
   3   3  -2    0.82    1.88
   2   3  -2    3.81    2.11
   1   3  -2  159.93   13.81
   0   3  -2    7.30    2.37
  -1   3  -2    6.84    2.33
  -2   3  -2  276.29   22.54
  -3   3  -2    7.60    2.39
  -4   3  -2    4.40    2.15
  -5   3  -2  106.99    9.84
  -6   3  -2    1.08    1.90
   3   2  -2   94.19    8.88
   2   2  -2    3.26    2.06
   1   2  -2    7.31    2.37
   0   2  -2  343.42   27.58
  -1   2  -2   14.47    2.90
  -2   2  -2    8.91    2.49
  -3   2  -2  249.81   20.56
  -4   2  -2    3.45    2.08
  -5   2  -2    3.74    2.10
   4   1  -2   -0.53    1.86
   3   1  -2    6.30    2.29
   2   1  -2  221.80   18.45
   1   1  -2   10.57    2.61
   0   1  -2   14.84    2.93
  -1   1  -2  463.57   36.59
  -2   1  -2   10.57    2.61
  -3   1  -2    8.49    2.46
  -4   1  -2  132.08   11.73
  -5   1  -2    0.57    1.86
   5   0  -2    5.07    2.20
   4   0  -2   94.42    8.90
   3   0  -2    2.15    1.98
   2   0  -2   15.06    2.95
   1   0  -2  411.47   32.68
   0   0  -2   43.10    2.95
  -1   0  -2   20.47    3.36
  -2   0  -2  275.18   22.46
  -3   0  -2    2.15    1.98
  -4   0  -2    6.91    2.34
  -5   0  -2   54.37    5.90
   5  -1  -2   -0.04    1.82
   4  -1  -2   10.12    2.58
   3  -1  -2  177.66   15.14
   2  -1  -2    5.20    2.21
   1  -1  -2   28.61    3.97
   0  -1  -2  363.52   29.08
  -1  -1  -2    5.32    2.22
  -2  -1  -2   15.91    3.01
  -3  -1  -2  104.45    9.65
  -4  -1  -2   -0.06    1.82
   5  -2  -2   62.65    6.52
   4  -2  -2    0.28    1.84
   3  -2  -2   19.98    3.32
   2  -2  -2  216.70   18.07
   1  -2  -2    3.80    2.10
   0  -2  -2   27.76    3.90
  -1  -2  -2  155.69   13.50
  -2  -2  -2    0.44    1.85
  -3  -2  -2   10.27    2.59
   6  -3  -2    0.18    1.83
   5  -3  -2   11.40    2.68
   4  -3  -2   83.80    8.11
   3  -3  -2   -0.61    2.87
   2  -3  -2   26.13    3.78
   1  -3  -2  137.90   12.16
   0  -3  -2    0.83    1.88
  -1  -3  -2   17.55    3.14
  -2  -3  -2   54.10    5.88
  -3  -3  -2    0.24    1.84
   5  -4  -2    0.48    1.86
   4  -4  -2   16.53    3.06
   3  -4  -2   73.57    7.34
   2  -4  -2    0.79    1.88
   1  -4  -2   21.09    3.40
   0  -4  -2   58.28    6.19
  -1  -4  -2    0.61    1.87
   5  -5  -2   31.75    4.20
   4  -5  -2    0.99    1.89
   3  -5  -2   17.10    3.10
   2  -5  -2   43.01    5.05
   1  -5  -2    1.08    1.90
   0  -5  -2   13.45    2.83
   3  -6  -2    1.37    1.92
  -3   6  -3   12.14    2.73
   0   5  -3   14.21    2.89
  -1   5  -3   12.16    2.73
  -2   5  -3    2.10    1.98
  -3   5  -3   17.56    3.14
  -4   5  -3   12.75    2.78
  -5   5  -3    2.01    1.97
   1   4  -3    9.45    2.53
   0   4  -3    2.14    1.98
  -1   4  -3   25.08    3.70
  -2   4  -3   15.42    2.98
  -3   4  -3    2.85    2.03
  -4   4  -3   20.17    3.33
  -5   4  -3   10.23    2.59
   3   3  -3    6.03    2.27
   2   3  -3    2.21    1.99
   1   3  -3   25.79    3.75
   0   3  -3   13.88    2.86
  -1   3  -3    3.97    2.12
  -2   3  -3   37.50    4.63
  -3   3  -3   14.41    2.90
  -4   3  -3    3.22    2.06
  -5   3  -3   17.43    3.13
  -6   3  -3    6.58    2.31
   3   2  -3   19.07    3.25
   2   2  -3    8.15    2.43
   1   2  -3    4.92    2.19
   0   2  -3   50.50    5.61
  -1   2  -3   16.96    3.09
  -2   2  -3    6.46    2.30
  -3   2  -3   37.43    4.63
  -4   2  -3    8.62    2.47
  -5   2  -3    3.26    2.06
   4   1  -3    4.19    2.13
   3   1  -3    4.89    2.19
   2   1  -3   39.07    4.75
   1   1  -3   11.12    2.65
   0   1  -3   10.92    2.64
  -1   1  -3   71.51    7.18
  -2   1  -3   11.32    2.67
  -3   1  -3    7.21    2.36
  -4   1  -3   25.21    3.71
  -5   1  -3    4.37    2.15
   5   0  -3    4.47    2.16
   4   0  -3   21.89    3.46
   3   0  -3    4.59    2.16
   2   0  -3   12.77    2.78
   1   0  -3   72.55    7.26
   0   0  -3   19.85    2.33
  -1   0  -3   16.28    3.04
  -2   0  -3   51.07    5.65
  -3   0  -3    4.59    2.16
  -4   0  -3    5.94    2.27
  -5   0  -3   14.48    2.91
   5  -1  -3    2.28    1.99
   4  -1  -3    9.27    2.51
   3  -1  -3   38.87    4.74
   2  -1  -3    4.15    2.13
   1  -1  -3   23.56    3.59
   0  -1  -3   73.54    7.34
  -1  -1  -3    3.99    2.12
  -2  -1  -3   13.54    2.84
  -3  -1  -3   26.43    3.80
  -4  -1  -3    2.13    1.98
   5  -2  -3   18.39    3.20
   4  -2  -3    1.94    1.97
   3  -2  -3   18.73    3.22
   2  -2  -3   51.56    5.69
   1  -2  -3    2.49    2.01
   0  -2  -3   24.19    3.63
  -1  -2  -3   40.35    4.85
  -2  -2  -3    1.62    1.94
  -3  -2  -3    8.70    2.47
   6  -3  -3    1.39    1.92
   5  -3  -3   11.70    2.70
   4  -3  -3   25.40    3.72
   3  -3  -3    1.80    1.95
   2  -3  -3   24.34    3.65
   1  -3  -3   40.18    4.83
   0  -3  -3    1.48    1.93
  -1  -3  -3   15.12    2.95
  -2  -3  -3   19.75    3.30
  -3  -3  -3    1.05    1.90
   5  -4  -3    1.35    1.92
   4  -4  -3   16.85    3.08
   3  -4  -3   25.87    3.76
   2  -4  -3    1.62    1.94
   1  -4  -3   19.39    3.27
   0  -4  -3   22.78    3.53
  -1  -4  -3    0.93    1.89
   5  -5  -3   13.85    2.86
   4  -5  -3    1.45    1.93
   3  -5  -3   17.46    3.13
   2  -5  -3   19.11    3.25
   1  -5  -3    1.15    1.91
   0  -5  -3   12.82    2.78
   3  -6  -3    1.25    1.91
  -3   6  -4   11.34    2.67
   0   5  -4   31.48    4.18
  -1   5  -4   13.31    2.82
  -2   5  -4    1.48    1.93
  -3   5  -4   44.56    5.16
  -4   5  -4   12.49    2.76
  -5   5  -4    0.99    1.89
   1   4  -4   11.52    2.68
   0   4  -4    1.29    1.92
  -1   4  -4   72.99    7.29
  -2   4  -4   17.92    3.16
  -3   4  -4    1.36    1.92
  -4   4  -4   60.57    6.36
  -5   4  -4   10.26    2.59
   3   3  -4    7.61    2.39
   2   3  -4    0.70    1.87
   1   3  -4   81.40    7.92
   0   3  -4   18.27    3.19
  -1   3  -4    2.34    2.00
  -2   3  -4  135.97   12.02
  -3   3  -4   17.27    3.12
  -4   3  -4   -0.83    1.88
  -5   3  -4   56.28    6.04
  -6   3  -4    6.64    2.32
   3   2  -4   60.89    6.39
   2   2  -4   11.78    2.70
   1   2  -4    2.25    1.99
   0   2  -4  206.76   17.33
  -1   2  -4   23.60    3.59
  -2   2  -4    3.78    2.10
  -3   2  -4  153.27   13.32
  -4   2  -4   10.82    2.63
  -5   2  -4    0.25    1.84
   4   1  -4    6.03    2.27
   3   1  -4    0.74    1.88
   2   1  -4  169.77   14.55
   1   1  -4   17.57    3.14
   0   1  -4    8.77    2.48
  -1   1  -4  338.61   27.22
  -2   1  -4   17.09    3.10
  -3   1  -4    2.17    1.98
  -4   1  -4  103.23    9.56
  -5   1  -4    5.67    2.24
   5   0  -4    0.08    1.83
   4   0  -4   92.06    8.72
   3   0  -4    7.64    2.39
   2   0  -4    5.21    2.21
   1   0  -4  379.17   30.26
   0   0  -4   41.01    3.10
  -1   0  -4   10.19    2.58
  -2   0  -4  259.88   21.31
  -3   0  -4    7.65    2.39
  -4   0  -4    0.48    1.86
  -5   0  -4   53.70    5.85
   5  -1  -4    3.52    2.08
   4  -1  -4    1.23    1.91
   3  -1  -4  212.05   17.72
   2  -1  -4    8.98    2.49
   1  -1  -4   12.40    2.75
   0  -1  -4  422.95   33.54
  -1  -1  -4    9.29    2.52
  -2  -1  -4    3.70    2.10
  -3  -1  -4  125.77   11.25
  -4  -1  -4    3.78    2.10
   5  -2  -4   93.17    8.81
   4  -2  -4    3.83    2.11
   3  -2  -4    4.97    2.19
   2  -2  -4  321.84   25.96
   1  -2  -4    7.62    2.39
   0  -2  -4    8.57    2.46
  -1  -2  -4  232.55   19.26
  -2  -2  -4    4.24    2.14
  -3  -2  -4    0.76    1.88
   6  -3  -4    2.22    1.99
   5  -3  -4    1.36    1.92
   4  -3  -4  155.46   13.48
   3  -3  -4    4.64    2.17
   2  -3  -4    6.71    2.32
   1  -3  -4  257.64   21.14
   0  -3  -4    4.82    2.18
  -1  -3  -4    2.66    2.02
  -2  -3  -4   99.56    9.29
  -3  -3  -4    2.56    2.01
   5  -4  -4    2.81    2.03
   4  -4  -4    2.83    2.03
   3  -4  -4  169.73   14.55
   2  -4  -4    4.65    2.17
   1  -4  -4    3.79    2.10
   0  -4  -4  133.69   11.85
  -1  -4  -4    2.96    2.04
   5  -5  -4   85.76    8.25
   4  -5  -4    3.49    2.08
   3  -5  -4    2.78    2.03
   2  -5  -4  120.29   10.84
   1  -5  -4    3.44    2.08
   0  -5  -4    1.36    1.92
   3  -6  -4    3.21    2.06
   0   5  -5    1.88    1.96
  -1   5  -5  178.72   15.22
  -2   5  -5    4.57    2.16
  -3   5  -5    2.65    2.02
  -4   5  -5  181.55   15.44
  -5   5  -5    3.05    2.05
   1   4  -5  187.73   15.90
   0   4  -5    3.37    2.07
  -1   4  -5    4.95    2.19
  -2   4  -5  365.76   29.25
  -3   4  -5    3.81    2.11
  -4   4  -5    3.45    2.08
  -5   4  -5  192.48   16.26
   2   3  -5    1.50    1.93
   1   3  -5    5.20    2.21
   0   3  -5  496.07   39.03
  -1   3  -5    3.66    2.09
  -2   3  -5    9.89    2.56
  -3   3  -5  500.84   39.38
  -4   3  -5    1.94    1.97
  -5   3  -5    2.78    2.03
   3   2  -5    3.13    2.05
   2   2  -5  402.77   32.03
   1   2  -5    2.20    1.99
   0   2  -5   15.69    3.00
  -1   2  -5  972.12   74.73
  -2   2  -5    3.62    2.09
  -3   2  -5   10.28    2.59
  -4   2  -5  407.91   32.41
  -5   2  -5    0.49    1.86
   4   1  -5  219.15   18.26
   3   1  -5    0.68    1.87
   2   1  -5   10.91    2.64
   1   1  -5 1018.61   78.22
   0   1  -5    7.22    2.36
  -1   1  -5   25.05    3.70
  -2   1  -5 1021.89   78.46
  -3   1  -5    2.25    1.99
  -4   1  -5    5.49    2.23
  -5   1  -5  221.21   18.41
   5   0  -5    0.07    1.83
   4   0  -5    4.36    2.15
   3   0  -5  575.52   44.98
   2   0  -5    5.84    2.26
   1   0  -5   26.18    3.78
   0   0  -5 1648.36  125.45
  -1   0  -5   10.85    2.63
  -2   0  -5   17.04    3.10
  -3   0  -5  575.52   44.98
  -4   0  -5   -0.67    1.87
  -5   0  -5    2.10    1.98
   5  -1  -5  241.12   19.90
   4  -1  -5    2.49    2.01
   3  -1  -5   11.97    2.72
   2  -1  -5 1117.12   85.60
   1  -1  -5   17.02    3.10
   0  -1  -5   27.32    3.87
  -1  -1  -5 1113.49   85.33
  -2  -1  -5    5.68    2.25
  -3  -1  -5    6.06    2.27
  -4  -1  -5  238.85   19.73
   5  -2  -5    3.77    2.10
   4  -2  -5  486.54   38.31
   3  -2  -5    9.80    2.56
   2  -2  -5   18.62    3.22
   1  -2  -5 1161.72   88.95
   0  -2  -5   14.48    2.91
  -1  -2  -5   12.36    2.75
  -2  -2  -5  480.25   37.84
  -3  -2  -5    1.75    1.95
   5  -3  -5    3.72    2.10
   4  -3  -5    6.85    2.33
   3  -3  -5  653.18   50.81
   2  -3  -5   14.19    2.88
   1  -3  -5   12.92    2.79
   0  -3  -5  646.74   50.33
  -1  -3  -5    6.19    2.28
  -2  -3  -5    3.72    2.10
   5  -4  -5  271.78   22.20
   4  -4  -5    7.41    2.38
   3  -4  -5    7.06    2.35
   2  -4  -5  520.18   40.83
   1  -4  -5    9.32    2.52
   0  -4  -5    5.03    2.20
  -1  -4  -5  264.78   21.68
   5  -5  -5    2.71    2.02
   4  -5  -5  279.34   22.77
   3  -5  -5    7.24    2.36
   2  -5  -5    4.07    2.13
   1  -5  -5  274.76   22.43
   0  -5  -5    3.64    2.09
   0   5  -6    2.64    2.02
  -1   5  -6    5.93    2.26
  -2   5  -6  443.37   35.07
  -3   5  -6    4.58    2.16
  -4   5  -6    6.19    2.28
  -5   5  -6  296.55   24.06
   1   4  -6    5.47    2.23
   0   4  -6  559.96   43.82
  -1   4  -6    7.92    2.41
  -2   4  -6   11.93    2.71
  -3   4  -6  722.27   55.99
  -4   4  -6    6.37    2.30
  -5   4  -6    5.92    2.26
   2   3  -6  448.75   35.48
   1   3  -6    8.48    2.46
   0   3  -6   14.46    2.90
  -1   3  -6 1254.57   95.91
  -2   3  -6   15.50    2.98
  -3   3  -6   14.91    2.94
  -4   3  -6  730.77   56.63
  -5   3  -6    5.46    2.23
   3   2  -6    5.63    2.24
   2   2  -6    9.84    2.56
   1   2  -6 1259.57   96.29
   0   2  -6   23.38    3.57
  -1   2  -6   25.88    3.76
  -2   2  -6 1742.21  132.49
  -3   2  -6   17.31    3.12
  -4   2  -6   10.31    2.59
  -5   2  -6  459.14   36.26
   4   1  -6    4.15    2.13
   3   1  -6  730.90   56.64
   2   1  -6   18.78    3.23
   1   1  -6   23.08    3.55
   0   1  -6 2553.16  193.31
  -1   1  -6   38.33    4.69
  -2   1  -6   23.35    3.57
  -3   1  -6 1271.88   97.21
  -4   1  -6   10.93    2.64
  -5   1  -6    4.32    2.14
   5   0  -6  302.18   24.48
   4   0  -6    9.30    2.52
   3   0  -6   10.67    2.62
   2   0  -6 1748.62  132.97
   1   0  -6   42.55    5.01
   0   0  -6   30.57    4.11
  -1   0  -6 2558.33  193.69
  -2   0  -6   29.16    4.01
  -3   0  -6   10.67    2.62
  -4   0  -6  575.55   44.99
  -5   0  -6    4.59    2.16
   5  -1  -6    3.33    2.07
   4  -1  -6  736.23   57.04
   3  -1  -6   23.43    3.58
   2  -1  -6   18.20    3.19
   1  -1  -6 2557.58  193.64
   0  -1  -6   46.91    5.34
  -1  -1  -6   17.97    3.17
  -2  -1  -6 1267.34   96.87
  -3  -1  -6   13.07    2.80
  -4  -1  -6    3.19    2.06
   5  -2  -6    9.11    2.50
   4  -2  -6    6.41    2.30
   3  -2  -6 1271.00   97.15
   2  -2  -6   35.37    4.47
   1  -2  -6   15.92    3.01
   0  -2  -6 1738.95  132.24
  -1  -2  -6   25.04    3.70
  -2  -2  -6    6.07    2.28
  -3  -2  -6  453.32   35.82
   5  -3  -6  458.63   36.22
   4  -3  -6   15.97    3.02
   3  -3  -6    7.60    2.39
   2  -3  -6 1261.45   96.43
   1  -3  -6   27.22    3.86
   0  -3  -6    7.32    2.37
  -1  -3  -6  722.92   56.04
  -2  -3  -6    9.28    2.52
   5  -4  -6    2.46    2.00
   4  -4  -6  570.33   44.59
   3  -4  -6   16.79    3.08
   2  -4  -6    5.21    2.21
   1  -4  -6  719.73   55.80
   0  -4  -6   12.65    2.77
  -1  -4  -6    2.26    1.99
   5  -5  -6    7.17    2.36
   4  -5  -6    2.38    2.00
   3  -5  -6  447.37   35.37
   2  -5  -6   10.67    2.62
   1  -5  -6    2.30    1.99
   0  -5  -6  290.85   23.63
   0   5  -7  202.73   17.03
  -1   5  -7    4.90    2.19
  -2   5  -7    4.32    2.14
  -3   5  -7  303.20   24.56
  -4   5  -7    5.26    2.21
  -5   5  -7    2.83    2.03
   1   4  -7    4.66    2.17
   0   4  -7    3.67    2.10
  -1   4  -7  450.96   35.64
  -2   4  -7   10.19    2.58
  -3   4  -7    5.73    2.25
  -4   4  -7  364.75   29.18
  -5   4  -7    5.15    2.21
   2   3  -7    1.47    1.93
   1   3  -7  433.92   34.36
   0   3  -7   12.73    2.77
  -1   3  -7    6.87    2.34
  -2   3  -7  728.31   56.44
  -3   3  -7   13.11    2.80
  -4   3  -7    3.74    2.10
  -5   3  -7  286.25   23.29
   3   2  -7  270.42   22.10
   2   2  -7    9.01    2.50
   1   2  -7    3.72    2.10
   0   2  -7  938.91   72.24
  -1   2  -7   24.18    3.63
  -2   2  -7    6.23    2.29
  -3   2  -7  703.33   54.57
  -4   2  -7    9.31    2.52
  -5   2  -7    0.94    1.89
   4   1  -7    4.07    2.13
   3   1  -7    0.60    1.86
   2   1  -7  670.81   52.13
   1   1  -7   22.72    3.52
   0   1  -7    5.08    2.20
  -1   1  -7 1279.43   97.78
  -2   1  -7   22.83    3.53
  -3   1  -7    1.90    1.96
  -4   1  -7  406.46   32.30
  -5   1  -7    4.16    2.13
   5   0  -7    0.02    1.82
   4   0  -7  309.99   25.07
   3   0  -7   10.57    2.61
   2   0  -7    1.16    1.91
   1   0  -7 1224.73   93.67
   0   0  -7   32.11    4.23
  -1   0  -7    2.24    1.99
  -2   0  -7  865.72   66.75
  -3   0  -7   10.57    2.61
  -4   0  -7    0.04    1.82
  -5   0  -7  171.24   14.66
   5  -1  -7    3.48    2.08
   4  -1  -7   -0.20    1.83
   3  -1  -7  617.40   48.12
   2  -1  -7   19.71    3.30
   1  -1  -7    1.41    1.93
   0  -1  -7 1169.24   89.51
  -1  -1  -7   19.71    3.30
  -2  -1  -7    0.47    1.86
  -3  -1  -7  369.53   29.53
  -4  -1  -7    3.45    2.08
   5  -2  -7  231.24   19.16
   4  -2  -7    6.50    2.31
   3  -2  -7    1.39    1.92
   2  -2  -7  789.81   61.06
   1  -2  -7   18.10    3.18
   0  -2  -7    1.98    1.97
  -1  -2  -7  584.26   45.64
  -2  -2  -7    6.56    2.31
  -3  -2  -7    0.90    1.89
   5  -3  -7    1.62    1.94
   4  -3  -7  338.96   27.24
   3  -3  -7    7.83    2.41
   2  -3  -7    3.59    2.09
   1  -3  -7  556.81   43.58
   0  -3  -7    7.98    2.42
  -1  -3  -7    2.63    2.02
  -2  -3  -7  215.71   18.00
   5  -4  -7    2.33    1.99
   4  -4  -7    3.63    2.09
   3  -4  -7  320.25   25.84
   2  -4  -7    5.15    2.21
   1  -4  -7    4.77    2.18
   0  -4  -7  252.80   20.78
  -1  -4  -7    2.52    2.01
   5  -5  -7  135.75   12.00
   4  -5  -7    2.00    1.97
   3  -5  -7    5.24    2.21
   2  -5  -7  195.37   16.47
   1  -5  -7    2.16    1.98
   0  -5  -7    4.33    2.14
  -1   5  -8   89.06    8.50
  -2   5  -8    4.28    2.14
  -3   5  -8    3.88    2.11
  -4   5  -8   91.08    8.65
   1   4  -8   80.65    7.87
   0   4  -8    4.12    2.13
  -1   4  -8    4.65    2.17
  -2   4  -8  146.93   12.84
  -3   4  -8    6.03    2.27
  -4   4  -8    3.92    2.11
  -5   4  -8   83.58    8.09
   2   3  -8    2.12    1.98
   1   3  -8    4.83    2.18
   0   3  -8  165.95   14.27
  -1   3  -8    8.78    2.48
  -2   3  -8    6.06    2.27
  -3   3  -8  168.29   14.44
  -4   3  -8    4.49    2.16
  -5   3  -8    3.58    2.09
   3   2  -8    4.63    2.17
   2   2  -8  118.52   10.71
   1   2  -8    6.25    2.29
   0   2  -8    8.41    2.45
  -1   2  -8  258.57   21.21
  -2   2  -8    9.88    2.56
  -3   2  -8    6.62    2.32
  -4   2  -8  120.74   10.88
  -5   2  -8    1.60    1.94
   4   1  -8   60.41    6.35
   3   1  -8    1.82    1.96
   2   1  -8    8.74    2.48
   1   1  -8  230.33   19.09
   0   1  -8   11.39    2.67
  -1   1  -8   13.04    2.80
  -2   1  -8  231.43   19.18
  -3   1  -8    4.35    2.15
  -4   1  -8    6.29    2.29
  -5   1  -8   61.23    6.41
   4   0  -8    7.26    2.36
   3   0  -8  119.94   10.82
   2   0  -8    4.50    2.16
   1   0  -8   17.42    3.13
   0   0  -8  286.70   23.32
  -1   0  -8    7.83    2.41
  -2   0  -8   13.59    2.84
  -3   0  -8  119.94   10.82
  -4   0  -8    0.65    1.87
   5  -1  -8   49.21    5.51
   4  -1  -8    0.45    1.85
   3  -1  -8   14.16    2.88
   2  -1  -8  181.90   15.46
   1  -1  -8    5.01    2.20
   0  -1  -8   23.29    3.57
  -1  -1  -8  181.01   15.40
  -2  -1  -8    1.46    1.93
  -3  -1  -8   10.59    2.61
  -4  -1  -8   48.54    5.46
   5  -2  -8    9.39    2.52
   4  -2  -8   76.17    7.53
   3  -2  -8    0.62    1.87
   2  -2  -8   22.77    3.53
   1  -2  -8  159.68   13.80
   0  -2  -8    1.42    1.93
  -1  -2  -8   18.87    3.24
  -2  -2  -8   74.68    7.42
  -3  -2  -8    0.01    1.82
   5  -3  -8    0.04    1.82
   4  -3  -8   15.22    2.96
   3  -3  -8   83.37    8.07
   2  -3  -8    0.23    1.84
   1  -3  -8   23.18    3.56
   0  -3  -8   82.08    7.98
  -1  -3  -8    0.07    1.83
  -2  -3  -8   12.37    2.75
   5  -4  -8   34.95    4.44
   4  -4  -8    0.21    1.84
   3  -4  -8   18.67    3.22
   2  -4  -8   58.38    6.20
   1  -4  -8    0.23    1.84
   0  -4  -8   16.70    3.07
  -1  -4  -8   33.56    4.34
   4  -5  -8   30.62    4.12
   3  -5  -8    0.62    1.87
   2  -5  -8   16.38    3.05
   1  -5  -8   29.81    4.06
  -1   5  -9   13.46    2.83
  -2   5  -9    8.27    2.44
  -3   5  -9    2.91    2.04
  -4   5  -9   12.73    2.78
   1   4  -9   13.96    2.87
   0   4  -9    6.72    2.32
  -1   4  -9    3.49    2.08
  -2   4  -9   19.81    3.31
  -3   4  -9    7.80    2.40
  -4   4  -9    3.46    2.08
  -5   4  -9   12.74    2.78
   2   3  -9    4.48    2.16
   1   3  -9    3.72    2.10
   0   3  -9   24.30    3.64
  -1   3  -9    6.95    2.34
  -2   3  -9    5.30    2.22
  -3   3  -9   23.32    3.57
  -4   3  -9    5.61    2.24
  -5   3  -9    3.52    2.08
   3   2  -9    3.72    2.10
   2   2  -9   21.28    3.42
   1   2  -9    4.35    2.15
   0   2  -9    7.27    2.37
  -1   2  -9   36.49    4.56
  -2   2  -9    5.30    2.22
  -3   2  -9    6.37    2.30
  -4   2  -9   20.19    3.33
  -5   2  -9    3.42    2.08
   4   1  -9   14.37    2.90
   3   1  -9    2.25    1.99
   2   1  -9    7.65    2.39
   1   1  -9   37.69    4.65
   0   1  -9    3.47    2.08
  -1   1  -9   11.82    2.71
  -2   1  -9   37.14    4.61
  -3   1  -9    2.59    2.01
  -4   1  -9    5.97    2.27
  -5   1  -9   13.88    2.86
   4   0  -9    6.58    2.31
   3   0  -9   25.43    3.73
   2   0  -9    1.30    1.92
   1   0  -9   15.57    2.99
   0   0  -9   50.10    5.58
  -1   0  -9    1.44    1.93
  -2   0  -9   12.25    2.74
  -3   0  -9   25.43    3.73
  -4   0  -9    1.36    1.92
   5  -1  -9   14.22    2.89
   4  -1  -9    0.69    1.87
   3  -1  -9   13.08    2.80
   2  -1  -9   38.87    4.74
   1  -1  -9    0.37    1.85
   0  -1  -9   20.50    3.36
  -1  -1  -9   39.41    4.78
  -2  -1  -9    0.45    1.85
  -3  -1  -9    9.23    2.51
  -4  -1  -9   14.70    2.92
   5  -2  -9    9.35    2.52
   4  -2  -9   21.59    3.44
   3  -2  -9    0.26    1.84
   2  -2  -9   20.76    3.38
   1  -2  -9   39.93    4.81
   0  -2  -9    0.17    1.83
  -1  -2  -9   16.28    3.04
  -2  -2  -9   22.64    3.52
  -3  -2  -9    0.43    1.85
   5  -3  -9    0.43    1.85
   4  -3  -9   14.94    2.94
   3  -3  -9   26.06    3.77
   2  -3  -9    0.44    1.85
   1  -3  -9   20.73    3.38
   0  -3  -9   26.98    3.84
  -1  -3  -9   -0.22    1.84
  -2  -3  -9   10.79    2.63
   5  -4  -9   14.05    2.87
   4  -4  -9    0.52    1.86
   3  -4  -9   18.11    3.18
   2  -4  -9   22.50    3.51
   1  -4  -9    0.50    1.86
   0  -4  -9   15.05    2.95
  -1  -4  -9   15.18    2.96
   4  -5  -9   14.31    2.89
   3  -5  -9    0.64    1.87
   2  -5  -9   16.06    3.02
   1  -5  -9   14.97    2.94
  -1   5 -10   31.64    4.19
  -2   5 -10    9.84    2.56
  -3   5 -10    1.35    1.92
  -4   5 -10   32.40    4.25
   1   4 -10   34.75    4.43
   0   4 -10    9.70    2.55
  -1   4 -10    1.67    1.94
  -2   4 -10   58.43    6.20
  -3   4 -10   10.48    2.61
  -4   4 -10    1.12    1.90
  -5   4 -10   36.04    4.52
   2   3 -10    7.21    2.36
   1   3 -10    1.36    1.92
   0   3 -10   78.87    7.74
  -1   3 -10   12.08    2.73
  -2   3 -10    2.24    1.99
  -3   3 -10   80.00    7.82
  -4   3 -10    8.28    2.44
  -5   3 -10    0.60    1.86
   3   2 -10    0.59    1.86
   2   2 -10   71.26    7.16
   1   2 -10    9.48    2.53
   0   2 -10    3.14    2.06
  -1   2 -10  143.29   12.57
  -2   2 -10   10.98    2.64
  -3   2 -10    1.84    1.96
  -4   2 -10   72.57    7.26
  -5   2 -10    5.25    2.21
   4   1 -10   47.01    5.35
   3   1 -10    5.48    2.23
   2   1 -10    1.88    1.96
   1   1 -10  158.95   13.74
   0   1 -10   10.35    2.60
  -1   1 -10    4.88    2.19
  -2   1 -10  159.69   13.80
  -3   1 -10    6.73    2.32
  -4   1 -10    0.72    1.87
  -5   1 -10   47.61    5.39
   4   0 -10    0.46    1.85
   3   0 -10  107.97    9.92
   2   0 -10    5.96    2.27
   1   0 -10    5.14    2.21
   0   0 -10  238.32   19.69
  -1   0 -10    7.36    2.37
  -2   0 -10    3.01    2.05
  -3   0 -10  107.97    9.92
  -4   0 -10    3.78    2.10
   5  -1 -10   57.18    6.11
   4  -1 -10    3.12    2.05
   3  -1 -10    1.99    1.97
   2  -1 -10  195.69   16.50
   1  -1 -10    5.49    2.23
   0  -1 -10    5.70    2.25
  -1  -1 -10  194.81   16.43
  -2  -1 -10    4.00    2.12
  -3  -1 -10    0.83    1.88
  -4  -1 -10   56.47    6.06
   5  -2 -10    0.42    1.85
   4  -2 -10  106.79    9.83
   3  -2 -10    3.30    2.07
   2  -2 -10    3.92    2.11
   1  -2 -10  215.17   17.96
   0  -2 -10    4.04    2.12
  -1  -2 -10    2.47    2.01
  -2  -2 -10  104.95    9.69
  -3  -2 -10    2.54    2.01
   5  -3 -10    2.17    1.98
   4  -3 -10    1.36    1.92
   3  -3 -10  144.25   12.64
   2  -3 -10    3.63    2.09
   1  -3 -10    3.07    2.05
   0  -3 -10  142.34   12.50
  -1  -3 -10    2.81    2.03
  -2  -3 -10    0.61    1.87
   5  -4 -10   74.71    7.42
   4  -4 -10    2.77    2.03
   3  -4 -10    1.88    1.96
   2  -4 -10  126.43   11.30
   1  -4 -10    3.22    2.06
   0  -4 -10    1.25    1.91
  -1  -4 -10   72.24    7.24
   4  -5 -10   80.48    7.86
   3  -5 -10    3.01    2.05
   2  -5 -10    1.30    1.92
   1  -5 -10   78.79    7.73
  -1   5 -11    1.49    1.93
  -2   5 -11  141.09   12.40
  -3   5 -11    2.92    2.04
  -4   5 -11    1.28    1.92
   1   4 -11    1.49    1.93
   0   4 -11  178.26   15.19
  -1   4 -11    2.41    2.00
  -2   4 -11    2.74    2.03
  -3   4 -11  220.28   18.34
  -4   4 -11    1.87    1.96
  -5   4 -11    1.22    1.91
   2   3 -11  154.89   13.44
   1   3 -11    1.23    1.91
   0   3 -11    3.67    2.10
  -1   3 -11  359.82   28.81
  -2   3 -11    1.78    1.95
  -3   3 -11    3.48    2.08
  -4   3 -11  232.52   19.26
  -5   3 -11    0.75    1.88
   3   2 -11    0.35    1.85
   2   2 -11    2.79    2.03
   1   2 -11  376.90   30.09
   0   2 -11    1.49    1.93
  -1   2 -11    6.97    2.34
  -2   2 -11  488.36   38.45
  -3   2 -11    0.97    1.89
  -4   2 -11    2.64    2.02
  -5   2 -11  165.42   14.23
   4   1 -11    1.35    1.92
   3   1 -11  252.59   20.76
   2   1 -11    0.88    1.89
   1   1 -11    7.11    2.35
   0   1 -11  675.79   52.50
  -1   1 -11    2.86    2.03
  -2   1 -11    7.07    2.35
  -3   1 -11  397.53   31.63
  -4   1 -11    0.28    1.84
  -5   1 -11    1.31    1.92
   4   0 -11    0.29    1.84
   3   0 -11    3.71    2.10
   2   0 -11  533.95   41.87
   1   0 -11    4.57    2.16
   0   0 -11   10.85    2.63
  -1   0 -11  707.02   54.85
  -2   0 -11    2.73    2.03
  -3   0 -11    3.71    2.10
  -4   0 -11  216.50   18.06
   5  -1 -11    1.36    1.92
   4  -1 -11  276.93   22.59
   3  -1 -11    3.16    2.06
   2  -1 -11    7.47    2.38
   1  -1 -11  737.93   57.16
   0  -1 -11    7.50    2.38
  -1  -1 -11    7.45    2.38
  -2  -1 -11  431.01   34.15
  -3  -1 -11    1.20    1.91
  -4  -1 -11    1.36    1.92
   5  -2 -11    1.30    1.92
   4  -2 -11    2.98    2.04
   3  -2 -11  451.48   35.68
   2  -2 -11    7.83    2.41
   1  -2 -11    7.69    2.40
   0  -2 -11  578.22   45.19
  -1  -2 -11    4.96    2.19
  -2  -2 -11    2.89    2.04
  -3  -2 -11  192.18   16.23
   5  -3 -11  203.07   17.05
   4  -3 -11    4.26    2.14
   3  -3 -11    4.10    2.13
   2  -3 -11  467.32   36.87
   1  -3 -11    7.79    2.40
   0  -3 -11    3.97    2.12
  -1  -3 -11  295.20   23.96
  -2  -3 -11    1.85    1.96
   5  -4 -11    1.53    1.93
   4  -4 -11  253.58   20.84
   3  -4 -11    6.05    2.27
   2  -4 -11    3.10    2.05
   1  -4 -11  306.59   24.81
   0  -4 -11    4.05    2.12
  -1  -4 -11    1.35    1.92
   4  -5 -11    1.52    1.93
   3  -5 -11  214.85   17.93
   2  -5 -11    4.50    2.16
   1  -5 -11    1.38    1.92
  -2   5 -12    2.63    2.02
  -3   5 -12  283.94   23.12
   0   4 -12    2.92    2.04
  -1   4 -12  431.99   34.22
  -2   4 -12    5.07    2.20
  -3   4 -12    3.86    2.11
  -4   4 -12  352.83   28.28
   2   3 -12    2.04    1.97
   1   3 -12  434.40   34.40
   0   3 -12    6.97    2.34
  -1   3 -12    5.53    2.23
  -2   3 -12  700.14   54.33
  -3   3 -12    7.22    2.36
  -4   3 -12    3.51    2.08
  -5   3 -12  291.51   23.68
   3   2 -12  288.53   23.46
   2   2 -12    6.00    2.27
   1   2 -12    4.77    2.18
   0   2 -12  912.21   70.24
  -1   2 -12   13.38    2.82
  -2   2 -12    6.49    2.31
  -3   2 -12  706.23   54.79
  -4   2 -12    6.30    2.29
  -5   2 -12    1.94    1.97
   3   1 -12    2.46    2.00
   2   1 -12  705.09   54.70
   1   1 -12   14.78    2.93
   0   1 -12    7.43    2.38
  -1   1 -12 1219.88   93.31
  -2   1 -12   14.95    2.94
  -3   1 -12    4.23    2.14
  -4   1 -12  443.23   35.06
   4   0 -12  357.55   28.64
   3   0 -12    9.77    2.55
   2   0 -12    4.61    2.17
   1   0 -12 1221.61   93.44
   0   0 -12   22.20    3.49
  -1   0 -12    6.25    2.29
  -2   0 -12  919.36   70.77
  -3   0 -12    9.77    2.55
  -4   0 -12    1.64    1.94
   4  -1 -12    1.76    1.95
   3  -1 -12  709.25   55.01
   2  -1 -12   18.28    3.19
   1  -1 -12    5.19    2.21
   0  -1 -12 1220.55   93.36
  -1  -1 -12   18.09    3.18
  -2  -1 -12    2.84    2.03
  -3  -1 -12  441.03   34.90
   5  -2 -12  293.24   23.81
   4  -2 -12    9.53    2.53
   3  -2 -12    2.47    2.01
   2  -2 -12  918.15   70.68
   1  -2 -12   19.85    3.31
   0  -2 -12    3.16    2.06
  -1  -2 -12  703.22   54.56
  -2  -2 -12    9.15    2.51
  -3  -2 -12    0.83    1.88
   5  -3 -12    0.79    1.88
   4  -3 -12  441.95   34.97
   3  -3 -12   12.93    2.79
   2  -3 -12    2.12    1.98
   1  -3 -12  701.28   54.42
   0  -3 -12   12.58    2.76
  -1  -3 -12    1.21    1.91
  -2  -3 -12  286.90   23.34
   4  -4 -12    0.95    1.89
   3  -4 -12  437.32   34.62
   2  -4 -12   10.77    2.63
   1  -4 -12    1.21    1.91
   0  -4 -12  349.32   28.02
   3  -5 -12    0.84    1.88
   2  -5 -12  284.02   23.12
   0   4 -13    4.29    2.14
  -1   4 -13    1.98    1.97
  -2   4 -13  298.89   24.24
  -3   4 -13    5.60    2.24
  -4   4 -13    1.71    1.95
   1   3 -13    1.02    1.90
   0   3 -13  355.96   28.52
  -1   3 -13    8.35    2.45
  -2   3 -13    2.23    1.99
  -3   3 -13  359.39   28.77
  -4   3 -13    5.41    2.23
   2   2 -13  277.06   22.60
   1   2 -13    7.83    2.41
   0   2 -13    1.36    1.92
  -1   2 -13  553.90   43.36
  -2   2 -13   10.36    2.60
  -3   2 -13    1.07    1.90
  -4   2 -13  280.58   22.86
   3   1 -13    4.59    2.16
   2   1 -13    0.23    1.84
   1   1 -13  531.84   41.71
   0   1 -13   12.89    2.79
  -1   1 -13   -0.62    1.87
  -2   1 -13  533.54   41.84
  -3   1 -13    7.42    2.38
  -4   1 -13    0.15    1.83
   4   0 -13    0.17    1.83
   3   0 -13  318.36   25.70
   2   0 -13    8.85    2.48
   1   0 -13    0.01    1.82
   0   0 -13  667.87   51.91
  -1   0 -13   11.91    2.71
  -2   0 -13    0.02    1.82
  -3   0 -13  318.36   25.70
  -4   0 -13    3.44    2.08
   4  -1 -13    3.87    2.11
   3  -1 -13    0.36    1.85
   2  -1 -13  489.59   38.54
   1  -1 -13   10.87    2.64
   0  -1 -13    0.36    1.85
  -1  -1 -13  488.04   38.42
  -2  -1 -13    6.14    2.28
  -3  -1 -13    0.50    1.86
   4  -2 -13  236.67   19.57
   3  -2 -13    5.49    2.23
   2  -2 -13    1.43    1.93
   1  -2 -13  466.41   36.80
   0  -2 -13    7.21    2.36
  -1  -2 -13    1.44    1.93
  -2  -2 -13  233.72   19.35
   4  -3 -13    2.11    1.98
   3  -3 -13  278.14   22.68
   2  -3 -13    4.82    2.18
   1  -3 -13    2.97    2.04
   0  -3 -13  275.50   22.48
  -1  -3 -13    3.03    2.05
   4  -4 -13    2.04    1.97
   3  -4 -13    3.71    2.10
   2  -4 -13  212.68   17.77
   1  -4 -13    2.60    2.02
   0  -4 -13    3.61    2.09
   0   4 -14   68.73    6.97
  -1   4 -14    3.87    2.11
  -2   4 -14    4.10    2.13
  -3   4 -14   82.90    8.04
  -4   4 -14    3.18    2.06
   1   3 -14    2.82    2.03
   0   3 -14    4.97    2.19
  -1   3 -14  108.21    9.94
  -2   3 -14    5.37    2.22
  -3   3 -14    4.70    2.17
  -4   3 -14   75.47    7.48
   2   2 -14    5.36    2.22
   1   2 -14   96.89    9.09
   0   2 -14    5.39    2.22
  -1   2 -14    6.94    2.34
  -2   2 -14  120.61   10.87
  -3   2 -14    3.95    2.12
  -4   2 -14    4.96    2.19
   3   1 -14   60.14    6.33
   2   1 -14    2.60    2.02
   1   1 -14    8.69    2.47
   0   1 -14  135.01   11.95
  -1   1 -14    5.58    2.24
  -2   1 -14    8.49    2.46
  -3   1 -14   87.57    8.39
  -4   1 -14    1.39    1.92
   4   0 -14    0.56    1.86
   3   0 -14    8.37    2.45
   2   0 -14   95.48    8.98
   1   0 -14    3.70    2.10
   0   0 -14   12.74    2.78
  -1   0 -14  119.90   10.81
  -2   0 -14    2.43    2.00
  -3   0 -14    8.37    2.45
  -4   0 -14   45.96    5.27
   4  -1 -14   48.41    5.45
   3  -1 -14    0.89    1.89
   2  -1 -14   13.48    2.83
   1  -1 -14  105.94    9.77
   0  -1 -14    2.20    1.99
  -1  -1 -14   13.74    2.85
  -2  -1 -14   68.60    6.97
  -3  -1 -14    0.36    1.85
   4  -2 -14   10.60    2.61
   3  -2 -14   61.17    6.41
   2  -2 -14    0.62    1.87
   1  -2 -14   16.86    3.08
   0  -2 -14   74.10    7.38
  -1  -2 -14    0.33    1.85
  -2  -2 -14   11.24    2.66
   4  -3 -14    0.03    1.82
   3  -3 -14   14.54    2.91
   2  -3 -14   53.49    5.83
   1  -3 -14    0.06    1.82
   0  -3 -14   15.14    2.96
  -1  -3 -14   37.21    4.61
   4  -4 -14   28.82    3.98
   3  -4 -14    0.08    1.83
   2  -4 -14   15.10    2.95
   1  -4 -14   32.89    4.29
   0  -4 -14    0.09    1.83
  -1   4 -15    3.66    2.09
  -2   4 -15    3.47    2.08
  -3   4 -15   12.42    2.75
   1   3 -15    2.47    2.01
   0   3 -15    4.00    2.12
  -1   3 -15   16.55    3.06
  -2   3 -15    2.60    2.01
  -3   3 -15    4.26    2.14
  -4   3 -15   12.58    2.76
   2   2 -15    4.16    2.13
   1   2 -15   17.25    3.11
   0   2 -15    1.44    1.93
  -1   2 -15    5.88    2.26
  -2   2 -15   19.31    3.27
  -3   2 -15    1.51    1.93
  -4   2 -15    4.46    2.15
   3   1 -15   13.79    2.85
   2   1 -15    0.71    1.87
   1   1 -15    6.95    2.34
   0   1 -15   23.61    3.59
  -1   1 -15    0.58    1.86
  -2   1 -15    7.08    2.35
  -3   1 -15   17.26    3.11
  -4   1 -15    0.94    1.89
   3   0 -15    6.82    2.33
   2   0 -15   20.66    3.37
   1   0 -15    0.15    1.83
   0   0 -15   10.02    2.57
  -1   0 -15   24.30    3.64
  -2   0 -15    0.17    1.83
  -3   0 -15    6.82    2.33
   4  -1 -15   13.92    2.86
   3  -1 -15    0.02    1.82
   2  -1 -15   10.81    2.63
   1  -1 -15   24.93    3.69
   0  -1 -15    0.11    1.83
  -1  -1 -15   10.67    2.62
  -2  -1 -15   18.43    3.20
  -3  -1 -15    0.14    1.83
   4  -2 -15    9.33    2.52
   3  -2 -15   18.30    3.19
   2  -2 -15    0.16    1.83
   1  -2 -15   13.34    2.82
   0  -2 -15   21.77    3.45
  -1  -2 -15    0.05    1.82
  -2  -2 -15    8.96    2.49
   4  -3 -15    0.06    1.82
   3  -3 -15   12.60    2.76
   2  -3 -15   18.75    3.23
   1  -3 -15    0.27    1.84
   0  -3 -15   12.24    2.74
  -1  -3 -15   14.75    2.93
   3  -4 -15    0.22    1.84
   2  -4 -15   13.22    2.81
   1  -4 -15   14.68    2.92
  -1   4 -16    6.28    2.29
  -2   4 -16    1.29    1.92
  -3   4 -16   34.34    4.40
   1   3 -16    5.35    2.22
   0   3 -16    1.49    1.93
  -1   3 -16   51.18    5.66
  -2   3 -16    6.11    2.28
  -3   3 -16    1.33    1.92
  -4   3 -16   37.87    4.66
   2   2 -16    0.98    1.89
   1   2 -16   56.08    6.03
   0   2 -16    5.48    2.23
  -1   2 -16    2.32    1.99
  -2   2 -16   67.65    6.89
  -3   2 -16    4.77    2.18
  -4   2 -16    0.82    1.88
   3   1 -16   44.70    5.17
   2   1 -16    3.94    2.12
   1   1 -16    2.19    1.98
   0   1 -16   90.38    8.60
  -1   1 -16    4.54    2.16
  -2   1 -16    2.11    1.98
  -3   1 -16   62.15    6.48
  -4   1 -16    3.32    2.07
   3   0 -16    0.98    1.89
   2   0 -16   81.40    7.93
   1   0 -16    3.48    2.08
   0   0 -16    3.01    2.05
  -1   0 -16   99.42    9.28
  -2   0 -16    3.23    2.06
  -3   0 -16    0.98    1.89
   4  -1 -16   53.70    5.85
   3  -1 -16    2.46    2.00
   2  -1 -16    2.01    1.97
   1  -1 -16  109.11   10.00
   0  -1 -16    2.86    2.03
  -1  -1 -16    2.06    1.97
  -2  -1 -16   73.90    7.36
  -3  -1 -16    2.36    2.00
   4  -2 -16    0.65    1.87
   3  -2 -16   81.35    7.92
   2  -2 -16    2.44    2.00
   1  -2 -16    2.11    1.98
   0  -2 -16   97.08    9.10
  -1  -2 -16    2.33    2.00
  -2  -2 -16    0.71    1.87
   4  -3 -16    1.96    1.97
   3  -3 -16    1.08    1.90
   2  -3 -16   88.20    8.44
   1  -3 -16    2.42    2.00
   0  -3 -16    1.11    1.90
  -1  -3 -16   62.41    6.50
   3  -4 -16    2.23    1.99
   2  -4 -16    0.91    1.89
   1  -4 -16   67.87    6.91
   0   3 -17    0.76    1.88
  -1   3 -17    1.54    1.94
  -2   3 -17  177.91   15.16
  -3   3 -17    0.67    1.87
   1   2 -17    1.46    1.93
   0   2 -17  226.16   18.78
  -1   2 -17    0.35    1.85
  -2   2 -17    1.79    1.95
  -3   2 -17  186.70   15.82
   2   1 -17  193.78   16.35
   1   1 -17    0.25    1.84
   0   1 -17    2.27    1.99
  -1   1 -17  292.80   23.78
  -2   1 -17    0.26    1.84
  -3   1 -17    1.33    1.92
   3   0 -17    0.18    1.83
   2   0 -17    1.66    1.94
   1   0 -17  305.26   24.71
   0   0 -17    1.07    1.90
  -1   0 -17    2.19    1.98
  -2   0 -17  246.90   20.34
  -3   0 -17    0.18    1.83
   3  -1 -17  211.07   17.65
   2  -1 -17    1.47    1.93
   1  -1 -17    2.15    1.98
   0  -1 -17  317.53   25.63
  -1  -1 -17    1.41    1.93
  -2  -1 -17    1.24    1.91
   3  -2 -17    1.21    1.91
   2  -2 -17  267.17   21.86
   1  -2 -17    2.67    2.02
   0  -2 -17    1.58    1.94
  -1  -2 -17  217.58   18.14
   3  -3 -17    2.38    2.00
   2  -3 -17    1.19    1.91
   1  -3 -17  225.83   18.76
   0  -3 -17    2.17    1.98
   0   3 -18  273.74   22.35
  -1   3 -18    3.03    2.05
  -2   3 -18    0.76    1.88
  -3   3 -18  275.87   22.51
   1   2 -18    3.36    2.07
   0   2 -18    0.68    1.87
  -1   2 -18  418.10   33.18
  -2   2 -18    4.31    2.14
  -3   2 -18    0.59    1.86
   2   1 -18    0.36    1.85
   1   1 -18  419.26   33.26
   0   1 -18    6.02    2.27
  -1   1 -18    0.61    1.87
  -2   1 -18  420.35   33.35
  -3   1 -18    3.90    2.11
   3   0 -18  277.96   22.67
   2   0 -18    5.41    2.23
   1   0 -18    0.37    1.85
   0   0 -18  527.14   41.36
  -1   0 -18    6.76    2.33
  -2   0 -18    0.29    1.84
  -3   0 -18  277.97   22.67
   3  -1 -18    0.13    1.83
   2  -1 -18  420.90   33.39
   1  -1 -18    7.53    2.38
   0  -1 -18    0.20    1.83
  -1  -1 -18  419.80   33.31
  -2  -1 -18    4.85    2.18
   3  -2 -18    5.49    2.23
   2  -2 -18    0.10    1.83
   1  -2 -18  419.20   33.26
   0  -2 -18    6.62    2.32
  -1  -2 -18    0.09    1.83
   3  -3 -18  276.63   22.57
   2  -3 -18    5.94    2.27
   1  -3 -18    0.14    1.83
   0  -3 -18  274.43   22.40
  -1   3 -19  195.65   16.49
  -2   3 -19    3.33    2.07
   1   2 -19  188.52   15.96
   0   2 -19    3.78    2.10
  -1   2 -19    0.74    1.88
  -2   2 -19  229.87   19.06
  -3   2 -19    3.17    2.06
   2   1 -19    2.89    2.04
   1   1 -19    0.63    1.87
   0   1 -19  270.62   22.12
  -1   1 -19    4.34    2.15
  -2   1 -19    0.61    1.87
  -3   1 -19  182.85   15.53
   2   0 -19  212.41   17.75
   1   0 -19    3.96    2.12
   0   0 -19    0.82    1.88
  -1   0 -19  260.18   21.33
  -2   0 -19    3.23    2.06
   3  -1 -19    2.40    2.00
   2  -1 -19    1.25    1.91
   1  -1 -19  249.51   20.53
   0  -1 -19    3.55    2.09
  -1  -1 -19    1.31    1.92
  -2  -1 -19  167.63   14.39
   3  -2 -19  161.35   13.92
   2  -2 -19    2.55    2.01
   1  -2 -19    2.10    1.98
   0  -2 -19  194.28   16.39
  -1  -2 -19    2.09    1.98
   2  -3 -19  153.51   13.33
   1  -3 -19    1.80    1.95
   0   2 -20   55.41    5.98
  -1   2 -20    2.70    2.02
  -2   2 -20    5.42    2.23
   1   1 -20    1.89    1.96
   0   1 -20    7.07    2.35
  -1   1 -20   58.85    6.23
  -2   1 -20    1.93    1.96
   2   0 -20    7.63    2.39
   1   0 -20   52.38    5.75
   0   0 -20   -0.72    2.95
  -1   0 -20    8.43    2.45
  -2   0 -20   44.49    5.16
   2  -1 -20    0.74    1.88
   1  -1 -20   10.01    2.57
   0  -1 -20   46.40    5.30
  -1  -1 -20    0.73    1.87
   2  -2 -20   35.06    4.45
   1  -2 -20    0.36    1.85
   0  -2 -20   10.61    2.62
   0   1 -21    4.74    2.18
  -1   1 -21   12.49    2.76
   1   0 -21   12.87    2.79
   0   0 -21   -0.24    1.84
  -1   0 -21    5.60    2.24
   1  -1 -21    6.71    2.32
   0  -1 -21   13.21    2.81
   0   0 -22    2.32    1.99
   0   0   0    0.00    0.00
;
_shelx_hkl_checksum              26891
_shelx_res_file
;
    Li9Al4Sn5_Acta_C.res created by SHELXL-2014/7
TITL k2 in P-3m1
CELL 0.71073   4.7170   4.7170  17.0770  90.000  90.000 120.000
ZERR    2.00   0.0007   0.0007   0.0034   0.000   0.000   0.000
LATT  1
SYMM -Y, X-Y, Z
SYMM -X+Y, -X, Z
SYMM Y, X, -Z
SYMM X-Y, -Y, -Z
SYMM -X, -X+Y, -Z
SFAC LI AL SN
UNIT 9 4 5
L.S. 6
BOND
FMAP 2
PLAN 20
acta
WGHT    0.001030    0.001700
FVAR       0.21849
SN1   3    0.666667    0.333333    0.388610    10.16667    0.01575    0.01575 =
         0.01836    0.00000    0.00000    0.00788
SN2   3    0.666667    0.333333    0.221480    10.16667    0.01675    0.01675 =
         0.01659    0.00000    0.00000    0.00837
SN3   3    0.000000    0.000000    0.000000    10.08334    0.01120    0.01120 =
         0.01019    0.00000    0.00000    0.00560
AL1   2    0.666667    0.333333    0.553271    10.16667    0.00977    0.00977 =
         0.01921    0.00000    0.00000    0.00489
AL2   2    0.000000    0.000000    0.165667    10.16667    0.03011    0.03011 =
         0.01105    0.00000    0.00000    0.01505
LI1   1    0.666667    0.333333    0.070133    10.16667    0.02254
LI2   1    0.666667    0.333333    0.720890    10.16667    0.01162
LI3   1    0.666667    0.333333    0.880657    10.16667    0.05640
LI4   1    0.000000    0.000000    0.500000    10.08334    0.02040
LI5   1    0.000000    0.000000    0.330894    10.16667    0.01153
HKLF 4
REM  k2 in P-3m1
REM R1 =  0.0205 for     324 Fo > 4sig(Fo)  and  0.0243 for all     352 data
REM     24 parameters refined using      0 restraints
END
WGHT      0.0000      0.0000
REM Highest difference peak  1.268,  deepest hole -1.241,  1-sigma level  0.155
Q1    1   0.6667  0.3333  0.7548  10.16667  0.05    1.27
Q2    1   0.6667  0.3333  0.5166  10.16667  0.05    0.55
Q3    1   0.6667  0.3333  0.0060  10.16667  0.05    0.53
Q4    1   0.7361  0.2639  0.8907  10.50000  0.05    0.49
Q5    1   0.6667  0.3333  0.3040  10.16667  0.05    0.44
Q6    1   0.5418  0.3393  0.0499  11.00000  0.05    0.43
Q7    1   0.0000  0.0000  0.2856  10.16667  0.05    0.38
Q8    1   0.6667  0.3333  0.9548  10.16667  0.05    0.34
Q9    1   0.3700  0.3134  0.7417  11.00000  0.05    0.33
Q10   1   0.6667  0.3333  0.6340  10.16667  0.05    0.31
Q11   1   0.5994  0.1989  0.8921  10.50000  0.05    0.30
Q12   1   0.5241  0.4759  0.2092  10.50000  0.05    0.28
Q13   1  -0.0456  0.3136  0.2967  11.00000  0.05    0.28
Q14   1   0.6667  0.3333  0.5941  10.16667  0.05    0.28
Q15   1   0.9703  0.4852  0.7300  10.50000  0.05    0.27
Q16   1   0.6667  0.3333  0.4727  10.16667  0.05    0.26
Q17   1   0.7147  0.6598  0.2146  11.00000  0.05    0.26
Q18   1   0.9629  0.3148  0.0308  11.00000  0.05    0.25
Q19   1  -0.3247 -0.3124  0.2016  11.00000  0.05    0.25
Q20   1   0.9807  0.3156  0.0699  11.00000  0.05    0.24
;
_shelx_res_checksum              41279
loop_
_space_group_symop_operation_xyz
'x, y, z'
'-y, x-y, z'
'-x+y, -x, z'
'y, x, -z'
'x-y, -y, -z'
'-x, -x+y, -z'
'-x, -y, -z'
'y, -x+y, -z'
'x-y, x, -z'
'-y, -x, z'
'-x+y, y, z'
'x, x-y, z'
loop_
_atom_site_type_symbol
_atom_site_label
_atom_site_fract_x
_atom_site_fract_y
_atom_site_fract_z
_atom_site_U_iso_or_equiv
_atom_site_adp_type
_atom_site_calc_flag
_atom_site_occupancy
Sn Sn1 0.6667 0.3333 0.38861(4) 0.0166(2) Uani d 1
Sn Sn2 0.6667 0.3333 0.22148(4) 0.0167(2) Uani d 1
Sn Sn3 0.0000 0.0000 0.0000 0.0109(3) Uani d 1
Al Al1 0.6667 0.3333 0.55327(17) 0.0129(6) Uani d 1
Al Al2 0.0000 0.0000 0.16567(18) 0.0238(8) Uani d 1
Li Li1 0.6667 0.3333 0.0701(11) 0.023(4) Uiso d 1
Li Li2 0.6667 0.3333 0.7209(9) 0.012(3) Uiso d 1
Li Li3 0.6667 0.3333 0.8807(16) 0.056(8) Uiso d 1
Li Li4 0.0000 0.0000 0.5000 0.020(6) Uiso d 1
Li Li5 0.0000 0.0000 0.3309(9) 0.012(3) Uiso d 1
loop_
_atom_site_aniso_label
_atom_site_aniso_U_11
_atom_site_aniso_U_22
_atom_site_aniso_U_33
_atom_site_aniso_U_12
_atom_site_aniso_U_13
_atom_site_aniso_U_23
Sn1 0.0158(3) 0.0158(3) 0.0184(3) 0.00788(15) 0.000 0.000
Sn2 0.0167(3) 0.0167(3) 0.0166(3) 0.00837(14) 0.000 0.000
Sn3 0.0112(4) 0.0112(4) 0.0102(4) 0.00560(18) 0.000 0.000
Al1 0.0098(9) 0.0098(9) 0.0192(14) 0.0049(5) 0.000 0.000
Al2 0.0301(12) 0.0301(12) 0.0110(13) 0.0151(6) 0.000 0.000
loop_
_atom_type_symbol
_atom_type_description
_atom_type_scat_dispersion_real
_atom_type_scat_dispersion_imag
_atom_type_scat_source
Li Li -0.0003 0.0001 'International Tables Vol C Tables 4.2.6.8 and 6.1.1.4'
Al Al 0.0645 0.0514 'International Tables Vol C Tables 4.2.6.8 and 6.1.1.4'
Sn Sn -0.6537 1.4246 'International Tables Vol C Tables 4.2.6.8 and 6.1.1.4'
loop_
_geom_angle_atom_site_label_1
_geom_angle_atom_site_label_2
_geom_angle_atom_site_label_3
_geom_angle_site_symmetry_1
_geom_angle_site_symmetry_3
_geom_angle
Al1 Sn1 Sn2 . . 180.0
Al1 Sn1 Li5 . 1_655 109.9(3)
Sn2 Sn1 Li5 . 1_655 70.1(3)
Al1 Sn1 Li5 . 1_665 109.9(3)
Sn2 Sn1 Li5 . 1_665 70.1(3)
Li5 Sn1 Li5 1_655 1_665 109.0(3)
Al1 Sn1 Li5 . . 109.9(3)
Sn2 Sn1 Li5 . . 70.1(3)
Li5 Sn1 Li5 1_655 . 109.0(3)
Li5 Sn1 Li5 1_665 . 109.0(3)
Al1 Sn1 Al1 . 7_666 69.98(5)
Sn2 Sn1 Al1 . 7_666 110.02(5)
Li5 Sn1 Al1 1_655 7_666 179.9(3)
Li5 Sn1 Al1 1_665 7_666 71.02(16)
Li5 Sn1 Al1 . 7_666 71.02(16)
Al1 Sn1 Al1 . 7_766 69.98(5)
Sn2 Sn1 Al1 . 7_766 110.02(5)
Li5 Sn1 Al1 1_655 7_766 71.02(16)
Li5 Sn1 Al1 1_665 7_766 71.02(16)
Li5 Sn1 Al1 . 7_766 179.9(3)
Al1 Sn1 Al1 7_666 7_766 108.91(6)
Al1 Sn1 Al1 . 7_656 69.98(5)
Sn2 Sn1 Al1 . 7_656 110.02(5)
Li5 Sn1 Al1 1_655 7_656 71.02(16)
Li5 Sn1 Al1 1_665 7_656 179.9(3)
Li5 Sn1 Al1 . 7_656 71.02(16)
Al1 Sn1 Al1 7_666 7_656 108.91(6)
Al1 Sn1 Al1 7_766 7_656 108.91(6)
Al1 Sn1 Li2 . 7_666 124.5(2)
Sn2 Sn1 Li2 . 7_666 55.5(2)
Li5 Sn1 Li2 1_655 7_666 125.6(4)
Li5 Sn1 Li2 1_665 7_666 54.53(14)
Li5 Sn1 Li2 . 7_666 54.53(14)
Al1 Sn1 Li2 7_666 7_666 54.5(2)
Al1 Sn1 Li2 7_766 7_666 125.53(3)
Al1 Sn1 Li2 7_656 7_666 125.53(3)
Al1 Sn1 Li2 . 7_656 124.5(2)
Sn2 Sn1 Li2 . 7_656 55.5(2)
Li5 Sn1 Li2 1_655 7_656 54.53(14)
Li5 Sn1 Li2 1_665 7_656 125.6(4)
Li5 Sn1 Li2 . 7_656 54.53(14)
Al1 Sn1 Li2 7_666 7_656 125.53(3)
Al1 Sn1 Li2 7_766 7_656 125.53(3)
Al1 Sn1 Li2 7_656 7_656 54.5(2)
Li2 Sn1 Li2 7_666 7_656 91.1(3)
Al1 Sn1 Li2 . 7_766 124.5(2)
Sn2 Sn1 Li2 . 7_766 55.5(2)
Li5 Sn1 Li2 1_655 7_766 54.53(14)
Li5 Sn1 Li2 1_665 7_766 54.53(14)
Li5 Sn1 Li2 . 7_766 125.6(4)
Al1 Sn1 Li2 7_666 7_766 125.53(3)
Al1 Sn1 Li2 7_766 7_766 54.5(2)
Al1 Sn1 Li2 7_656 7_766 125.53(3)
Li2 Sn1 Li2 7_666 7_766 91.1(3)
Li2 Sn1 Li2 7_656 7_766 91.1(3)
Al1 Sn1 Li4 . 1_655 55.067(12)
Sn2 Sn1 Li4 . 1_655 124.933(12)
Li5 Sn1 Li4 1_655 1_655 54.8(3)
Li5 Sn1 Li4 1_665 1_655 125.47(15)
Li5 Sn1 Li4 . 1_655 125.47(15)
Al1 Sn1 Li4 7_666 1_655 125.04(6)
Al1 Sn1 Li4 7_766 1_655 54.47(3)
Al1 Sn1 Li4 7_656 1_655 54.47(3)
Li2 Sn1 Li4 7_666 1_655 179.5(2)
Li2 Sn1 Li4 7_656 1_655 89.21(16)
Li2 Sn1 Li4 7_766 1_655 89.21(16)
Li1 Sn2 Sn1 . . 180.0
Li1 Sn2 Al2 . . 70.71(6)
Sn1 Sn2 Al2 . . 109.29(6)
Li1 Sn2 Al2 . 1_655 70.71(6)
Sn1 Sn2 Al2 . 1_655 109.29(6)
Al2 Sn2 Al2 . 1_655 109.65(6)
Li1 Sn2 Al2 . 1_665 70.71(6)
Sn1 Sn2 Al2 . 1_665 109.29(6)
Al2 Sn2 Al2 . 1_665 109.65(6)
Al2 Sn2 Al2 1_655 1_665 109.65(6)
Li1 Sn2 Li2 . 7_666 109.9(3)
Sn1 Sn2 Li2 . 7_666 70.1(3)
Al2 Sn2 Li2 . 7_666 70.64(15)
Al2 Sn2 Li2 1_655 7_666 179.4(3)
Al2 Sn2 Li2 1_665 7_666 70.64(15)
Li1 Sn2 Li2 . 7_766 109.9(3)
Sn1 Sn2 Li2 . 7_766 70.1(3)
Al2 Sn2 Li2 . 7_766 179.4(3)
Al2 Sn2 Li2 1_655 7_766 70.64(15)
Al2 Sn2 Li2 1_665 7_766 70.64(15)
Li2 Sn2 Li2 7_666 7_766 109.1(3)
Li1 Sn2 Li2 . 7_656 109.9(3)
Sn1 Sn2 Li2 . 7_656 70.1(3)
Al2 Sn2 Li2 . 7_656 70.64(15)
Al2 Sn2 Li2 1_655 7_656 70.64(15)
Al2 Sn2 Li2 1_665 7_656 179.4(3)
Li2 Sn2 Li2 7_666 7_656 109.1(3)
Li2 Sn2 Li2 7_766 7_656 109.1(3)
Li1 Sn2 Li3 . 7_666 57.4(4)
Sn1 Sn2 Li3 . 7_666 122.6(4)
Al2 Sn2 Li3 . 7_666 54.86(3)
Al2 Sn2 Li3 1_655 7_666 128.1(4)
Al2 Sn2 Li3 1_665 7_666 54.86(3)
Li2 Sn2 Li3 7_666 7_666 52.5(5)
Li2 Sn2 Li3 7_766 7_666 125.40(13)
Li2 Sn2 Li3 7_656 7_666 125.40(13)
Li1 Sn2 Li3 . 7_656 57.4(4)
Sn1 Sn2 Li3 . 7_656 122.6(4)
Al2 Sn2 Li3 . 7_656 54.86(3)
Al2 Sn2 Li3 1_655 7_656 54.86(3)
Al2 Sn2 Li3 1_665 7_656 128.1(4)
Li2 Sn2 Li3 7_666 7_656 125.40(13)
Li2 Sn2 Li3 7_766 7_656 125.40(13)
Li2 Sn2 Li3 7_656 7_656 52.5(5)
Li3 Sn2 Li3 7_666 7_656 93.7(6)
Li1 Sn2 Li3 . 7_766 57.4(4)
Sn1 Sn2 Li3 . 7_766 122.6(4)
Al2 Sn2 Li3 . 7_766 128.1(4)
Al2 Sn2 Li3 1_655 7_766 54.86(3)
Al2 Sn2 Li3 1_665 7_766 54.86(3)
Li2 Sn2 Li3 7_666 7_766 125.40(13)
Li2 Sn2 Li3 7_766 7_766 52.5(5)
Li2 Sn2 Li3 7_656 7_766 125.40(13)
Li3 Sn2 Li3 7_666 7_766 93.7(6)
Li3 Sn2 Li3 7_656 7_766 93.7(6)
Li1 Sn2 Li5 . . 124.5(2)
Sn1 Sn2 Li5 . . 55.5(2)
Al2 Sn2 Li5 . . 53.7(2)
Al2 Sn2 Li5 1_655 . 125.17(3)
Al2 Sn2 Li5 1_665 . 125.17(3)
Li2 Sn2 Li5 7_666 . 54.55(14)
Li2 Sn2 Li5 7_766 . 125.7(4)
Li2 Sn2 Li5 7_656 . 54.55(14)
Li3 Sn2 Li5 7_666 . 87.6(3)
Li3 Sn2 Li5 7_656 . 87.6(3)
Li3 Sn2 Li5 7_766 . 178.2(5)
Al2 Sn3 Al2 7 . 180.0
Al2 Sn3 Li1 7 . 113.7(3)
Al2 Sn3 Li1 . . 66.3(3)
Al2 Sn3 Li1 7 7 66.3(3)
Al2 Sn3 Li1 . 7 113.7(3)
Li1 Sn3 Li1 . 7 180.0
Al2 Sn3 Li1 7 7_665 66.3(3)
Al2 Sn3 Li1 . 7_665 113.7(3)
Li1 Sn3 Li1 . 7_665 75.1(4)
Li1 Sn3 Li1 7 7_665 104.9(4)
Al2 Sn3 Li1 7 1_445 113.7(3)
Al2 Sn3 Li1 . 1_445 66.3(3)
Li1 Sn3 Li1 . 1_445 104.9(4)
Li1 Sn3 Li1 7 1_445 75.1(4)
Li1 Sn3 Li1 7_665 1_445 180.0(7)
Al2 Sn3 Li1 7 1_455 113.7(3)
Al2 Sn3 Li1 . 1_455 66.3(3)
Li1 Sn3 Li1 . 1_455 104.9(4)
Li1 Sn3 Li1 7 1_455 75.1(4)
Li1 Sn3 Li1 7_665 1_455 75.1(4)
Li1 Sn3 Li1 1_445 1_455 104.9(4)
Al2 Sn3 Li1 7 7_655 66.3(3)
Al2 Sn3 Li1 . 7_655 113.7(3)
Li1 Sn3 Li1 . 7_655 75.1(4)
Li1 Sn3 Li1 7 7_655 104.9(4)
Li1 Sn3 Li1 7_665 7_655 104.9(4)
Li1 Sn3 Li1 1_445 7_655 75.1(4)
Li1 Sn3 Li1 1_455 7_655 180.0(7)
Al2 Sn3 Li3 7 7_666 126.8(4)
Al2 Sn3 Li3 . 7_666 53.2(4)
Li1 Sn3 Li3 . 7_666 52.58(17)
Li1 Sn3 Li3 7 7_666 127.42(17)
Li1 Sn3 Li3 7_665 7_666 60.5(5)
Li1 Sn3 Li3 1_445 7_666 119.5(5)
Li1 Sn3 Li3 1_455 7_666 52.58(17)
Li1 Sn3 Li3 7_655 7_666 127.42(17)
Al2 Sn3 Li3 7 1_444 53.2(4)
Al2 Sn3 Li3 . 1_444 126.8(4)
Li1 Sn3 Li3 . 1_444 127.42(17)
Li1 Sn3 Li3 7 1_444 52.58(17)
Li1 Sn3 Li3 7_665 1_444 119.5(5)
Li1 Sn3 Li3 1_445 1_444 60.5(5)
Li1 Sn3 Li3 1_455 1_444 127.42(17)
Li1 Sn3 Li3 7_655 1_444 52.58(17)
Li3 Sn3 Li3 7_666 1_444 180.0(7)
Al2 Sn3 Li3 7 7_556 126.8(4)
Al2 Sn3 Li3 . 7_556 53.2(4)
Li1 Sn3 Li3 . 7_556 119.5(5)
Li1 Sn3 Li3 7 7_556 60.5(5)
Li1 Sn3 Li3 7_665 7_556 127.42(17)
Li1 Sn3 Li3 1_445 7_556 52.58(17)
Li1 Sn3 Li3 1_455 7_556 52.58(17)
Li1 Sn3 Li3 7_655 7_556 127.42(17)
Li3 Sn3 Li3 7_666 7_556 87.8(5)
Li3 Sn3 Li3 1_444 7_556 92.2(5)
Al2 Sn3 Li3 7 1_554 53.2(4)
Al2 Sn3 Li3 . 1_554 126.8(4)
Li1 Sn3 Li3 . 1_554 60.5(5)
Li1 Sn3 Li3 7 1_554 119.5(5)
Li1 Sn3 Li3 7_665 1_554 52.58(17)
Li1 Sn3 Li3 1_445 1_554 127.42(17)
Li1 Sn3 Li3 1_455 1_554 127.42(17)
Li1 Sn3 Li3 7_655 1_554 52.58(17)
Li3 Sn3 Li3 7_666 1_554 92.2(5)
Li3 Sn3 Li3 1_444 1_554 87.8(5)
Li3 Sn3 Li3 7_556 1_554 180.0(7)
Sn1 Al1 Li2 . . 180.0
Sn1 Al1 Li4 . 1_655 71.53(5)
Li2 Al1 Li4 . 1_655 108.47(5)
Sn1 Al1 Li4 . . 71.53(5)
Li2 Al1 Li4 . . 108.47(5)
Li4 Al1 Li4 1_655 . 110.45(5)
Sn1 Al1 Li4 . 1_665 71.53(5)
Li2 Al1 Li4 . 1_665 108.47(5)
Li4 Al1 Li4 1_655 1_665 110.45(5)
Li4 Al1 Li4 . 1_665 110.45(5)
Sn1 Al1 Sn1 . 7_666 110.02(5)
Li2 Al1 Sn1 . 7_666 69.98(5)
Li4 Al1 Sn1 1_655 7_666 178.45(11)
Li4 Al1 Sn1 . 7_666 70.300(8)
Li4 Al1 Sn1 1_665 7_666 70.300(8)
Sn1 Al1 Sn1 . 7_766 110.02(5)
Li2 Al1 Sn1 . 7_766 69.98(5)
Li4 Al1 Sn1 1_655 7_766 70.300(7)
Li4 Al1 Sn1 . 7_766 178.45(11)
Li4 Al1 Sn1 1_665 7_766 70.301(7)
Sn1 Al1 Sn1 7_666 7_766 108.91(6)
Sn1 Al1 Sn1 . 7_656 110.02(5)
Li2 Al1 Sn1 . 7_656 69.98(5)
Li4 Al1 Sn1 1_655 7_656 70.300(7)
Li4 Al1 Sn1 . 7_656 70.301(7)
Li4 Al1 Sn1 1_665 7_656 178.45(11)
Sn1 Al1 Sn1 7_666 7_656 108.91(6)
Sn1 Al1 Sn1 7_766 7_656 108.91(6)
Li5 Al2 Sn3 . . 180.0
Li5 Al2 Li3 . 7_556 106.2(5)
Sn3 Al2 Li3 . 7_556 73.8(5)
Li5 Al2 Li3 . 7_666 106.2(5)
Sn3 Al2 Li3 . 7_666 73.8(5)
Li3 Al2 Li3 7_556 7_666 112.5(5)
Li5 Al2 Li3 . 7_656 106.2(5)
Sn3 Al2 Li3 . 7_656 73.8(5)
Li3 Al2 Li3 7_556 7_656 112.5(5)
Li3 Al2 Li3 7_666 7_656 112.5(5)
Li5 Al2 Sn2 . 1_445 70.71(6)
Sn3 Al2 Sn2 . 1_445 109.29(6)
Li3 Al2 Sn2 7_556 1_445 68.8(3)
Li3 Al2 Sn2 7_666 1_445 176.9(5)
Li3 Al2 Sn2 7_656 1_445 68.8(3)
Li5 Al2 Sn2 . . 70.71(6)
Sn3 Al2 Sn2 . . 109.29(6)
Li3 Al2 Sn2 7_556 . 176.9(5)
Li3 Al2 Sn2 7_666 . 68.8(3)
Li3 Al2 Sn2 7_656 . 68.8(3)
Sn2 Al2 Sn2 1_445 . 109.65(6)
Li5 Al2 Sn2 . 1_455 70.71(6)
Sn3 Al2 Sn2 . 1_455 109.29(6)
Li3 Al2 Sn2 7_556 1_455 68.8(3)
Li3 Al2 Sn2 7_666 1_455 68.8(3)
Li3 Al2 Sn2 7_656 1_455 176.9(5)
Sn2 Al2 Sn2 1_445 1_455 109.65(6)
Sn2 Al2 Sn2 . 1_455 109.65(6)
Li5 Al2 Li1 . 1_445 120.9(3)
Sn3 Al2 Li1 . 1_445 59.1(3)
Li3 Al2 Li1 7_556 1_445 56.3(2)
Li3 Al2 Li1 7_666 1_445 132.9(6)
Li3 Al2 Li1 7_656 1_445 56.3(2)
Sn2 Al2 Li1 1_445 1_445 50.2(3)
Sn2 Al2 Li1 . 1_445 125.07(3)
Sn2 Al2 Li1 1_455 1_445 125.07(3)
Li5 Al2 Li1 . 1_455 120.9(3)
Sn3 Al2 Li1 . 1_455 59.1(3)
Li3 Al2 Li1 7_556 1_455 56.3(2)
Li3 Al2 Li1 7_666 1_455 56.3(2)
Li3 Al2 Li1 7_656 1_455 132.9(6)
Sn2 Al2 Li1 1_445 1_455 125.07(3)
Sn2 Al2 Li1 . 1_455 125.07(3)
Sn2 Al2 Li1 1_455 1_455 50.2(3)
Li1 Al2 Li1 1_445 1_455 96.0(4)
Li5 Al2 Li1 . . 120.9(3)
Sn3 Al2 Li1 . . 59.1(3)
Li3 Al2 Li1 7_556 . 132.9(6)
Li3 Al2 Li1 7_666 . 56.3(2)
Li3 Al2 Li1 7_656 . 56.3(2)
Sn2 Al2 Li1 1_445 . 125.07(3)
Sn2 Al2 Li1 . . 50.2(3)
Sn2 Al2 Li1 1_455 . 125.07(3)
Li1 Al2 Li1 1_445 . 96.0(4)
Li1 Al2 Li1 1_455 . 96.0(4)
Sn2 Li1 Li3 . 7_666 72.9(6)
Sn2 Li1 Li3 . 7_766 72.9(6)
Li3 Li1 Li3 7_666 7_766 111.7(5)
Sn2 Li1 Li3 . 7_656 72.9(6)
Li3 Li1 Li3 7_666 7_656 111.7(5)
Li3 Li1 Li3 7_766 7_656 111.7(5)
Sn2 Li1 Sn3 . 1_655 113.7(3)
Li3 Li1 Sn3 7_666 1_655 173.4(8)
Li3 Li1 Sn3 7_766 1_655 71.4(3)
Li3 Li1 Sn3 7_656 1_655 71.4(3)
Sn2 Li1 Sn3 . . 113.7(3)
Li3 Li1 Sn3 7_666 . 71.4(3)
Li3 Li1 Sn3 7_766 . 173.4(8)
Li3 Li1 Sn3 7_656 . 71.4(3)
Sn3 Li1 Sn3 1_655 . 104.9(4)
Sn2 Li1 Sn3 . 1_665 113.7(3)
Li3 Li1 Sn3 7_666 1_665 71.4(3)
Li3 Li1 Sn3 7_766 1_665 71.4(3)
Li3 Li1 Sn3 7_656 1_665 173.4(8)
Sn3 Li1 Sn3 1_655 1_665 104.9(4)
Sn3 Li1 Sn3 . 1_665 104.9(4)
Sn2 Li1 Al2 . 1_655 59.1(3)
Li3 Li1 Al2 7_666 1_655 131.9(8)
Li3 Li1 Al2 7_766 1_655 55.8(3)
Li3 Li1 Al2 7_656 1_655 55.8(3)
Sn3 Li1 Al2 1_655 1_655 54.66(6)
Sn3 Li1 Al2 . 1_655 126.83(8)
Sn3 Li1 Al2 1_665 1_655 126.83(8)
Sn2 Li1 Al2 . 1_665 59.1(3)
Li3 Li1 Al2 7_666 1_665 55.8(3)
Li3 Li1 Al2 7_766 1_665 55.8(3)
Li3 Li1 Al2 7_656 1_665 131.9(8)
Sn3 Li1 Al2 1_655 1_665 126.83(8)
Sn3 Li1 Al2 . 1_665 126.83(8)
Sn3 Li1 Al2 1_665 1_665 54.66(6)
Al2 Li1 Al2 1_655 1_665 96.0(4)
Sn2 Li1 Al2 . . 59.1(3)
Li3 Li1 Al2 7_666 . 55.8(3)
Li3 Li1 Al2 7_766 . 131.9(8)
Li3 Li1 Al2 7_656 . 55.8(3)
Sn3 Li1 Al2 1_655 . 126.83(8)
Sn3 Li1 Al2 . . 54.66(6)
Sn3 Li1 Al2 1_665 . 126.83(8)
Al2 Li1 Al2 1_655 . 96.0(4)
Al2 Li1 Al2 1_665 . 96.0(4)
Sn2 Li1 Li3 . 1_554 180.0
Li3 Li1 Li3 7_666 1_554 107.1(6)
Li3 Li1 Li3 7_766 1_554 107.1(6)
Li3 Li1 Li3 7_656 1_554 107.1(6)
Sn3 Li1 Li3 1_655 1_554 66.3(3)
Sn3 Li1 Li3 . 1_554 66.3(3)
Sn3 Li1 Li3 1_665 1_554 66.3(3)
Al2 Li1 Li3 1_655 1_554 120.9(3)
Al2 Li1 Li3 1_665 1_554 120.9(3)
Al2 Li1 Li3 . 1_554 120.9(3)
Li3 Li2 Li5 . 7_656 108.0(4)
Li3 Li2 Li5 . 7_556 108.0(4)
Li5 Li2 Li5 7_656 7_556 110.9(4)
Li3 Li2 Li5 . 7_666 108.0(4)
Li5 Li2 Li5 7_656 7_666 110.9(4)
Li5 Li2 Li5 7_556 7_666 110.9(4)
Li3 Li2 Al1 . . 180.0
Li5 Li2 Al1 7_656 . 72.0(4)
Li5 Li2 Al1 7_556 . 72.0(4)
Li5 Li2 Al1 7_666 . 72.0(4)
Li3 Li2 Sn2 . 7_666 70.1(3)
Li5 Li2 Sn2 7_656 7_666 178.1(7)
Li5 Li2 Sn2 7_556 7_666 69.98(15)
Li5 Li2 Sn2 7_666 7_666 69.98(15)
Al1 Li2 Sn2 . 7_666 109.9(3)
Li3 Li2 Sn2 . 7_766 70.1(3)
Li5 Li2 Sn2 7_656 7_766 69.98(15)
Li5 Li2 Sn2 7_556 7_766 178.1(7)
Li5 Li2 Sn2 7_666 7_766 69.98(15)
Al1 Li2 Sn2 . 7_766 109.9(3)
Sn2 Li2 Sn2 7_666 7_766 109.1(3)
Li3 Li2 Sn2 . 7_656 70.1(3)
Li5 Li2 Sn2 7_656 7_656 69.98(15)
Li5 Li2 Sn2 7_556 7_656 69.98(15)
Li5 Li2 Sn2 7_666 7_656 178.1(7)
Al1 Li2 Sn2 . 7_656 109.9(3)
Sn2 Li2 Sn2 7_666 7_656 109.1(3)
Sn2 Li2 Sn2 7_766 7_656 109.1(3)
Li3 Li2 Sn1 . 7_666 124.5(2)
Li5 Li2 Sn1 7_656 7_666 127.5(6)
Li5 Li2 Sn1 7_556 7_666 55.5(2)
Li5 Li2 Sn1 7_666 7_666 55.5(2)
Al1 Li2 Sn1 . 7_666 55.5(2)
Sn2 Li2 Sn1 7_666 7_666 54.34(7)
Sn2 Li2 Sn1 7_766 7_666 125.45(14)
Sn2 Li2 Sn1 7_656 7_666 125.45(14)
Li3 Li2 Sn1 . 7_656 124.5(2)
Li5 Li2 Sn1 7_656 7_656 55.5(2)
Li5 Li2 Sn1 7_556 7_656 55.5(2)
Li5 Li2 Sn1 7_666 7_656 127.5(6)
Al1 Li2 Sn1 . 7_656 55.5(2)
Sn2 Li2 Sn1 7_666 7_656 125.45(14)
Sn2 Li2 Sn1 7_766 7_656 125.45(14)
Sn2 Li2 Sn1 7_656 7_656 54.34(7)
Sn1 Li2 Sn1 7_666 7_656 91.1(3)
Li3 Li2 Sn1 . 7_766 124.5(2)
Li5 Li2 Sn1 7_656 7_766 55.5(2)
Li5 Li2 Sn1 7_556 7_766 127.5(6)
Li5 Li2 Sn1 7_666 7_766 55.5(2)
Al1 Li2 Sn1 . 7_766 55.5(2)
Sn2 Li2 Sn1 7_666 7_766 125.45(14)
Sn2 Li2 Sn1 7_766 7_766 54.34(7)
Sn2 Li2 Sn1 7_656 7_766 125.45(14)
Sn1 Li2 Sn1 7_666 7_766 91.1(3)
Sn1 Li2 Sn1 7_656 7_766 91.1(3)
Li2 Li3 Al2 . 7_656 73.8(5)
Li2 Li3 Al2 . 7_556 73.8(5)
Al2 Li3 Al2 7_656 7_556 112.5(5)
Li2 Li3 Al2 . 7_666 73.8(5)
Al2 Li3 Al2 7_656 7_666 112.5(5)
Al2 Li3 Al2 7_556 7_666 112.5(5)
Li2 Li3 Li1 . 7_666 107.1(6)
Al2 Li3 Li1 7_656 7_666 179.0(11)
Al2 Li3 Li1 7_556 7_666 67.88(16)
Al2 Li3 Li1 7_666 7_666 67.88(16)
Li2 Li3 Li1 . 7_766 107.1(6)
Al2 Li3 Li1 7_656 7_766 67.88(16)
Al2 Li3 Li1 7_556 7_766 179.0(11)
Al2 Li3 Li1 7_666 7_766 67.88(16)
Li1 Li3 Li1 7_666 7_766 111.7(5)
Li2 Li3 Li1 . 7_656 107.1(6)
Al2 Li3 Li1 7_656 7_656 67.88(16)
Al2 Li3 Li1 7_556 7_656 67.88(16)
Al2 Li3 Li1 7_666 7_656 179.0(11)
Li1 Li3 Li1 7_666 7_656 111.7(5)
Li1 Li3 Li1 7_766 7_656 111.7(5)
Li2 Li3 Sn2 . 7_666 57.4(4)
Al2 Li3 Sn2 7_656 7_666 131.2(9)
Al2 Li3 Sn2 7_556 7_666 56.3(2)
Al2 Li3 Sn2 7_666 7_666 56.3(2)
Li1 Li3 Sn2 7_666 7_666 49.8(4)
Li1 Li3 Sn2 7_766 7_666 124.1(3)
Li1 Li3 Sn2 7_656 7_666 124.1(3)
Li2 Li3 Sn2 . 7_656 57.4(4)
Al2 Li3 Sn2 7_656 7_656 56.3(2)
Al2 Li3 Sn2 7_556 7_656 56.3(2)
Al2 Li3 Sn2 7_666 7_656 131.2(9)
Li1 Li3 Sn2 7_666 7_656 124.1(3)
Li1 Li3 Sn2 7_766 7_656 124.1(3)
Li1 Li3 Sn2 7_656 7_656 49.8(4)
Sn2 Li3 Sn2 7_666 7_656 93.7(6)
Li2 Li3 Sn2 . 7_766 57.4(4)
Al2 Li3 Sn2 7_656 7_766 56.3(2)
Al2 Li3 Sn2 7_556 7_766 131.2(9)
Al2 Li3 Sn2 7_666 7_766 56.3(2)
Li1 Li3 Sn2 7_666 7_766 124.1(3)
Li1 Li3 Sn2 7_766 7_766 49.8(4)
Li1 Li3 Sn2 7_656 7_766 124.1(3)
Sn2 Li3 Sn2 7_666 7_766 93.7(6)
Sn2 Li3 Sn2 7_656 7_766 93.7(6)
Li2 Li3 Li1 . 1_556 180.0
Al2 Li3 Li1 7_656 1_556 106.2(5)
Al2 Li3 Li1 7_556 1_556 106.2(5)
Al2 Li3 Li1 7_666 1_556 106.2(5)
Li1 Li3 Li1 7_666 1_556 72.9(6)
Li1 Li3 Li1 7_766 1_556 72.9(6)
Li1 Li3 Li1 7_656 1_556 72.9(6)
Sn2 Li3 Li1 7_666 1_556 122.6(4)
Sn2 Li3 Li1 7_656 1_556 122.6(4)
Sn2 Li3 Li1 7_766 1_556 122.6(4)
Li2 Li3 Sn3 . 1_656 126.8(4)
Al2 Li3 Sn3 7_656 1_656 53.01(17)
Al2 Li3 Sn3 7_556 1_656 123.5(3)
Al2 Li3 Sn3 7_666 1_656 123.5(3)
Li1 Li3 Sn3 7_666 1_656 126.0(9)
Li1 Li3 Sn3 7_766 1_656 56.0(3)
Li1 Li3 Sn3 7_656 1_656 56.0(3)
Sn2 Li3 Sn3 7_666 1_656 175.8(8)
Sn2 Li3 Sn3 7_656 1_656 89.20(4)
Sn2 Li3 Sn3 7_766 1_656 89.20(4)
Li1 Li3 Sn3 1_556 1_656 53.2(4)
Al1 Li4 Al1 . 7_556 180.0
Al1 Li4 Al1 . 7_666 69.55(5)
Al1 Li4 Al1 7_556 7_666 110.45(5)
Al1 Li4 Al1 . 1_445 110.45(5)
Al1 Li4 Al1 7_556 1_445 69.55(5)
Al1 Li4 Al1 7_666 1_445 180.0
Al1 Li4 Al1 . 7_656 69.55(5)
Al1 Li4 Al1 7_556 7_656 110.45(5)
Al1 Li4 Al1 7_666 7_656 110.45(5)
Al1 Li4 Al1 1_445 7_656 69.55(5)
Al1 Li4 Al1 . 1_455 110.45(5)
Al1 Li4 Al1 7_556 1_455 69.55(5)
Al1 Li4 Al1 7_666 1_455 69.55(5)
Al1 Li4 Al1 1_445 1_455 110.45(5)
Al1 Li4 Al1 7_656 1_455 180.00(11)
Al1 Li4 Li5 . 7_556 71.53(5)
Al1 Li4 Li5 7_556 7_556 108.47(5)
Al1 Li4 Li5 7_666 7_556 108.47(5)
Al1 Li4 Li5 1_445 7_556 71.53(5)
Al1 Li4 Li5 7_656 7_556 108.47(5)
Al1 Li4 Li5 1_455 7_556 71.53(5)
Al1 Li4 Li5 . . 108.47(5)
Al1 Li4 Li5 7_556 . 71.53(5)
Al1 Li4 Li5 7_666 . 71.53(5)
Al1 Li4 Li5 1_445 . 108.47(5)
Al1 Li4 Li5 7_656 . 71.53(5)
Al1 Li4 Li5 1_455 . 108.47(5)
Li5 Li4 Li5 7_556 . 180.0
Al1 Li4 Sn1 . 7_666 55.23(3)
Al1 Li4 Sn1 7_556 7_666 124.77(3)
Al1 Li4 Sn1 7_666 7_666 53.41(6)
Al1 Li4 Sn1 1_445 7_666 126.59(6)
Al1 Li4 Sn1 7_656 7_666 124.77(3)
Al1 Li4 Sn1 1_455 7_666 55.23(3)
Li5 Li4 Sn1 7_556 7_666 55.066(12)
Li5 Li4 Sn1 . 7_666 124.934(12)
Al1 Li4 Sn1 . 1_445 124.77(3)
Al1 Li4 Sn1 7_556 1_445 55.23(3)
Al1 Li4 Sn1 7_666 1_445 126.59(6)
Al1 Li4 Sn1 1_445 1_445 53.41(6)
Al1 Li4 Sn1 7_656 1_445 55.23(3)
Al1 Li4 Sn1 1_455 1_445 124.77(3)
Li5 Li4 Sn1 7_556 1_445 124.934(12)
Li5 Li4 Sn1 . 1_445 55.066(12)
Sn1 Li4 Sn1 7_666 1_445 180.0
Al1 Li4 Sn1 . 7_556 126.60(6)
Al1 Li4 Sn1 7_556 7_556 53.41(6)
Al1 Li4 Sn1 7_666 7_556 124.77(3)
Al1 Li4 Sn1 1_445 7_556 55.23(3)
Al1 Li4 Sn1 7_656 7_556 124.77(3)
Al1 Li4 Sn1 1_455 7_556 55.23(3)
Li5 Li4 Sn1 7_556 7_556 55.066(11)
Li5 Li4 Sn1 . 7_556 124.934(12)
Sn1 Li4 Sn1 7_666 7_556 90.467(16)
Sn1 Li4 Sn1 1_445 7_556 89.533(16)
Al1 Li4 Sn1 . . 53.40(6)
Al1 Li4 Sn1 7_556 . 126.59(6)
Al1 Li4 Sn1 7_666 . 55.23(3)
Al1 Li4 Sn1 1_445 . 124.77(3)
Al1 Li4 Sn1 7_656 . 55.23(3)
Al1 Li4 Sn1 1_455 . 124.77(3)
Li5 Li4 Sn1 7_556 . 124.933(12)
Li5 Li4 Sn1 . . 55.067(12)
Sn1 Li4 Sn1 7_666 . 89.533(16)
Sn1 Li4 Sn1 1_445 . 90.467(16)
Sn1 Li4 Sn1 7_556 . 180.0
Al2 Li5 Li2 . 7_556 72.0(4)
Al2 Li5 Li2 . 7_666 72.0(4)
Li2 Li5 Li2 7_556 7_666 110.9(4)
Al2 Li5 Li2 . 7_656 72.0(4)
Li2 Li5 Li2 7_556 7_656 110.9(4)
Li2 Li5 Li2 7_666 7_656 110.9(4)
Al2 Li5 Li4 . . 180.0
Li2 Li5 Li4 7_556 . 108.0(4)
Li2 Li5 Li4 7_666 . 108.0(4)
Li2 Li5 Li4 7_656 . 108.0(4)
Al2 Li5 Sn1 . 1_445 109.9(3)
Li2 Li5 Sn1 7_556 1_445 70.00(15)
Li2 Li5 Sn1 7_666 1_445 178.1(7)
Li2 Li5 Sn1 7_656 1_445 70.00(15)
Li4 Li5 Sn1 . 1_445 70.1(3)
Al2 Li5 Sn1 . . 109.9(3)
Li2 Li5 Sn1 7_556 . 178.1(7)
Li2 Li5 Sn1 7_666 . 70.00(15)
Li2 Li5 Sn1 7_656 . 70.00(15)
Li4 Li5 Sn1 . . 70.1(3)
Sn1 Li5 Sn1 1_445 . 109.0(3)
Al2 Li5 Sn1 . 1_455 109.9(3)
Li2 Li5 Sn1 7_556 1_455 70.00(15)
Li2 Li5 Sn1 7_666 1_455 70.00(15)
Li2 Li5 Sn1 7_656 1_455 178.1(7)
Li4 Li5 Sn1 . 1_455 70.1(3)
Sn1 Li5 Sn1 1_445 1_455 109.0(3)
Sn1 Li5 Sn1 . 1_455 109.0(3)
Al2 Li5 Sn2 . . 55.5(2)
Li2 Li5 Sn2 7_556 . 127.6(6)
Li2 Li5 Sn2 7_666 . 55.5(2)
Li2 Li5 Sn2 7_656 . 55.5(2)
Li4 Li5 Sn2 . . 124.5(2)
Sn1 Li5 Sn2 1_445 . 125.47(14)
Sn1 Li5 Sn2 . . 54.35(7)
Sn1 Li5 Sn2 1_455 . 125.47(14)
Al2 Li5 Sn2 . 1_445 55.5(2)
Li2 Li5 Sn2 7_556 1_445 55.5(2)
Li2 Li5 Sn2 7_666 1_445 127.6(6)
Li2 Li5 Sn2 7_656 1_445 55.5(2)
Li4 Li5 Sn2 . 1_445 124.5(2)
Sn1 Li5 Sn2 1_445 1_445 54.35(7)
Sn1 Li5 Sn2 . 1_445 125.47(14)
Sn1 Li5 Sn2 1_455 1_445 125.46(14)
Sn2 Li5 Sn2 . 1_445 91.1(3)
Al2 Li5 Sn2 . 1_455 55.5(2)
Li2 Li5 Sn2 7_556 1_455 55.5(2)
Li2 Li5 Sn2 7_666 1_455 55.5(2)
Li2 Li5 Sn2 7_656 1_455 127.6(6)
Li4 Li5 Sn2 . 1_455 124.5(2)
Sn1 Li5 Sn2 1_445 1_455 125.47(14)
Sn1 Li5 Sn2 . 1_455 125.47(14)
Sn1 Li5 Sn2 1_455 1_455 54.35(7)
Sn2 Li5 Sn2 . 1_455 91.1(3)
Sn2 Li5 Sn2 1_445 1_455 91.1(3)
loop_
_geom_bond_atom_site_label_1
_geom_bond_atom_site_label_2
_geom_bond_site_symmetry_2
_geom_bond_distance
Sn1 Al1 . 2.812(3)
Sn1 Sn2 . 2.8541(12)
Sn1 Li5 1_655 2.896(5)
Sn1 Li5 1_665 2.896(5)
Sn1 Li5 . 2.896(5)
Sn1 Al1 7_666 2.8985(11)
Sn1 Al1 7_766 2.8986(11)
Sn1 Al1 7_656 2.8986(11)
Sn1 Li2 7_666 3.303(9)
Sn1 Li2 7_656 3.304(9)
Sn1 Li2 7_766 3.304(9)
Sn1 Li4 1_655 3.3219(5)
Sn2 Li1 . 2.585(19)
Sn2 Al2 . 2.8853(11)
Sn2 Al2 1_655 2.8853(11)
Sn2 Al2 1_665 2.8853(11)
Sn2 Li2 7_666 2.896(5)
Sn2 Li2 7_766 2.896(5)
Sn2 Li2 7_656 2.896(5)
Sn2 Li3 7_666 3.234(15)
Sn2 Li3 7_656 3.234(15)
Sn2 Li3 7_766 3.234(15)
Sn2 Li5 . 3.303(9)
Sn3 Al2 7 2.829(3)
Sn3 Al2 . 2.829(3)
Sn3 Li1 . 2.975(8)
Sn3 Li1 7 2.975(8)
Sn3 Li1 7_665 2.975(8)
Sn3 Li1 1_445 2.975(8)
Sn3 Li1 1_455 2.975(8)
Sn3 Li1 7_655 2.975(8)
Sn3 Li3 7_666 3.401(16)
Sn3 Li3 1_444 3.401(16)
Sn3 Li3 7_556 3.401(16)
Sn3 Li3 1_554 3.401(16)
Al1 Li2 . 2.862(16)
Al1 Li4 1_655 2.8713(10)
Al1 Li4 . 2.8713(10)
Al1 Li4 1_665 2.8713(10)
Al1 Sn1 7_666 2.8986(11)
Al1 Sn1 7_766 2.8986(11)
Al1 Sn1 7_656 2.8986(11)
Al2 Li5 . 2.822(16)
Al2 Li3 7_556 2.836(8)
Al2 Li3 7_666 2.836(8)
Al2 Li3 7_656 2.836(8)
Al2 Sn2 1_445 2.8853(11)
Al2 Sn2 1_455 2.8853(11)
Al2 Li1 1_445 3.175(10)
Al2 Li1 1_455 3.175(10)
Al2 Li1 . 3.175(10)
Li1 Li3 7_666 2.850(9)
Li1 Li3 7_766 2.850(9)
Li1 Li3 7_656 2.850(9)
Li1 Sn3 1_655 2.975(8)
Li1 Sn3 1_665 2.975(8)
Li1 Al2 1_655 3.175(10)
Li1 Al2 1_665 3.175(10)
Li1 Li3 1_554 3.24(4)
Li2 Li3 . 2.73(3)
Li2 Li5 7_656 2.863(7)
Li2 Li5 7_556 2.863(7)
Li2 Li5 7_666 2.863(7)
Li2 Sn2 7_666 2.896(5)
Li2 Sn2 7_766 2.896(5)
Li2 Sn2 7_656 2.896(5)
Li2 Sn1 7_666 3.304(9)
Li2 Sn1 7_656 3.304(9)
Li2 Sn1 7_766 3.304(9)
Li3 Al2 7_656 2.836(8)
Li3 Al2 7_556 2.836(8)
Li3 Al2 7_666 2.836(8)
Li3 Li1 7_666 2.850(9)
Li3 Li1 7_766 2.850(9)
Li3 Li1 7_656 2.850(9)
Li3 Sn2 7_666 3.234(15)
Li3 Sn2 7_656 3.234(15)
Li3 Sn2 7_766 3.234(15)
Li3 Li1 1_556 3.24(4)
Li3 Sn3 1_656 3.402(16)
Li4 Al1 7_556 2.8713(10)
Li4 Al1 7_666 2.8713(10)
Li4 Al1 1_445 2.8713(10)
Li4 Al1 7_656 2.8713(10)
Li4 Al1 1_455 2.8713(10)
Li4 Li5 7_556 2.888(16)
Li4 Li5 . 2.888(16)
Li4 Sn1 7_666 3.3219(5)
Li4 Sn1 1_445 3.3219(5)
Li4 Sn1 7_556 3.3219(5)
Li5 Li2 7_556 2.863(7)
Li5 Li2 7_666 2.863(7)
Li5 Li2 7_656 2.863(7)
Li5 Sn1 1_445 2.896(5)
Li5 Sn1 1_455 2.896(5)
Li5 Sn2 1_445 3.303(9)
Li5 Sn2 1_455 3.303(9)

_cod_database_fobs_code 2020747
