#------------------------------------------------------------------------------
#$Date: 2015-10-01 04:18:31 +0300 (Thu, 01 Oct 2015) $
#$Revision: 159066 $
#$URL: svn://www.crystallography.net/cod/cif/2/02/01/2020129.cif $
#------------------------------------------------------------------------------
#
# This file is available in the Crystallography Open Database (COD),
# http://www.crystallography.net/. The original data for this entry
# were provided by IUCr Journals, http://journals.iucr.org/.
#
# The file may be used within the scientific community so long as
# proper attribution is given to the journal article from which the
# data were obtained.
#
data_2020129
loop_
_publ_author_name
'Lutz, Martin'
'de Klein, Thomas J. S.'
'Huijben, Jeroen'
_publ_section_title
;
 5-Iodouracil: structure of a reflection twin
;
_journal_coeditor_code           SK3601
_journal_issue                   10
_journal_name_full               'Acta Crystallographica Section C'
_journal_page_first              912
_journal_page_last               915
_journal_paper_doi               10.1107/S2053229615017167
_journal_volume                  71
_journal_year                    2015
_chemical_formula_iupac          'C4 H3 I N2 O2'
_chemical_formula_moiety         'C4 H3 I N2 O2'
_chemical_formula_sum            'C4 H3 I N2 O2'
_chemical_formula_weight         237.98
_chemical_name_common            5-Iodouracil
_chemical_name_systematic
;
5-Iodo-1<i>H</i>-pyrimidine-2,4-dione
;
_space_group_crystal_system      monoclinic
_space_group_IT_number           4
_space_group_name_Hall           'P 2yb'
_space_group_name_H-M_alt        'P 1 21 1'
_symmetry_space_group_name_Hall  'P 2yb'
_symmetry_space_group_name_H-M   'P 1 21 1'
_atom_sites_solution_hydrogens   geom
_atom_sites_solution_primary     heavy
_atom_sites_solution_secondary   difmap
_audit_creation_method           SHELXL-2014/7
_cell_angle_alpha                90
_cell_angle_beta                 92.721(3)
_cell_angle_gamma                90
_cell_formula_units_Z            2
_cell_length_a                   4.8929(3)
_cell_length_b                   4.4195(2)
_cell_length_c                   14.1348(7)
_cell_measurement_reflns_used    4649
_cell_measurement_temperature    150(2)
_cell_measurement_theta_max      30.02
_cell_measurement_theta_min      4.17
_cell_volume                     305.31(3)
_computing_cell_refinement
;
PEAKREF (Schreurs, 2013)
;
_computing_data_collection
;
APEX2 (Bruker, 2007)
;
_computing_data_reduction
;
EVAL15 (Schreurs <i>et al.</i>,  2010) and TWINABS (Sheldrick,
2012)
;
_computing_molecular_graphics
;
PLATON (Spek, 2009)
;
_computing_publication_material
;
SHELXL2014 (Sheldrick, 2015)
;
_computing_structure_refinement
;
SHELXL2014 (Sheldrick, 2015)
;
_computing_structure_solution
;
coordinates from the literature (Sternglanz <i>et al.</i>,  1975)
;
_diffrn_ambient_temperature      150(2)
_diffrn_measured_fraction_theta_full 0.998
_diffrn_measured_fraction_theta_max 0.995
_diffrn_measurement_device_type  'Bruker Kappa APEXII'
_diffrn_measurement_method       '\f and \w scans'
_diffrn_radiation_type           MoK\a
_diffrn_radiation_wavelength     0.71073
_diffrn_reflns_av_R_equivalents  0.0226
_diffrn_reflns_limit_h_max       6
_diffrn_reflns_limit_h_min       -6
_diffrn_reflns_limit_k_max       6
_diffrn_reflns_limit_k_min       -6
_diffrn_reflns_limit_l_max       19
_diffrn_reflns_limit_l_min       -19
_diffrn_reflns_number            13501
_diffrn_reflns_theta_full        25.242
_diffrn_reflns_theta_max         30.087
_diffrn_reflns_theta_min         2.885
_exptl_absorpt_coefficient_mu    5.163
_exptl_absorpt_correction_T_max  0.4326
_exptl_absorpt_correction_T_min  0.3129
_exptl_absorpt_correction_type   multi-scan
_exptl_absorpt_process_details
;
(TWINABS; Sheldrick, 2012)
;
_exptl_crystal_colour            colourless
_exptl_crystal_density_diffrn    2.589
_exptl_crystal_description       needle
_exptl_crystal_F_000             220
_exptl_crystal_size_max          0.24
_exptl_crystal_size_mid          0.05
_exptl_crystal_size_min          0.04
_refine_diff_density_max         0.928
_refine_diff_density_min         -0.541
_refine_ls_abs_structure_details
;
Flack <i>x</i> determined using 728 quotients [(I+)-(I-)]/[(I+)+(I-)]
(Parsons <i>et al.</i>,  2013)
;
_refine_ls_abs_structure_Flack   -0.021(12)
_refine_ls_extinction_method     none
_refine_ls_goodness_of_fit_ref   1.087
_refine_ls_hydrogen_treatment    constr
_refine_ls_matrix_type           full
_refine_ls_number_parameters     83
_refine_ls_number_reflns         3122
_refine_ls_number_restraints     1
_refine_ls_restrained_S_all      1.087
_refine_ls_R_factor_all          0.0211
_refine_ls_R_factor_gt           0.0189
_refine_ls_shift/su_max          0.000
_refine_ls_shift/su_mean         0.000
_refine_ls_structure_factor_coef Fsqd
_refine_ls_weighting_details
'w=1/[\s^2^(Fo^2^)+(0.0254P)^2^+0.0706P] where P=(Fo^2^+2Fc^2^)/3'
_refine_ls_weighting_scheme      calc
_refine_ls_wR_factor_gt          0.0449
_refine_ls_wR_factor_ref         0.0455
_reflns_number_gt                2932
_reflns_number_total             3122
_reflns_threshold_expression     'I > 2\s(I)'
_cod_data_source_file            sk3601sup1.cif
_cod_data_source_block           I
_cod_database_code               2020129
_shelx_space_group_comment
;
The symmetry employed for this shelxl refinement is uniquely defined
by the following loop, which should always be used as a source of
symmetry information in preference to the above space-group names.
They are only intended as comments.
;
_shelx_hkl_file
;
  -1   0   0 6.35692 0.59504   2
   1   0   0 7.34202 0.63765   1
   2   0   0 3496.01 30.5306   1
  -2   0   0 2217.51 21.4267   2
   3   0   0 -0.5408 1.94181   1
  -3   0   0 21.4716 2.31153   2
   3   0  -1 403.892 13.8499  -2
   3   0   0 403.892 13.8499   1
   4   0  -1 1346.47 15.4569  -2
   4   0   0 1346.47 15.4569   1
  -5   0   0 182.759 4.77441   2
   5   0   0 306.050 6.64672   1
   6   0   0 206.434 5.82123   1
  -6   0   0 125.988 4.75918   2
   0  -1   0 8.39511 1.16654  -2
   0  -1   0 8.39511 1.16654   1
   0   1   0 11.2202 1.44973  -2
   0   1   0 11.2202 1.44973   1
   1   1   0 2494.40 19.5922   2
  -1  -1   0 4314.31 28.9464   1
  -1  -1   0 2695.27 17.2516   2
   1   1   0 4076.25 31.5465   1
   2   1   0 128.793 2.38709   2
  -2  -1   0 187.602 2.34472   1
  -2  -1   0 119.322 1.78711   2
   2   1   0 197.462 2.85460   1
  -3  -1   0 1558.51 18.3606   1
   3   1   0 1059.17 11.7061   2
   3  -1  -1 2986.51 68.1309  -2
  -3  -1   0 2986.51 68.1309   1
  -3  -1   0 1063.04 12.0252   2
   3   1   0 1640.65 15.3587   1
  -3   1   1 3124.72 62.8490  -2
   3   1   0 3124.72 62.8490   1
   4  -1  -1 52.8624 3.85695  -2
  -4  -1   0 52.8624 3.85695   1
  -4   1   1 43.1252 3.01607  -2
   4   1   0 43.1252 3.01607   1
  -5  -1   0 200.179 5.75613   1
   5   1   0 116.593 2.84398   2
   5   1   0 194.236 3.49451   1
  -5  -1   0 127.857 4.35206   2
   6   1   0 20.6702 3.26943   2
  -6  -1   0 45.1953 4.12555   1
   6   1   0 45.9143 4.26434   1
  -6  -1   0 27.2358 3.76877   2
   0  -2   0 8552.25 72.8055  -2
   0  -2   0 8552.25 72.8055   1
   0   2   0 8699.85 97.2967  -2
   0   2   0 8699.85 97.2967   1
   1   2   0 122.381 2.26446   2
  -1  -2   0 180.446 2.60418   1
   1   2   0 181.092 2.69153   1
  -1  -2   0 115.739 2.13131   2
  -2  -2   0 2296.80 17.5526   1
   2   2   0 1449.18 11.4908   2
  -2  -2   0 1474.42 11.7426   2
   2   2   0 2257.72 17.0686   1
  -3  -2   0 8.97810 1.81817   1
   3   2   0 10.2853 1.96853   2
   3  -2  -1 202.190 12.6647  -2
  -3  -2   0 202.190 12.6647   1
   3   2   0 12.0125 1.86442   1
  -3  -2   0 6.67010 1.63084   2
  -3   2   1 249.431 7.15296  -2
   3   2   0 249.431 7.15296   1
   4  -2  -1 1044.56 13.3325  -2
  -4  -2   0 1044.56 13.3325   1
  -4   2   1 1057.66 9.92061  -2
   4   2   0 1057.66 9.92061   1
   5   2   0 20.5822 3.14717   2
  -5  -2   0 33.3231 3.85467   1
   5   2   0 27.7457 3.31690   1
  -5  -2   0 19.4421 3.19342   2
   6   2   0 38.0842 4.15818   2
  -6  -2   0 55.9203 4.55773   1
   6   2   0 63.7933 4.79763   1
  -6  -2   0 37.2365 4.15683   2
   0  -3   0 0.03141 1.39836  -2
   0  -3   0 0.03141 1.39836   1
   0   3   0 5.89320 2.57989  -2
   0   3   0 5.89320 2.57989   1
  -1  -3   0 1410.87 10.4202   1
   1   3   0 887.623 8.05406   2
   1   3   0 1380.22 11.4932   1
  -1  -3   0 906.413 7.25420   2
  -2  -3   0 15.1708 1.68449   1
   2   3   0 13.0027 1.98613   2
  -2  -3   0 13.3288 1.53022   2
   2   3   0 24.3946 2.14580   1
  -3  -3   0 531.483 9.55479   1
   3   3   0 353.222 7.63182   2
   3  -3  -1 876.166 28.7961  -2
  -3  -3   0 876.166 28.7961   1
  -3  -3   0 343.247 7.06357   2
  -3   3   1 920.628 18.0996  -2
   3   3   0 920.628 18.0996   1
   3   3   0 547.867 9.71159   1
   4  -3  -1 67.3211 3.68419  -2
  -4  -3   0 67.3211 3.68419   1
  -4   3   1 56.8786 3.92730  -2
   4   3   0 56.8786 3.92730   1
  -5  -3   0 179.089 6.76922   1
   5   3   0 102.884 4.91913   2
  -5  -3   0 115.278 5.78697   2
   5   3   0 159.467 6.48467   1
   6   3   0 10.7369 4.62363   2
  -6  -3   0 15.0307 5.98697   1
   6   3   0 15.7437 4.78520   1
  -6  -3   0 7.50718 5.49137   2
   0  -4   0 1471.76 17.2311  -2
   0  -4   0 1471.76 17.2311   1
   0   4   0 1554.29 21.4568  -2
   0   4   0 1554.29 21.4568   1
   1   4   0 22.4502 3.16913   2
  -1  -4   0 21.0051 2.22462   1
   1   4   0 28.4752 3.15433   1
  -1  -4   0 15.7544 2.14423   2
   2   4   0 479.507 7.75855   2
  -2  -4   0 719.106 8.22624   1
   2   4   0 745.361 10.0174   1
  -2  -4   0 456.847 5.77494   2
   3   4   0 2.46599 6.47303   2
   3  -4  -1 28.0731 6.16654  -2
  -3  -4   0 28.0731 6.16654   1
  -3  -4   0 -4.4065 3.63475   1
   3   4   0 0.74109 3.99795   1
  -3  -4   0 1.32156 3.68491   2
  -3   4   1 38.2756 10.5799  -2
   3   4   0 38.2756 10.5799   1
   4  -4  -1 351.163 7.23095  -2
  -4  -4   0 351.163 7.23095   1
  -4   4   1 356.693 8.72914  -2
   4   4   0 356.693 8.72914   1
   5   4   0 1.51787 3.69892   2
  -5  -4   0 3.92593 4.97399   1
  -5  -4   0 4.36949 4.56398   2
   5   4   0 1.14610 4.03419   1
   0  -5   0 4.64957 4.26596  -2
   0  -5   0 4.64957 4.26596   1
   0   5   0 1.85019 5.37922  -2
   0   5   0 1.85019 5.37922   1
  -1  -5   0 578.928 8.53023   1
   1   5   0 429.102 8.23265   2
  -1  -5   0 375.847 6.87118   2
   1   5   0 615.164 9.72769   1
   2   5   0 1.01770 3.92481   2
  -2  -5   0 2.26495 3.20725   1
  -2  -5   0 6.11704 3.50886   2
   2   5   0 6.09166 4.08046   1
   3  -5  -1 329.027 9.05831  -2
  -3  -5   0 329.027 9.05831   1
  -3   5   1 345.915 9.82049  -2
   3   5   0 345.915 9.82049   1
   4  -5  -1 27.8609 5.38567  -2
  -4  -5   0 27.8609 5.38567   1
  -4   5   1 49.6910 6.36865  -2
   4   5   0 49.6910 6.36865   1
   0  -6   0 554.122 17.0830  -2
   0  -6   0 554.122 17.0830   1
   0   6   0 551.458 16.1775  -2
   0   6   0 551.458 16.1775   1
   1   6   0 4.32356 5.86647   2
  -1  -6   0 9.68213 4.87410   1
   1   6   0 6.35823 5.91144   1
  -1  -6   0 1.17138 4.63542   2
  -6   0   1 242.735 6.12415   1
   6   0  -1 158.404 5.11362   2
   5   0  -1 295.760 6.51059   2
  -5   0   1 464.094 7.31226   1
  -4   0   0 1164.15 13.8073  -2
  -4   0   1 1164.15 13.8073   1
  -3   0   0 712.535 19.7153  -2
  -3   0   1 712.535 19.7153   1
  -3   0   1 659.481 9.17050   1
   3   0  -1 412.926 8.28035   2
   2   0  -1 1832.17 16.4604   2
  -2   0   1 2910.28 22.9232   1
  -1   0   1 3976.54 30.4239   1
   1   0  -1 2483.46 23.5183   2
  -1   0  -1 2505.20 19.3338   2
   1   0   1 3906.41 32.9585   1
  -2   0  -1 1073.64 8.98937   2
   2   0   1 1736.16 15.7496   1
  -3   0  -1 418.295 5.94353   2
   3   0   1 601.185 7.06115   1
   3   0  -2 1376.96 34.6669  -2
   3   0   1 1376.96 34.6669   1
   4   0  -2 627.656 7.90448  -2
   4   0   1 627.656 7.90448   1
  -5   0  -1 23.7058 2.94747   2
   5   0   1 48.7358 3.79661   1
  -6   0  -1 1.40611 3.44699   2
   6   0   1 -0.8263 3.68927   1
  -6   1   1 26.7161 3.73386   2
   6  -1  -1 39.7574 4.07403   1
   6  -1  -1 23.6025 3.69036   2
  -6   1   1 37.0269 4.10534   1
  -5   1   1 233.286 3.76604   2
   5  -1  -1 383.334 6.85275   1
  -5   1   1 363.467 4.75328   1
   5  -1  -1 235.501 6.06666   2
  -4  -1   0 57.8788 3.92752  -2
   4  -1  -1 57.8788 3.92752   1
   4   1   0 48.3965 2.51876  -2
  -4   1   1 48.3965 2.51876   1
  -3   1   1 1345.45 12.8425   2
   3  -1  -1 2010.66 20.5576   1
  -3   1   1 2024.50 18.4243   1
   3  -1  -1 1370.63 16.4325   2
   3   1   0 3358.06 67.9647  -2
  -3   1   1 3358.06 67.9647   1
  -2   1   1 431.096 4.50371   2
   2  -1  -1 676.566 5.80467   1
   2  -1  -1 420.326 3.99232   2
  -2   1   1 669.376 6.33715   1
   1  -1  -1 2407.34 16.7003   1
  -1   1   1 1510.45 11.2830   2
   1  -1  -1 1504.99 10.5188   2
  -1   1   1 2445.31 17.7727   1
   0  -1  -1 3720.18 23.7705  -2
   0  -1  -1 3720.18 23.7705   1
   0   1   1 3561.39 23.6373  -2
   0   1   1 3561.39 23.6373   1
  -1  -1  -1 9899.71 69.1955   1
   1   1   1 6307.80 42.0646   2
  -1  -1  -1 6213.80 39.4738   2
   1   1   1 9999.99 71.1080   1
   2   1   1 1506.87 12.5849   2
  -2  -1  -1 2414.92 18.0780   1
  -2  -1  -1 1507.97 11.6006   2
   2   1   1 2350.24 18.8593   1
   3  -1  -2 1426.67 36.1080  -2
  -3  -1  -1 1426.67 36.1080   1
  -3  -1  -1 1311.25 15.9165   1
   3   1   1 791.420 9.12143   2
  -3   1   2 1350.23 29.1981  -2
   3   1   1 1350.23 29.1981   1
  -3  -1  -1 823.435 8.80894   2
   3   1   1 1275.18 12.3209   1
   4  -1  -2 1172.97 14.1460  -2
  -4  -1  -1 1172.97 14.1460   1
  -4   1   2 1180.67 12.3162  -2
   4   1   1 1180.67 12.3162   1
   5   1   1 147.258 3.12931   2
  -5  -1  -1 209.163 5.90929   1
   5   1   1 224.777 4.32031   1
  -5  -1  -1 134.828 4.45079   2
   6   1   1 132.743 4.90747   2
  -6  -1  -1 206.868 6.69034   1
  -6  -1  -1 130.875 5.59365   2
   6   1   1 203.002 6.34484   1
  -6   2   1 58.7832 4.13789   2
   6  -2  -1 88.7143 4.96736   1
  -6   2   1 85.1104 5.02174   1
   6  -2  -1 56.9515 4.42491   2
   5  -2  -1 191.309 5.36709   1
  -5   2   1 117.569 4.38114   2
   5  -2  -1 119.074 4.52289   2
  -5   2   1 186.601 5.34640   1
  -4  -2   0 886.456 10.7387  -2
   4  -2  -1 886.456 10.7387   1
   4   2   0 858.587 10.0993  -2
  -4   2   1 858.587 10.0993   1
  -3   2   1 242.899 4.52616   2
   3  -2  -1 345.666 4.97963   1
   3  -2  -1 213.428 3.82525   2
   3   2   0 382.578 7.55511  -2
  -3   2   1 382.578 7.55511   1
  -3   2   1 366.468 5.71163   1
   2  -2  -1 1378.04 11.1114   1
  -2   2   1 944.757 8.75693   2
   2  -2  -1 878.207 7.56199   2
  -2   2   1 1446.55 11.5111   1
   1  -2  -1 1627.22 11.3139   1
  -1   2   1 1024.96 8.47120   2
  -1   2   1 1609.36 12.6310   1
   1  -2  -1 1026.85 8.10067   2
   0  -2  -1 2585.51 17.1444  -2
   0  -2  -1 2585.51 17.1444   1
   0   2   1 2644.47 21.8896  -2
   0   2   1 2644.47 21.8896   1
  -1  -2  -1 773.106 5.86357   1
   1   2   1 458.616 4.65074   2
   1   2   1 696.628 6.23001   1
  -1  -2  -1 496.854 4.29313   2
  -2  -2  -1 1431.17 10.6209   1
   2   2   1 819.914 7.18297   2
  -2  -2  -1 860.188 6.95137   2
   2   2   1 1311.41 11.4921   1
   3  -2  -2 712.461 23.2125  -2
  -3  -2  -1 712.461 23.2125   1
  -3  -2  -1 224.141 4.26616   1
   3   2   1 163.359 3.77879   2
  -3  -2  -1 144.873 2.96749   2
   3   2   1 235.902 4.04652   1
  -3   2   2 715.464 19.9973  -2
   3   2   1 715.464 19.9973   1
   4  -2  -2 346.000 7.05839  -2
  -4  -2  -1 346.000 7.05839   1
  -4   2   2 359.616 5.56027  -2
   4   2   1 359.616 5.56027   1
  -5  -2  -1 73.1318 4.51815   1
   5   2   1 44.9943 3.28100   2
  -5  -2  -1 48.5691 3.65034   2
   5   2   1 73.4311 4.61989   1
   6   2   1 36.0791 3.80335   2
  -6  -2  -1 58.9646 4.59636   1
  -6  -2  -1 39.0077 4.12047   2
   6   2   1 68.8716 4.97590   1
  -6   3   1 -3.5370 4.25854   2
   6  -3  -1 1.31316 5.75332   1
   6  -3  -1 -3.7262 5.26277   2
  -6   3   1 -1.2799 4.34061   1
   5  -3  -1 73.2190 5.43657   1
  -5   3   1 40.3568 4.01621   2
   5  -3  -1 36.0340 4.58634   2
  -5   3   1 58.0925 4.38111   1
  -4  -3   0 94.2182 3.97471  -2
   4  -3  -1 94.2182 3.97471   1
   4   3   0 93.9647 4.38908  -2
  -4   3   1 93.9647 4.38908   1
  -3  -3   0 939.870 19.9737  -2
   3  -3  -1 939.870 19.9737   1
  -3   3   1 389.059 8.02716   2
   3  -3  -1 605.879 10.0013   1
  -3   3   1 625.535 10.5450   1
   3  -3  -1 376.423 7.63587   2
   3   3   0 927.265 14.4045  -2
  -3   3   1 927.265 14.4045   1
   2  -3  -1 350.401 4.04578   1
  -2   3   1 233.486 4.03595   2
   2  -3  -1 216.931 3.67630   2
  -2   3   1 354.861 5.02571   1
   1  -3  -1 1893.20 13.4055   1
  -1   3   1 1245.37 10.5472   2
   1  -3  -1 1208.94 9.81481   2
  -1   3   1 1890.08 15.1018   1
   0  -3  -1 425.898 3.80178  -2
   0  -3  -1 425.898 3.80178   1
   0   3   1 403.630 5.38942  -2
   0   3   1 403.630 5.38942   1
  -1  -3  -1 1423.66 11.2485   1
   1   3   1 940.416 9.55832   2
   1   3   1 1467.94 12.1068   1
  -1  -3  -1 921.663 7.33471   2
   2   3   1 357.308 5.09311   2
  -2  -3  -1 523.653 5.99962   1
  -2  -3  -1 331.255 4.31500   2
   2   3   1 546.210 6.43762   1
   3   3   1 302.021 7.01329   2
   3  -3  -2 620.526 12.0001  -2
  -3  -3  -1 620.526 12.0001   1
  -3  -3  -1 468.421 13.8064   1
   3   3   1 465.348 7.64770   1
  -3  -3  -1 303.039 6.07660   2
  -3   3   2 578.751 19.3985  -2
   3   3   1 578.751 19.3985   1
   4  -3  -2 372.585 7.43270  -2
  -4  -3  -1 372.585 7.43270   1
  -4   3   2 384.749 6.94169  -2
   4   3   1 384.749 6.94169   1
  -5  -3  -1 178.687 6.76694   1
   5   3   1 117.520 5.18968   2
   5   3   1 197.022 7.06290   1
  -5  -3  -1 116.624 5.86634   2
   6   3   1 23.7307 5.92449   2
  -6  -3  -1 42.1034 12.8997   1
   6   3   1 42.7075 6.43239   1
  -6  -3  -1 36.6058 12.1508   2
   5  -4  -1 43.2836 5.60898   1
  -5   4   1 30.4417 4.58990   2
   5  -4  -1 17.1299 4.69593   2
  -5   4   1 42.7019 4.85710   1
  -4  -4   0 333.378 7.02775  -2
   4  -4  -1 333.378 7.02775   1
   4   4   0 334.211 8.59670  -2
  -4   4   1 334.211 8.59670   1
  -3   4   1 37.1403 4.74973   2
  -3  -4   0 53.2875 6.58803  -2
   3  -4  -1 53.2875 6.58803   1
   3  -4  -1 50.3639 4.95502   1
   3   4   0 58.2888 6.51270  -2
  -3   4   1 58.2888 6.51270   1
   3  -4  -1 29.9526 4.42443   2
  -3   4   1 53.9920 8.71787   1
   2  -4  -1 392.658 5.35350   1
  -2   4   1 265.685 5.78909   2
   2  -4  -1 247.637 4.58835   2
  -2   4   1 392.372 7.09443   1
   1  -4  -1 350.913 5.39050   1
  -1   4   1 264.486 5.67235   2
   1  -4  -1 232.029 3.96630   2
  -1   4   1 394.426 6.92423   1
   0  -4  -1 1006.97 9.13179  -2
   0  -4  -1 1006.97 9.13179   1
   0   4   1 1047.17 11.2963  -2
   0   4   1 1047.17 11.2963   1
   1   4   1 194.889 5.14795   2
  -1  -4  -1 261.556 4.21011   1
   1   4   1 282.501 5.84168   1
  -1  -4  -1 172.876 3.98118   2
   2   4   1 399.613 7.07470   2
  -2  -4  -1 631.428 7.57439   1
   2   4   1 638.051 9.12815   1
  -2  -4  -1 403.888 5.40733   2
  -3  -4  -1 97.1143 8.37241   1
   3  -4  -2 399.796 9.09976  -2
  -3  -4  -1 399.796 9.09976   1
  -3  -4  -1 64.1931 7.36189   2
  -3   4   2 420.062 9.30177  -2
   3   4   1 420.062 9.30177   1
   4  -4  -2 140.690 5.21859  -2
  -4  -4  -1 140.690 5.21859   1
  -4   4   2 145.842 6.42562  -2
   4   4   1 145.842 6.42562   1
  -5  -4  -1 29.7280 5.29892   1
   5   4   1 18.9449 4.35200   2
  -5  -4  -1 14.1253 4.84933   2
   5   4   1 26.9230 4.67532   1
  -4  -5   0 47.0592 5.68698  -2
   4  -5  -1 47.0592 5.68698   1
   4   5   0 54.4118 6.36552  -2
  -4   5   1 54.4118 6.36552   1
  -3  -5   0 344.265 9.23352  -2
   3  -5  -1 344.265 9.23352   1
   3   5   0 338.715 9.80402  -2
  -3   5   1 338.715 9.80402   1
   2  -5  -1 106.665 4.98031   1
  -2   5   1 86.3254 5.50540   2
   2  -5  -1 60.9738 3.99893   2
  -2   5   1 109.939 5.90587   1
  -1   5   1 209.275 6.05970   2
   1  -5  -1 298.814 6.23541   1
  -1   5   1 314.603 7.07418   1
   1  -5  -1 187.416 5.96609   2
   0  -5  -1 354.369 7.48859  -2
   0  -5  -1 354.369 7.48859   1
   0   5   1 356.649 8.25718  -2
   0   5   1 356.649 8.25718   1
  -1  -5  -1 324.297 7.45983   1
   1   5   1 193.947 5.90523   2
  -1  -5  -1 200.827 5.30964   2
   1   5   1 282.264 6.68397   1
   2   5   1 141.831 5.46786   2
  -2  -5  -1 206.475 5.67715   1
  -2  -5  -1 133.567 5.25193   2
   2   5   1 205.891 7.07798   1
   3  -5  -2 150.795 7.24774  -2
  -3  -5  -1 150.795 7.24774   1
  -3   5   2 143.338 7.63736  -2
   3   5   1 143.338 7.63736   1
   4  -5  -2 112.647 6.51211  -2
  -4  -5  -1 112.647 6.51211   1
  -4   5   2 132.141 8.67562  -2
   4   5   1 132.141 8.67562   1
  -1   6   1 36.0804 6.65396   2
   1  -6  -1 73.0552 6.27202   1
   1  -6  -1 50.4266 5.76968   2
  -1   6   1 75.7741 6.26841   1
   0  -6  -1 214.254 8.10589  -2
   0  -6  -1 214.254 8.10589   1
   0   6   1 253.132 8.33741  -2
   0   6   1 253.132 8.33741   1
  -1  -6  -1 81.5469 6.45139   1
   1   6   1 65.6761 6.07019   2
   1   6   1 82.6616 7.42494   1
  -1  -6  -1 50.0580 5.73320   2
   6   0  -2 21.9775 3.50425   2
  -6   0   2 20.5795 3.92916   1
   5   0  -2 208.686 5.58480   2
  -5   0   2 342.381 6.34157   1
  -4   0  -1 511.026 7.16327  -2
  -4   0   2 511.026 7.16327   1
  -3   0   2 1269.20 13.3790   1
   3   0  -2 836.702 9.36233   2
  -3   0  -1 1723.28 40.0622  -2
  -3   0   2 1723.28 40.0622   1
   2   0  -2 1235.74 10.4617   2
  -2   0   2 2034.14 16.2435   1
   1   0  -2 1884.37 14.5605   2
  -1   0   2 3040.08 25.4551   1
   0   0  -2 116.845 1.34790  -2
   0   0   2 116.845 1.34790   1
   1   0   2 3946.69 30.0203   1
  -1   0  -2 2505.58 18.0749   2
   2   0   2 1286.45 10.9720   1
  -2   0  -2 819.383 7.17800   2
  -3   0  -2 1823.64 15.2117   2
   3   0   2 2746.68 24.1802   1
   3   0  -3 4130.20 92.2495  -2
   3   0   2 4130.20 92.2495   1
   4   0  -3 125.004 4.23590  -2
   4   0   2 125.004 4.23590   1
   5   0   2 185.715 5.50876   1
  -5   0  -2 115.378 4.03979   2
   6   0   2 28.0932 4.32015   1
  -6   0  -2 20.5057 3.89379   2
   6  -1  -2 71.8899 4.50389   1
  -6   1   2 39.9439 4.08368   2
   6  -1  -2 45.1698 4.05346   2
  -6   1   2 65.8028 4.02430   1
   5  -1  -2 126.441 4.47222   1
  -5   1   2 85.4358 2.76855   2
   5  -1  -2 84.8845 4.38207   2
  -5   1   2 138.187 3.10793   1
  -4  -1  -1 1617.49 16.1907  -2
   4  -1  -2 1617.49 16.1907   1
   4   1   1 1647.82 13.6841  -2
  -4   1   2 1647.82 13.6841   1
   3  -1  -2 82.1311 2.71958   1
  -3   1   2 58.4892 2.32745   2
   3   1   1 955.791 23.9212  -2
  -3   1   2 955.791 23.9212   1
  -3   1   2 72.2234 2.15951   1
   3  -1  -2 105.111 4.65156   2
  -2   1   2 2111.86 17.0650   2
   2  -1  -2 3305.76 22.7156   1
  -2   1   2 3332.73 26.3019   1
   2  -1  -2 2086.48 15.7653   2
  -1   1   2 669.577 5.40809   2
   1  -1  -2 1035.06 7.80226   1
   1  -1  -2 638.520 4.77470   2
  -1   1   2 1050.60 8.15620   1
   0  -1  -2 9379.68 59.3078  -2
   0  -1  -2 9379.68 59.3078   1
   0   1   2 9444.08 67.2930  -2
   0   1   2 9444.08 67.2930   1
   1   1   2 193.099 2.24253   2
  -1  -1  -2 251.602 2.39896   1
  -1  -1  -2 154.727 1.95682   2
   1   1   2 313.719 2.97068   1
  -2  -1  -2 2288.63 17.2747   1
   2   1   2 1464.72 11.2373   2
   2   1   2 2270.59 18.2603   1
  -2  -1  -2 1450.39 10.5614   2
  -3  -1  -2 32.1953 2.45472   1
   3   1   2 21.6347 1.83319   2
  -3  -1  -2 21.8722 1.99285   2
   3   1   2 28.8638 1.78629   1
  -3   1   3 87.0195 6.57881  -2
   3   1   2 87.0195 6.57881   1
   4  -1  -3 916.114 11.9508  -2
  -4  -1  -2 916.114 11.9508   1
  -4   1   3 951.411 10.3199  -2
   4   1   2 951.411 10.3199   1
   5   1   2 15.6136 2.08828   2
  -5  -1  -2 26.8984 3.61763   1
   5   1   2 21.6191 3.22320   1
  -5  -1  -2 17.2779 3.03703   2
   6   1   2 20.9443 3.57604   2
  -6  -1  -2 21.2654 4.25995   1
  -6  -1  -2 15.8326 3.98305   2
   6   1   2 28.6211 4.89905   1
  -6   2   2 3.63191 3.61450   2
   6  -2  -2 3.88475 3.69254   1
  -6   2   2 5.97696 3.71509   1
   6  -2  -2 8.08660 3.63849   2
   5  -2  -2 83.1191 4.17850   1
  -5   2   2 46.7636 4.04947   2
   5  -2  -2 55.8383 4.24843   2
  -5   2   2 88.4614 3.85120   1
  -4  -2  -1 316.564 6.10143  -2
   4  -2  -2 316.564 6.10143   1
   4   2   1 332.382 5.88205  -2
  -4   2   2 332.382 5.88205   1
   3  -2  -2 795.792 8.05923   1
  -3   2   2 486.487 6.09775   2
  -3   2   2 747.638 9.30863   1
   3   2   1 880.584 13.1556  -2
  -3   2   2 880.584 13.1556   1
   3  -2  -2 514.004 6.87348   2
   2  -2  -2 554.993 5.03595   1
  -2   2   2 348.359 4.25602   2
  -2   2   2 544.335 5.34998   1
   2  -2  -2 373.281 4.03541   2
  -1   2   2 1497.33 11.7786   2
   1  -2  -2 2356.08 15.8657   1
   1  -2  -2 1475.14 9.48296   2
  -1   2   2 2356.23 17.9286   1
   0  -2  -2 1381.35 9.69351  -2
   0  -2  -2 1381.35 9.69351   1
   0   2   2 1339.65 10.6298  -2
   0   2   2 1339.65 10.6298   1
  -1  -2  -2 2647.67 16.3055   1
   1   2   2 1676.55 14.5826   2
  -1  -2  -2 1685.63 11.6600   2
   1   2   2 2625.30 19.6859   1
   2   2   2 733.754 6.67272   2
  -2  -2  -2 1112.37 9.18260   1
   2   2   2 1169.97 9.65559   1
  -2  -2  -2 682.537 6.60527   2
  -3  -2  -2 1526.34 16.0613   1
   3   2   2 957.688 11.2170   2
   3  -2  -3 2774.77 65.8951  -2
  -3  -2  -2 2774.77 65.8951   1
  -3  -2  -2 980.937 10.1671   2
   3   2   2 1499.91 14.4870   1
  -3   2   3 2762.27 57.4261  -2
   3   2   2 2762.27 57.4261   1
   4  -2  -3 179.584 5.50140  -2
  -4  -2  -2 179.584 5.50140   1
  -4   2   3 172.147 4.51537  -2
   4   2   2 172.147 4.51537   1
  -5  -2  -2 183.029 5.91986   1
   5   2   2 108.415 4.51853   2
   5   2   2 165.934 5.90260   1
  -5  -2  -2 97.2330 4.19207   2
   6   2   2 11.6007 3.48087   2
  -6  -2  -2 20.3795 4.45414   1
   6   2   2 20.3554 4.25100   1
  -6  -2  -2 12.7777 4.11165   2
  -6   3   2 34.7249 5.13738   2
   6  -3  -2 68.1644 7.05326   1
   6  -3  -2 42.9965 6.36928   2
  -6   3   2 55.5068 5.52155   1
  -5   3   2 49.5845 4.77957   2
   5  -3  -2 67.0830 5.34485   1
  -5   3   2 75.9173 4.67423   1
   5  -3  -2 52.7798 4.89090   2
  -4  -3  -1 474.399 7.69635  -2
   4  -3  -2 474.399 7.69635   1
   4   3   1 462.053 7.73779  -2
  -4   3   2 462.053 7.73779   1
  -3   3   2 116.078 4.85781   2
   3  -3  -2 165.067 4.88538   1
  -3  -3  -1 485.371 18.7783  -2
   3  -3  -2 485.371 18.7783   1
  -3   3   2 171.016 5.53211   1
   3  -3  -2 100.795 6.66391   2
   3   3   1 483.356 9.99570  -2
  -3   3   2 483.356 9.99570   1
  -2   3   2 459.041 5.70761   2
   2  -3  -2 668.386 6.70857   1
   2  -3  -2 425.977 5.26453   2
  -2   3   2 710.991 7.83702   1
   1  -3  -2 173.158 2.69425   1
  -1   3   2 128.033 2.62974   2
   1  -3  -2 128.381 2.57423   2
  -1   3   2 193.627 3.82939   1
   0  -3  -2 3878.06 25.6608  -2
   0  -3  -2 3878.06 25.6608   1
   0   3   2 3987.23 32.9646  -2
   0   3   2 3987.23 32.9646   1
   1   3   2 91.2792 2.89224   2
  -1  -3  -2 147.101 2.76413   1
  -1  -3  -2 86.9110 2.04306   2
   1   3   2 143.971 2.76341   1
   2   3   2 688.455 7.65511   2
  -2  -3  -2 1051.69 9.81563   1
  -2  -3  -2 670.478 6.68926   2
   2   3   2 1059.65 10.2319   1
   3  -3  -3 340.506 8.35442  -2
  -3  -3  -2 340.506 8.35442   1
  -3  -3  -2 371.544 15.7275   1
   3   3   2 193.816 6.66844   2
   3   3   2 327.052 6.31853   1
  -3  -3  -2 201.113 5.04469   2
  -3   3   3 326.849 14.6614  -2
   3   3   2 326.849 14.6614   1
   4  -3  -3 380.964 7.56444  -2
  -4  -3  -2 380.964 7.56444   1
  -4   3   3 386.893 6.97847  -2
   4   3   2 386.893 6.97847   1
   5   3   2 4.38990 3.49236   2
  -5  -3  -2 -6.5132 4.80053   1
   5   3   2 0.18854 3.96261   1
  -5  -3  -2 -0.0009 4.72977   2
  -5   4   2 21.4331 4.49722   2
   5  -4  -2 24.7319 5.24165   1
   5  -4  -2 14.5853 4.88902   2
  -5   4   2 20.7774 4.09106   1
  -4  -4  -1 120.544 4.99852  -2
   4  -4  -2 120.544 4.99852   1
   4   4   1 119.110 6.19738  -2
  -4   4   2 119.110 6.19738   1
   3  -4  -2 453.739 15.8229   1
  -3  -4  -1 504.870 9.79003  -2
   3  -4  -2 504.870 9.79003   1
   3   4   1 542.934 10.5835  -2
  -3   4   2 542.934 10.5835   1
   3  -4  -2 298.591 12.5432   2
   2  -4  -2 153.893 3.64279   1
  -2   4   2 98.8050 4.86064   2
  -2   4   2 148.855 4.86547   1
   2  -4  -2 108.773 3.36054   2
   1  -4  -2 768.941 8.48442   1
  -1   4   2 539.245 8.14259   2
   1  -4  -2 500.396 5.87613   2
  -1   4   2 803.711 10.4876   1
   0  -4  -2 520.406 5.94215  -2
   0  -4  -2 520.406 5.94215   1
   0   4   2 551.702 7.48587  -2
   0   4   2 551.702 7.48587   1
  -1  -4  -2 857.998 8.93196   1
   1   4   2 538.660 8.21687   2
  -1  -4  -2 550.636 6.88350   2
   1   4   2 818.305 10.4299   1
  -2  -4  -2 92.9237 3.31071   1
   2   4   2 63.0359 3.80803   2
   2   4   2 80.7128 4.57561   1
  -2  -4  -2 62.8029 2.80716   2
   3  -4  -3 821.968 12.8873  -2
  -3  -4  -2 821.968 12.8873   1
  -3   4   3 823.255 13.1087  -2
   3   4   2 823.255 13.1087   1
   4  -4  -3 46.6371 4.64902  -2
  -4  -4  -2 46.6371 4.64902   1
  -4   4   3 41.0150 5.96149  -2
   4   4   2 41.0150 5.96149   1
  -5  -4  -2 115.303 6.66609   1
   5   4   2 71.6789 5.26494   2
  -5  -4  -2 63.7168 5.63021   2
   5   4   2 113.569 5.99842   1
  -4  -5  -1 147.764 6.95248  -2
   4  -5  -2 147.764 6.95248   1
   4   5   1 141.594 7.56867  -2
  -4   5   2 141.594 7.56867   1
  -3  -5  -1 107.238 6.94024  -2
   3  -5  -2 107.238 6.94024   1
   3   5   1 100.688 7.23298  -2
  -3   5   2 100.688 7.23298   1
   2  -5  -2 239.994 6.44891   1
  -2   5   2 165.064 6.58433   2
   2  -5  -2 150.845 5.08544   2
  -2   5   2 238.218 6.54785   1
   1  -5  -2 89.4790 3.88349   1
  -1   5   2 55.7270 4.27388   2
  -1   5   2 96.8442 4.83208   1
   1  -5  -2 63.0384 4.44565   2
   0  -5  -2 605.901 8.70628  -2
   0  -5  -2 605.901 8.70628   1
   0   5   2 663.557 11.2801  -2
   0   5   2 663.557 11.2801   1
   1   5   2 8.66912 3.54661   2
  -1  -5  -2 17.2331 3.80602   1
   1   5   2 23.2456 3.74922   1
  -1  -5  -2 9.14240 2.86521   2
  -2  -5  -2 203.834 6.11256   1
   2   5   2 136.341 5.45478   2
  -2  -5  -2 136.017 5.29338   2
   2   5   2 209.635 7.13406   1
   3  -5  -3 49.0345 6.04982  -2
  -3  -5  -2 49.0345 6.04982   1
  -3   5   3 28.6502 6.24948  -2
   3   5   2 28.6502 6.24948   1
   4  -5  -3 175.974 9.88385  -2
  -4  -5  -2 175.974 9.88385   1
  -4   5   3 211.083 16.7017  -2
   4   5   2 211.083 16.7017   1
   1  -6  -2 214.986 8.33508   1
  -1   6   2 148.170 8.52296   2
  -1   6   2 224.091 8.17907   1
   1  -6  -2 134.053 6.34922   2
   0  -6  -2 25.1802 5.30742  -2
   0  -6  -2 25.1802 5.30742   1
   0   6   2 38.0597 5.59425  -2
   0   6   2 38.0597 5.59425   1
  -1  -6  -2 203.667 7.28422   1
   1   6   2 140.398 7.23268   2
   1   6   2 206.300 9.23648   1
  -1  -6  -2 131.321 7.07918   2
  -6   0   3 4.32324 3.74397   1
   6   0  -3 1.48068 3.62171   2
  -5   0   3 154.335 4.52121   1
   5   0  -3 105.398 4.48701   2
  -4   0  -2 90.9301 3.67123  -2
  -4   0   3 90.9301 3.67123   1
   3   0  -3 1567.42 14.3939   2
  -3   0  -2 4320.29 86.3174  -2
  -3   0   3 4320.29 86.3174   1
  -3   0   3 2418.00 19.6758   1
  -2   0   3 1699.42 13.8170   1
   2   0  -3 1059.02 9.22221   2
  -1   0   3 7728.03 60.1762   1
   1   0  -3 4782.39 36.3201   2
   0   0  -3 10.3466 0.93293  -2
   0   0   3 10.3466 0.93293   1
  -1   0  -3 3125.58 26.6864   2
   1   0   3 4891.34 37.1938   1
   2   0   3 665.142 6.37309   1
  -2   0  -3 421.790 4.33471   2
  -3   0  -3 416.370 5.10917   2
   3   0   3 645.757 6.85980   1
   3   0  -4 821.884 24.4213  -2
   3   0   3 821.884 24.4213   1
   4   0  -4 552.610 8.65321  -2
   4   0   3 552.610 8.65321   1
   5   0   3 318.833 6.98389   1
  -5   0  -3 203.818 5.57518   2
  -6   0  -3 6.10723 3.62940   2
   6   0   3 5.87616 4.57887   1
   6  -1  -3 57.6520 4.77414   1
  -6   1   3 41.5173 4.17365   2
  -6   1   3 59.5988 4.12046   1
   6  -1  -3 41.5859 4.49661   2
  -5   1   3 45.0360 2.78105   2
   5  -1  -3 79.8014 3.97968   1
  -5   1   3 79.2884 2.64570   1
   5  -1  -3 50.9024 3.95643   2
  -4  -1  -2 870.836 10.3136  -2
   4  -1  -3 870.836 10.3136   1
   4   1   2 920.699 9.41389  -2
  -4   1   3 920.699 9.41389   1
  -3   1   3 59.2758 2.06759   2
   3  -1  -3 92.2730 2.84744   1
  -3   1   3 88.3256 2.66482   1
   3  -1  -3 61.1535 1.69320   2
   3   1   2 101.621 8.73939  -2
  -3   1   3 101.621 8.73939   1
  -2   1   3 1556.30 12.8434   2
   2  -1  -3 2546.19 17.8206   1
  -2   1   3 2434.03 17.9107   1
   2  -1  -3 1552.63 12.0997   2
  -1   1   3 36.2814 0.96764   2
   1  -1  -3 76.3074 1.52642   1
   1  -1  -3 48.9722 1.29630   2
  -1   1   3 59.2507 1.58798   1
   0  -1  -3 5516.00 37.8718  -2
   0  -1  -3 5516.00 37.8718   1
   0   1   3 5442.50 42.2169  -2
   0   1   3 5442.50 42.2169   1
   1   1   3 372.242 4.02467   2
  -1  -1  -3 547.299 4.74220   1
   1   1   3 608.743 4.72965   1
  -1  -1  -3 339.093 3.25636   2
   2   1   3 1431.07 11.8659   2
  -2  -1  -3 2190.11 18.3288   1
   2   1   3 2286.08 18.3542   1
  -2  -1  -3 1375.88 11.0409   2
  -3  -1  -3 36.0691 2.07092   1
   3   1   3 21.2501 1.90845   2
   3  -1  -4 347.590 8.18279  -2
  -3  -1  -3 347.590 8.18279   1
  -3  -1  -3 27.4299 1.33688   2
   3   1   3 23.5246 1.70612   1
  -3   1   4 344.403 11.0410  -2
   3   1   3 344.403 11.0410   1
   4  -1  -4 1122.85 13.9070  -2
  -4  -1  -3 1122.85 13.9070   1
  -4   1   4 1137.91 13.1159  -2
   4   1   3 1137.91 13.1159   1
   5   1   3 -1.2982 2.38908   2
  -5  -1  -3 6.55168 3.32904   1
  -5  -1  -3 9.79939 3.30734   2
   5   1   3 7.59886 3.11678   1
   6   1   3 38.5081 3.84939   2
  -6  -1  -3 64.8641 5.02137   1
   6   1   3 66.6995 5.78181   1
  -6  -1  -3 43.7206 4.45302   2
   6  -2  -3 0.84800 4.04541   1
  -6   2   3 3.33889 3.65965   2
  -6   2   3 0.41021 3.25591   1
   6  -2  -3 1.31312 3.59024   2
   5  -2  -3 259.841 6.01072   1
  -5   2   3 173.184 5.82039   2
   5  -2  -3 164.851 5.59125   2
  -5   2   3 255.290 5.63987   1
  -4  -2  -2 177.721 4.90787  -2
   4  -2  -3 177.721 4.90787   1
   4   2   2 165.232 4.49453  -2
  -4   2   3 165.232 4.49453   1
   3  -2  -3 2001.19 17.1307   1
  -3   2   3 1303.47 12.8261   2
  -3   2   3 2040.70 21.0950   1
   3  -2  -3 1301.55 16.0992   2
   3   2   2 3012.28 36.2727  -2
  -3   2   3 3012.28 36.2727   1
   2  -2  -3 75.0043 2.19268   1
  -2   2   3 51.3866 1.68478   2
  -2   2   3 80.1518 2.10370   1
   2  -2  -3 53.9910 1.76379   2
  -1   2   3 1755.27 13.6076   2
   1  -2  -3 2641.28 19.1598   1
   1  -2  -3 1645.09 10.5008   2
  -1   2   3 2700.67 20.3493   1
   0  -2  -3 327.228 3.23707  -2
   0  -2  -3 327.228 3.23707   1
   0   2   3 312.428 3.19812  -2
   0   2   3 312.428 3.19812   1
   1   2   3 2244.57 17.1591   2
  -1  -2  -3 3447.20 21.0046   1
  -1  -2  -3 2131.36 15.6806   2
   1   2   3 3533.42 26.0882   1
   2   2   3 457.091 4.52494   2
  -2  -2  -3 726.898 6.64065   1
   2   2   3 727.212 6.54888   1
  -2  -2  -3 448.067 4.99412   2
   3  -2  -4 1309.51 17.8921  -2
  -3  -2  -3 1309.51 17.8921   1
  -3  -2  -3 1104.77 17.5100   1
   3   2   3 711.217 7.71986   2
   3   2   3 1147.16 13.1861   1
  -3   2   4 1324.69 30.7167  -2
   3   2   3 1324.69 30.7167   1
  -3  -2  -3 682.748 8.23668   2
   4  -2  -4 304.663 6.71877  -2
  -4  -2  -3 304.663 6.71877   1
  -4   2   4 320.923 6.59007  -2
   4   2   3 320.923 6.59007   1
   5   2   3 141.201 4.96164   2
  -5  -2  -3 228.015 6.48568   1
  -5  -2  -3 139.878 4.73347   2
   5   2   3 229.397 6.72910   1
   6   2   3 5.36709 3.18399   2
  -6  -2  -3 13.4423 4.35268   1
   6   2   3 5.78305 4.18651   1
  -6  -2  -3 10.3633 5.18318   2
  -5   3   3 4.63236 3.97254   2
   5  -3  -3 4.36476 4.27832   1
   5  -3  -3 -2.9393 4.71793   2
  -5   3   3 6.58415 3.53465   1
  -4  -3  -2 364.993 6.81452  -2
   4  -3  -3 364.993 6.81452   1
   4   3   2 384.334 7.18117  -2
  -4   3   3 384.334 7.18117   1
  -3   3   3 6.83488 2.75400   2
  -3  -3  -2 236.432 13.8581  -2
   3  -3  -3 236.432 13.8581   1
   3  -3  -3 5.00235 2.82455   1
   3   3   2 229.849 6.50944  -2
  -3   3   3 229.849 6.50944   1
  -3   3   3 7.20340 3.68810   1
   2  -3  -3 1611.47 13.0747   1
  -2   3   3 1003.24 9.76554   2
  -2   3   3 1547.52 16.0510   1
   2  -3  -3 1034.96 10.2806   2
   1  -3  -3 39.8304 1.67784   1
  -1   3   3 34.0503 1.85899   2
   1  -3  -3 22.3980 1.73308   2
  -1   3   3 48.4048 2.53452   1
   0  -3  -3 2861.87 19.3629  -2
   0  -3  -3 2861.87 19.3629   1
   0   3   3 2930.34 22.3079  -2
   0   3   3 2930.34 22.3079   1
   1   3   3 23.2767 2.20712   2
  -1  -3  -3 26.9855 1.80229   1
  -1  -3  -3 20.2833 1.43051   2
   1   3   3 35.7678 1.88780   1
   2   3   3 895.570 10.6550   2
  -2  -3  -3 1408.95 13.1574   1
   2   3   3 1405.00 12.8373   1
  -2  -3  -3 894.824 8.24044   2
   3  -3  -4 614.425 10.1016  -2
  -3  -3  -3 614.425 10.1016   1
   3   3   3 82.2227 5.17572   2
  -3   3   4 571.961 19.0456  -2
   3   3   3 571.961 19.0456   1
   3   3   3 100.642 4.08624   1
  -3  -3  -3 49.4441 5.63033   2
   4  -3  -4 737.936 11.2678  -2
  -4  -3  -3 737.936 11.2678   1
  -4   3   4 738.788 11.1599  -2
   4   3   3 738.788 11.1599   1
  -5  -3  -3 6.68512 5.05244   1
   5   3   3 4.01678 3.53469   2
   5   3   3 11.6370 3.77189   1
  -5  -3  -3 6.52770 4.11464   2
  -5   4   3 85.9293 5.53458   2
   5  -4  -3 144.777 7.16238   1
  -5   4   3 128.868 6.14716   1
   5  -4  -3 90.0193 6.18654   2
  -4  -4  -2 37.9496 4.14532  -2
   4  -4  -3 37.9496 4.14532   1
   4   4   2 42.4266 4.42302  -2
  -4   4   3 42.4266 4.42302   1
  -3  -4  -2 826.918 11.6035  -2
   3  -4  -3 826.918 11.6035   1
   3   4   2 791.129 11.4671  -2
  -3   4   3 791.129 11.4671   1
   2  -4  -3 19.9570 2.43417   1
  -2   4   3 16.9633 3.61267   2
  -2   4   3 29.6360 3.45071   1
   2  -4  -3 18.2235 2.40128   2
   1  -4  -3 717.229 8.21923   1
  -1   4   3 471.101 7.55673   2
  -1   4   3 729.975 9.97119   1
   1  -4  -3 452.802 6.03831   2
   0  -4  -3 92.7787 3.28427  -2
   0  -4  -3 92.7787 3.28427   1
   0   4   3 99.3145 3.67771  -2
   0   4   3 99.3145 3.67771   1
   1   4   3 639.867 9.10492   2
  -1  -4  -3 967.805 9.76928   1
   1   4   3 1024.09 12.1773   1
  -1  -4  -3 613.836 7.40869   2
  -2  -4  -3 141.682 3.84658   1
   2   4   3 98.2137 4.31482   2
  -2  -4  -3 90.3503 3.09423   2
   2   4   3 145.890 5.43286   1
   3  -4  -4 374.233 8.61994  -2
  -3  -4  -3 374.233 8.61994   1
   3   4   3 207.997 12.7057   2
  -3   4   4 347.421 10.1193  -2
   3   4   3 347.421 10.1193   1
   3   4   3 285.181 13.1686   1
  -3  -4  -3 200.465 7.60038   2
   4  -4  -4 63.0004 5.08201  -2
  -4  -4  -3 63.0004 5.08201   1
  -4   4   4 59.6177 6.38013  -2
   4   4   3 59.6177 6.38013   1
   5   4   3 66.6594 6.36212   2
  -5  -4  -3 111.822 8.03775   1
  -5  -4  -3 72.3983 5.84889   2
   5   4   3 105.042 5.94438   1
  -4  -5  -2 143.798 6.90250  -2
   4  -5  -3 143.798 6.90250   1
   4   5   2 130.206 7.50526  -2
  -4   5   3 130.206 7.50526   1
  -3  -5  -2 21.4536 5.81798  -2
   3  -5  -3 21.4536 5.81798   1
   3   5   2 34.0156 6.34569  -2
  -3   5   3 34.0156 6.34569   1
   2  -5  -3 430.476 8.30116   1
  -2   5   3 281.568 7.96931   2
  -2   5   3 425.811 8.39587   1
   2  -5  -3 281.658 8.13376   2
  -1   5   3 57.1986 5.01845   2
   1  -5  -3 70.0600 4.10328   1
  -1   5   3 75.5333 4.63002   1
   1  -5  -3 45.6680 4.23395   2
   0  -5  -3 771.933 10.1353  -2
   0  -5  -3 771.933 10.1353   1
   0   5   3 823.779 12.8315  -2
   0   5   3 823.779 12.8315   1
  -1  -5  -3 6.16144 3.63983   1
   1   5   3 9.00945 3.59468   2
  -1  -5  -3 6.70629 3.12653   2
   1   5   3 7.83855 3.95631   1
   2   5   3 219.266 6.42534   2
  -2  -5  -3 353.379 9.11548   1
   2   5   3 349.705 8.63786   1
  -2  -5  -3 229.599 6.32330   2
   3  -5  -4 97.5512 6.77831  -2
  -3  -5  -3 97.5512 6.77831   1
  -3   5   4 95.1181 8.49756  -2
   3   5   3 95.1181 8.49756   1
   1  -6  -3 139.583 7.38774   1
  -1   6   3 85.6279 7.54563   2
   1  -6  -3 95.1615 5.83654   2
  -1   6   3 142.691 7.32789   1
   0  -6  -3 13.4030 5.11699  -2
   0  -6  -3 13.4030 5.11699   1
   0   6   3 13.4181 5.19488  -2
   0   6   3 13.4181 5.19488   1
   1   6   3 122.557 7.00193   2
  -1  -6  -3 169.921 6.90828   1
   1   6   3 178.245 8.97562   1
  -1  -6  -3 98.3709 6.55961   2
  -6   0   4 34.7046 4.28886   1
   6   0  -4 35.5324 4.97623   2
  -5   0   4 124.267 4.72333   1
   5   0  -4 81.2748 4.23157   2
  -4   0  -3 617.644 8.05090  -2
  -4   0   4 617.644 8.05090   1
  -3   0   4 346.997 4.55996   1
  -3   0  -3 827.363 19.2580  -2
  -3   0   4 827.363 19.2580   1
   3   0  -4 222.307 3.34911   2
   2   0  -4 598.372 5.81422   2
  -2   0   4 1009.29 8.81513   1
   1   0  -4 886.298 7.48119   2
  -1   0   4 1415.32 12.8178   1
   0   0  -4 2568.58 18.5558  -2
   0   0   4 2568.58 18.5558   1
   1   0   4 1376.01 11.1779   1
  -1   0  -4 870.704 8.37791   2
  -2   0  -4 796.771 8.93311   2
   2   0   4 1249.65 9.97835   1
   3   0   4 814.751 9.26136   1
  -3   0  -4 518.103 5.98781   2
   3   0  -5 939.045 27.4001  -2
   3   0   4 939.045 27.4001   1
   4   0  -5 565.614 8.76201  -2
   4   0   4 565.614 8.76201   1
  -5   0  -4 116.684 4.69309   2
   5   0   4 203.465 6.91290   1
  -6   0  -4 8.88210 3.76268   2
   6   0   4 17.1400 4.89868   1
   6  -1  -4 122.233 5.63861   1
  -6   1   4 83.8510 5.85375   2
  -6   1   4 124.547 5.07482   1
   6  -1  -4 76.6054 5.06274   2
   5  -1  -4 62.1259 3.72423   1
  -5   1   4 43.5588 3.58519   2
  -5   1   4 73.2845 2.98871   1
   5  -1  -4 44.5932 3.98669   2
  -4  -1  -3 924.049 10.7454  -2
   4  -1  -4 924.049 10.7454   1
   4   1   3 931.977 9.53174  -2
  -4   1   4 931.977 9.53174   1
  -3   1   4 307.510 4.21844   2
   3  -1  -4 513.406 5.13137   1
   3  -1  -4 311.924 4.80689   2
  -3   1   4 481.922 6.32384   1
   3   1   3 462.300 10.6883  -2
  -3   1   4 462.300 10.6883   1
   2  -1  -4 1630.02 12.9685   1
  -2   1   4 1033.83 8.90292   2
   2  -1  -4 976.060 8.11805   2
  -2   1   4 1593.35 13.1487   1
   1  -1  -4 4011.65 28.0009   1
  -1   1   4 2534.28 17.2375   2
   1  -1  -4 2490.38 20.0012   2
  -1   1   4 4009.40 32.1096   1
   0  -1  -4 5031.68 34.7293  -2
   0  -1  -4 5031.68 34.7293   1
   0   1   4 5205.63 40.5631  -2
   0   1   4 5205.63 40.5631   1
  -1  -1  -4 1829.48 15.0993   1
   1   1   4 1103.63 9.81917   2
  -1  -1  -4 1169.59 9.49977   2
   1   1   4 1787.74 12.4548   1
  -2  -1  -4 1574.81 13.4142   1
   2   1   4 998.864 9.74736   2
  -2  -1  -4 987.367 8.39221   2
   2   1   4 1575.73 12.1458   1
   3   1   4 666.024 7.98004   2
  -3  -1  -4 1036.92 16.4834   1
   3  -1  -5 1963.30 31.6756  -2
  -3  -1  -4 1963.30 31.6756   1
  -3  -1  -4 643.246 7.13221   2
   3   1   4 1042.72 10.3168   1
  -3   1   5 1958.19 40.6740  -2
   3   1   4 1958.19 40.6740   1
   4  -1  -5 162.418 4.05685  -2
  -4  -1  -4 162.418 4.05685   1
  -4   1   5 157.771 4.45078  -2
   4   1   4 157.771 4.45078   1
  -5  -1  -4 252.370 6.54295   1
   5   1   4 154.014 4.43455   2
   5   1   4 262.813 7.10971   1
  -5  -1  -4 146.230 5.13023   2
   6   1   4 42.1702 4.60659   2
  -6  -1  -4 61.5329 5.04418   1
   6   1   4 68.8494 7.78236   1
  -6  -1  -4 38.4650 5.42489   2
  -6   2   4 13.9389 4.03342   2
   6  -2  -4 15.8626 4.39906   1
  -6   2   4 8.58272 3.57678   1
   6  -2  -4 9.99422 4.20029   2
  -5   2   4 89.0325 4.76455   2
   5  -2  -4 134.071 4.82452   1
   5  -2  -4 81.6205 4.64728   2
  -5   2   4 127.070 4.94938   1
  -4  -2  -3 411.212 6.86943  -2
   4  -2  -4 411.212 6.86943   1
   4   2   3 459.896 6.42672  -2
  -4   2   4 459.896 6.42672   1
   3  -2  -4 363.502 5.65426   1
  -3   2   4 263.142 5.03645   2
  -3   2   4 415.605 6.49425   1
   3   2   3 1153.95 16.7509  -2
  -3   2   4 1153.95 16.7509   1
   3  -2  -4 235.808 6.46145   2
  -2   2   4 628.016 5.83986   2
   2  -2  -4 930.227 8.52400   1
   2  -2  -4 591.990 5.19400   2
  -2   2   4 964.994 7.96082   1
  -1   2   4 1329.60 10.6794   2
   1  -2  -4 2081.97 15.4707   1
   1  -2  -4 1291.47 9.04444   2
  -1   2   4 2081.09 16.1137   1
   0  -2  -4 2292.16 15.4513  -2
   0  -2  -4 2292.16 15.4513   1
   0   2   4 2252.90 17.2153  -2
   0   2   4 2252.90 17.2153   1
  -1  -2  -4 1112.06 8.01222   1
   1   2   4 670.947 6.27637   2
   1   2   4 1074.29 8.93087   1
  -1  -2  -4 698.827 6.20377   2
   2   2   4 558.200 6.24329   2
  -2  -2  -4 776.057 6.43469   1
  -2  -2  -4 490.322 5.33928   2
   2   2   4 890.965 8.52515   1
   3   2   4 221.120 5.17881   2
   3  -2  -5 385.688 8.19758  -2
  -3  -2  -4 385.688 8.19758   1
  -3  -2  -4 364.402 8.39720   1
  -3  -2  -4 224.781 4.38318   2
   3   2   4 350.297 5.91368   1
  -3   2   5 390.201 13.6416  -2
   3   2   4 390.201 13.6416   1
   4  -2  -5 670.356 8.69003  -2
  -4  -2  -4 670.356 8.69003   1
  -4   2   5 651.476 11.1819  -2
   4   2   4 651.476 11.1819   1
   5   2   4 103.217 4.70904   2
  -5  -2  -4 147.794 5.66643   1
   5   2   4 145.793 7.01787   1
  -5  -2  -4 86.0169 5.71816   2
  -6  -2  -4 40.2261 5.00428   1
   6   2   4 31.5136 3.69566   2
   6   2   4 42.2400 5.03014   1
  -6  -2  -4 20.6634 5.42789   2
  -5   3   4 36.7081 4.64421   2
   5  -3  -4 61.4757 5.35296   1
   5  -3  -4 34.3987 5.71714   2
  -5   3   4 60.1557 4.57436   1
  -4  -3  -3 624.748 9.26512  -2
   4  -3  -4 624.748 9.26512   1
   4   3   3 611.128 9.21431  -2
  -4   3   4 611.128 9.21431   1
  -3   3   4 486.401 7.80391   2
   3  -3  -4 792.131 14.8300   1
  -3  -3  -3 836.238 14.3593  -2
   3  -3  -4 836.238 14.3593   1
  -3   3   4 773.148 14.5593   1
   3   3   3 801.752 11.9858  -2
  -3   3   4 801.752 11.9858   1
   2  -3  -4 1107.73 9.78673   1
  -2   3   4 727.948 8.69967   2
   2  -3  -4 724.373 8.05545   2
  -2   3   4 1094.70 12.4538   1
  -1   3   4 644.003 6.48343   2
   1  -3  -4 990.537 8.71853   1
   1  -3  -4 617.252 5.99936   2
  -1   3   4 1000.64 10.2993   1
   0  -3  -4 1340.75 9.96549  -2
   0  -3  -4 1340.75 9.96549   1
   0   3   4 1363.64 11.4335  -2
   0   3   4 1363.64 11.4335   1
  -1  -3  -4 915.423 8.01764   1
   1   3   4 596.771 7.21466   2
   1   3   4 926.646 8.47007   1
  -1  -3  -4 579.821 5.92197   2
   2   3   4 310.158 5.81414   2
  -2  -3  -4 445.622 6.03191   1
   2   3   4 502.510 6.93514   1
  -2  -3  -4 269.805 4.08775   2
   3  -3  -5 1337.55 16.8612  -2
  -3  -3  -4 1337.55 16.8612   1
   3   3   4 596.049 19.4132   2
   3   3   4 934.564 12.0687   1
  -3   3   5 1300.60 32.3974  -2
   3   3   4 1300.60 32.3974   1
  -3  -3  -4 587.188 9.03948   2
   4  -3  -5 100.021 5.00427  -2
  -4  -3  -4 100.021 5.00427   1
  -4   3   5 121.015 5.28339  -2
   4   3   4 121.015 5.28339   1
  -5  -3  -4 79.1940 6.53279   1
   5   3   4 50.0859 5.30456   2
   5   3   4 81.2061 5.57739   1
  -5  -3  -4 40.0965 5.41632   2
   5  -4  -4 121.302 6.88352   1
  -5   4   4 72.0564 5.42806   2
   5  -4  -4 74.0774 6.02605   2
  -5   4   4 121.795 7.51738   1
  -4  -4  -3 103.185 4.88965  -2
   4  -4  -4 103.185 4.88965   1
   4   4   3 85.9278 5.95302  -2
  -4   4   4 85.9278 5.95302   1
  -3  -4  -3 265.318 8.11559  -2
   3  -4  -4 265.318 8.11559   1
   3  -4  -4 88.3608 8.84205   1
   3   4   3 281.805 7.28236  -2
  -3   4   4 281.805 7.28236   1
  -2   4   4 123.117 5.19238   2
   2  -4  -4 180.818 3.95190   1
   2  -4  -4 113.902 3.55419   2
  -2   4   4 170.523 5.21445   1
   1  -4  -4 683.156 8.03624   1
  -1   4   4 441.762 7.32610   2
   1  -4  -4 450.566 6.09050   2
  -1   4   4 679.026 9.60741   1
   0  -4  -4 1140.57 11.1769  -2
   0  -4  -4 1140.57 11.1769   1
   0   4   4 1248.60 12.9297  -2
   0   4   4 1248.60 12.9297   1
  -1  -4  -4 433.652 6.01604   1
   1   4   4 275.654 6.03337   2
  -1  -4  -4 281.010 4.96823   2
   1   4   4 443.298 7.30585   1
   2   4   4 122.028 4.67678   2
  -2  -4  -4 166.569 4.31426   1
   2   4   4 182.951 5.90130   1
  -2  -4  -4 106.579 3.27949   2
   3  -4  -5 277.829 7.68023  -2
  -3  -4  -4 277.829 7.68023   1
   3   4   4 150.903 11.4068   2
  -3   4   5 280.610 9.36484  -2
   3   4   4 280.610 9.36484   1
  -3  -4  -4 144.437 6.87817   2
   4  -4  -5 321.602 8.12575  -2
  -4  -4  -4 321.602 8.12575   1
  -4   4   5 308.805 9.77210  -2
   4   4   4 308.805 9.77210   1
  -5  -4  -4 59.0617 8.64263   1
   5   4   4 29.6158 5.86290   2
  -5  -4  -4 33.8470 5.99407   2
   5   4   4 28.5366 7.12278   1
  -3  -5  -3 127.052 7.22943  -2
   3  -5  -4 127.052 7.22943   1
   3   5   3 129.454 7.71395  -2
  -3   5   4 129.454 7.71395   1
   2  -5  -4 116.670 5.23999   1
  -2   5   4 76.6754 5.49292   2
  -2   5   4 121.778 5.43456   1
   2  -5  -4 69.9486 5.44913   2
  -1   5   4 203.167 6.93038   2
   1  -5  -4 307.813 6.58487   1
   1  -5  -4 203.715 5.48326   2
  -1   5   4 309.161 7.25287   1
   0  -5  -4 238.403 5.83115  -2
   0  -5  -4 238.403 5.83115   1
   0   5   4 202.618 6.70724  -2
   0   5   4 202.618 6.70724   1
  -1  -5  -4 256.513 6.09496   1
   1   5   4 156.982 5.60215   2
   1   5   4 263.114 7.53452   1
  -1  -5  -4 163.844 5.10850   2
  -2  -5  -4 164.724 6.99071   1
   2   5   4 121.011 5.38188   2
  -2  -5  -4 110.290 4.62095   2
   2   5   4 189.506 6.95394   1
   3  -5  -5 257.746 10.5939  -2
  -3  -5  -4 257.746 10.5939   1
  -3   5   5 262.869 10.7838  -2
   3   5   4 262.869 10.7838   1
   1  -6  -4 95.9594 5.91889   1
  -1   6   4 85.4743 7.61095   2
   1  -6  -4 71.5390 5.62032   2
  -1   6   4 123.173 7.11648   1
   0  -6  -4 164.703 6.77975  -2
   0  -6  -4 164.703 6.77975   1
   0   6   4 199.502 9.29465  -2
   0   6   4 199.502 9.29465   1
  -1  -6  -4 73.9411 5.81660   1
   1   6   4 51.0760 5.96843   2
  -1  -6  -4 47.5358 5.11138   2
   1   6   4 69.2592 7.29078   1
   6   0  -5 64.8429 5.61178   2
  -6   0   5 115.876 5.41755   1
   5   0  -5 30.4053 4.24891   2
  -5   0   5 54.4062 3.96500   1
  -4   0  -4 732.863 7.95391  -2
  -4   0   5 732.863 7.95391   1
   3   0  -5 193.323 3.56357   2
  -3   0  -4 891.292 21.1422  -2
  -3   0   5 891.292 21.1422   1
  -3   0   5 303.546 4.29696   1
   2   0  -5 1008.11 8.31515   2
  -2   0   5 1607.23 14.9384   1
   1   0  -5 92.6745 2.09757   2
  -1   0   5 147.764 2.81500   1
   0   0  -5 9471.81 66.5095  -2
   0   0   5 9471.81 66.5095   1
  -1   0  -5 234.680 3.56320   2
   1   0   5 359.154 4.36279   1
   2   0   5 2977.41 22.2300   1
  -2   0  -5 1894.21 17.3096   2
  -3   0  -5 69.2575 2.90827   2
   3   0   5 122.613 2.98606   1
   3   0  -6 303.897 14.8573  -2
   3   0   5 303.897 14.8573   1
   4   0  -6 980.740 12.5133  -2
   4   0   5 980.740 12.5133   1
   5   0   5 -1.5113 2.80137   1
  -5   0  -5 2.65623 3.11900   2
  -6   0  -5 88.7201 8.13488   2
   6   0   5 164.849 7.44479   1
  -6   1   5 9.27285 4.55127   2
   6  -1  -5 14.7550 4.24166   1
  -6   1   5 19.3254 3.73752   1
   6  -1  -5 13.7227 4.14057   2
   5  -1  -5 226.284 6.13395   1
  -5   1   5 133.855 5.13941   2
  -5   1   5 214.712 4.98162   1
   5  -1  -5 146.087 5.25634   2
  -4  -1  -4 137.669 4.44175  -2
   4  -1  -5 137.669 4.44175   1
   4   1   4 126.679 3.82269  -2
  -4   1   5 126.679 3.82269   1
   3  -1  -5 1532.01 14.7468   1
  -3   1   5 1009.75 9.98228   2
  -3  -1  -4 2106.19 46.2489  -2
   3  -1  -5 2106.19 46.2489   1
   3  -1  -5 964.341 15.4449   2
  -3   1   5 1561.74 15.9413   1
   3   1   4 2026.21 31.6983  -2
  -3   1   5 2026.21 31.6983   1
  -2   1   5 5.43841 0.98035   2
   2  -1  -5 13.7323 1.58413   1
   2  -1  -5 7.81108 1.45103   2
  -2   1   5 15.2411 1.60328   1
   1  -1  -5 2936.91 22.4163   1
  -1   1   5 1911.12 14.2770   2
  -1   1   5 3066.08 25.0570   1
   1  -1  -5 1796.57 15.0071   2
   0  -1  -5 400.166 4.26325  -2
   0  -1  -5 400.166 4.26325   1
   0   1   5 382.802 4.25130  -2
   0   1   5 382.802 4.25130   1
   1   1   5 1805.44 14.9235   2
  -1  -1  -5 2889.25 23.3272   1
  -1  -1  -5 1859.26 14.6521   2
   1   1   5 2833.33 20.7147   1
  -2  -1  -5 42.8133 1.91814   1
   2   1   5 20.4980 1.40289   2
  -2  -1  -5 27.4331 1.72153   2
   2   1   5 35.8166 1.40161   1
  -3  -1  -5 1098.14 17.4172   1
   3   1   5 714.758 8.58170   2
   3  -1  -6 1925.60 31.7870  -2
  -3  -1  -5 1925.60 31.7870   1
  -3   1   6 1823.06 37.9163  -2
   3   1   5 1823.06 37.9163   1
   3   1   5 1125.48 12.4992   1
  -3  -1  -5 673.028 8.57151   2
   4  -1  -6 80.4812 3.78729  -2
  -4  -1  -5 80.4812 3.78729   1
  -4   1   6 73.7714 4.41722  -2
   4   1   5 73.7714 4.41722   1
   5   1   5 143.269 4.89156   2
  -5  -1  -5 251.820 6.59121   1
   5   1   5 244.250 7.04080   1
  -5  -1  -5 147.074 6.33112   2
   6   1   5 4.83257 4.89182   2
  -6  -1  -5 8.65059 4.87086   1
   6   1   5 11.2470 6.52194   1
  -6  -1  -5 3.92354 4.82949   2
  -6   2   5 75.1402 5.30701   2
   6  -2  -5 116.160 7.42056   1
   6  -2  -5 77.8169 5.43510   2
  -6   2   5 124.078 4.91984   1
  -5   2   5 31.0135 4.04111   2
   5  -2  -5 37.0775 5.16802   1
   5  -2  -5 26.9846 3.85448   2
  -5   2   5 37.4645 3.87756   1
  -4  -2  -4 591.330 9.93587  -2
   4  -2  -5 591.330 9.93587   1
   4   2   4 603.028 7.72692  -2
  -4   2   5 603.028 7.72692   1
   3  -2  -5 73.2814 3.06829   1
  -3   2   5 45.6082 2.81148   2
   3  -2  -5 57.8608 4.17455   2
  -3   2   5 68.8156 3.58164   1
   3   2   4 301.408 9.78728  -2
  -3   2   5 301.408 9.78728   1
   2  -2  -5 2393.70 19.0996   1
  -2   2   5 1474.33 12.9192   2
   2  -2  -5 1477.73 10.9311   2
  -2   2   5 2283.59 21.4070   1
   1  -2  -5 88.1125 2.17814   1
  -1   2   5 46.3880 1.53259   2
   1  -2  -5 52.9152 1.73153   2
  -1   2   5 74.3421 2.23821   1
   0  -2  -5 6501.77 41.8401  -2
   0  -2  -5 6501.77 41.8401   1
   0   2   5 6640.20 48.1990  -2
   0   2   5 6640.20 48.1990   1
  -1  -2  -5 108.530 2.28198   1
   1   2   5 72.5554 2.23476   2
  -1  -2  -5 65.8388 1.93703   2
   1   2   5 115.067 2.07125   1
   2   2   5 1055.27 11.3038   2
  -2  -2  -5 1673.22 12.2662   1
  -2  -2  -5 1071.08 9.55939   2
   2   2   5 1696.26 15.9625   1
   3  -2  -6 62.5810 6.20732  -2
  -3  -2  -5 62.5810 6.20732   1
   3   2   5 9.08799 3.36253   2
  -3  -2  -5 17.5698 2.92118   1
  -3   2   6 68.7047 7.49013  -2
   3   2   5 68.7047 7.49013   1
   3   2   5 18.2119 3.14000   1
  -3  -2  -5 12.5989 2.33334   2
   4  -2  -6 866.013 10.5118  -2
  -4  -2  -5 866.013 10.5118   1
  -4   2   6 860.419 11.7591  -2
   4   2   5 860.419 11.7591   1
   5   2   5 7.44360 3.90444   2
  -5  -2  -5 17.0218 3.84770   1
  -5  -2  -5 14.1933 4.51564   2
   5   2   5 16.2313 4.77775   1
  -6  -2  -5 76.7561 5.56382   1
   6   2   5 53.7309 4.72990   2
  -6  -2  -5 55.2289 6.14946   2
   6   2   5 74.0974 5.87427   1
  -5   3   5 96.1324 5.72395   2
   5  -3  -5 145.216 6.56438   1
  -5   3   5 142.809 5.85758   1
   5  -3  -5 91.6718 6.92385   2
  -4  -3  -4 97.8408 4.39566  -2
   4  -3  -5 97.8408 4.39566   1
   4   3   4 104.292 5.37636  -2
  -4   3   5 104.292 5.37636   1
  -3   3   5 427.343 7.41598   2
   3  -3  -5 630.617 9.69734   1
  -3  -3  -4 1212.40 31.9029  -2
   3  -3  -5 1212.40 31.9029   1
   3   3   4 1254.24 16.4878  -2
  -3   3   5 1254.24 16.4878   1
  -3   3   5 643.436 20.3555   1
   2  -3  -5 91.8913 2.86353   1
  -2   3   5 68.1620 3.03342   2
  -2   3   5 106.238 3.95064   1
   2  -3  -5 62.8465 2.83411   2
  -1   3   5 893.844 8.32807   2
   1  -3  -5 1333.90 11.1320   1
  -1   3   5 1387.28 13.4002   1
   1  -3  -5 828.061 6.67449   2
   0  -3  -5 124.306 2.39672  -2
   0  -3  -5 124.306 2.39672   1
   0   3   5 121.785 2.68267  -2
   0   3   5 121.785 2.68267   1
   1   3   5 1347.94 13.0963   2
  -1  -3  -5 2101.71 14.4637   1
   1   3   5 2101.03 16.7645   1
  -1  -3  -5 1337.71 11.0980   2
  -2  -3  -5 64.5795 2.90146   1
   2   3   5 41.7409 3.18458   2
  -2  -3  -5 41.3882 2.32059   2
   2   3   5 72.5717 3.11305   1
   3  -3  -6 482.044 10.2866  -2
  -3  -3  -5 482.044 10.2866   1
  -3  -3  -5 278.701 14.2208   1
   3   3   5 201.293 11.3087   2
  -3   3   6 514.659 18.0058  -2
   3   3   5 514.659 18.0058   1
  -3  -3  -5 166.091 5.78557   2
   3   3   5 303.024 7.56180   1
   4  -3  -6 50.2260 4.61072  -2
  -4  -3  -5 50.2260 4.61072   1
  -4   3   6 47.1703 4.43062  -2
   4   3   5 47.1703 4.43062   1
   5   3   5 104.149 6.41238   2
  -5  -3  -5 172.675 8.12338   1
   5   3   5 168.958 7.02023   1
  -5  -3  -5 100.788 6.46726   2
  -5   4   5 7.69089 5.02582   2
   5  -4  -5 17.6381 5.43652   1
  -5   4   5 10.2393 5.61920   1
   5  -4  -5 21.6622 7.40117   2
  -4  -4  -4 298.907 6.90059  -2
   4  -4  -5 298.907 6.90059   1
   4   4   4 299.133 8.62768  -2
  -4   4   5 299.133 8.62768   1
   3  -4  -5 48.9559 7.98926   1
  -3  -4  -4 209.666 7.46860  -2
   3  -4  -5 209.666 7.46860   1
   3   4   4 205.649 7.51980  -2
  -3   4   5 205.649 7.51980   1
  -3   4   5 62.1542 9.28240   1
   2  -4  -5 1005.70 9.76900   1
  -2   4   5 640.236 10.4238   2
  -2   4   5 1006.92 12.7414   1
   2  -4  -5 641.378 8.18725   2
  -1   4   5 44.1835 3.38835   2
   1  -4  -5 58.4456 3.16314   1
  -1   4   5 72.7624 4.07321   1
   1  -4  -5 32.4472 3.08987   2
   0  -4  -5 1710.46 16.8548  -2
   0  -4  -5 1710.46 16.8548   1
   0   4   5 1639.76 16.0073  -2
   0   4   5 1639.76 16.0073   1
  -1  -4  -5 9.73493 2.81035   1
   1   4   5 5.85622 2.99924   2
  -1  -4  -5 7.89979 2.45508   2
   1   4   5 7.47454 2.84521   1
  -2  -4  -5 627.686 8.12258   1
   2   4   5 413.717 7.65192   2
  -2  -4  -5 397.439 5.54975   2
   2   4   5 630.560 10.3935   1
   3   4   5 10.6982 7.48057   2
   3  -4  -6 35.4349 5.22186  -2
  -3  -4  -5 35.4349 5.22186   1
  -3  -4  -5 -1.4823 3.70421   2
   3   4   5 7.64270 5.47101   1
  -3   4   6 36.0328 10.6024  -2
   3   4   5 36.0328 10.6024   1
   4  -4  -6 379.888 8.92846  -2
  -4  -4  -5 379.888 8.92846   1
  -4   4   6 379.670 10.6358  -2
   4   4   5 379.670 10.6358   1
  -3  -5  -4 287.086 8.95237  -2
   3  -5  -5 287.086 8.95237   1
   3   5   4 280.260 9.47931  -2
  -3   5   5 280.260 9.47931   1
  -2   5   5 16.8747 4.46423   2
   2  -5  -5 7.45053 3.75804   1
   2  -5  -5 6.34601 4.85643   2
  -2   5   5 14.3440 4.01283   1
   1  -5  -5 146.104 5.10747   1
  -1   5   5 101.147 5.67969   2
  -1   5   5 153.981 6.40005   1
   1  -5  -5 90.9726 4.40322   2
   0  -5  -5 88.2040 4.39754  -2
   0  -5  -5 88.2040 4.39754   1
   0   5   5 93.5485 5.42075  -2
   0   5   5 93.5485 5.42075   1
   1   5   5 280.342 6.94117   2
  -1  -5  -5 408.423 7.53669   1
  -1  -5  -5 258.123 6.07927   2
   1   5   5 430.299 9.45161   1
  -2  -5  -5 -0.0479 5.05011   1
   2   5   5 3.94980 3.77184   2
  -2  -5  -5 3.88919 3.58666   2
   2   5   5 1.69072 4.12951   1
   3  -5  -6 225.356 10.3742  -2
  -3  -5  -5 225.356 10.3742   1
  -3   5   6 238.661 10.6074  -2
   3   5   5 238.661 10.6074   1
   0  -6  -5 318.794 8.56237  -2
   0  -6  -5 318.794 8.56237   1
   0   6   5 328.132 11.1140  -2
   0   6   5 328.132 11.1140   1
   6   0  -6 38.7838 5.34965   2
  -6   0   6 78.5293 6.10137   1
   5   0  -6 7.88158 2.46577   2
  -5   0   6 25.3818 3.65777   1
  -4   0  -5 925.839 10.3975  -2
  -4   0   6 925.839 10.3975   1
  -3   0   6 311.655 5.84208   1
  -3   0  -5 374.983 12.2280  -2
  -3   0   6 374.983 12.2280   1
   3   0  -6 189.977 3.61206   2
   2   0  -6 1909.01 14.7254   2
  -2   0   6 3050.73 29.9653   1
  -1   0   6 516.957 6.17249   1
   1   0  -6 315.857 4.23639   2
   0   0  -6 6787.78 48.1422  -2
   0   0   6 6787.78 48.1422   1
   1   0   6 237.271 3.67264   1
  -1   0  -6 154.460 3.22843   2
   2   0   6 1475.34 11.8431   1
  -2   0  -6 949.850 10.7749   2
   3   0  -7 941.171 17.9049  -2
   3   0   6 941.171 17.9049   1
  -3   0  -6 245.845 6.54185   2
   3   0   6 387.658 6.41321   1
   4   0  -7 776.117 10.7697  -2
   4   0   6 776.117 10.7697   1
   5   0   6 70.8159 4.35668   1
  -5   0  -6 42.3175 4.52973   2
   6   0   6 127.481 7.12977   1
  -6   0  -6 84.4281 8.20390   2
   6  -1  -6 42.3431 5.82423   1
  -6   1   6 33.8404 6.70350   2
  -6   1   6 43.4007 4.86119   1
   6  -1  -6 30.7452 4.42653   2
   5  -1  -6 303.565 8.39320   1
  -5   1   6 202.920 6.26216   2
  -5   1   6 293.632 5.91937   1
   5  -1  -6 195.009 5.89403   2
  -4  -1  -5 87.7013 5.51953  -2
   4  -1  -6 87.7013 5.51953   1
   4   1   5 81.7557 3.53719  -2
  -4   1   6 81.7557 3.53719   1
   3  -1  -6 1261.80 14.2385   1
  -3   1   6 772.036 9.21925   2
  -3  -1  -5 1991.88 44.7549  -2
   3  -1  -6 1991.88 44.7549   1
   3  -1  -6 815.633 13.8486   2
  -3   1   6 1221.08 13.3270   1
   3   1   5 1951.69 31.2442  -2
  -3   1   6 1951.69 31.2442   1
  -2   1   6 56.4864 1.90681   2
   2  -1  -6 77.0789 2.27419   1
  -2   1   6 85.8319 2.12567   1
   2  -1  -6 50.0711 2.00895   2
   1  -1  -6 3330.49 25.3792   1
  -1   1   6 1911.90 14.4041   2
   1  -1  -6 2039.79 17.0404   2
  -1   1   6 3120.19 25.0058   1
   0  -1  -6 2014.38 17.0428  -2
   0  -1  -6 2014.38 17.0428   1
   0   1   6 2085.69 17.2525  -2
   0   1   6 2085.69 17.2525   1
   1   1   6 2202.50 18.1111   2
  -1  -1  -6 3495.00 28.0955   1
   1   1   6 3477.42 25.3203   1
  -1  -1  -6 2262.98 17.7053   2
  -2  -1  -6 282.126 4.03052   1
   2   1   6 171.952 2.90766   2
   2   1   6 278.415 3.31743   1
  -2  -1  -6 179.080 3.43606   2
   3  -1  -7 1449.84 19.4128  -2
  -3  -1  -6 1449.84 19.4128   1
   3   1   6 770.370 10.5135   2
  -3  -1  -6 1189.81 27.9579   1
  -3  -1  -6 773.882 11.2921   2
  -3   1   7 1435.96 18.0676  -2
   3   1   6 1435.96 18.0676   1
   3   1   6 1245.21 27.6541   1
   4  -1  -7 371.435 7.07987  -2
  -4  -1  -6 371.435 7.07987   1
  -4   1   7 350.256 9.47439  -2
   4   1   6 350.256 9.47439   1
   5   1   6 95.5095 5.11684   2
  -5  -1  -6 175.267 5.89006   1
   5   1   6 165.200 6.32068   1
  -5  -1  -6 115.582 6.01557   2
  -6  -1  -6 53.7292 6.01321   1
   6   1   6 30.3558 5.70629   2
   6   1   6 75.6907 14.1029   1
  -6  -1  -6 34.2867 5.49767   2
   6  -2  -6 91.0598 7.12888   1
  -6   2   6 45.8707 5.02778   2
   6  -2  -6 56.5718 5.19702   2
  -6   2   6 82.6092 5.01448   1
   5  -2  -6 80.6416 5.95639   1
  -5   2   6 67.7810 5.58748   2
   5  -2  -6 63.9118 4.60102   2
  -5   2   6 85.1631 4.63954   1
  -4  -2  -5 874.682 10.8895  -2
   4  -2  -6 874.682 10.8895   1
   4   2   5 850.234 12.0361  -2
  -4   2   6 850.234 12.0361   1
   3  -2  -6 71.8213 3.22269   1
  -3   2   6 59.6471 3.85080   2
  -3   2   6 78.4828 4.85164   1
   3  -2  -6 52.6581 3.48744   2
   3   2   5 97.6139 7.31217  -2
  -3   2   6 97.6139 7.31217   1
   2  -2  -6 1102.42 9.95550   1
  -2   2   6 688.567 7.71873   2
   2  -2  -6 648.189 5.81418   2
  -2   2   6 1089.38 11.7433   1
   1  -2  -6 805.633 7.15542   1
  -1   2   6 501.924 4.67715   2
   1  -2  -6 502.425 5.15473   2
  -1   2   6 777.262 7.85215   1
   0  -2  -6 2026.88 13.9628  -2
   0  -2  -6 2026.88 13.9628   1
   0   2   6 2161.87 16.8263  -2
   0   2   6 2161.87 16.8263   1
   1   2   6 366.173 4.75779   2
  -1  -2  -6 566.603 5.64016   1
   1   2   6 588.894 5.29163   1
  -1  -2  -6 358.599 4.10505   2
  -2  -2  -6 1693.84 12.5596   1
   2   2   6 1062.22 11.6134   2
  -2  -2  -6 1087.77 9.79574   2
   2   2   6 1652.35 15.6644   1
   3  -2  -7 655.556 11.7660  -2
  -3  -2  -6 655.556 11.7660   1
   3   2   6 122.823 8.43786   2
  -3  -2  -6 162.899 6.17029   1
  -3   2   7 688.557 11.2470  -2
   3   2   6 688.557 11.2470   1
  -3  -2  -6 105.094 3.85852   2
   3   2   6 181.936 9.87723   1
   4  -2  -7 313.862 6.07094  -2
  -4  -2  -6 313.862 6.07094   1
  -4   2   7 344.705 8.34251  -2
   4   2   6 344.705 8.34251   1
  -5  -2  -6 9.95293 3.78568   1
   5   2   6 13.1023 4.97407   2
  -5  -2  -6 6.79902 4.54119   2
   5   2   6 12.8815 4.73125   1
  -6  -2  -6 42.7370 5.24702   1
   6   2   6 22.4237 4.43917   2
   6   2   6 35.9172 5.41518   1
  -6  -2  -6 27.8619 5.97264   2
   5  -3  -6 258.445 9.09605   1
  -5   3   6 154.061 6.65607   2
  -5   3   6 238.443 8.55963   1
   5  -3  -6 155.246 8.05811   2
  -4  -3  -5 66.4085 4.14213  -2
   4  -3  -6 66.4085 4.14213   1
   4   3   5 71.1812 5.07148  -2
  -4   3   6 71.1812 5.07148   1
   3  -3  -6 396.130 8.63031   1
  -3   3   6 264.079 6.99487   2
  -3  -3  -5 545.224 13.6604  -2
   3  -3  -6 545.224 13.6604   1
  -3   3   6 390.951 15.3809   1
   3   3   5 567.773 10.3471  -2
  -3   3   6 567.773 10.3471   1
   3  -3  -6 260.100 13.6775   2
   2  -3  -6 109.857 3.05829   1
  -2   3   6 82.0637 3.25039   2
  -2   3   6 131.816 4.36746   1
   2  -3  -6 71.7110 3.07041   2
  -1   3   6 948.440 8.74587   2
   1  -3  -6 1488.19 12.2745   1
   1  -3  -6 944.392 7.52072   2
  -1   3   6 1500.44 14.4045   1
   0  -3  -6 712.955 6.89045  -2
   0  -3  -6 712.955 6.89045   1
   0   3   6 707.288 6.44735  -2
   0   3   6 707.288 6.44735   1
  -1  -3  -6 1138.85 8.74871   1
   1   3   6 699.554 8.24477   2
  -1  -3  -6 727.748 7.14983   2
   1   3   6 1085.48 9.77938   1
  -2  -3  -6 296.422 5.09356   1
   2   3   6 180.132 4.88282   2
   2   3   6 291.738 5.26111   1
  -2  -3  -6 183.453 3.57986   2
   3  -3  -7 674.043 11.0206  -2
  -3  -3  -6 674.043 11.0206   1
   3   3   6 340.716 14.6780   2
  -3   3   7 650.948 11.7112  -2
   3   3   6 650.948 11.7112   1
  -3  -3  -6 340.304 8.31481   2
   3   3   6 544.035 18.6210   1
   4  -3  -7 358.145 8.23070  -2
  -4  -3  -6 358.145 8.23070   1
  -4   3   7 359.246 9.13500  -2
   4   3   6 359.246 9.13500   1
  -5  -3  -6 101.692 7.25601   1
   5   3   6 55.7279 5.71044   2
  -5  -3  -6 63.7149 6.00316   2
   5   3   6 101.759 7.42048   1
  -4  -4  -5 337.206 7.38571  -2
   4  -4  -6 337.206 7.38571   1
   4   4   5 341.733 9.24974  -2
  -4   4   6 341.733 9.24974   1
   3  -4  -6 41.4938 4.64568   1
  -3  -4  -5 40.2472 7.97405  -2
   3  -4  -6 40.2472 7.97405   1
  -3   4   6 22.1650 5.76905   2
  -3   4   6 41.3332 8.57940   1
   3   4   5 44.4467 5.78118  -2
  -3   4   6 44.4467 5.78118   1
   2  -4  -6 455.948 6.16356   1
  -2   4   6 308.920 8.24039   2
  -2   4   6 483.567 8.33514   1
   2  -4  -6 279.014 5.40405   2
  -1   4   6 200.247 6.04809   2
   1  -4  -6 300.206 5.35219   1
  -1   4   6 304.907 6.51069   1
   1  -4  -6 188.331 4.90424   2
   0  -4  -6 582.592 8.22512  -2
   0  -4  -6 582.592 8.22512   1
   0   4   6 644.621 8.41981  -2
   0   4   6 644.621 8.41981   1
   1   4   6 63.1528 3.88963   2
  -1  -4  -6 111.710 4.24663   1
  -1  -4  -6 70.8914 3.28923   2
   1   4   6 98.7759 4.89351   1
   2   4   6 375.282 7.39081   2
  -2  -4  -6 578.843 7.85298   1
  -2  -4  -6 355.316 5.35970   2
   2   4   6 590.582 10.0744   1
   3  -4  -7 245.307 6.68553  -2
  -3  -4  -6 245.307 6.68553   1
  -3   4   7 279.444 9.63850  -2
   3   4   6 279.444 9.63850   1
   4  -4  -7 103.654 6.13478  -2
  -4  -4  -6 103.654 6.13478   1
  -4   4   7 117.121 9.41942  -2
   4   4   6 117.121 9.41942   1
  -3  -5  -5 257.086 8.86809  -2
   3  -5  -6 257.086 8.86809   1
   3   5   5 241.441 8.25344  -2
  -3   5   6 241.441 8.25344   1
   2  -5  -6 14.1495 4.03472   1
  -2   5   6 18.3646 5.45085   2
   2  -5  -6 10.4951 4.14192   2
  -2   5   6 19.2770 4.18979   1
   1  -5  -6 624.014 9.46215   1
  -1   5   6 440.889 9.62589   2
   1  -5  -6 398.807 7.45488   2
  -1   5   6 636.558 10.3531   1
   0  -5  -6 119.177 4.81078  -2
   0  -5  -6 119.177 4.81078   1
   0   5   6 109.175 5.69209  -2
   0   5   6 109.175 5.69209   1
  -1  -5  -6 356.921 7.21393   1
   1   5   6 219.647 6.43903   2
   1   5   6 355.108 8.69572   1
  -1  -5  -6 245.661 6.11484   2
  -2  -5  -6 65.5868 5.13362   1
   2   5   6 36.9521 4.43549   2
  -2  -5  -6 41.8306 4.87853   2
   2   5   6 51.7281 6.22419   1
   3  -5  -7 186.070 9.89494  -2
  -3  -5  -6 186.070 9.89494   1
  -3   5   7 163.855 9.70726  -2
   3   5   6 163.855 9.70726   1
   6   0  -7 38.5348 5.42122   2
  -6   0   7 43.3319 7.36338   1
   5   0  -7 122.096 4.90602   2
  -5   0   7 195.855 6.85934   1
  -4   0  -6 723.106 11.2210  -2
  -4   0   7 723.106 11.2210   1
   3   0  -7 587.347 8.57012   2
  -3   0  -6 1141.77 27.3946  -2
  -3   0   7 1141.77 27.3946   1
  -3   0   7 949.392 15.4247   1
  -2   0   7 1006.60 11.4472   1
   2   0  -7 636.990 6.01606   2
  -1   0   7 1717.09 16.1685   1
   1   0  -7 1060.38 8.23250   2
   0   0  -7 1841.15 14.2125  -2
   0   0   7 1841.15 14.2125   1
   1   0   7 4769.31 32.6800   1
  -1   0  -7 3059.30 27.1638   2
  -2   0  -7 528.827 7.16454   2
   2   0   7 796.957 7.25938   1
   3   0  -8 1576.05 27.2833  -2
   3   0   7 1576.05 27.2833   1
   3   0   7 881.394 11.9999   1
  -3   0  -7 568.279 10.8077   2
   4   0  -8 241.640 5.86870  -2
   4   0   7 241.640 5.86870   1
   5   0   7 175.750 6.18698   1
  -5   0  -7 108.561 4.87055   2
  -6   0  -7 6.15312 6.44716   2
   6   0   7 5.71109 4.96289   1
  -6   1   7 42.7819 7.20611   2
   6  -1  -7 69.1753 6.38753   1
   6  -1  -7 42.8498 5.66060   2
  -6   1   7 76.0417 6.55619   1
  -5   1   7 45.9003 4.36146   2
   5  -1  -7 73.7300 5.54876   1
  -5   1   7 65.9703 4.78651   1
   5  -1  -7 48.6342 4.21292   2
  -4  -1  -6 463.365 7.71859  -2
   4  -1  -7 463.365 7.71859   1
   4   1   6 439.991 9.22725  -2
  -4   1   7 439.991 9.22725   1
  -3  -1  -6 1204.21 20.6092  -2
   3  -1  -7 1204.21 20.6092   1
   3  -1  -7 369.571 7.24508   1
  -3   1   7 209.036 8.55038   2
   3   1   6 1137.74 16.9107  -2
  -3   1   7 1137.74 16.9107   1
  -3   1   7 339.734 7.32419   1
   3  -1  -7 239.989 10.4565   2
  -2   1   7 1137.21 10.1338   2
   2  -1  -7 1811.15 17.2012   1
  -2   1   7 1827.68 15.6252   1
   2  -1  -7 1088.28 10.1725   2
   1  -1  -7 742.897 6.95879   1
  -1   1   7 448.887 5.57714   2
  -1   1   7 723.055 7.13380   1
   1  -1  -7 451.298 5.31517   2
   0  -1  -7 4125.49 30.4076  -2
   0  -1  -7 4125.49 30.4076   1
   0   1   7 3917.54 34.3605  -2
   0   1   7 3917.54 34.3605   1
   1   1   7 446.874 4.69027   2
  -1  -1  -7 682.577 7.09282   1
  -1  -1  -7 439.956 4.75220   2
   1   1   7 717.646 7.87949   1
   2   1   7 923.933 8.87070   2
  -2  -1  -7 1501.54 13.4229   1
  -2  -1  -7 958.766 10.1480   2
   2   1   7 1468.23 11.7064   1
   3  -1  -8 300.328 6.50956  -2
  -3  -1  -7 300.328 6.50956   1
   3   1   7 160.470 6.30154   2
  -3  -1  -7 267.952 11.0825   1
   3   1   7 271.198 9.88266   1
  -3   1   8 268.954 8.21544  -2
   3   1   7 268.954 8.21544   1
  -3  -1  -7 192.203 6.78863   2
   4  -1  -8 789.403 11.3584  -2
  -4  -1  -7 789.403 11.3584   1
  -4   1   8 805.026 15.6063  -2
   4   1   7 805.026 15.6063   1
  -5  -1  -7 47.3930 3.28683   1
   5   1   7 35.6124 4.31755   2
   5   1   7 61.8962 5.05678   1
  -5  -1  -7 37.6576 4.99541   2
  -6  -1  -7 32.4130 5.64334   1
   6   1   7 28.4723 5.85672   2
  -6  -1  -7 33.0329 5.75496   2
   6   1   7 33.3762 4.74379   1
   6  -2  -7 1.92453 5.50671   1
  -6   2   7 1.04061 4.26167   2
   6  -2  -7 3.49943 4.28497   2
  -6   2   7 3.09606 3.92490   1
   5  -2  -7 144.716 7.03136   1
  -5   2   7 81.0598 6.08601   2
   5  -2  -7 82.5119 4.96005   2
  -5   2   7 131.334 7.74829   1
  -4  -2  -6 319.993 6.97152  -2
   4  -2  -7 319.993 6.97152   1
   4   2   6 312.514 7.32272  -2
  -4   2   7 312.514 7.32272   1
  -3   2   7 520.380 16.3315   2
   3  -2  -7 830.892 11.0335   1
  -3  -2  -6 828.774 23.9263  -2
   3  -2  -7 828.774 23.9263   1
  -3   2   7 824.213 15.3200   1
   3  -2  -7 502.204 10.5187   2
   3   2   6 842.805 17.7025  -2
  -3   2   7 842.805 17.7025   1
   2  -2  -7 540.547 6.04629   1
  -2   2   7 328.253 4.78798   2
  -2   2   7 526.954 7.28856   1
   2  -2  -7 320.744 3.89049   2
  -1   2   7 535.177 4.99542   2
   1  -2  -7 845.462 7.55169   1
   1  -2  -7 532.524 5.55295   2
  -1   2   7 858.700 8.68679   1
   0  -2  -7 1643.22 11.6910  -2
   0  -2  -7 1643.22 11.6910   1
   0   2   7 1562.79 13.8073  -2
   0   2   7 1562.79 13.8073   1
  -1  -2  -7 1646.52 13.2235   1
   1   2   7 1046.21 10.1324   2
   1   2   7 1666.63 12.3849   1
  -1  -2  -7 1041.07 8.82467   2
   2   2   7 149.724 4.55624   2
  -2  -2  -7 255.660 3.56938   1
  -2  -2  -7 161.563 3.20994   2
   2   2   7 238.796 5.02387   1
   3  -2  -8 1358.32 14.0141  -2
  -3  -2  -7 1358.32 14.0141   1
   3   2   7 512.528 17.2453   2
  -3  -2  -7 744.455 21.7303   1
  -3  -2  -7 468.858 9.08826   2
  -3   2   8 1295.48 17.6422  -2
   3   2   7 1295.48 17.6422   1
   3   2   7 731.230 20.4668   1
   4  -2  -8 206.607 5.23710  -2
  -4  -2  -7 206.607 5.23710   1
  -4   2   8 191.062 6.67184  -2
   4   2   7 191.062 6.67184   1
   5   2   7 66.7173 6.68112   2
  -5  -2  -7 132.283 5.73274   1
  -5  -2  -7 76.9274 6.04945   2
   5   2   7 134.721 7.45410   1
  -5   3   7 4.97070 4.29898   2
   5  -3  -7 9.43328 5.34064   1
   5  -3  -7 -6.8671 4.98514   2
  -5   3   7 17.5582 5.14339   1
  -4  -3  -6 495.596 8.87261  -2
   4  -3  -7 495.596 8.87261   1
   4   3   6 453.521 9.42052  -2
  -4   3   7 453.521 9.42052   1
   3  -3  -7 229.473 7.29612   1
  -3  -3  -6 572.389 13.6649  -2
   3  -3  -7 572.389 13.6649   1
  -3   3   7 116.088 10.2464   2
   3   3   6 575.661 10.7029  -2
  -3   3   7 575.661 10.7029   1
  -3   3   7 212.601 12.0188   1
   2  -3  -7 526.697 6.19131   1
  -2   3   7 332.597 5.58996   2
  -2   3   7 521.870 8.10665   1
   2  -3  -7 333.044 5.46515   2
  -1   3   7 173.423 3.32217   2
   1  -3  -7 274.481 4.25989   1
  -1   3   7 270.906 4.59566   1
   1  -3  -7 171.272 3.21039   2
   0  -3  -7 1518.40 13.5021  -2
   0  -3  -7 1518.40 13.5021   1
   0   3   7 1513.65 11.8143  -2
   0   3   7 1513.65 11.8143   1
   1   3   7 90.9621 3.03048   2
  -1  -3  -7 106.465 2.83423   1
  -1  -3  -7 66.0988 2.55578   2
   1   3   7 151.351 3.22567   1
  -2  -3  -7 626.205 7.74367   1
   2   3   7 409.408 7.17589   2
  -2  -3  -7 400.221 5.64296   2
   2   3   7 642.888 9.47292   1
   3  -3  -8 218.237 7.59906  -2
  -3  -3  -7 218.237 7.59906   1
   3   3   7 132.898 7.62304   2
  -3  -3  -7 221.872 13.6974   1
  -3   3   8 210.883 7.08095  -2
   3   3   7 210.883 7.08095   1
  -3  -3  -7 129.183 5.81482   2
   3   3   7 193.883 11.8626   1
   4  -3  -8 252.838 7.38315  -2
  -4  -3  -7 252.838 7.38315   1
  -4   3   8 273.547 8.42424  -2
   4   3   7 273.547 8.42424   1
  -5  -3  -7 13.6514 5.51857   1
   5   3   7 5.77596 4.82382   2
  -5  -3  -7 12.7480 5.27838   2
   5   3   7 13.4870 5.67691   1
  -4  -4  -6 130.800 5.61505  -2
   4  -4  -7 130.800 5.61505   1
   4   4   6 141.922 8.19093  -2
  -4   4   7 141.922 8.19093   1
  -3  -4  -6 328.983 7.53287  -2
   3  -4  -7 328.983 7.53287   1
   3   4   6 335.214 8.19347  -2
  -3   4   7 335.214 8.19347   1
  -2   4   7 62.2516 5.35045   2
   2  -4  -7 109.395 3.86817   1
  -2   4   7 93.6044 4.61795   1
   2  -4  -7 74.4322 4.21763   2
   1  -4  -7 431.121 7.15169   1
  -1   4   7 317.720 7.37249   2
  -1   4   7 486.195 8.24269   1
   1  -4  -7 275.368 5.83551   2
   0  -4  -7 735.667 9.54973  -2
   0  -4  -7 735.667 9.54973   1
   0   4   7 746.610 9.31821  -2
   0   4   7 746.610 9.31821   1
   1   4   7 344.151 6.91801   2
  -1  -4  -7 537.763 8.07942   1
  -1  -4  -7 349.598 6.37147   2
   1   4   7 550.021 9.71294   1
  -2  -4  -7 110.990 4.69382   1
   2   4   7 73.6024 4.37214   2
   2   4   7 121.337 6.45848   1
  -2  -4  -7 74.5943 3.70121   2
   3  -4  -8 507.468 9.09973  -2
  -3  -4  -7 507.468 9.09973   1
  -3   4   8 487.047 12.1851  -2
   3   4   7 487.047 12.1851   1
   4  -4  -8 60.8869 5.89796  -2
  -4  -4  -7 60.8869 5.89796   1
  -4   4   8 69.7818 8.66708  -2
   4   4   7 69.7818 8.66708   1
  -3  -5  -6 116.358 8.61260  -2
   3  -5  -7 116.358 8.61260   1
   3   5   6 132.451 7.25020  -2
  -3   5   7 132.451 7.25020   1
  -2   5   7 133.740 7.59763   2
   2  -5  -7 232.512 7.69027   1
  -2   5   7 236.327 7.07700   1
   2  -5  -7 147.632 6.41906   2
   1  -5  -7 80.3543 4.57189   1
  -1   5   7 64.6137 5.17128   2
   1  -5  -7 49.8010 4.07036   2
  -1   5   7 102.833 5.27826   1
   0  -5  -7 747.605 10.4248  -2
   0  -5  -7 747.605 10.4248   1
   0   5   7 810.399 15.3374  -2
   0   5   7 810.399 15.3374   1
  -1  -5  -7 57.2860 4.28708   1
   1   5   7 43.4175 4.38763   2
  -1  -5  -7 34.6636 3.78523   2
   1   5   7 58.7159 5.27720   1
  -2  -5  -7 138.933 6.39445   1
   2   5   7 90.4249 5.32274   2
  -2  -5  -7 84.9297 5.58280   2
   2   5   7 132.757 7.81003   1
   3  -5  -8 56.6756 8.62121  -2
  -3  -5  -7 56.6756 8.62121   1
  -3   5   8 78.1841 8.70489  -2
   3   5   7 78.1841 8.70489   1
  -6   0   8 0.23385 6.19674   1
   6   0  -8 5.09814 4.78315   2
  -5   0   8 451.907 7.72596   1
   5   0  -8 297.084 7.48303   2
  -4   0  -7 187.841 5.85462  -2
  -4   0   8 187.841 5.85462   1
  -3   0   8 1105.52 17.6935   1
   3   0  -8 689.498 17.1697   2
  -3   0  -7 1676.83 38.3380  -2
  -3   0   8 1676.83 38.3380   1
  -2   0   8 8.20602 2.10202   1
   2   0  -8 6.42983 1.40449   2
   1   0  -8 2476.01 17.5964   2
  -1   0   8 3860.67 37.7956   1
  -1   0  -8 4989.49 99.2981  -2
  -1   0   8 4989.49 99.2981   1
   0   0  -8 379.997 4.35833  -2
   0   0   8 379.997 4.35833   1
   1   0   8 2188.20 15.8570   1
  -1   0  -8 1405.21 15.3417   2
   2   0   8 35.7348 1.89047   1
  -2   0  -8 20.7725 2.45444   2
  -3   0  -8 732.010 13.1650   2
   3   0   8 1172.76 26.4836   1
   3   0  -9 1619.13 18.3120  -2
   3   0   8 1619.13 18.3120   1
   4   0  -9 147.525 6.02820  -2
   4   0   8 147.525 6.02820   1
  -5   0  -8 127.731 5.69519   2
   5   0   8 200.461 6.83648   1
  -6   0  -8 -1.3389 6.55552   2
   6   0   8 4.98809 6.52736   1
  -6   1   8 33.1377 4.50648   2
   6  -1  -8 51.3169 6.18822   1
  -6   1   8 54.3956 6.41570   1
   6  -1  -8 33.5203 5.64187   2
  -5   1   8 3.51426 3.64616   2
   5  -1  -8 0.77014 4.37959   1
  -5   1   8 6.62309 4.00646   1
   5  -1  -8 -0.4919 2.38950   2
  -4  -1  -7 856.625 11.6615  -2
   4  -1  -8 856.625 11.6615   1
   4   1   7 902.923 14.6223  -2
  -4   1   8 902.923 14.6223   1
   3  -1  -8 14.9151 4.36804   1
  -3  -1  -7 211.516 7.81053  -2
   3  -1  -8 211.516 7.81053   1
  -3   1   8 14.5446 4.83287   2
   3  -1  -8 19.0634 5.91308   2
   3   1   7 195.917 6.97650  -2
  -3   1   8 195.917 6.97650   1
  -3   1   8 22.7782 6.31452   1
  -2   1   8 1463.33 11.6531   2
   2  -1  -8 2356.05 22.0038   1
   2  -1  -8 1408.08 12.7772   2
  -2   1   8 2375.93 20.0072   1
  -1   1   8 22.0789 1.89760   2
   1  -1  -8 39.0204 1.69737   1
  -1   1   8 35.9464 1.68146   1
   1  -1  -8 21.9304 1.88049   2
   0  -1  -8 3316.02 24.9275  -2
   0  -1  -8 3316.02 24.9275   1
   0   1   8 3354.97 29.9180  -2
   0   1   8 3354.97 29.9180   1
  -1  -1  -8 6.95631 1.71196   1
   1   1   8 2.80424 1.33220   2
  -1  -1  -8 1.61741 1.39660   2
   1   1   8 7.78438 1.76545   1
   2   1   8 1580.56 15.3505   2
  -2  -1  -8 2426.70 20.6177   1
  -2  -1  -8 1586.90 15.6858   2
   2   1   8 2459.42 20.3421   1
   3   1   8 33.3159 6.94500   2
   3  -1  -9 477.088 8.00769  -2
  -3  -1  -8 477.088 8.00769   1
  -3  -1  -8 54.3879 7.30747   1
  -3  -1  -8 42.3821 4.92794   2
  -3   1   9 479.063 11.2118  -2
   3   1   8 479.063 11.2118   1
   3   1   8 52.4429 5.92554   1
   4  -1  -9 862.695 12.1940  -2
  -4  -1  -8 862.695 12.1940   1
  -4   1   9 900.485 14.9548  -2
   4   1   8 900.485 14.9548   1
   5   1   8 9.25955 3.76429   2
  -5  -1  -8 9.92722 3.23085   1
  -5  -1  -8 -1.1752 4.31425   2
   5   1   8 3.76765 4.03252   1
   6   1   8 37.9798 6.44816   2
  -6  -1  -8 83.0106 6.87112   1
   6   1   8 82.8643 5.88860   1
  -6  -1  -8 34.1681 10.7861   2
   6  -2  -8 13.6085 6.95097   1
  -6   2   8 5.77818 4.62652   2
  -6   2   8 10.8053 4.34062   1
   6  -2  -8 8.70331 4.67849   2
   5  -2  -8 164.636 7.55118   1
  -5   2   8 101.565 6.74043   2
  -5   2   8 161.004 8.44159   1
   5  -2  -8 104.993 5.47307   2
  -4  -2  -7 151.977 5.24507  -2
   4  -2  -8 151.977 5.24507   1
   4   2   7 145.795 6.76068  -2
  -4   2   8 145.795 6.76068   1
   3  -2  -8 1006.12 15.0378   1
  -3   2   8 578.003 17.8448   2
  -3  -2  -7 1429.44 24.5303  -2
   3  -2  -8 1429.44 24.5303   1
   3   2   7 1342.96 19.4251  -2
  -3   2   8 1342.96 19.4251   1
  -3   2   8 886.841 24.4432   1
   3  -2  -8 623.145 19.5610   2
  -2   2   8 8.50258 2.12029   2
   2  -2  -8 11.1905 2.16893   1
   2  -2  -8 6.33176 1.63361   2
  -2   2   8 8.87735 2.45572   1
  -1   2   8 1393.65 10.6859   2
   1  -2  -8 2283.49 17.3365   1
  -1   2   8 2280.48 21.4305   1
   1   2   8 3128.50 65.4462  -2
  -1   2   8 3128.50 65.4462   1
   1  -2  -8 1415.06 13.0450   2
   0  -2  -8 13.9128 1.28816  -2
   0  -2  -8 13.9128 1.28816   1
   0   2   8 12.3420 1.85601  -2
   0   2   8 12.3420 1.85601   1
   1   2   8 865.228 9.81928   2
  -1  -2  -8 1398.07 12.9984   1
  -1  -2  -8 897.159 8.04233   2
   1   2   8 1367.27 10.6157   1
   2   2   8 109.138 3.75661   2
  -2  -2  -8 177.931 3.51935   1
   2   2   8 168.806 3.99366   1
  -2  -2  -8 115.355 3.37103   2
   3  -2  -9 845.635 10.1608  -2
  -3  -2  -8 845.635 10.1608   1
  -3  -2  -8 661.524 20.8314   1
   3   2   8 406.356 15.6278   2
  -3   2   9 862.113 16.7170  -2
   3   2   8 862.113 16.7170   1
  -3  -2  -8 414.474 10.6840   2
   3   2   8 617.420 18.4859   1
   4  -2  -9 37.3613 3.67240  -2
  -4  -2  -8 37.3613 3.67240   1
  -4   2   9 30.1137 5.77567  -2
   4   2   8 30.1137 5.77567   1
  -5  -2  -8 163.630 4.94494   1
   5   2   8 105.021 7.88340   2
  -5  -2  -8 102.868 6.60143   2
   5   2   8 157.925 8.13929   1
   5  -3  -8 8.53374 5.51079   1
  -5   3   8 8.65518 5.21736   2
   5  -3  -8 0.59536 5.39703   2
  -5   3   8 8.73883 5.08324   1
  -4  -3  -7 207.959 6.37906  -2
   4  -3  -8 207.959 6.37906   1
   4   3   7 250.180 7.66696  -2
  -4   3   8 250.180 7.66696   1
   3  -3  -8 4.25044 4.11219   1
  -3   3   8 2.82330 7.22378   2
  -3  -3  -7 148.017 8.01604  -2
   3  -3  -8 148.017 8.01604   1
   3   3   7 147.117 6.55864  -2
  -3   3   8 147.117 6.55864   1
  -2   3   8 623.090 9.33011   2
   2  -3  -8 968.574 9.91109   1
   2  -3  -8 624.967 7.91219   2
  -2   3   8 992.509 12.3576   1
   1  -3  -8 7.75536 2.08853   1
  -1   3   8 4.53857 1.84015   2
  -1   3   8 5.22299 2.16656   1
   1  -3  -8 4.83667 1.91279   2
   0  -3  -8 1848.83 14.6469  -2
   0  -3  -8 1848.83 14.6469   1
   0   3   8 1907.23 14.5095  -2
   0   3   8 1907.23 14.5095   1
  -1  -3  -8 130.780 3.67404   1
   1   3   8 86.6771 3.16327   2
   1   3   8 137.362 3.45617   1
  -1  -3  -8 83.6637 2.80797   2
  -2  -3  -8 699.727 8.48051   1
   2   3   8 471.082 7.93815   2
  -2  -3  -8 453.265 6.16866   2
   2   3   8 753.298 10.7111   1
   3  -3  -9 136.296 6.99453  -2
  -3  -3  -8 136.296 6.99453   1
  -3  -3  -8 16.2709 8.57494   1
  -3  -3  -8 13.4795 5.39774   2
  -3   3   9 152.003 8.13299  -2
   3   3   8 152.003 8.13299   1
   3   3   8 12.2700 7.34061   1
   4  -3  -9 384.410 8.94475  -2
  -4  -3  -8 384.410 8.94475   1
  -4   3   9 378.264 9.74844  -2
   4   3   8 378.264 9.74844   1
   5   3   8 7.56537 5.11116   2
  -5  -3  -8 1.99575 3.81287   1
   5   3   8 9.02598 5.68418   1
  -5  -3  -8 -5.7995 5.04379   2
  -4  -4  -7 52.7968 5.28105  -2
   4  -4  -8 52.7968 5.28105   1
   4   4   7 46.0284 5.85253  -2
  -4   4   8 46.0284 5.85253   1
  -3  -4  -7 568.745 9.77653  -2
   3  -4  -8 568.745 9.77653   1
   3   4   7 562.614 10.3883  -2
  -3   4   8 562.614 10.3883   1
   2  -4  -8 3.70881 2.94580   1
  -2   4   8 7.78119 4.37300   2
  -2   4   8 3.76501 3.33711   1
   2  -4  -8 8.23367 3.32028   2
  -1   4   8 413.412 8.42843   2
   1  -4  -8 630.119 8.93162   1
  -1   4   8 600.087 9.37011   1
   1  -4  -8 408.404 7.08016   2
   0  -4  -8 24.6129 3.26325  -2
   0  -4  -8 24.6129 3.26325   1
   0   4   8 25.1087 3.32616  -2
   0   4   8 25.1087 3.32616   1
   1   4   8 425.886 7.76798   2
  -1  -4  -8 676.648 10.0635   1
  -1  -4  -8 427.470 7.17195   2
   1   4   8 680.044 11.0565   1
  -2  -4  -8 50.1369 4.01741   1
   2   4   8 32.1051 3.88695   2
   2   4   8 45.5509 5.29936   1
  -2  -4  -8 31.9833 3.65885   2
   3  -4  -9 327.197 9.08753  -2
  -3  -4  -8 327.197 9.08753   1
  -3   4   9 357.991 10.9427  -2
   3   4   8 357.991 10.9427   1
  -3  -4  -8 155.460 12.6965   2
   4  -4  -9 36.1855 5.75924  -2
  -4  -4  -8 36.1855 5.75924   1
  -4   4   9 29.0563 8.07484  -2
   4   4   8 29.0563 8.07484   1
  -3  -5  -7 58.3898 8.01033  -2
   3  -5  -8 58.3898 8.01033   1
   3   5   7 57.8858 6.66312  -2
  -3   5   8 57.8858 6.66312   1
   2  -5  -8 258.604 8.10447   1
  -2   5   8 175.035 8.45818   2
   2  -5  -8 158.152 6.75399   2
  -2   5   8 263.649 7.52427   1
  -1   5   8 27.1429 7.27213   2
   1  -5  -8 34.0123 4.45510   1
   1  -5  -8 19.5814 3.72266   2
  -1   5   8 29.9216 4.36436   1
   0  -5  -8 387.186 7.56233  -2
   0  -5  -8 387.186 7.56233   1
   0   5   8 453.091 11.3742  -2
   0   5   8 453.091 11.3742   1
   1   5   8 -1.3256 3.69040   2
  -1  -5  -8 2.20328 3.51745   1
  -1  -5  -8 3.92961 3.80045   2
   1   5   8 4.48551 6.90781   1
   2   5   8 236.511 7.14456   2
  -2  -5  -8 360.765 9.07184   1
   2   5   8 358.744 11.0049   1
  -2  -5  -8 216.535 7.50498   2
   6   0  -9 9.73361 6.58379   2
  -6   0   9 9.63288 7.04749   1
   5   0  -9 21.2802 3.89257   2
  -5   0   9 29.5830 4.08679   1
  -4   0  -8 182.162 6.06925  -2
  -4   0   9 182.162 6.06925   1
  -3   0   9 804.856 14.3232   1
   3   0  -9 517.660 14.3607   2
  -3   0  -8 1645.20 38.6079  -2
  -3   0   9 1645.20 38.6079   1
  -2   0   9 761.253 9.83218   1
   2   0  -9 469.277 5.18887   2
   1   0  -9 1496.40 11.3639   2
  -1   0   9 2338.53 21.6975   1
   0   0  -9 658.925 6.38596  -2
   0   0   9 658.925 6.38596   1
  -1   0  -9 567.797 7.16730   2
   1   0   9 884.299 7.47032   1
  -2   0  -9 357.420 6.27715   2
   2   0   9 567.467 6.10778   1
   3   0 -10 728.236 10.5961  -2
   3   0   9 728.236 10.5961   1
   3   0   9 583.321 15.7858   1
  -3   0  -9 403.436 9.52301   2
   4   0 -10 710.771 12.9009  -2
   4   0   9 710.771 12.9009   1
  -5   0  -9 105.083 5.77351   2
   5   0   9 149.915 6.48697   1
  -6   1   9 55.6155 4.97792   2
   6  -1  -9 87.8298 7.10748   1
   6  -1  -9 54.3808 6.13369   2
  -6   1   9 86.1463 7.28438   1
   5  -1  -9 52.4171 5.61404   1
  -5   1   9 25.1959 4.32704   2
   5  -1  -9 32.4733 3.46299   2
  -5   1   9 47.3597 4.95632   1
  -4  -1  -8 867.890 12.0268  -2
   4  -1  -9 867.890 12.0268   1
   4   1   8 880.893 14.7930  -2
  -4   1   9 880.893 14.7930   1
  -3   1   9 395.517 12.6174   2
   3  -1  -9 665.330 13.4614   1
  -3  -1  -8 721.654 15.2294  -2
   3  -1  -9 721.654 15.2294   1
  -3   1   9 660.315 19.4481   1
   3   1   8 698.865 12.7598  -2
  -3   1   9 698.865 12.7598   1
   3  -1  -9 395.505 13.8628   2
  -2   1   9 538.266 6.11618   2
   2  -1  -9 935.859 11.8406   1
   2  -1  -9 594.411 6.97353   2
  -2   1   9 850.639 9.48352   1
   1  -1  -9 1074.19 11.6399   1
  -1   1   9 677.759 7.91586   2
  -1   1   9 1055.67 9.22542   1
   1  -1  -9 662.759 7.37162   2
   0  -1  -9 3584.48 27.0026  -2
   0  -1  -9 3584.48 27.0026   1
   0   1   9 3586.76 32.1076  -2
   0   1   9 3586.76 32.1076   1
  -1  -1  -9 1251.46 11.8365   1
   1   1   9 795.170 7.51611   2
  -1  -1  -9 732.810 9.88680   2
   1   1   9 1258.06 12.8757   1
  -2  -1  -9 433.857 5.87516   1
   2   1   9 297.180 6.35681   2
   2   1   9 461.920 7.15986   1
  -2  -1  -9 271.996 5.83883   2
   3  -1 -10 669.056 10.1207  -2
  -3  -1  -9 669.056 10.1207   1
  -3  -1  -9 412.826 14.6770   1
   3   1   9 218.009 11.8127   2
  -3  -1  -9 236.622 8.03875   2
   3   1   9 335.885 11.8922   1
  -3   1  10 628.367 11.0079  -2
   3   1   9 628.367 11.0079   1
   4  -1 -10 167.691 5.62338  -2
  -4  -1  -9 167.691 5.62338   1
  -4   1  10 169.617 6.89547  -2
   4   1   9 169.617 6.89547   1
  -5  -1  -9 139.240 6.20136   1
   5   1   9 74.3621 5.53856   2
   5   1   9 142.044 6.70023   1
  -5  -1  -9 79.6034 4.32290   2
   5  -2  -9 107.624 6.93624   1
  -5   2   9 58.2101 6.09485   2
   5  -2  -9 73.5222 3.82443   2
  -5   2   9 110.769 7.68955   1
  -4  -2  -8 56.9595 4.35464  -2
   4  -2  -9 56.9595 4.35464   1
   4   2   8 46.7106 5.44719  -2
  -4   2   9 46.7106 5.44719   1
   3  -2  -9 332.771 10.1236   1
  -3  -2  -8 793.503 16.4004  -2
   3  -2  -9 793.503 16.4004   1
  -3   2   9 252.627 11.8249   2
   3  -2  -9 218.708 12.2028   2
   3   2   8 771.364 12.0448  -2
  -3   2   9 771.364 12.0448   1
   2  -2  -9 293.340 5.05203   1
  -2   2   9 183.263 4.14683   2
   2  -2  -9 181.337 3.57818   2
  -2   2   9 277.775 5.39524   1
  -1   2   9 732.339 7.14406   2
   1  -2  -9 1180.87 10.1855   1
   1  -2  -9 726.049 8.16549   2
  -1   2   9 1197.13 12.8958   1
   0  -2  -9 1096.06 9.22187  -2
   0  -2  -9 1096.06 9.22187   1
   0   2   9 1078.14 10.5986  -2
   0   2   9 1078.14 10.5986   1
   1   2   9 781.685 9.52623   2
  -1  -2  -9 1199.52 11.7157   1
  -1  -2  -9 800.928 7.60893   2
   1   2   9 1244.81 10.7741   1
  -2  -2  -9 197.373 3.88513   1
   2   2   9 136.473 4.23148   2
   2   2   9 228.397 4.70794   1
  -2  -2  -9 128.403 3.65586   2
   3  -2 -10 718.034 9.80758  -2
  -3  -2  -9 718.034 9.80758   1
  -3  -2  -9 578.737 19.4712   1
  -3  -2  -9 359.888 10.3966   2
  -3   2  10 770.928 15.8277  -2
   3   2   9 770.928 15.8277   1
   3   2   9 597.992 18.5280   1
   4  -2 -10 329.789 6.83482  -2
  -4  -2  -9 329.789 6.83482   1
  -4   2  10 356.530 11.0400  -2
   4   2   9 356.530 11.0400   1
   5   2   9 56.3192 7.18760   2
  -5  -2  -9 76.6840 4.36735   1
   5   2   9 82.3897 6.97980   1
  -5  -2  -9 50.1188 6.01553   2
   5  -3  -9 13.9819 5.90269   1
  -5   3   9 8.44378 5.56457   2
  -5   3   9 10.2373 5.47837   1
   5  -3  -9 7.78827 5.93893   2
  -4  -3  -8 358.909 8.11761  -2
   4  -3  -9 358.909 8.11761   1
   4   3   8 357.969 9.10054  -2
  -4   3   9 357.969 9.10054   1
  -3  -3  -8 196.725 7.57905  -2
   3  -3  -9 196.725 7.57905   1
   3  -3  -9 217.401 13.1295   1
  -3   3   9 132.765 10.8804   2
   3   3   8 207.697 7.36556  -2
  -3   3   9 207.697 7.36556   1
   3  -3  -9 127.129 11.3553   2
   2  -3  -9 620.845 7.63682   1
  -2   3   9 367.854 7.13671   2
   2  -3  -9 386.882 6.23067   2
  -2   3   9 584.290 9.07572   1
  -1   3   9 224.631 4.21953   2
   1  -3  -9 370.796 5.18939   1
  -1   3   9 351.683 5.59810   1
   1  -3  -9 225.202 4.67330   2
   0  -3  -9 1484.45 12.4278  -2
   0  -3  -9 1484.45 12.4278   1
   0   3   9 1457.38 11.7699  -2
   0   3   9 1457.38 11.7699   1
  -1  -3  -9 428.343 6.32636   1
   1   3   9 282.657 5.08320   2
   1   3   9 442.955 6.74414   1
  -1  -3  -9 274.404 4.79153   2
   2   3   9 302.826 6.58755   2
  -2  -3  -9 491.408 7.07518   1
   2   3   9 485.836 8.39256   1
  -2  -3  -9 318.296 5.72184   2
   3  -3 -10 428.846 9.50568  -2
  -3  -3  -9 428.846 9.50568   1
   3   3   9 226.260 13.0097   1
  -3   3  10 427.964 12.1931  -2
   3   3   9 427.964 12.1931   1
   4  -3 -10 207.207 7.32259  -2
  -4  -3  -9 207.207 7.32259   1
  -4   3  10 221.912 8.19303  -2
   4   3   9 221.912 8.19303   1
  -5  -3  -9 35.7587 4.64260   1
   5   3   9 16.3613 5.78319   2
  -5  -3  -9 13.4450 5.83135   2
   5   3   9 15.4540 6.21934   1
  -4  -4  -8 52.8045 5.49221  -2
   4  -4  -9 52.8045 5.49221   1
   4   4   8 57.1895 6.26251  -2
  -4   4   9 57.1895 6.26251   1
  -3  -4  -8 273.955 8.17969  -2
   3  -4  -9 273.955 8.17969   1
   3   4   8 318.029 8.45669  -2
  -3   4   9 318.029 8.45669   1
   2  -4  -9 95.8799 4.75583   1
  -2   4   9 56.4485 5.52351   2
  -2   4   9 93.7061 4.91338   1
   2  -4  -9 54.4160 4.76367   2
   1  -4  -9 398.472 7.84729   1
  -1   4   9 265.169 8.52580   2
   1  -4  -9 259.699 6.39194   2
  -1   4   9 416.440 7.86782   1
   0  -4  -9 470.975 7.68100  -2
   0  -4  -9 470.975 7.68100   1
   0   4   9 497.392 9.48837  -2
   0   4   9 497.392 9.48837   1
   1   4   9 215.282 5.89530   2
  -1  -4  -9 330.709 7.13514   1
   1   4   9 327.997 9.37600   1
  -1  -4  -9 213.462 5.93497   2
   2   4   9 59.8605 4.43324   2
  -2  -4  -9 75.1173 5.09064   1
  -2  -4  -9 38.7098 3.97500   2
   2   4   9 91.5671 6.23401   1
   3  -4 -10 253.101 8.61376  -2
  -3  -4  -9 253.101 8.61376   1
  -3   4  10 242.339 12.4278  -2
   3   4   9 242.339 12.4278   1
   4  -4 -10 107.818 8.62993  -2
  -4  -4  -9 107.818 8.62993   1
  -4   4  10 108.759 10.4957  -2
   4   4   9 108.759 10.4957   1
   2  -5  -9 221.419 7.80484   1
  -2   5   9 148.624 8.12542   2
  -2   5   9 233.663 7.34035   1
   2  -5  -9 140.430 6.74571   2
  -1   5   9 61.4792 8.27045   2
   1  -5  -9 89.8098 5.39335   1
   1  -5  -9 55.7075 4.81903   2
  -1   5   9 94.6995 5.45283   1
   0  -5  -9 397.868 7.82974  -2
   0  -5  -9 397.868 7.82974   1
   0   5   9 376.187 10.7098  -2
   0   5   9 376.187 10.7098   1
  -1  -5  -9 124.424 5.72000   1
   1   5   9 85.3014 5.23398   2
   1   5   9 140.116 10.1574   1
  -1  -5  -9 81.5989 5.18421   2
   2   5   9 67.6663 5.27862   2
  -2  -5  -9 111.608 6.37288   1
  -2  -5  -9 75.2295 5.81561   2
   2   5   9 108.309 7.66913   1
   6   0 -10 88.0647 8.87622   2
  -6   0  10 132.671 10.2268   1
   5   0 -10 40.2484 4.42756   2
  -5   0  10 67.8227 5.20424   1
  -4   0  -9 667.312 12.2581  -2
  -4   0  10 667.312 12.2581   1
  -3   0  -9 661.458 20.8017  -2
  -3   0  10 661.458 20.8017   1
  -3   0  10 202.810 7.14610   1
   3   0 -10 111.022 7.14622   2
   2   0 -10 1217.75 10.6230   2
  -2   0  10 1939.30 23.8051   1
   1   0 -10 5.74750 1.33998   2
  -1   0  10 6.18828 2.11949   1
   0   0 -10 4647.28 34.4927  -2
   0   0  10 4647.28 34.4927   1
   1   0  10 486.118 5.39573   1
   1   0 -10 510.625 15.2757  -2
   1   0  10 510.625 15.2757   1
  -1   0 -10 299.753 5.16224   2
   2   0  10 1688.96 14.1751   1
  -2   0 -10 1107.87 15.2284   2
   3   0 -11 96.8399 5.00197  -2
   3   0  10 96.8399 5.00197   1
  -3   0 -10 5.80701 4.29607   2
   4   0 -11 384.841 9.43492  -2
   4   0  10 384.841 9.43492   1
  -5   0 -10 1.98124 4.22151   2
   5   0  10 -0.5002 4.20145   1
  -6   1  10 10.2032 4.53772   2
   6  -1 -10 31.3216 11.2542   1
  -6   1  10 24.5934 6.43708   1
   6  -1 -10 15.0369 5.59292   2
  -5   1  10 104.261 5.92228   2
   5  -1 -10 173.472 5.35576   1
  -5   1  10 170.166 7.11842   1
   5  -1 -10 102.025 5.27728   2
  -4  -1  -9 101.534 4.94677  -2
   4  -1 -10 101.534 4.94677   1
   4   1   9 109.566 6.40252  -2
  -4   1  10 109.566 6.40252   1
   3  -1 -10 440.164 11.0456   1
  -3  -1  -9 658.569 20.4969  -2
   3  -1 -10 658.569 20.4969   1
  -3   1  10 248.258 10.3088   2
   3  -1 -10 272.118 11.7892   2
   3   1   9 657.159 12.8102  -2
  -3   1  10 657.159 12.8102   1
  -3   1  10 433.682 16.1435   1
  -2   1  10 111.563 3.88796   2
   2  -1 -10 160.572 5.02789   1
  -2   1  10 189.069 5.44792   1
   2  -1 -10 97.4620 3.22380   2
  -1   1  10 1094.30 11.6168   2
   1  -1 -10 1724.87 21.6982   1
  -1  -1 -10 2053.85 49.1026  -2
   1  -1 -10 2053.85 49.1026   1
   1  -1 -10 1122.43 11.0895   2
  -1   1  10 1724.78 14.0733   1
   0  -1 -10 445.325 5.40033  -2
   0  -1 -10 445.325 5.40033   1
   0   1  10 465.617 6.61927  -2
   0   1  10 465.617 6.61927   1
   1   1  10 733.316 7.29297   2
  -1  -1 -10 1214.50 11.7962   1
   1   1  10 1226.13 12.9009   1
  -1  -1 -10 799.571 12.3343   2
   2   1  10 109.505 4.67297   2
  -2  -1 -10 174.366 4.01341   1
  -2  -1 -10 108.351 5.28177   2
   2   1  10 167.692 4.65701   1
   3  -1 -11 964.398 13.0910  -2
  -3  -1 -10 964.398 13.0910   1
  -3  -1 -10 447.016 15.5715   1
  -3  -1 -10 268.370 9.03348   2
  -3   1  11 989.194 14.9314  -2
   3   1  10 989.194 14.9314   1
   4  -1 -11 77.2933 4.84504  -2
  -4  -1 -10 77.2933 4.84504   1
  -4   1  11 82.2710 5.88227  -2
   4   1  10 82.2710 5.88227   1
  -5  -1 -10 210.739 7.55494   1
   5   1  10 144.668 6.82380   2
   5   1  10 224.260 8.19541   1
  -5  -1 -10 134.170 6.21439   2
   5  -2 -10 47.6377 6.21148   1
  -5   2  10 38.6931 6.01997   2
   5  -2 -10 38.2240 3.61071   2
  -5   2  10 39.3900 6.57128   1
  -4  -2  -9 374.093 7.99942  -2
   4  -2 -10 374.093 7.99942   1
   4   2   9 418.870 10.7011  -2
  -4   2  10 418.870 10.7011   1
   3  -2 -10 274.580 9.62692   1
  -3  -2  -9 651.225 15.0624  -2
   3  -2 -10 651.225 15.0624   1
  -3   2  10 188.763 10.8764   2
   3   2   9 692.849 11.5667  -2
  -3   2  10 692.849 11.5667   1
   3  -2 -10 175.950 11.4150   2
  -2   2  10 796.606 9.38068   2
   2  -2 -10 1278.95 14.1237   1
  -2   2  10 1250.38 13.7021   1
   2  -2 -10 779.556 8.03910   2
   1  -2 -10 168.628 3.78481   1
  -1   2  10 101.069 3.19681   2
   1  -2 -10 105.076 3.45493   2
  -1   2  10 150.715 4.27911   1
   0  -2 -10 2562.71 20.4350  -2
   0  -2 -10 2562.71 20.4350   1
   0   2  10 2554.68 24.1929  -2
   0   2  10 2554.68 24.1929   1
  -1  -2 -10 197.154 4.31645   1
   1   2  10 129.933 4.13737   2
   1   2  10 193.329 4.09182   1
  -1  -2 -10 131.548 3.44901   2
   2   2  10 894.024 10.8584   2
  -2  -2 -10 1387.14 12.3899   1
   2   2  10 1441.56 16.6067   1
  -2  -2 -10 887.276 12.1466   2
   3  -2 -11 78.6990 4.89491  -2
  -3  -2 -10 78.6990 4.89491   1
  -3  -2 -10 23.5800 8.06003   1
  -3  -2 -10 11.7823 5.45728   2
  -3   2  11 97.0290 7.34122  -2
   3   2  10 97.0290 7.34122   1
   3   2  10 21.8651 7.02601   1
   4  -2 -11 533.324 8.78755  -2
  -4  -2 -10 533.324 8.78755   1
  -4   2  11 530.490 13.7170  -2
   4   2  10 530.490 13.7170   1
   5   2  10 7.82815 6.25537   2
  -5  -2 -10 11.1135 3.85011   1
  -5  -2 -10 7.31833 5.44836   2
   5   2  10 16.9730 5.35461   1
   5  -3 -10 151.216 8.55532   1
  -5   3  10 102.283 11.1237   2
   5  -3 -10 83.0137 5.42084   2
  -5   3  10 133.671 8.09864   1
  -4  -3  -9 179.601 6.57785  -2
   4  -3 -10 179.601 6.57785   1
   4   3   9 163.799 7.15719  -2
  -4   3  10 163.799 7.15719   1
  -3   3  10 193.146 12.8484   2
  -3  -3  -9 450.422 9.37142  -2
   3  -3 -10 450.422 9.37142   1
   3   3   9 436.327 10.0264  -2
  -3   3  10 436.327 10.0264   1
  -2   3  10 84.7069 4.17700   2
   2  -3 -10 110.776 4.39652   1
  -2   3  10 116.833 6.30150   1
   2  -3 -10 60.7267 3.41660   2
  -1   3  10 401.431 6.43562   2
   1  -3 -10 612.210 8.23833   1
   1  -3 -10 388.893 6.17911   2
  -1   3  10 633.408 8.02178   1
   0  -3 -10 144.462 3.80128  -2
   0  -3 -10 144.462 3.80128   1
   0   3  10 158.633 3.65990  -2
   0   3  10 158.633 3.65990   1
   1   3  10 653.334 8.25343   2
  -1  -3 -10 1036.72 11.1550   1
  -1  -3 -10 655.225 8.59208   2
   1   3  10 1032.91 11.7834   1
   2   3  10 64.5536 5.65700   2
  -2  -3 -10 103.380 4.60577   1
   2   3  10 116.837 4.84650   1
  -2  -3 -10 75.8527 4.55139   2
   3  -3 -11 636.023 11.8243  -2
  -3  -3 -10 636.023 11.8243   1
  -3   3  11 633.146 12.8411  -2
   3   3  10 633.146 12.8411   1
   4  -3 -11 55.3682 5.60956  -2
  -4  -3 -10 55.3682 5.60956   1
  -4   3  11 46.9970 7.17597  -2
   4   3  10 46.9970 7.17597   1
  -4  -4  -9 110.347 6.47351  -2
   4  -4 -10 110.347 6.47351   1
   4   4   9 114.468 7.28586  -2
  -4   4  10 114.468 7.28586   1
  -3  -4  -9 225.529 8.05159  -2
   3  -4 -10 225.529 8.05159   1
   3   4   9 193.800 8.39580  -2
  -3   4  10 193.800 8.39580   1
   2  -4 -10 473.901 8.61501   1
  -2   4  10 335.955 9.62752   2
  -2   4  10 498.049 9.22650   1
   2  -4 -10 303.246 7.97331   2
  -1   4  10 69.5244 5.80590   2
   1  -4 -10 114.137 5.11114   1
  -1   4  10 112.590 4.92429   1
   1  -4 -10 64.7710 4.38143   2
   0  -4 -10 884.335 11.1247  -2
   0  -4 -10 884.335 11.1247   1
   0   4  10 896.597 15.3265  -2
   0   4  10 896.597 15.3265   1
   1   4  10 66.4077 4.31439   2
  -1  -4 -10 98.7186 4.86468   1
  -1  -4 -10 63.7550 4.37470   2
   1   4  10 86.8478 6.28119   1
   2   4  10 243.657 6.81778   2
  -2  -4 -10 378.880 8.86147   1
  -2  -4 -10 238.594 6.42526   2
   2   4  10 390.294 10.5652   1
   3  -4 -11 41.5214 6.43304  -2
  -3  -4 -10 41.5214 6.43304   1
  -3   4  11 17.9188 9.02682  -2
   3   4  10 17.9188 9.02682   1
  -2   5  10 4.29146 5.61570   2
   2  -5 -10 -1.0765 4.82532   1
   2  -5 -10 5.73961 4.84366   2
  -2   5  10 -0.1283 4.35060   1
  -1   5  10 201.399 11.2103   2
   1  -5 -10 276.603 7.67626   1
  -1   5  10 281.284 10.1023   1
   1  -5 -10 169.886 6.39255   2
   0  -5 -10 54.5930 4.96122  -2
   0  -5 -10 54.5930 4.96122   1
   0   5  10 62.7128 8.68299  -2
   0   5  10 62.7128 8.68299   1
   1   5  10 169.103 8.50421   2
  -1  -5 -10 241.002 7.21519   1
  -1  -5 -10 151.613 6.30033   2
   1   5  10 228.992 11.8228   1
  -2  -5 -10 11.8868 5.46356   1
   2   5  10 9.18817 4.53097   2
  -2  -5 -10 6.78611 4.79924   2
   2   5  10 3.64014 5.75473   1
  -5   0  11 3.84873 4.18393   1
   5   0 -11 5.01308 4.02884   2
  -4   0 -10 507.530 13.0371  -2
  -4   0  11 507.530 13.0371   1
  -3   0  11 158.619 6.91584   1
  -3   0 -10 163.378 11.6433  -2
  -3   0  11 163.378 11.6433   1
   2   0 -11 280.825 4.51449   2
  -2   0  11 443.070 8.63451   1
  -1   0  11 135.308 3.60793   1
   1   0 -11 88.3196 2.62743   2
   0   0 -11 2662.98 20.7796  -2
   0   0  11 2662.98 20.7796   1
   1   0  11 144.427 3.28951   1
  -1   0 -11 91.7849 3.23711   2
   2   0  11 818.032 9.81644   1
  -2   0 -11 534.810 9.72568   2
   3   0 -12 182.440 6.05371  -2
   3   0  11 182.440 6.05371   1
  -3   0 -11 7.28654 4.77974   2
   4   0 -12 329.886 9.11158  -2
   4   0  11 329.886 9.11158   1
  -5   0 -11 -2.7945 4.46480   2
   5   0  11 -1.4748 4.43164   1
  -5   1  11 155.569 6.87866   2
   5  -1 -11 242.395 6.42296   1
  -5   1  11 210.217 7.83883   1
   5  -1 -11 158.661 6.41533   2
  -4  -1 -10 41.9385 4.50168  -2
   4  -1 -11 41.9385 4.50168   1
   4   1  10 46.6178 5.68079  -2
  -4   1  11 46.6178 5.68079   1
   3  -1 -11 802.469 15.8426   1
  -3  -1 -10 1053.22 28.8355  -2
   3  -1 -11 1053.22 28.8355   1
   3   1  10 1195.17 16.3442  -2
  -3   1  11 1195.17 16.3442   1
   3  -1 -11 522.980 16.9042   2
   2  -1 -11 3.43151 3.86251   1
  -2   1  11 2.72895 2.63903   2
   2  -1 -11 1.87112 2.22334   2
  -2   1  11 2.16818 3.16265   1
  -1   1  11 1154.28 12.3714   2
   1  -1 -11 1688.12 21.6582   1
  -1   1  11 1843.45 15.1765   1
   1  -1 -11 1166.31 11.7129   2
   0  -1 -11 610.098 7.34807  -2
   0  -1 -11 610.098 7.34807   1
   0   1  11 628.397 8.26372  -2
   0   1  11 628.397 8.26372   1
  -1  -1 -11 1684.33 15.5755   1
   1   1  11 1037.40 10.3648   2
   1   1  11 1706.96 17.1862   1
  -1  -1 -11 1132.58 14.4988   2
   2   1  11 38.9738 3.85885   2
  -2  -1 -11 55.9613 3.06276   1
   2   1  11 52.2964 3.58357   1
  -2  -1 -11 36.3849 4.58103   2
   3  -1 -12 1361.22 16.8884  -2
  -3  -1 -11 1361.22 16.8884   1
  -3  -1 -11 1056.65 27.1043   1
  -3  -1 -11 674.176 14.5018   2
  -3   1  12 1330.30 18.7142  -2
   3   1  11 1330.30 18.7142   1
   4  -1 -12 200.087 7.46330  -2
  -4  -1 -11 200.087 7.46330   1
  -4   1  12 216.575 8.02840  -2
   4   1  11 216.575 8.02840   1
   5   1  11 37.4036 5.43061   2
  -5  -1 -11 37.9234 5.20510   1
   5   1  11 39.8131 5.64562   1
  -5  -1 -11 30.3322 4.78617   2
  -5   2  11 16.1805 5.01907   2
   5  -2 -11 26.1875 6.01259   1
  -5   2  11 31.0765 6.85002   1
   5  -2 -11 18.1570 3.57824   2
  -4  -2 -10 580.661 10.2958  -2
   4  -2 -11 580.661 10.2958   1
   4   2  10 570.360 12.8816  -2
  -4   2  11 570.360 12.8816   1
  -3  -2 -10 123.087 8.13648  -2
   3  -2 -11 123.087 8.13648   1
   3  -2 -11 120.354 7.73060   1
  -3   2  11 76.0894 8.57419   2
   3  -2 -11 54.2291 8.76230   2
   3   2  10 135.273 6.37862  -2
  -3   2  11 135.273 6.37862   1
   2  -2 -11 791.819 11.5292   1
  -2   2  11 508.553 8.30525   2
   2  -2 -11 474.964 6.18281   2
  -2   2  11 780.368 10.1271   1
   1  -2 -11 83.6912 3.61000   1
  -1   2  11 44.9592 2.78870   2
   1  -2 -11 47.5185 3.02204   2
  -1   2  11 73.0577 4.06591   1
   0  -2 -11 1978.49 16.6115  -2
   0  -2 -11 1978.49 16.6115   1
   0   2  11 2077.91 20.5550  -2
   0   2  11 2077.91 20.5550   1
  -1  -2 -11 161.648 4.20156   1
   1   2  11 96.6594 4.48784   2
  -1  -2 -11 106.942 3.81583   2
   1   2  11 152.838 3.94671   1
  -2  -2 -11 734.193 8.16253   1
   2   2  11 440.154 8.24418   2
   2   2  11 699.791 10.2702   1
  -2  -2 -11 483.108 8.76467   2
   3  -2 -12 174.230 6.11614  -2
  -3  -2 -11 174.230 6.11614   1
  -3  -2 -11 39.4822 8.72110   1
  -3  -2 -11 20.2543 6.08544   2
   3   2  11 54.6657 8.12953   1
  -3   2  12 193.214 9.17487  -2
   3   2  11 193.214 9.17487   1
   4  -2 -12 292.234 6.87184  -2
  -4  -2 -11 292.234 6.87184   1
  -4   2  12 318.342 11.2561  -2
   4   2  11 318.342 11.2561   1
  -5  -2 -11 4.10623 3.94076   1
   5   2  11 7.37634 6.58383   2
   5   2  11 8.62420 5.43719   1
  -5  -2 -11 3.26422 4.00683   2
  -4  -3 -10 40.4183 5.14784  -2
   4  -3 -11 40.4183 5.14784   1
   4   3  10 34.1080 5.58477  -2
  -4   3  11 34.1080 5.58477   1
  -3  -3 -10 672.059 11.7429  -2
   3  -3 -11 672.059 11.7429   1
  -3   3  11 316.282 15.4907   2
   3   3  10 673.525 14.6449  -2
  -3   3  11 673.525 14.6449   1
   2  -3 -11 36.4913 4.06784   1
  -2   3  11 20.4320 4.03224   2
   2  -3 -11 17.6688 3.90037   2
  -2   3  11 33.8580 5.05755   1
  -1   3  11 780.471 9.74605   2
   1  -3 -11 1222.54 13.2109   1
   1   3  11 1718.32 42.6563  -2
  -1   3  11 1718.32 42.6563   1
   1  -3 -11 760.962 9.28056   2
  -1   3  11 1217.79 15.4094   1
   0  -3 -11 90.0928 3.77905  -2
   0  -3 -11 90.0928 3.77905   1
   0   3  11 92.4807 3.22436  -2
   0   3  11 92.4807 3.22436   1
   1   3  11 513.168 10.3814   2
  -1  -3 -11 851.906 10.0320   1
   1   3  11 845.801 10.5007   1
  -1  -3 -11 568.317 8.21641   2
   2   3  11 36.1081 5.24235   2
  -2  -3 -11 55.5229 4.65847   1
   2   3  11 67.4943 5.06444   1
  -2  -3 -11 40.1413 5.11506   2
   3  -3 -12 522.660 11.0960  -2
  -3  -3 -11 522.660 11.0960   1
  -3   3  12 518.739 11.7966  -2
   3   3  11 518.739 11.7966   1
   4  -3 -12 206.562 7.73609  -2
  -4  -3 -11 206.562 7.73609   1
  -4   3  12 199.394 10.1499  -2
   4   3  11 199.394 10.1499   1
  -3  -4 -10 25.9175 6.97376  -2
   3  -4 -11 25.9175 6.97376   1
   3   4  10 28.4964 6.57637  -2
  -3   4  11 28.4964 6.57637   1
  -2   4  11 230.733 8.50475   2
   2  -4 -11 384.695 8.98307   1
  -2   4  11 345.497 7.96541   1
   2  -4 -11 232.424 7.33249   2
   1  -4 -11 47.9757 4.34373   1
  -1   4  11 26.7984 5.21981   2
  -1   4  11 39.8492 4.14397   1
   1  -4 -11 25.4204 3.88904   2
   0  -4 -11 724.754 12.1992  -2
   0  -4 -11 724.754 12.1992   1
   0   4  11 706.232 17.4019  -2
   0   4  11 706.232 17.4019   1
   1   4  11 48.8386 4.27969   2
  -1  -4 -11 79.4496 4.79047   1
   1   4  11 79.7502 6.37474   1
  -1  -4 -11 51.5274 4.39069   2
  -2  -4 -11 369.427 9.00344   1
   2   4  11 245.738 8.01249   2
  -2  -4 -11 250.420 7.65258   2
   2   4  11 393.193 13.7149   1
   3  -4 -12 87.0629 7.49695  -2
  -3  -4 -11 87.0629 7.49695   1
  -3   4  12 79.3832 10.4972  -2
   3   4  11 79.3832 10.4972   1
   1  -5 -11 191.033 6.96806   1
  -1   5  11 143.485 10.4610   2
   1  -5 -11 121.210 6.08679   2
  -1   5  11 214.499 9.43112   1
   0  -5 -11 49.2907 5.54500  -2
   0  -5 -11 49.2907 5.54500   1
   0   5  11 51.8297 8.82137  -2
   0   5  11 51.8297 8.82137   1
   1   5  11 139.078 8.35283   2
  -1  -5 -11 224.359 8.01017   1
  -1  -5 -11 145.861 6.35048   2
   1   5  11 216.502 11.9578   1
  -5   0  12 77.8921 6.09896   1
   5   0 -12 49.9021 5.22219   2
  -4   0 -11 323.404 11.0713  -2
  -4   0  12 323.404 11.0713   1
  -3   0  12 290.992 14.8831   1
  -3   0 -11 299.051 15.2036  -2
  -3   0  12 299.051 15.2036   1
   2   0 -12 649.627 8.43941   2
  -2   0  12 1055.84 15.3713   1
  -1   0  12 226.753 4.60929   1
   1   0 -12 144.620 3.86363   2
   0   0 -12 1417.42 12.2845  -2
   0   0  12 1417.42 12.2845   1
  -1   0 -12 716.248 7.71100   2
   1   0 -12 1253.77 29.0670  -2
   1   0  12 1253.77 29.0670   1
   1   0  12 1126.62 12.9936   1
  -2   0 -12 278.517 7.20579   2
   2   0  12 450.248 8.09260   1
   3   0 -13 884.518 12.9834  -2
   3   0  12 884.518 12.9834   1
   4   0 -13 489.916 11.2520  -2
   4   0  12 489.916 11.2520   1
  -5   0 -12 67.2579 6.18903   2
   5   0  12 104.509 6.79444   1
  -5   1  12 18.0908 4.80986   2
   5  -1 -12 25.9901 4.70567   1
   5  -1 -12 25.5009 4.60602   2
  -5   1  12 36.0206 5.54077   1
  -4  -1 -11 261.343 7.25203  -2
   4  -1 -12 261.343 7.25203   1
   4   1  11 254.400 8.72452  -2
  -4   1  12 254.400 8.72452   1
  -3  -1 -11 1100.01 22.0486  -2
   3  -1 -12 1100.01 22.0486   1
   3  -1 -12 441.174 15.4970   1
   3   1  11 1153.34 16.2893  -2
  -3   1  12 1153.34 16.2893   1
   3  -1 -12 282.911 12.5522   2
  -2   1  12 624.495 9.24514   2
   2  -1 -12 855.443 13.9457   1
   2  -1 -12 608.468 8.35156   2
  -2   1  12 953.617 11.8712   1
  -1   1  12 184.465 5.27622   2
   1  -1 -12 297.956 6.76375   1
   1  -1 -12 209.999 4.49319   2
  -1   1  12 303.817 6.07182   1
   0  -1 -12 1134.99 12.6621  -2
   0  -1 -12 1134.99 12.6621   1
   0   1  12 1182.19 13.0939  -2
   0   1  12 1182.19 13.0939   1
   1   1  12 296.251 5.92937   2
  -1  -1 -12 450.141 6.44631   1
  -1  -1 -12 300.193 7.02018   2
   1   1  12 472.647 8.45816   1
   2   1  12 416.574 7.39536   2
  -2  -1 -12 692.417 9.23866   1
  -2  -1 -12 453.997 9.86142   2
   2   1  12 646.870 9.72268   1
   3  -1 -13 166.732 6.14256  -2
  -3  -1 -12 166.732 6.14256   1
  -3  -1 -12 140.028 9.78848   1
  -3   1  13 154.740 6.24919  -2
   3   1  12 154.740 6.24919   1
  -3  -1 -12 103.033 7.18630   2
   4  -1 -13 232.026 8.17498  -2
  -4  -1 -12 232.026 8.17498   1
  -4   1  13 258.400 8.91000  -2
   4   1  12 258.400 8.91000   1
   5   1  12 42.8801 5.91097   2
  -5  -1 -12 58.7901 5.89826   1
   5   1  12 68.4509 6.52246   1
  -5  -1 -12 31.1126 5.33712   2
  -5   2  12 27.0352 5.39149   2
   5  -2 -12 46.8876 4.71873   1
  -5   2  12 46.9615 7.80252   1
   5  -2 -12 30.0219 4.28715   2
  -4  -2 -11 273.063 7.64380  -2
   4  -2 -12 273.063 7.64380   1
   4   2  11 287.397 9.86960  -2
  -4   2  12 287.397 9.86960   1
  -3   2  12 150.467 10.7049   2
   3  -2 -12 227.873 9.69827   1
  -3  -2 -11 220.362 10.0948  -2
   3  -2 -12 220.362 10.0948   1
   3   2  11 252.872 6.84249  -2
  -3   2  12 252.872 6.84249   1
   3  -2 -12 128.280 10.8895   2
  -2   2  12 288.132 6.48358   2
   2  -2 -12 461.132 8.81433   1
   2  -2 -12 291.667 5.39691   2
  -2   2  12 450.320 8.61481   1
   1  -2 -12 648.102 8.50667   1
  -1   2  12 404.484 6.13616   2
   1  -2 -12 411.662 6.50440   2
  -1   2  12 655.590 10.2512   1
   0  -2 -12 1157.75 13.2493  -2
   0  -2 -12 1157.75 13.2493   1
   0   2  12 1156.02 13.2618  -2
   0   2  12 1156.02 13.2618   1
   1   2  12 527.767 9.17779   2
  -1  -2 -12 811.822 9.63953   1
   1   2  12 841.286 10.6954   1
  -1  -2 -12 514.776 7.52598   2
  -2  -2 -12 365.852 6.07137   1
   2   2  12 229.681 6.46761   2
  -2  -2 -12 235.059 6.68021   2
   2   2  12 363.801 7.43812   1
   3  -2 -13 654.597 10.9737  -2
  -3  -2 -12 654.597 10.9737   1
  -3  -2 -12 305.853 15.0380   1
  -3   2  13 629.132 15.4236  -2
   3   2  12 629.132 15.4236   1
   4  -2 -13 129.254 5.48974  -2
  -4  -2 -12 129.254 5.48974   1
  -4   2  13 142.659 8.91063  -2
   4   2  12 142.659 8.91063   1
  -4  -3 -11 236.550 7.74945  -2
   4  -3 -12 236.550 7.74945   1
   4   3  11 233.148 9.77124  -2
  -4   3  12 233.148 9.77124   1
  -3  -3 -11 444.040 10.0718  -2
   3  -3 -12 444.040 10.0718   1
   3   3  11 462.742 12.6208  -2
  -3   3  12 462.742 12.6208   1
   2  -3 -12 443.724 10.4561   1
  -2   3  12 300.456 8.18146   2
  -2   3  12 452.233 11.2800   1
   2  -3 -12 288.206 7.49062   2
  -1   3  12 142.578 4.50756   2
   1  -3 -12 253.435 6.35663   1
   1  -3 -12 144.680 4.47532   2
  -1   3  12 228.302 6.37441   1
   0  -3 -12 879.423 11.3417  -2
   0  -3 -12 879.423 11.3417   1
   0   3  12 857.410 11.1976  -2
   0   3  12 857.410 11.1976   1
  -1  -3 -12 230.102 5.30502   1
   1   3  12 160.463 5.75138   2
   1   3  12 236.828 5.57540   1
  -1  -3 -12 159.456 5.51066   2
   2   3  12 282.694 9.23020   2
  -2  -3 -12 469.128 9.60573   1
  -2  -3 -12 305.560 9.20253   2
   2   3  12 476.268 8.91226   1
   3  -3 -13 110.513 8.78389  -2
  -3  -3 -12 110.513 8.78389   1
  -3   3  13 95.2018 7.32353  -2
   3   3  12 95.2018 7.32353   1
   4  -3 -13 192.639 7.83719  -2
  -4  -3 -12 192.639 7.83719   1
  -4   3  13 190.230 10.3344  -2
   4   3  12 190.230 10.3344   1
  -3  -4 -11 106.633 8.62707  -2
   3  -4 -12 106.633 8.62707   1
   3   4  11 115.028 8.00232  -2
  -3   4  12 115.028 8.00232   1
   2  -4 -12 150.152 7.42271   1
  -2   4  12 109.642 8.81609   2
  -2   4  12 164.127 7.20454   1
   2  -4 -12 95.0628 5.76501   2
   1  -4 -12 320.570 7.69016   1
  -1   4  12 199.517 8.24176   2
  -1   4  12 316.000 7.42265   1
   1  -4 -12 203.904 6.37311   2
   0  -4 -12 338.817 8.60966  -2
   0  -4 -12 338.817 8.60966   1
   0   4  12 367.428 12.9322  -2
   0   4  12 367.428 12.9322   1
   1   4  12 149.106 5.71856   2
  -1  -4 -12 259.009 7.74719   1
   1   4  12 247.470 9.03738   1
  -1  -4 -12 168.844 6.11670   2
  -2  -4 -12 123.865 6.44393   1
   2   4  12 78.2944 6.00264   2
   2   4  12 125.182 9.56513   1
  -2  -4 -12 80.6605 6.77916   2
   3  -4 -13 266.191 12.2957  -2
  -3  -4 -12 266.191 12.2957   1
  -3   4  13 315.832 14.7706  -2
   3   4  12 315.832 14.7706   1
   5   0 -13 133.013 6.74586   2
  -5   0  13 218.044 8.54064   1
  -4   0 -12 326.004 11.5973  -2
  -4   0  13 326.004 11.5973   1
  -3   0 -12 980.686 20.9361  -2
  -3   0  13 980.686 20.9361   1
   2   0 -13 22.8091 3.30428   2
  -2   0  13 39.4559 4.16247   1
  -1   0  13 2324.88 18.9444   1
   1   0 -13 1445.31 14.0220   2
   0   0 -13 3.49506 2.51498  -2
   0   0  13 3.49506 2.51498   1
  -1   0 -13 731.644 8.02289   2
   1   0  13 1128.27 11.8913   1
  -2   0 -13 5.26155 3.62676   2
   2   0  13 17.5988 3.47638   1
   3   0 -14 715.694 11.7416  -2
   3   0  13 715.694 11.7416   1
   4   0 -14 23.4963 5.43184  -2
   4   0  13 23.4963 5.43184   1
  -5   1  13 8.31386 4.80775   2
   5  -1 -13 -1.3551 4.58399   1
  -5   1  13 1.56480 4.85045   1
   5  -1 -13 4.32699 4.36999   2
  -4  -1 -12 284.408 7.83461  -2
   4  -1 -13 284.408 7.83461   1
   4   1  12 294.064 9.59949  -2
  -4   1  13 294.064 9.59949   1
  -3  -1 -12 115.513 9.18226  -2
   3  -1 -13 115.513 9.18226   1
   3  -1 -13 1.33012 6.63791   1
   3   1  12 99.2641 6.38472  -2
  -3   1  13 99.2641 6.38472   1
   3  -1 -13 -2.8359 5.89748   2
  -2   1  13 537.068 8.74969   2
   2  -1 -13 866.369 14.3894   1
   2  -1 -13 562.950 8.18058   2
  -2   1  13 875.527 11.4085   1
   1  -1 -13 177.273 5.11643   1
  -1   1  13 105.868 4.53220   2
  -1   1  13 172.698 5.03194   1
   1  -1 -13 112.050 3.74411   2
   0  -1 -13 1661.59 17.1630  -2
   0  -1 -13 1661.59 17.1630   1
   0   1  13 1640.52 17.1552  -2
   0   1  13 1640.52 17.1552   1
   1   1  13 54.7677 3.93554   2
  -1  -1 -13 80.6883 3.44707   1
   1   1  13 78.4895 4.45209   1
  -1  -1 -13 54.3751 3.99346   2
   2   1  13 580.474 8.90859   2
  -2  -1 -13 906.384 11.2204   1
   2   1  13 901.313 12.3153   1
  -2  -1 -13 596.178 11.7629   2
   3  -1 -14 69.3404 5.27856  -2
  -3  -1 -13 69.3404 5.27856   1
  -3   1  14 70.4917 5.60544  -2
   3   1  13 70.4917 5.60544   1
  -3  -1 -13 7.48913 7.34257   2
   4  -1 -14 593.352 10.7628  -2
  -4  -1 -13 593.352 10.7628   1
  -4   1  14 616.466 13.4954  -2
   4   1  13 616.466 13.4954   1
  -4  -2 -12 89.9478 5.90493  -2
   4  -2 -13 89.9478 5.90493   1
   4   2  12 89.7511 7.39474  -2
  -4   2  13 89.7511 7.39474   1
  -3  -2 -12 773.786 12.9607  -2
   3  -2 -13 773.786 12.9607   1
   3   2  12 746.723 11.2016  -2
  -3   2  13 746.723 11.2016   1
   3  -2 -13 338.076 15.4046   2
  -2   2  13 8.26137 3.27299   2
   2  -2 -13 20.5467 4.05873   1
   2  -2 -13 12.4964 2.83201   2
  -2   2  13 27.9285 4.01714   1
   1  -2 -13 1161.05 15.4059   1
  -1   2  13 719.061 10.6863   2
  -1  -2 -13 1559.31 43.1532  -2
   1  -2 -13 1559.31 43.1532   1
   1  -2 -13 732.341 9.23415   2
  -1   2  13 1159.71 15.1793   1
   0  -2 -13 102.107 4.49291  -2
   0  -2 -13 102.107 4.49291   1
   0   2  13 97.3636 4.22006  -2
   0   2  13 97.3636 4.22006   1
   1   2  13 497.453 9.10905   2
  -1  -2 -13 764.919 9.55451   1
  -1  -2 -13 489.859 8.14706   2
   1   2  13 778.720 11.4249   1
  -2  -2 -13 0.15313 2.65345   1
   2   2  13 -1.9730 3.53878   2
   2   2  13 6.29515 3.42679   1
  -2  -2 -13 -1.2890 3.69476   2
   3  -2 -14 727.759 10.7660  -2
  -3  -2 -13 727.759 10.7660   1
  -3   2  14 701.635 13.5327  -2
   3   2  13 701.635 13.5327   1
   4  -2 -14 33.5862 5.02909  -2
  -4  -2 -13 33.5862 5.02909   1
  -4   2  14 39.1516 7.37909  -2
   4   2  13 39.1516 7.37909   1
  -4  -3 -12 224.925 7.98868  -2
   4  -3 -13 224.925 7.98868   1
   4   3  12 257.401 10.5125  -2
  -4   3  13 257.401 10.5125   1
  -3  -3 -12 73.2390 6.63506  -2
   3  -3 -13 73.2390 6.63506   1
   3   3  12 81.9547 8.05138  -2
  -3   3  13 81.9547 8.05138   1
  -2   3  13 211.897 6.26183   2
   2  -3 -13 332.643 9.41561   1
   2  -3 -13 227.322 7.13715   2
  -2   3  13 340.763 10.1127   1
  -1   3  13 9.26227 3.36702   2
   1  -3 -13 9.32847 3.32974   1
   1  -3 -13 3.69685 3.25595   2
  -1   3  13 6.00851 3.59746   1
   0  -3 -13 1288.59 14.9692  -2
   0  -3 -13 1288.59 14.9692   1
   0   3  13 1243.39 16.1793  -2
   0   3  13 1243.39 16.1793   1
  -1  -3 -13 3.59420 3.23327   1
   1   3  13 2.78899 3.79148   2
  -1  -3 -13 6.78316 3.37690   2
   1   3  13 3.26278 3.45828   1
  -2  -3 -13 435.151 9.52663   1
   2   3  13 273.815 9.44779   2
   2   3  13 463.137 9.09989   1
  -2  -3 -13 290.270 9.51560   2
   3  -3 -14 65.2794 8.24240  -2
  -3  -3 -13 65.2794 8.24240   1
  -3   3  14 68.9810 7.25198  -2
   3   3  13 68.9810 7.25198   1
   2  -4 -13 10.9360 5.44718   1
  -2   4  13 3.75804 6.50928   2
  -2   4  13 8.76267 4.98303   1
   2  -4 -13 2.90600 4.49029   2
   1  -4 -13 376.043 9.50083   1
  -1   4  13 244.124 11.6749   2
   1  -4 -13 245.327 7.88379   2
  -1   4  13 407.626 11.6489   1
   0  -4 -13 7.40773 4.48108  -2
   0  -4 -13 7.40773 4.48108   1
   0   4  13 8.13572 6.69505  -2
   0   4  13 8.13572 6.69505   1
   1   4  13 171.467 8.52852   2
  -1  -4 -13 277.837 8.31871   1
  -1  -4 -13 187.451 7.42379   2
   1   4  13 289.209 12.9205   1
   2   4  13 6.50215 4.97292   2
  -2  -4 -13 -1.7086 4.61155   1
  -2  -4 -13 -2.2388 5.68787   2
   2   4  13 -1.3509 6.60895   1
  -5   0  14 45.1977 5.32797   1
   5   0 -14 37.4680 5.38630   2
  -4   0 -13 14.6857 6.87926  -2
  -4   0  14 14.6857 6.87926   1
  -3   0 -13 681.269 17.4400  -2
  -3   0  14 681.269 17.4400   1
   2   0 -14 175.067 5.58472   2
  -2   0  14 287.487 8.46358   1
   1   0 -14 619.047 8.77439   2
  -1   0  14 992.612 9.94613   1
   0   0 -14 231.942 5.26290  -2
   0   0  14 231.942 5.26290   1
  -1   0 -14 572.208 7.10289   2
   1   0  14 898.702 11.4789   1
  -2   0 -14 48.2966 4.54970   2
   2   0  14 77.5925 4.56116   1
   3   0 -15 645.803 11.4654  -2
   3   0  14 645.803 11.4654   1
   4   0 -15 192.522 8.42148  -2
   4   0  14 192.522 8.42148   1
  -4  -1 -13 599.940 13.4563  -2
   4  -1 -14 599.940 13.4563   1
   4   1  13 607.190 13.4990  -2
  -4   1  14 607.190 13.4990   1
   3  -1 -14 99.4820 9.33182   1
  -3  -1 -13 101.230 9.56623  -2
   3  -1 -14 101.230 9.56623   1
   3   1  13 111.208 6.73741  -2
  -3   1  14 111.208 6.73741   1
  -2   1  14 430.778 9.44783   2
   2  -1 -14 640.340 12.1722   1
   2  -1 -14 426.316 7.24173   2
  -2   1  14 689.247 10.0735   1
   1  -1 -14 286.131 6.27280   1
  -1   1  14 182.161 5.64384   2
  -1   1  14 283.003 6.95925   1
   1  -1 -14 187.842 5.12352   2
   0  -1 -14 2339.13 22.8560  -2
   0  -1 -14 2339.13 22.8560   1
   0   1  14 2281.87 25.6532  -2
   0   1  14 2281.87 25.6532   1
   1   1  14 253.085 6.45806   2
  -1  -1 -14 399.726 7.08298   1
   1   1  14 405.911 8.34621   1
  -1  -1 -14 268.514 6.29282   2
  -2  -1 -14 577.837 8.71446   1
   2   1  14 347.121 7.06043   2
   2   1  14 556.703 9.80939   1
  -2  -1 -14 365.119 9.41799   2
   3  -1 -15 286.257 7.94391  -2
  -3  -1 -14 286.257 7.94391   1
  -3   1  15 289.454 8.27216  -2
   3   1  14 289.454 8.27216   1
   4  -1 -15 209.833 7.24165  -2
  -4  -1 -14 209.833 7.24165   1
  -4   1  15 190.499 8.66904  -2
   4   1  14 190.499 8.66904   1
  -4  -2 -13 49.1741 5.81416  -2
   4  -2 -14 49.1741 5.81416   1
   4   2  13 51.7498 7.04305  -2
  -4   2  14 51.7498 7.04305   1
  -3  -2 -13 648.456 12.2936  -2
   3  -2 -14 648.456 12.2936   1
   3   2  13 629.404 10.5951  -2
  -3   2  14 629.404 10.5951   1
  -2   2  14 108.649 4.97356   2
   2  -2 -14 162.100 6.24893   1
  -2   2  14 172.630 6.21331   1
   2  -2 -14 102.222 4.03166   2
  -1   2  14 312.885 7.18308   2
   1  -2 -14 481.978 8.43805   1
   1  -2 -14 326.882 6.87374   2
  -1   2  14 511.239 9.42945   1
   0  -2 -14 129.052 4.99103  -2
   0  -2 -14 129.052 4.99103   1
   0   2  14 128.219 4.79323  -2
   0   2  14 128.219 4.79323   1
   1   2  14 362.297 8.02464   2
  -1  -2 -14 611.947 9.26022   1
  -1  -2 -14 426.187 8.80771   2
   1   2  14 583.300 9.95417   1
  -2  -2 -14 110.037 4.18267   1
   2   2  14 63.0486 4.93604   2
  -2  -2 -14 57.3169 6.16380   2
   2   2  14 95.0115 5.03757   1
   3  -2 -15 256.979 7.12614  -2
  -3  -2 -14 256.979 7.12614   1
  -3   2  15 239.341 8.90542  -2
   3   2  14 239.341 8.90542   1
   4  -2 -15 99.5106 6.31427  -2
  -4  -2 -14 99.5106 6.31427   1
  -4   2  15 119.166 8.06283  -2
   4   2  14 119.166 8.06283   1
  -3  -3 -13 112.602 8.62272  -2
   3  -3 -14 112.602 8.62272   1
   3   3  13 111.556 8.92260  -2
  -3   3  14 111.556 8.92260   1
  -2   3  14 276.584 7.21045   2
   2  -3 -14 455.854 11.2751   1
   2  -3 -14 289.798 8.18103   2
  -2   3  14 445.686 11.7332   1
  -1   3  14 72.0959 4.67873   2
   1  -3 -14 119.995 4.86306   1
  -1   3  14 114.545 6.97122   1
   1  -3 -14 78.7546 4.57791   2
   0  -3 -14 724.999 10.7083  -2
   0  -3 -14 724.999 10.7083   1
   0   3  14 709.820 11.5817  -2
   0   3  14 709.820 11.5817   1
   1   3  14 90.8999 6.70639   2
  -1  -3 -14 136.663 5.31066   1
  -1  -3 -14 75.9645 4.49639   2
   1   3  14 141.320 5.78824   1
   2   3  14 90.2288 6.92621   2
  -2  -3 -14 132.698 6.46543   1
  -2  -3 -14 94.5420 7.34006   2
   2   3  14 146.138 6.06044   1
   3  -3 -15 171.038 10.1094  -2
  -3  -3 -14 171.038 10.1094   1
  -3   3  15 159.551 10.6822  -2
   3   3  14 159.551 10.6822   1
  -2   4  14 45.3196 8.31053   2
   2  -4 -14 72.7841 6.92641   1
  -2   4  14 68.5955 6.34223   1
   2  -4 -14 38.5581 6.13852   2
   1  -4 -14 188.453 7.76026   1
  -1   4  14 128.564 14.1752   2
   1  -4 -14 118.806 6.65898   2
  -1   4  14 188.906 9.05844   1
   0  -4 -14 104.084 6.44600  -2
   0  -4 -14 104.084 6.44600   1
   0   4  14 119.347 9.47767  -2
   0   4  14 119.347 9.47767   1
  -1  -4 -14 345.498 9.49507   1
   1   4  14 232.528 9.68010   2
   1   4  14 394.866 20.5046   1
  -1  -4 -14 223.828 9.49515   2
  -4   0 -14 237.033 9.35241  -2
  -4   0  15 237.033 9.35241   1
  -3   0 -14 666.198 14.5949  -2
  -3   0  15 666.198 14.5949   1
   2   0 -15 323.553 7.40829   2
  -2   0  15 515.522 9.78333   1
  -1   0  15 204.728 5.59466   1
   1   0 -15 132.603 5.07862   2
   0   0 -15 1708.80 17.7048  -2
   0   0  15 1708.80 17.7048   1
   1   0  15 263.987 8.04960   1
  -1   0 -15 182.507 5.54995   2
  -2   0 -15 627.151 11.0174   2
   2   0  15 994.785 14.0437   1
   3   0 -16 124.422 6.55309  -2
   3   0  15 124.422 6.55309   1
   4   0 -16 424.149 9.97419  -2
   4   0  15 424.149 9.97419   1
  -4  -1 -14 160.603 8.60869  -2
   4  -1 -15 160.603 8.60869   1
   4   1  14 148.480 8.43258  -2
  -4   1  15 148.480 8.43258   1
  -3  -1 -14 335.765 10.5356  -2
   3  -1 -15 335.765 10.5356   1
   3   1  14 343.808 9.36491  -2
  -3   1  15 343.808 9.36491   1
  -2   1  15 65.7108 4.44589   2
   2  -1 -15 126.855 6.35085   1
  -2   1  15 118.467 5.04292   1
   2  -1 -15 79.1279 4.11360   2
   1  -1 -15 860.879 11.3380   1
  -1   1  15 538.829 10.9284   2
  -1   1  15 852.719 12.6343   1
   1  -1 -15 563.855 8.71353   2
   0  -1 -15 234.737 6.51053  -2
   0  -1 -15 234.737 6.51053   1
   0   1  15 272.377 7.05983  -2
   0   1  15 272.377 7.05983   1
  -1  -1 -15 595.711 8.99441   1
   1   1  15 377.411 7.96077   2
   1   1  15 600.063 11.8929   1
  -1  -1 -15 401.696 7.70931   2
  -2  -1 -15 130.823 5.38791   1
   2   1  15 72.3935 4.81668   2
   2   1  15 122.004 5.49896   1
  -2  -1 -15 94.2543 6.08967   2
   3  -1 -16 552.707 10.8091  -2
  -3  -1 -15 552.707 10.8091   1
  -3   1  16 509.526 10.7678  -2
   3   1  15 509.526 10.7678   1
   4  -1 -16 29.6535 5.31096  -2
  -4  -1 -15 29.6535 5.31096   1
  -4   1  16 24.9999 6.50489  -2
   4   1  15 24.9999 6.50489   1
  -4  -2 -14 124.767 7.13332  -2
   4  -2 -15 124.767 7.13332   1
   4   2  14 128.443 10.6214  -2
  -4   2  15 128.443 10.6214   1
  -3  -2 -14 212.211 8.38642  -2
   3  -2 -15 212.211 8.38642   1
   3   2  14 206.709 7.32229  -2
  -3   2  15 206.709 7.32229   1
  -2   2  15 284.204 7.25775   2
   2  -2 -15 413.340 10.6353   1
   2  -2 -15 290.237 5.95489   2
  -2   2  15 462.939 9.64481   1
   1  -2 -15 213.270 6.81637   1
  -1   2  15 117.136 5.29669   2
  -1   2  15 204.345 6.61631   1
   1  -2 -15 127.774 5.08097   2
   0  -2 -15 1174.71 14.3035  -2
   0  -2 -15 1174.71 14.3035   1
   0   2  15 1123.73 15.8335  -2
   0   2  15 1123.73 15.8335   1
  -1  -2 -15 249.921 6.31956   1
   1   2  15 169.419 6.20296   2
  -1  -2 -15 168.266 5.92385   2
   1   2  15 250.793 6.98794   1
  -2  -2 -15 391.030 7.38486   1
   2   2  15 236.023 7.27889   2
   2   2  15 379.802 8.50123   1
  -2  -2 -15 234.059 8.89912   2
   3  -2 -16 44.2176 5.76948  -2
  -3  -2 -15 44.2176 5.76948   1
  -3   2  16 38.4710 6.63434  -2
   3   2  15 38.4710 6.63434   1
  -3  -3 -14 159.915 9.69496  -2
   3  -3 -15 159.915 9.69496   1
   3   3  14 179.074 10.3205  -2
  -3   3  15 179.074 10.3205   1
   2  -3 -15 76.6109 6.76164   1
  -2   3  15 52.8523 4.77216   2
   2  -3 -15 51.4088 6.13424   2
  -2   3  15 94.7355 7.18538   1
  -1   3  15 251.711 7.09454   2
   1  -3 -15 393.622 7.70144   1
   1  -3 -15 249.756 6.75482   2
  -1   3  15 387.866 11.0740   1
   0  -3 -15 98.9547 5.17339  -2
   0  -3 -15 98.9547 5.17339   1
   0   3  15 104.176 7.62894  -2
   0   3  15 104.176 7.62894   1
   1   3  15 156.752 7.93512   2
  -1  -3 -15 236.256 6.58567   1
   1   3  15 246.605 7.32334   1
  -1  -3 -15 159.033 6.02403   2
   2   3  15 108.089 7.60684   2
  -2  -3 -15 187.864 8.22027   1
   2   3  15 172.975 6.70706   1
  -2  -3 -15 110.786 7.82430   2
   1  -4 -15 81.7763 9.04208   1
  -1   4  15 56.8283 12.6650   2
   1  -4 -15 47.2908 5.95667   2
  -1   4  15 107.153 8.15088   1
   0  -4 -15 497.544 11.4660  -2
   0  -4 -15 497.544 11.4660   1
   0   4  15 442.177 22.3577  -2
   0   4  15 442.177 22.3577   1
  -4   0 -15 496.169 13.0938  -2
  -4   0  16 496.169 13.0938   1
  -3   0 -15 99.3772 8.17119  -2
  -3   0  16 99.3772 8.17119   1
  -2   0  16 716.768 11.8980   1
   2   0 -16 463.655 9.12299   2
  -1   0  16 33.0239 6.35598   1
   1   0 -16 25.6887 4.67126   2
   0   0 -16 1553.85 16.6510  -2
   0   0  16 1553.85 16.6510   1
  -1   0 -16 24.8637 5.96852   2
   1   0  16 38.2049 4.92992   1
   2   0  16 442.852 10.2417   1
  -2   0 -16 289.399 7.89856   2
   3   0 -17 148.427 7.13275  -2
   3   0  16 148.427 7.13275   1
  -4  -1 -15 18.1587 6.76107  -2
   4  -1 -16 18.1587 6.76107   1
   4   1  15 8.13543 6.41444  -2
  -4   1  16 8.13543 6.41444   1
  -3  -1 -15 656.266 18.9441  -2
   3  -1 -16 656.266 18.9441   1
   3   1  15 598.115 12.0156  -2
  -3   1  16 598.115 12.0156   1
  -2   1  16 7.03749 3.63950   2
   2  -1 -16 13.2992 4.36201   1
  -2   1  16 13.9352 4.14585   1
   2  -1 -16 4.65921 4.22097   2
   1  -1 -16 698.508 11.4241   1
  -1   1  16 440.244 10.1824   2
   1  -1 -16 471.262 8.18709   2
  -1   1  16 723.956 13.9448   1
   0  -1 -16 12.2010 3.79589  -2
   0  -1 -16 12.2010 3.79589   1
   0   1  16 13.8941 3.87614  -2
   0   1  16 13.8941 3.87614   1
  -1  -1 -16 819.700 11.1401   1
   1   1  16 518.105 11.3053   2
  -1  -1 -16 530.139 11.1479   2
   1   1  16 822.909 14.6515   1
  -2  -1 -16 18.6972 4.46038   1
   2   1  16 9.29390 4.02638   2
   2   1  16 13.6671 3.99605   1
  -2  -1 -16 5.48226 4.36718   2
   3  -1 -17 555.161 11.2150  -2
  -3  -1 -16 555.161 11.2150   1
  -3   1  17 558.741 11.5356  -2
   3   1  16 558.741 11.5356   1
  -3  -2 -15 15.4278 7.60110  -2
   3  -2 -16 15.4278 7.60110   1
   3   2  15 30.8354 6.40108  -2
  -3   2  16 30.8354 6.40108   1
  -2   2  16 202.246 7.66540   2
   2  -2 -16 281.190 9.29097   1
  -2   2  16 324.768 8.54473   1
   2  -2 -16 211.486 5.95357   2
  -1   2  16 6.53051 3.76460   2
   1  -2 -16 13.4815 4.49309   1
  -1   2  16 13.3369 4.17933   1
   1  -2 -16 9.49410 3.66981   2
   0  -2 -16 1064.81 13.7248  -2
   0  -2 -16 1064.81 13.7248   1
   0   2  16 1044.40 17.4984  -2
   0   2  16 1044.40 17.4984   1
  -1  -2 -16 46.4774 4.20046   1
   1   2  16 27.1433 4.48482   2
  -1  -2 -16 33.3325 4.87949   2
   1   2  16 47.4431 4.68454   1
   2   2  16 256.431 7.74407   2
  -2  -2 -16 433.220 7.97050   1
   2   2  16 425.116 10.5457   1
  -2  -2 -16 271.068 8.27555   2
   3  -2 -17 32.4838 6.54533  -2
  -3  -2 -16 32.4838 6.54533   1
  -3   2  17 47.0462 6.45297  -2
   3   2  16 47.0462 6.45297   1
   2  -3 -16 10.0620 5.80407   1
  -2   3  16 3.75709 4.13362   2
   2  -3 -16 4.03732 5.44929   2
  -2   3  16 5.24732 5.75158   1
   1  -3 -16 352.668 8.93763   1
  -1   3  16 215.047 7.07939   2
   1  -3 -16 241.183 7.06073   2
  -1   3  16 353.063 11.0432   1
   0  -3 -16 1.95271 4.06657  -2
   0  -3 -16 1.95271 4.06657   1
   0   3  16 8.06926 5.77998  -2
   0   3  16 8.06926 5.77998   1
   1   3  16 379.421 11.3653   2
  -1  -3 -16 588.634 10.1631   1
  -1  -3 -16 394.663 10.4883   2
   1   3  16 573.878 10.9814   1
  -2  -3 -16 0.64179 5.24378   1
   2   3  16 8.72728 5.98515   2
  -2  -3 -16 -1.4895 5.31542   2
   2   3  16 1.57447 4.47752   1
  -3   0 -16 200.582 8.58339  -2
  -3   0  17 200.582 8.58339   1
  -2   0  17 348.199 8.62236   1
   2   0 -17 212.816 7.79245   2
   1   0 -17 160.840 8.83627   2
  -1   0  17 240.133 10.5133   1
   0   0 -17 564.399 9.94691  -2
   0   0  17 564.399 9.94691   1
  -1   0 -17 149.817 8.89453   2
   1   0  17 263.900 10.1301   1
  -2   0 -17 165.829 8.05671   2
   2   0  17 247.405 8.28493   1
   3   0 -18 291.304 10.2259  -2
   3   0  17 291.304 10.2259   1
  -3  -1 -16 538.631 17.8847  -2
   3  -1 -17 538.631 17.8847   1
   3   1  16 500.771 11.5047  -2
  -3   1  17 500.771 11.5047   1
  -2   1  17 148.291 6.98556   2
   2  -1 -17 264.458 9.59993   1
  -2   1  17 240.753 7.57845   1
   2  -1 -17 151.853 6.96856   2
   1  -1 -17 370.277 9.61042   1
  -1   1  17 225.784 7.93704   2
  -1   1  17 363.770 10.2285   1
   1  -1 -17 227.640 7.09913   2
   0  -1 -17 610.740 10.6778  -2
   0  -1 -17 610.740 10.6778   1
   0   1  17 598.011 10.9626  -2
   0   1  17 598.011 10.9626   1
  -1  -1 -17 315.618 8.58548   1
   1   1  17 206.071 8.01172   2
  -1  -1 -17 217.071 8.04256   2
   1   1  17 337.918 11.6703   1
   2   1  17 144.013 6.45178   2
  -2  -1 -17 233.864 7.97605   1
   2   1  17 230.675 8.27705   1
  -2  -1 -17 152.340 8.32217   2
   3  -1 -18 150.177 8.35855  -2
  -3  -1 -17 150.177 8.35855   1
  -3   1  18 135.156 7.52377  -2
   3   1  17 135.156 7.52377   1
  -3  -2 -16 48.8852 8.51456  -2
   3  -2 -17 48.8852 8.51456   1
   3   2  16 73.1985 7.30284  -2
  -3   2  17 73.1985 7.30284   1
   2  -2 -17 362.532 9.26594   1
  -2   2  17 237.524 8.48071   2
   2  -2 -17 229.960 7.09327   2
  -2   2  17 372.941 9.27096   1
   1  -2 -17 171.507 7.91819   1
  -1   2  17 93.7733 5.42569   2
  -1   2  17 167.097 8.06450   1
   1  -2 -17 112.587 5.37921   2
   0  -2 -17 441.782 8.65202  -2
   0  -2 -17 441.782 8.65202   1
   0   2  17 442.428 11.2369  -2
   0   2  17 442.428 11.2369   1
  -1  -2 -17 189.619 6.22662   1
   1   2  17 124.684 7.14749   2
  -1  -2 -17 131.171 7.43621   2
   1   2  17 189.099 6.86241   1
  -2  -2 -17 269.150 8.59437   1
   2   2  17 160.354 6.92060   2
   2   2  17 272.964 9.15530   1
  -2  -2 -17 176.431 7.47228   2
  -1   3  17 142.998 7.24635   2
   1  -3 -17 194.919 8.80173   1
   1  -3 -17 133.238 6.19880   2
  -1   3  17 223.399 12.8840   1
   0  -3 -17 155.091 6.47158  -2
   0  -3 -17 155.091 6.47158   1
   0   3  17 157.672 7.43622  -2
   0   3  17 157.672 7.43622   1
   1   3  17 100.538 9.56541   2
  -1  -3 -17 169.618 6.97168   1
   1   3  17 199.821 8.13597   1
  -1  -3 -17 99.6106 7.66944   2
  -3   0 -17 357.717 10.6581  -2
  -3   0  18 357.717 10.6581   1
   2   0 -18 12.8490 4.92759   2
  -2   0  18 32.2491 7.49002   1
   1   0 -18 286.908 11.4305   2
  -1   0  18 456.589 14.1300   1
   0   0 -18 60.2355 5.91312  -2
   0   0  18 60.2355 5.91312   1
  -1   0 -18 422.426 13.5898   2
   1   0  18 602.977 15.4940   1
  -2   0 -18 14.3699 6.93111   2
   2   0  18 16.6175 5.09368   1
  -3  -1 -17 94.5732 9.95075  -2
   3  -1 -18 94.5732 9.95075   1
   3   1  17 99.2032 7.77053  -2
  -3   1  18 99.2032 7.77053   1
  -2   1  18 266.692 8.93556   2
   2  -1 -18 419.357 11.9091   1
  -2   1  18 458.729 12.0883   1
   2  -1 -18 259.304 8.64910   2
  -1   1  18 52.8410 7.19982   2
   1  -1 -18 60.0182 5.83411   1
   1  -1 -18 44.3251 5.53248   2
  -1   1  18 70.0799 6.50449   1
   0  -1 -18 730.159 12.1055  -2
   0  -1 -18 730.159 12.1055   1
   0   1  18 740.434 14.4331  -2
   0   1  18 740.434 14.4331   1
  -1  -1 -18 12.5250 5.72828   1
   1   1  18 12.4962 5.08024   2
   1   1  18 17.9202 6.15266   1
  -1  -1 -18 10.0913 5.01951   2
  -2  -1 -18 282.136 8.98646   1
   2   1  18 174.766 10.4329   2
   2   1  18 287.341 9.33833   1
  -2  -1 -18 181.491 8.99866   2
  -2   2  18 24.1933 5.49055   2
   2  -2 -18 34.7025 5.60399   1
   2  -2 -18 19.0065 5.31024   2
  -2   2  18 40.4837 5.46706   1
  -1   2  18 294.908 8.06657   2
   1  -2 -18 483.675 11.8301   1
   1  -2 -18 329.869 8.55946   2
  -1   2  18 508.341 12.6743   1
   0  -2 -18 116.416 6.36765  -2
   0  -2 -18 116.416 6.36765   1
   0   2  18 106.832 8.52533  -2
   0   2  18 106.832 8.52533   1
  -1  -2 -18 351.995 8.77444   1
   1   2  18 251.626 9.23559   2
  -1  -2 -18 241.986 9.27207   2
   1   2  18 387.199 9.26743   1
   2   0 -19 20.3001 5.39179   2
  -2   0  19 31.7584 7.83528   1
   1   0 -19 337.958 12.7590   2
  -1   0  19 553.862 15.9560   1
   0   0 -19 16.3839 6.69133  -2
   0   0  19 16.3839 6.69133   1
   1   0  19 329.302 12.3089   1
  -1   0 -19 227.838 11.3229   2
  -2   1  19 237.389 8.90236   2
   2  -1 -19 379.099 11.8312   1
  -2   1  19 367.715 13.8027   1
   2  -1 -19 249.676 8.93978   2
  -1   1  19 40.1668 7.24795   2
   1  -1 -19 52.9277 8.22732   1
   1  -1 -19 24.9702 6.95873   2
  -1   1  19 67.7529 6.79775   1
   0  -1 -19 624.383 11.4407  -2
   0  -1 -19 624.383 11.4407   1
   0   1  19 639.301 13.6770  -2
   0   1  19 639.301 13.6770   1
   1   1  19 12.9220 5.42066   2
  -1  -1 -19 17.5674 6.38404   1
   1   1  19 23.9069 6.63107   1
  -1  -1 -19 26.2670 7.69542   2
   0   0   0    0.00    0.00   0
;
_shelx_hkl_checksum              79092
_shelx_res_file
;
    m0168c.res created by SHELXL-2014/7
TITL m0168c
CELL 0.71073 4.89287 4.41952 14.13482 90.0 92.721 90.0
ZERR 2       0.00025 0.00022  0.00071  0.0  0.003  0.0
LATT -1
SYMM -x, y+0.5, -z
SFAC C H I N O
UNIT 8 6 2 4 4
MERG 0
L.S. 15
FMAP 2
PLAN -20
TEMP -123
ACTA
CONF
BOND $H
EQIV $1 x-1, y-1, z
EQIV $2 2-x, y+0.5, 1-z
HTAB N1 O4_$1
HTAB N3 O2_$2
WGHT    0.025400    0.070600
BASF   0.38905
FVAR       1.08026
I1    3    0.747593    0.754988    0.905221    11.00000    0.04520    0.02549 =
         0.01438   -0.00048    0.00102   -0.00170
O2    5    0.706814    0.224034    0.505344    11.00000    0.01463    0.02479 =
         0.02363   -0.00914    0.00415   -0.00102
O4    5    1.083686    0.899625    0.715789    11.00000    0.01606    0.01864 =
         0.02558   -0.00055    0.00012   -0.00602
N1    4    0.526030    0.259655    0.650753    11.00000    0.00980    0.01405 =
         0.02105    0.00250    0.00087   -0.00636
AFIX  43
H1N   2    0.397153    0.127876    0.634758    11.00000   -1.20000
AFIX   0
N3    4    0.886308    0.561915    0.612853    11.00000    0.00876    0.01674 =
         0.01734    0.00093    0.00243   -0.00397
AFIX  43
H3N   2    0.998917    0.625227    0.570340    11.00000   -1.20000
AFIX   0
C2    1    0.705597    0.339389    0.584441    11.00000    0.00915    0.01488 =
         0.02135   -0.00142    0.00174    0.00197
C4    1    0.911452    0.698145    0.700931    11.00000    0.01098    0.00756 =
         0.01822    0.00136   -0.00012   -0.00079
C5    1    0.722071    0.586003    0.768514    11.00000    0.01637    0.01528 =
         0.01523    0.00191    0.00147    0.00138
C6    1    0.534874    0.372878    0.740710    11.00000    0.01375    0.01700 =
         0.01792    0.00439    0.00310    0.00186
AFIX  43
H6    2    0.408293    0.301617    0.784511    11.00000   -1.20000
AFIX   0
HKLF 5
REM  m0168c
REM R1 =  0.0189 for    2932 Fo > 4sig(Fo)  and  0.0211 for all    3122 data
REM     83 parameters refined using      1 restraints
END
WGHT      0.0254      0.0768
REM Highest difference peak  0.928,  deepest hole -0.541,  1-sigma level  0.080
Q1    1   0.7586  0.7590  0.9637  11.00000  0.05    0.93
Q2    1   0.7376  0.7476  0.8399  11.00000  0.05    0.92
Q3    1   0.7844  0.9139  0.9216  11.00000  0.05    0.33
Q4    1   0.7755  0.5911  0.9256  11.00000  0.05    0.29
Q5    1   0.6015  1.0070  0.7541  11.00000  0.05    0.28
Q6    1   0.8388  0.5911  0.7388  11.00000  0.05    0.27
Q7    1   0.6147  0.5147  0.7543  11.00000  0.05    0.26
Q8    1   0.7242  0.7079  0.7335  11.00000  0.05    0.25
Q9    1   0.7395  0.7652  1.0203  11.00000  0.05    0.25
Q10   1   0.7286  0.5474  0.9023  11.00000  0.05    0.25
Q11   1   0.5622  0.2463  0.6971  11.00000  0.05    0.24
Q12   1   0.3217  0.4971  0.9596  11.00000  0.05    0.23
Q13   1   1.1254  1.2473  0.7059  11.00000  0.05    0.21
Q14   1   1.0169  0.7492  0.7149  11.00000  0.05    0.21
Q15   1   0.3157  0.2584  0.5386  11.00000  0.05    0.21
Q16   1   0.8101  0.9121  0.7409  11.00000  0.05    0.21
Q17   1   0.6619  0.6837  0.7906  11.00000  0.05    0.20
Q18   1   0.6837  0.2594  0.4627  11.00000  0.05    0.19
Q19   1   0.7150  0.3584  0.5121  11.00000  0.05    0.19
Q20   1   0.6599  0.8118  0.7862  11.00000  0.05    0.19
;
_shelx_res_checksum              31920
loop_
_space_group_symop_operation_xyz
'x, y, z'
'-x, y+1/2, -z'
loop_
_atom_site_type_symbol
_atom_site_label
_atom_site_fract_x
_atom_site_fract_y
_atom_site_fract_z
_atom_site_U_iso_or_equiv
_atom_site_adp_type
_atom_site_calc_flag
_atom_site_occupancy
I I1 0.74759(6) 0.75499(2) 0.90522(2) 0.02837(9) Uani d 1
O O2 0.7068(5) 0.2240(12) 0.5053(2) 0.0209(7) Uani d 1
O O4 1.0837(7) 0.8996(7) 0.7158(2) 0.0201(6) Uani d 1
N N1 0.5260(5) 0.2597(17) 0.65075(19) 0.0150(5) Uani d 1
H H1N 0.3972 0.1279 0.6348 0.018 Uiso calc 1
N N3 0.8863(6) 0.5619(8) 0.6129(3) 0.0142(6) Uani d 1
H H3N 0.9989 0.6252 0.5703 0.017 Uiso calc 1
C C2 0.7056(8) 0.3394(9) 0.5844(3) 0.0151(7) Uani d 1
C C4 0.9115(7) 0.6981(7) 0.7009(3) 0.0123(8) Uani d 1
C C5 0.7221(9) 0.5860(9) 0.7685(3) 0.0156(7) Uani d 1
C C6 0.5349(8) 0.3729(9) 0.7407(3) 0.0161(7) Uani d 1
H H6 0.4083 0.3016 0.7845 0.019 Uiso calc 1
loop_
_atom_site_aniso_label
_atom_site_aniso_U_11
_atom_site_aniso_U_22
_atom_site_aniso_U_33
_atom_site_aniso_U_12
_atom_site_aniso_U_13
_atom_site_aniso_U_23
I1 0.04520(15) 0.02549(12) 0.01438(11) -0.0017(3) 0.00102(10) -0.0005(2)
O2 0.0146(10) 0.025(2) 0.0236(12) -0.0010(17) 0.0041(10) -0.0091(17)
O4 0.0161(15) 0.0186(14) 0.0256(16) -0.0060(12) 0.0001(13) -0.0006(11)
N1 0.0098(10) 0.0140(11) 0.0210(12) -0.006(3) 0.0009(9) 0.002(3)
N3 0.0088(15) 0.0167(15) 0.0173(16) -0.0040(12) 0.0024(12) 0.0009(12)
C2 0.0092(15) 0.0149(16) 0.0213(18) 0.0020(13) 0.0017(16) -0.0014(11)
C4 0.0110(14) 0.008(2) 0.0182(16) -0.0008(11) -0.0001(12) 0.0014(12)
C5 0.0164(17) 0.0153(17) 0.0152(17) 0.0014(16) 0.0015(16) 0.0019(13)
C6 0.0137(17) 0.0170(15) 0.0179(18) 0.0019(14) 0.0031(15) 0.0044(14)
loop_
_atom_type_symbol
_atom_type_description
_atom_type_scat_dispersion_real
_atom_type_scat_dispersion_imag
_atom_type_scat_source
C C 0.0033 0.0016 'International Tables Vol C Tables 4.2.6.8 and 6.1.1.4'
H H 0.0000 0.0000 'International Tables Vol C Tables 4.2.6.8 and 6.1.1.4'
I I -0.4742 1.8119 'International Tables Vol C Tables 4.2.6.8 and 6.1.1.4'
N N 0.0061 0.0033 'International Tables Vol C Tables 4.2.6.8 and 6.1.1.4'
O O 0.0106 0.0060 'International Tables Vol C Tables 4.2.6.8 and 6.1.1.4'
loop_
_diffrn_orient_matrix_type
_diffrn_orient_matrix_UB_11
_diffrn_orient_matrix_UB_12
_diffrn_orient_matrix_UB_13
_diffrn_orient_matrix_UB_21
_diffrn_orient_matrix_UB_22
_diffrn_orient_matrix_UB_23
_diffrn_orient_matrix_UB_31
_diffrn_orient_matrix_UB_32
_diffrn_orient_matrix_UB_33
'Nonius RMAT' -0.0479374 -0.2199835 -0.0001981 -0.0162542 0.0024031 -0.0708470
0.1983005 -0.0529821 -0.0023910
'Nonius RMAT' -0.0478445 0.2199938 0.0001980 0.0030998 -0.0024054 0.0708468
0.1989637 0.0529391 0.0023964
loop_
_geom_angle_atom_site_label_1
_geom_angle_atom_site_label_2
_geom_angle_atom_site_label_3
_geom_angle
C2 N1 C6 123.6(4)
C2 N1 H1N 118.2
C6 N1 H1N 118.2
C2 N3 C4 127.2(3)
C2 N3 H3N 116.4
C4 N3 H3N 116.4
O2 C2 N1 123.4(4)
O2 C2 N3 122.2(4)
N1 C2 N3 114.4(4)
O4 C4 N3 119.8(3)
O4 C4 C5 125.9(4)
N3 C4 C5 114.3(3)
C6 C5 C4 119.3(4)
C6 C5 I1 122.0(3)
C4 C5 I1 118.7(3)
C5 C6 N1 121.0(4)
C5 C6 H6 119.5
N1 C6 H6 119.5
loop_
_geom_bond_atom_site_label_1
_geom_bond_atom_site_label_2
_geom_bond_distance
_geom_bond_publ_flag
I1 C5 2.070(4) y
O2 C2 1.229(5) y
O4 C4 1.237(4) y
N1 C2 1.361(5) y
N1 C6 1.365(6) y
N1 H1N 0.8800 ?
N3 C2 1.370(5) y
N3 C4 1.383(5) y
N3 H3N 0.8800 ?
C4 C5 1.449(5) y
C5 C6 1.359(6) y
C6 H6 0.9500 ?
loop_
_geom_hbond_atom_site_label_D
_geom_hbond_atom_site_label_H
_geom_hbond_atom_site_label_A
_geom_hbond_site_symmetry_A
_geom_hbond_distance_DH
_geom_hbond_distance_HA
_geom_hbond_distance_DA
_geom_hbond_angle_DHA
N1 H1N O4 1_445 0.88 2.20 2.872(5) 133
N3 H3N O2 2_756 0.88 1.89 2.754(4) 169
loop_
_geom_torsion_atom_site_label_1
_geom_torsion_atom_site_label_2
_geom_torsion_atom_site_label_3
_geom_torsion_atom_site_label_4
_geom_torsion
_geom_torsion_publ_flag
C6 N1 C2 O2 175.6(5) ?
C6 N1 C2 N3 -4.7(7) y
C4 N3 C2 O2 -177.0(4) ?
C4 N3 C2 N1 3.3(6) y
C2 N3 C4 O4 -179.2(4) ?
C2 N3 C4 C5 0.1(5) y
O4 C4 C5 C6 176.9(4) ?
N3 C4 C5 C6 -2.4(5) y
O4 C4 C5 I1 -3.5(5) ?
N3 C4 C5 I1 177.2(2) ?
C4 C5 C6 N1 1.1(6) y
I1 C5 C6 N1 -178.5(4) ?
C2 N1 C6 C5 2.7(8) y

_cod_database_fobs_code 2020129
