#------------------------------------------------------------------------------
#$Date: 2018-01-19 07:29:42 +0200 (Fri, 19 Jan 2018) $
#$Revision: 205401 $
#$URL: file:///home/coder/svn-repositories/cod/cif/2/02/09/2020947.cif $
#------------------------------------------------------------------------------
#
# This file is available in the Crystallography Open Database (COD),
# http://www.crystallography.net/. The original data for this entry
# were provided by IUCr Journals, http://journals.iucr.org/.
#
# The file may be used within the scientific community so long as
# proper attribution is given to the journal article from which the
# data were obtained.
#
data_2020947
loop_
_publ_author_name
'Losev, Evgeniy'
'Boldyreva, Elena'
_publ_section_title
;
 The effect of amino acid backbone length on molecular packing:
 crystalline tartrates of glycine, \b-alanine, \g-aminobutyric acid (GABA)
 and <small>DL</small>-\a-aminobutyric acid (AABA)
;
_journal_issue                   2
_journal_name_full               'Acta Crystallographica Section C'
_journal_page_first
;
;
_journal_paper_doi               10.1107/S2053229617017909
_journal_volume                  74
_journal_year                    2018
_chemical_formula_moiety         'C4 H5.5 O6, C4 H9.5 N O2'
_chemical_formula_sum            'C8 H15 N O8'
_chemical_formula_weight         253.21
_chemical_name_common
'DL-2-aminobutyric acid-DL-tartaric acid (1:1)'
_chemical_name_systematic
'DL-2-aminobutyric acid-DL-tartaric acid (1:1)'
_space_group_crystal_system      triclinic
_space_group_IT_number           2
_space_group_name_Hall           '-P 1'
_space_group_name_H-M_alt        'P -1'
_symmetry_space_group_name_Hall  '-P 1'
_symmetry_space_group_name_H-M   'P -1'
_atom_sites_solution_hydrogens   geom
_audit_creation_date             2017-11-17
_audit_creation_method
;
Olex2 1.2
(compiled 2017.08.10 svn.r3458 for OlexSys, GUI svn.r5381)
;
_cell_angle_alpha                103.464(6)
_cell_angle_beta                 94.310(5)
_cell_angle_gamma                99.766(5)
_cell_formula_units_Z            2
_cell_length_a                   4.9336(2)
_cell_length_b                   10.0324(7)
_cell_length_c                   11.3232(7)
_cell_measurement_reflns_used    3350
_cell_measurement_temperature    293
_cell_measurement_theta_max      28.0020
_cell_measurement_theta_min      1.8560
_cell_volume                     533.29(6)
_computing_cell_refinement
;
CrysAlisPro, Agilent Technologies,
Version 1.171.37.35 (release 13-08-2014 CrysAlis171 .NET)
(compiled Aug 13 2014,18:06:01)
;
_computing_data_collection
;
CrysAlisPro, Agilent Technologies,
Version 1.171.37.35 (release 13-08-2014 CrysAlis171 .NET)
(compiled Aug 13 2014,18:06:01)
;
_computing_data_reduction
;
CrysAlisPro, Agilent Technologies,
Version 1.171.37.35 (release 13-08-2014 CrysAlis171 .NET)
(compiled Aug 13 2014,18:06:01)
;
_computing_molecular_graphics    'Olex2 (Dolomanov et al., 2009)'
_computing_publication_material  'Olex2 (Dolomanov et al., 2009)'
_computing_structure_refinement  'ShelXL (Sheldrick, 2015)'
_computing_structure_solution    'SHELXT 2014/5 (Sheldrick, 2014)'
_diffrn_ambient_temperature      293
_diffrn_detector                 'CCD plate'
_diffrn_detector_area_resol_mean 10.3457
_diffrn_detector_type            Ruby
_diffrn_measured_fraction_theta_full 1.000
_diffrn_measured_fraction_theta_max 1.000
_diffrn_measurement_details
;
#__ type_ start__ end____ width___ exp.time_
  1 omega  -74.00  -32.00   1.0000   85.0000
omega____ theta____ kappa____ phi______ frames
    -       23.0467  178.0000  120.0000 42

#__ type_ start__ end____ width___ exp.time_
  2 omega   62.00   96.00   1.0000   85.0000
omega____ theta____ kappa____ phi______ frames
    -       23.0467  178.0000 -120.0000 34

#__ type_ start__ end____ width___ exp.time_
  3 omega   37.00  106.00   1.0000   85.0000
omega____ theta____ kappa____ phi______ frames
    -       23.0467  -19.0000 -150.0000 69

#__ type_ start__ end____ width___ exp.time_
  4 omega  -68.00  -33.00   1.0000   85.0000
omega____ theta____ kappa____ phi______ frames
    -       23.0467  -19.0000 -150.0000 35

#__ type_ start__ end____ width___ exp.time_
  5 omega   60.00  128.00   1.0000   85.0000
omega____ theta____ kappa____ phi______ frames
    -       23.0467  178.0000  150.0000 68

#__ type_ start__ end____ width___ exp.time_
  6 omega  -77.00   25.00   1.0000   85.0000
omega____ theta____ kappa____ phi______ frames
    -      -23.5155  -57.0000   90.0000 102

#__ type_ start__ end____ width___ exp.time_
  7 omega -118.00  -80.00   1.0000   85.0000
omega____ theta____ kappa____ phi______ frames
    -      -23.5155  -99.0000  -60.0000 38

#__ type_ start__ end____ width___ exp.time_
  8 omega -131.00   12.00   1.0000   85.0000
omega____ theta____ kappa____ phi______ frames
    -      -23.5155  -77.0000    0.0000 143

#__ type_ start__ end____ width___ exp.time_
  9 omega -119.00    9.00   1.0000   85.0000
omega____ theta____ kappa____ phi______ frames
    -      -23.5155  -37.0000 -150.0000 128

#__ type_ start__ end____ width___ exp.time_
 10 omega  -68.00   46.00   1.0000   85.0000
omega____ theta____ kappa____ phi______ frames
    -      -23.5155   57.0000  -90.0000 114
;
_diffrn_measurement_device       'four-circle diffractometer'
_diffrn_measurement_device_type  'Xcalibur, Ruby, Gemini ultra'
_diffrn_measurement_method       '\w scans'
_diffrn_orient_matrix_UB_11      0.0341709000
_diffrn_orient_matrix_UB_12      0.0264916000
_diffrn_orient_matrix_UB_13      -0.0509771000
_diffrn_orient_matrix_UB_21      -0.0047826000
_diffrn_orient_matrix_UB_22      0.0683672000
_diffrn_orient_matrix_UB_23      0.0339990000
_diffrn_orient_matrix_UB_31      0.1428288000
_diffrn_orient_matrix_UB_32      0.0106591000
_diffrn_orient_matrix_UB_33      0.0213184000
_diffrn_radiation_monochromator  graphite
_diffrn_radiation_probe          x-ray
_diffrn_radiation_type           MoK\a
_diffrn_radiation_wavelength     0.71073
_diffrn_reflns_av_R_equivalents  0.0233
_diffrn_reflns_av_unetI/netI     0.0251
_diffrn_reflns_Laue_measured_fraction_full 1.000
_diffrn_reflns_Laue_measured_fraction_max 1.000
_diffrn_reflns_limit_h_max       6
_diffrn_reflns_limit_h_min       -6
_diffrn_reflns_limit_k_max       12
_diffrn_reflns_limit_k_min       -12
_diffrn_reflns_limit_l_max       14
_diffrn_reflns_limit_l_min       -14
_diffrn_reflns_number            6684
_diffrn_reflns_point_group_measured_fraction_full 1.000
_diffrn_reflns_point_group_measured_fraction_max 1.000
_diffrn_reflns_theta_full        25.242
_diffrn_reflns_theta_max         26.356
_diffrn_reflns_theta_min         1.863
_diffrn_source                   'Enhance (Mo) X-ray Source'
_exptl_absorpt_coefficient_mu    0.143
_exptl_absorpt_correction_T_max  1.00000
_exptl_absorpt_correction_T_min  0.97584
_exptl_absorpt_correction_type   multi-scan
_exptl_absorpt_process_details   'CrysAlisPro, Agilent Technologies,'
_exptl_crystal_colour            colourless
_exptl_crystal_colour_primary    colourless
_exptl_crystal_density_diffrn    1.577
_exptl_crystal_description       block
_exptl_crystal_F_000             268
_exptl_crystal_recrystallization_method 'antisolvent crystallization'
_exptl_crystal_size_max          0.35
_exptl_crystal_size_mid          0.063
_exptl_crystal_size_min          0.048
_refine_diff_density_max         0.259
_refine_diff_density_min         -0.183
_refine_diff_density_rms         0.039
_refine_ls_extinction_method     none
_refine_ls_goodness_of_fit_ref   1.031
_refine_ls_hydrogen_treatment    mixed
_refine_ls_matrix_type           full
_refine_ls_number_parameters     192
_refine_ls_number_reflns         2175
_refine_ls_number_restraints     23
_refine_ls_restrained_S_all      1.028
_refine_ls_R_factor_all          0.0401
_refine_ls_R_factor_gt           0.0338
_refine_ls_shift/su_max          0.000
_refine_ls_shift/su_mean         0.000
_refine_ls_structure_factor_coef Fsqd
_refine_ls_weighting_details
'w=1/[\s^2^(Fo^2^)+(0.0403P)^2^+0.1373P] where P=(Fo^2^+2Fc^2^)/3'
_refine_ls_weighting_scheme      calc
_refine_ls_wR_factor_gt          0.0818
_refine_ls_wR_factor_ref         0.0855
_reflns_Friedel_coverage         0.000
_reflns_number_gt                1874
_reflns_number_total             2175
_reflns_threshold_expression     'I > 2\s(I)'
_cod_data_source_file            sk3677sup7.cif
_cod_data_source_block           DL-AABA_DL-tart_(V)
_cod_database_code               2020947
_shelx_shelxl_version_number     2017/1
_shelx_space_group_comment
;
The symmetry employed for this shelxl refinement is uniquely defined
by the following loop, which should always be used as a source of
symmetry information in preference to the above space-group names.
They are only intended as comments.
;
_reflns_odcompleteness_completeness 100.00
_reflns_odcompleteness_iscentric 1
_reflns_odcompleteness_theta     26.32
_olex2_refinement_description
;
1. Fixed Uiso
 At 1.2 times of:
  All C(H) groups, All C(H,H) groups, All O(H) groups
 At 1.5 times of:
  All C(H,H,H) groups, All N(H,H,H) groups
2. Rigid bond restraints
 N1A, C6, C7A, C8A
 with sigma for 1-2 distances of 0.005 and sigma for 1-3 distances of 0.005
3. Uiso/Uaniso restraints and constraints
N1A \\sim C6 \\sim C7A \\sim C8A: within 2A with sigma of 0.002 and sigma for
terminal atoms of 0.004
4. Others
 Sof(N1A)=Sof(H1AA)=Sof(H1AB)=Sof(H1AC)=Sof(C8A)=Sof(H8AA)=Sof(H8AB)=Sof(H8AC)=
 Sof(C7A)=Sof(H7AA)=Sof(H7AB)=1-FVAR(1)
 Sof(N1)=Sof(H1A)=Sof(H1B)=Sof(H1C)=Sof(C7)=Sof(H7A)=Sof(H7B)=Sof(C8)=Sof(H8A)=
 Sof(H8B)=Sof(H8C)=FVAR(1)
 Fixed Sof: H8(0.5) H6(0.5)
5.a Ternary CH refined with riding coordinates:
 C3(H3A), C2(H2), C6(H6A)
5.b Secondary CH2 refined with riding coordinates:
 C7(H7A,H7B), C7A(H7AA,H7AB)
5.c Idealised Me refined as rotating group:
 N1(H1A,H1B,H1C), C8(H8A,H8B,H8C), N1A(H1AA,H1AB,H1AC), C8A(H8AA,H8AB,H8AC)
5.d Idealised tetrahedral OH refined as rotating group:
 O4(H4), O8(H8), O3(H3), O6(H6), O1(H1)
;
_shelx_res_file
;
TITL TEST_1_A.RES IN P-1
    test_1.res
    created by SHELXL-2017/1 at 15:18:06 on 17-Nov-2017
REM OLD TITL TEST_1 IN P-1
REM SHELXT SOLUTION IN P-1
REM R1 0.142, RWEAK 0.009, ALPHA 0.027, ORIENTATION AS INPUT
REM FORMULA FOUND BY SHELXT: C9 O8
REM <OLEX2.EXTRAS>
REM <HKLSRC "%.\\TEST_1.HKL">
REM </OLEX2.EXTRAS>
CELL 0.71073 4.9336 10.0324 11.3232 103.464 94.31 99.766
ZERR 2 0.0002 0.0007 0.0007 0.006 0.005 0.005
LATT 1
SFAC C H N O
UNIT 16 30 2 16
EQIV $1 1+X,+Y,+Z
EQIV $2 1-X,1-Y,2-Z
EQIV $3 +X,+Y,-1+Z
EQIV $4 1+X,+Y,-1+Z
EQIV $5 2-X,1-Y,1-Z
EQIV $6 1-X,-Y,1-Z
DELU 0.005 0.005 N1A C6 C7A C8A
SIMU 0.002 0.004 2 N1A C6 C7A C8A

L.S. 20
PLAN  30
TEMP 19
HTAB O4 O3_$1
HTAB O3 O4_$2
HTAB O1 O7
HTAB N1 O4_$3
HTAB N1 O5_$3
HTAB N1 O5_$4
HTAB N1 O2_$5
HTAB N1A O5_$3
HTAB N1A O2_$5
HTAB N1A O7_$5
HTAB C7A O6_$6
BOND $H
CONF
fmap 2
acta
SHEL 40 0.8
REM <olex2.extras>
REM <HklSrc "%.\\test_1.hkl">
REM </olex2.extras>

WGHT    0.040300    0.137300
FVAR       1.26188   0.92920
O4    4    0.756294    0.325984    1.010730    11.00000    0.01712    0.03157 =
         0.02455    0.00840    0.00298   -0.00495
AFIX 147
H4    2    0.897334    0.339240    0.977723    11.00000   -1.20000
AFIX   0
O8    4    1.335957    0.407585    0.426951    11.00000    0.02094    0.03389 =
         0.02237    0.00148    0.00364   -0.00513
AFIX 147
H8    2    1.432382    0.468532    0.482436    10.50000    0.02886
AFIX   0
O3    4    0.237351    0.377677    0.906001    11.00000    0.02637    0.02695 =
         0.03980    0.01225    0.01464    0.00694
AFIX 147
H3    2    0.316120    0.458181    0.911863    11.00000   -1.20000
AFIX   0
O5    4    0.412421    0.172980    1.116092    11.00000    0.02829    0.04545 =
         0.02389    0.01573    0.00163   -0.00750
O2    4    0.668043    0.481871    0.798692    11.00000    0.04429    0.02563 =
         0.03379    0.01111    0.01421   -0.00125
O7    4    1.074616    0.376870    0.574017    11.00000    0.03114    0.04339 =
         0.02175    0.00487    0.00798   -0.00170
O6    4    0.144592    0.066655    0.940856    11.00000    0.03018    0.03833 =
         0.02730    0.01351    0.00017   -0.01467
AFIX 147
H6    2    0.060609    0.023298    0.984328    10.50000   -1.20000
AFIX   0
O1    4    0.673886    0.268427    0.683020    11.00000    0.04282    0.03197 =
         0.03347    0.00894    0.02114    0.00390
AFIX 147
H1    2    0.788754    0.311069    0.649630    11.00000   -1.20000
AFIX   0
PART 1
N1    3    0.959942    0.285432    0.243978    21.00000    0.02768    0.03065 =
         0.02347    0.01051   -0.00366   -0.00326
AFIX 137
H1A   2    0.807340    0.258627    0.190562    21.00000   -1.50000
H1B   2    1.083433    0.233222    0.218706    21.00000   -1.50000
H1C   2    1.030904    0.374727    0.249797    21.00000   -1.50000
AFIX   0
PART 0
C5    1    1.114661    0.357832    0.465823    11.00000    0.02009    0.02089 =
         0.02192    0.00501    0.00354    0.00401
C3    1    0.553346    0.221791    0.929200    11.00000    0.01766    0.01993 =
         0.02176    0.00596    0.00439   -0.00041
AFIX  13
H3A   2    0.645806    0.152264    0.881018    11.00000   -1.20000
AFIX   0
C2    1    0.390019    0.284120    0.841290    11.00000    0.01989    0.02125 =
         0.02084    0.00618    0.00417    0.00004
AFIX  13
H2    2    0.261017    0.207981    0.783095    11.00000   -1.20000
AFIX   0
C4    1    0.358508    0.150219    1.004507    11.00000    0.02090    0.02042 =
         0.02278    0.00861    0.00328    0.00089
C1    1    0.590813    0.357242    0.771151    11.00000    0.02305    0.02715 =
         0.01941    0.00974    0.00308    0.00280
C6    1    0.889858    0.268214    0.366011    11.00000    0.01664    0.02621 =
         0.02328    0.00720    0.00325    0.00204
PART 1
AFIX  13
H6A   2    0.715716    0.300463    0.380473    11.00000   -1.20000
AFIX   0
C7    1    0.847335    0.114152    0.367728    21.00000    0.02651    0.02403 =
         0.02776    0.00780    0.00230   -0.00168
AFIX  23
H7A   2    0.762677    0.102628    0.440219    21.00000   -1.20000
H7B   2    0.719560    0.059741    0.296976    21.00000   -1.20000
AFIX   0
C8    1    1.114048    0.056505    0.366912    21.00000    0.04076    0.03109 =
         0.04283    0.00990    0.00136    0.01525
AFIX 137
H8A   2    1.197522    0.065619    0.294578    21.00000   -1.50000
H8B   2    1.072688   -0.040283    0.367686    21.00000   -1.50000
H8C   2    1.239907    0.107874    0.437956    21.00000   -1.50000
AFIX   0
PART 0
PART 2
N1A   3    0.836101    0.358634    0.274299   -21.00000    0.01747    0.02639 =
         0.01872    0.00410    0.00265    0.00101
AFIX 137
H1AA  2    0.700920    0.310440    0.215826   -21.00000   -1.50000
H1AB  2    0.990007    0.380166    0.240872   -21.00000   -1.50000
H1AC  2    0.786813    0.436703    0.314056   -21.00000   -1.50000
AFIX   0
C8A   1    1.004831    0.066577    0.375700   -21.00000    0.01798    0.02733 =
         0.02721    0.00147    0.00059    0.00344
AFIX 137
H8AA  2    1.115452    0.121186    0.450057   -21.00000   -1.50000
H8AB  2    1.096066   -0.006483    0.337335   -21.00000   -1.50000
H8AC  2    0.827090    0.026216    0.393979   -21.00000   -1.50000
AFIX   0
C7A   1    0.974349    0.140918    0.307099   -21.00000    0.01841    0.02801 =
         0.02561    0.00429    0.00256    0.00180
AFIX  23
H7AA  2    0.835997    0.089702    0.239075   -21.00000   -1.20000
H7AB  2    1.147385    0.164100    0.274340   -21.00000   -1.20000
AFIX   0
HKLF 4




REM  TEST_1_A.RES IN P-1
REM R1 =  0.0338 for    1874 Fo > 4sig(Fo)  and  0.0401 for all    2175 data
REM    192 parameters refined using     23 restraints

END

WGHT      0.0403      0.1373

REM Highest difference peak  0.259,  deepest hole -0.183,  1-sigma level  0.039
Q1    1   0.4587  0.1998  0.9715  11.00000  0.05    0.26
Q2    1   0.9943  0.3120  0.4162  11.00000  0.05    0.26
Q3    1   0.5123  0.3223  0.8136  11.00000  0.05    0.24
Q4    1   0.4643  0.2453  0.8840  11.00000  0.05    0.24
Q5    1   0.8832  0.1902  0.3622  11.00000  0.05    0.20
Q6    1   0.5050  0.1141  1.0763  11.00000  0.05    0.18
Q7    1   0.5812  0.2403  1.1385  11.00000  0.05    0.15
Q8    1   0.9450  0.2762  0.3187  11.00000  0.05    0.13
Q9    1   0.1036  0.3215  0.9411  11.00000  0.05    0.13
Q10   1   0.3195  0.3199  0.8679  11.00000  0.05    0.13
Q11   1   0.1753  0.2558  0.9782  11.00000  0.05    0.12
Q12   1   0.6773  0.4018  0.9763  11.00000  0.05    0.12
Q13   1   0.2427  0.1547  1.1572  11.00000  0.05    0.12
Q14   1   0.7719  0.3400  1.0938  11.00000  0.05    0.12
Q15   1   0.1335  0.0828  0.8785  11.00000  0.05    0.12
Q16   1   0.7304  0.4221  0.8164  11.00000  0.05    0.11
Q17   1   0.4965  0.0014  0.9155  11.00000  0.05    0.10
Q18   1   0.8159  0.1474  0.5210  11.00000  0.05    0.10
Q19   1   0.6376  0.4048  1.0460  11.00000  0.05    0.10
Q20   1   0.9238  0.3055  0.5757  11.00000  0.05    0.10
Q21   1   1.0303  0.4004  0.5210  11.00000  0.05    0.10
Q22   1   0.3176  0.2370  0.8173  11.00000  0.05    0.10
Q23   1   1.3092  0.4176  0.3304  11.00000  0.05    0.10
Q24   1   0.8684  0.1529  1.0021  11.00000  0.05    0.10
Q25   1   0.1686 -0.0432  0.9587  11.00000  0.05    0.10
Q26   1   0.6253  0.2678  0.9573  11.00000  0.05    0.10
Q27   1   0.7113  0.5357  0.7269  11.00000  0.05    0.09
Q28   1   0.2979 -0.0421  0.9093  11.00000  0.05    0.09
Q29   1   0.2511  0.3559  0.9822  11.00000  0.05    0.09
Q30   1   1.3110  0.1241  0.3295  11.00000  0.05    0.09
;
_shelx_res_checksum              57810
_shelx_hkl_file
;
   0   0   1  619.75    5.84
   0   0   1  603.32    5.96
   0   0  -1  611.53    5.99
   0   0   2  833.24    9.60
   0   0   2  801.51    9.84
   0   0  -2  789.21    9.48
   0   0  -2  810.70    9.83
   0   0   2  811.61    9.03
   0   0  -3  556.48    9.77
   0   0   3  555.64   10.09
   0   0  -3  553.81   10.01
   0   0  -4  169.95    6.29
   0   0  -4  179.88    6.66
   0   0   4  167.08    6.45
   0   0  -5  541.73   12.84
   0   0   5  549.05    8.43
   0   0   5  543.67   12.95
   0   0  -5  551.87   12.78
   0   0  -6  279.79   10.12
   0   0   6  270.76    6.50
   0   0  -6  256.24    9.57
   0   0   6  265.41    9.99
   0   0   7   14.16    1.64
   0   0  -7   11.33    2.46
   0   0  -7   15.25    2.80
   0   0   7   17.50    3.16
   0   0  -8   -0.16    1.26
   0   0   8   -1.26    1.64
   0   0   8    0.19    0.52
   0   0  -8   -0.33    1.39
   0   0  -9  352.74   14.21
   0   0   9  332.65   14.30
   0   0  -9  322.87   13.89
   0   0 -10    2.62    2.20
   0   0 -10    0.67    1.49
   0   0  10   -0.96    1.85
   0   0 -11   21.62    4.28
   0   0 -11   25.64    4.55
   0   0  11   32.27    5.17
   0   0 -12   24.42    4.68
   0   0  12   22.33    4.71
   0   0 -12   16.81    4.04
   0   0  13   43.00    6.59
   0   0 -13   34.14    5.97
   0   0 -13   27.80    5.16
   0   0 -14   56.48    7.75
   0   1 -14   -0.39    1.58
   0  -1  14   -1.06    1.89
   0   1 -14   -0.32    1.94
   0   1 -13    7.99    2.79
   0  -1  13    1.00    1.76
   0   1 -13    5.10    2.22
   0  -1  12   32.10    5.58
   0   1 -12   34.65    5.51
   0   1 -12   34.30    5.43
   0   1 -11  207.35   12.29
   0  -1  11  209.40   12.63
   0   1 -11  187.93   11.75
   0   1 -10   35.56    4.84
   0   1 -10   41.37    5.29
   0  -1  10   52.85    5.98
   0  -1   9   94.17    7.46
   0   1  -9  103.44    7.67
   0   1  -9   96.83    7.51
   0  -1   8  130.48    8.08
   0   1  -8  141.26    8.46
   0   1  -8  131.70    8.08
   0   1  -7  732.37   17.57
   0  -1   7  739.22    7.65
   0  -1   7  753.96   17.86
   0   1  -7  718.77   17.41
   0  -1   6  260.66    9.66
   0  -1   6  245.20    3.98
   0   1  -6  252.75    9.52
   0   1  -6  244.13    9.30
   0  -1   5  586.05   13.04
   0   1  -5  584.93   13.29
   0   1  -5  598.83    5.53
   0   1  -5  587.20   12.46
   0   1  -5  574.72   12.93
   0  -1   4 1820.54   20.79
   0  -1   4 1804.34   20.13
   0   1  -4 1807.57   20.78
   0   1  -4 1795.95   19.65
   0   1  -4 1854.27   20.48
   0   1  -3 2068.89   19.14
   0  -1   3 2026.23   18.95
   0   1  -3 2041.98   18.62
   0  -1   3 2039.04   18.40
   0   1  -3 2040.27   18.22
   0  -1   2  879.11    9.63
   0  -1   2  867.49   10.07
   0   1  -2  892.15   10.22
   0  -1   1  347.34    5.44
   0  -1   1  352.69    4.87
   0  -1   1  352.39    4.32
   0   1  -1  349.09    5.30
   0   1  -1  344.12    4.29
   0   1   0 1278.35    9.31
   0  -1   0 1228.14    9.27
   0   1   0 1242.44    8.67
   0  -1   0 1257.03    8.77
   0  -1  -1  650.31    8.21
   0   1   1  653.20    7.73
   0   1   1  648.63    6.94
   0   1   2 1948.17   17.11
   0  -1  -2 1994.14   17.64
   0  -1  -3 1661.13   18.80
   0   1   3 1623.64   18.41
   0  -1  -4    4.13    1.46
   0   1   4    3.08    1.24
   0   1   4    3.06    0.52
   0   1   5  282.37    9.81
   0  -1  -5  286.36    9.78
   0   1   5  298.16    4.85
   0  -1  -5  267.22    9.19
   0   1   5  309.77    5.01
   0   1   6  100.96    4.90
   0  -1  -6  101.97    6.42
   0   1   6  112.00    3.39
   0  -1  -6   97.80    6.04
   0   1   6  101.57    2.68
   0   1   6  108.27    6.72
   0   1   7    5.42    1.26
   0  -1  -7    2.56    1.52
   0  -1  -7    5.64    1.96
   0   1   7    2.09    1.60
   0  -1  -8  150.86    9.15
   0  -1  -8  155.84    8.95
   0   1   8  167.48    9.83
   0   1   8  173.31    6.98
   0  -1  -9 1297.43   28.29
   0   1   9 1291.75   28.93
   0  -1  -9 1277.62   27.38
   0  -1 -10   24.36    4.12
   0  -1 -10   27.46    4.72
   0   1  10   24.87    4.41
   0  -1 -11   87.18    8.46
   0   1  11  103.30    9.36
   0  -1 -11   93.55    8.42
   0   1  12  292.68   16.55
   0  -1 -12  278.49   15.75
   0  -1 -12  275.07   15.25
   0   1  13    6.69    3.02
   0  -1 -13    7.76    2.84
   0  -1 -13    8.07    2.90
   0  -1 -14   -0.17    1.40
   0   2 -14   42.86    6.60
   0   2 -14   46.87    6.74
   0  -2  14   46.51    7.19
   0   2 -13   94.33    9.21
   0  -2  13  105.06   10.08
   0   2 -13   95.19    9.39
   0   2 -12    5.65    2.61
   0   2 -12    8.15    3.20
   0  -2  12   13.41    3.86
   0   2 -11   22.61    4.29
   0  -2  11   22.70    4.37
   0   2 -11   27.29    4.76
   0   2 -10   78.30    7.23
   0  -2  10   79.83    7.16
   0   2 -10   74.34    6.92
   0   2  -9  170.32    9.90
   0  -2   9  161.63    9.47
   0   2  -9  175.17    9.98
   0   2  -8  679.23   18.21
   0  -2   8  694.21   18.18
   0   2  -8  687.08   17.67
   0   2  -8  641.43   17.96
   0   2  -7  916.75   19.12
   0  -2   7  906.81   19.42
   0  -2   7  981.86   20.33
   0   2  -7  945.68   19.92
   0   2  -7  959.56   20.29
   0   2  -6  309.39   10.36
   0   2  -6  311.77   10.46
   0   2  -6  303.69   10.61
   0  -2   6  308.66   10.49
   0  -2   6  293.08   10.03
   0   2  -5  240.77    8.46
   0  -2   5  235.39    8.47
   0   2  -5  250.47    8.79
   0  -2   5  229.12    7.93
   0   2  -5  219.80    8.09
   0   2  -4    7.82    1.54
   0   2  -4    8.28    1.67
   0  -2   4    8.96    1.72
   0  -2   4   10.12    1.67
   0   2  -3   50.39    3.30
   0   2  -3   44.29    3.06
   0  -2   3   48.19    2.80
   0   2  -3   49.49    1.71
   0  -2   3   46.14    2.95
   0   2  -2  282.63    6.84
   0  -2   2  293.61    5.65
   0  -2   2  287.06    6.28
   0   2  -1  397.19    7.45
   0   2  -1  426.93    5.83
   0  -2   1  421.50    5.79
   0  -2   1  406.62    6.85
   0  -2   0 2135.42   16.40
   0  -2   0 2149.25   17.39
   0   2   0 2221.74   10.43
   0   2   0 2124.35   16.19
   0   2   1 3141.89   20.07
   0   2   1 3142.75   20.77
   0  -2  -1 3172.07   22.98
   0  -2  -2    5.02    1.37
   0   2   2    5.82    1.26
   0   2   2    6.32    1.21
   0   2   3  560.78   11.77
   0  -2  -3  567.58   12.14
   0   2   3  546.85   10.21
   0   2   4    1.11    1.04
   0  -2  -4   -0.41    0.96
   0  -2  -5 1298.52   22.35
   0   2   5 1292.60   22.17
   0   2   6   49.69    4.84
   0   2   6   54.34    2.81
   0  -2  -6   54.56    5.06
   0   2   6   50.67    3.98
   0  -2  -7   64.09    5.57
   0   2   7   62.42    5.80
   0  -2  -7   67.39    5.99
   0   2   7   67.98    2.98
   0   2   7   59.33    4.54
   0  -2  -8   16.50    3.33
   0   2   8   17.36    3.33
   0  -2  -8   19.14    3.31
   0   2   8   14.66    2.47
   0   2   9    2.51    1.43
   0  -2  -9    3.10    1.97
   0  -2  -9    4.27    2.25
   0  -2 -10    4.15    2.20
   0  -2 -10    6.94    2.59
   0   2  10    7.74    2.63
   0   2  11   16.45    4.23
   0  -2 -11   13.92    3.82
   0  -2 -11   10.99    3.25
   0  -2 -12   95.62    9.50
   0  -2 -12   82.23    8.51
   0   2  12   88.54    9.33
   0  -2 -13   57.94    7.81
   0   3 -15   25.65    5.32
   0   3 -14    1.43    1.60
   0   3 -14    3.64    2.66
   0  -3  14    5.01    3.00
   0   3 -13   64.93    7.74
   0   3 -13   59.21    7.36
   0  -3  13   68.69    7.94
   0   3 -12   35.97    5.51
   0   3 -12   41.28    6.10
   0  -3  12   31.81    5.06
   0   3 -11    5.96    2.44
   0  -3  11   15.45    3.54
   0   3 -11    7.70    2.75
   0   3 -10  164.22   10.34
   0  -3  10  162.34   10.10
   0   3 -10  158.51   10.28
   0   3  -9    0.58    1.43
   0  -3   9    0.76    1.48
   0   3  -9    3.53    1.99
   0   3  -9   -0.09    1.22
   0   3  -8   36.44    4.56
   0  -3   8   43.03    4.69
   0   3  -8   36.02    4.41
   0  -3   8   37.83    4.34
   0   3  -8   39.91    4.43
   0   3  -7  581.16   16.15
   0  -3   7  557.62   14.91
   0  -3   7  574.96   15.73
   0   3  -7  580.44   15.79
   0   3  -7  554.47   15.40
   0   3  -6  636.98   15.78
   0  -3   6  617.76   14.92
   0   3  -6  612.96   15.25
   0  -3   6  649.88   14.64
   0   3  -5  202.18    8.17
   0   3  -5  198.54    8.25
   0  -3   5  195.45    7.21
   0  -3   5  206.20    8.01
   0   3  -4  181.75    7.42
   0   3  -4  178.66    7.20
   0  -3   4  179.16    6.20
   0  -3   4  173.09    6.63
   0   3  -4  178.22    4.23
   0  -3   3  481.45   10.11
   0   3  -3  491.97    7.99
   0  -3   3  492.70    9.06
   0   3  -3  503.52   11.11
   0  -3   2  744.94   11.63
   0  -3   2  742.38    9.77
   0   3  -2  737.84   12.64
   0  -3   1  384.69    8.31
   0  -3   1  398.74    6.89
   0   3  -1  388.90    8.81
   0  -3   0 1604.88   17.44
   0  -3   0 1601.73   18.53
   0  -3   0 1644.14   18.58
   0   3   0 1650.54   10.89
   0   3   0 1648.42   17.47
   0   3   1  564.16   10.37
   0  -3  -1  555.75   11.51
   0  -3  -2 1979.08   23.40
   0   3   2 1971.17   21.31
   0   3   2 1945.96   19.86
   0   3   3  127.70    6.06
   0  -3  -3  126.73    6.38
   0   3   3  124.03    5.39
   0   3   4  211.23    7.46
   0  -3  -4  210.01    8.88
   0   3   4  207.62    8.52
   0  -3  -5  394.60   13.05
   0   3   5  392.31   12.85
   0   3   5  364.93   10.65
   0   3   6   46.02    4.40
   0   3   6   49.67    5.03
   0   3   6   45.20    4.16
   0  -3  -6   55.16    5.32
   0   3   7   51.75    4.60
   0   3   7   50.87    4.84
   0   3   7   59.55    5.90
   0  -3  -7   43.21    5.04
   0  -3  -8   25.58    4.15
   0   3   8   31.37    4.54
   0   3   8   27.76    3.63
   0  -3  -8   30.14    4.59
   0   3   9   10.49    2.52
   0  -3  -9   10.38    3.21
   0  -3  -9    2.79    1.91
   0   3   9   10.04    3.33
   0  -3 -10   39.01    5.85
   0   3  10   36.24    5.61
   0  -3 -10   33.04    4.94
   0   3  11    1.43    1.97
   0  -3 -11   -0.57    1.44
   0  -3 -11    0.26    1.68
   0  -3 -12   51.35    7.27
   0   3  12   53.50    7.52
   0   4 -15   26.32    5.54
   0   4 -14    2.93    2.35
   0  -4  14    2.19    1.89
   0   4 -14    4.81    2.94
   0  -4  13   11.46    3.69
   0   4 -13   17.00    4.42
   0   4 -13   14.39    3.83
   0   4 -12    1.91    2.33
   0  -4  12   -1.26    2.01
   0   4 -12    4.40    2.35
   0  -4  11   -0.04    1.66
   0   4 -11   -0.86    1.78
   0   4 -11    1.16    1.79
   0   4 -11   -2.45    1.86
   0   4 -10  176.81   10.76
   0   4 -10  161.93   10.60
   0   4 -10  169.02   10.50
   0  -4  10  176.05   10.73
   0  -4  10  189.10   10.81
   0  -4   9   54.68    5.50
   0   4  -9   65.50    6.31
   0   4  -9   60.61    6.13
   0   4  -9   50.83    5.54
   0  -4   9   48.40    5.40
   0  -4   8  247.95   10.72
   0  -4   8  240.13   11.19
   0   4  -8  243.68   11.22
   0   4  -8  237.83   11.23
   0   4  -8  247.73   11.67
   0  -4   7  557.31   15.54
   0   4  -7  540.85   15.95
   0  -4   7  539.87   14.54
   0   4  -7  534.91   16.10
   0  -4   6 1645.05   23.26
   0   4  -6 1614.70   26.43
   0   4  -6 1568.23   25.62
   0  -4   6 1627.73   24.81
   0   4  -5    2.84    0.76
   0   4  -5    4.26    1.64
   0  -4   5    2.66    1.18
   0  -4   5    3.96    1.30
   0   4  -5    1.44    1.15
   0  -4   4   21.22    2.59
   0   4  -4   22.37    2.01
   0   4  -4   23.64    3.05
   0  -4   4   20.97    2.25
   0   4  -3  201.96    7.86
   0   4  -3  209.51    6.55
   0  -4   3  201.97    6.06
   0  -4   3  196.25    7.02
   0  -4   2 5131.86   28.63
   0   4  -2 5031.02   37.33
   0  -4   2 5032.10   34.26
   0  -4   1   65.05    4.04
   0   4  -1   60.19    4.05
   0  -4   1   71.05    2.05
   0  -4   1   65.29    3.30
   0  -4   1   60.79    4.21
   0   4   0  588.06    7.44
   0   4   0  574.63   12.10
   0  -4   0  555.76   12.80
   0  -4   0  567.78   12.13
   0   4   1   35.44    2.36
   0  -4  -1   34.15    3.36
   0   4   1   33.85    2.95
   0   4   2  770.98   14.31
   0  -4  -2  778.99   16.44
   0   4   3  241.18    8.25
   0   4   3  243.74    9.09
   0  -4  -3  246.18    9.85
   0  -4  -4   -0.88    1.07
   0   4   4    0.25    1.01
   0   4   4   -0.11    0.94
   0   4   5   29.76    3.99
   0   4   5   25.89    3.19
   0  -4  -5   24.83    3.66
   0   4   6    6.25    1.94
   0  -4  -6   11.80    2.91
   0   4   6    7.19    2.44
   0   4   6    8.91    2.06
   0  -4  -7  124.07    8.91
   0   4   7  127.80    7.47
   0   4   7  112.93    8.33
   0   4   7  129.31    8.29
   0   4   8   -0.64    1.41
   0   4   8    0.60    1.26
   0   4   8   -2.46    1.47
   0  -4  -8   -0.33    1.15
   0   4   9  293.14   15.23
   0   4   9  330.17   13.88
   0  -4  -9  289.35   15.21
   0  -4  -9  293.27   14.35
   0   4  10   18.76    4.39
   0  -4 -10   16.04    4.00
   0  -4 -10   14.36    3.50
   0  -4 -11   45.64    6.75
   0  -4 -11   41.69    5.89
   0   4  11   45.42    6.86
   0  -4 -12   15.11    4.21
   0   5 -14   48.35    7.22
   0  -5  14   40.01    6.30
   0   5 -14   60.91    7.98
   0   5 -13   67.02    7.91
   0  -5  13   76.85    8.11
   0   5 -13   80.24    8.78
   0   5 -12   38.21    5.99
   0  -5  12   56.53    6.72
   0   5 -12   43.24    6.28
   0   5 -12   55.09    6.99
   0   5 -11   77.36    7.82
   0   5 -11   82.83    8.08
   0  -5  11   89.89    7.92
   0  -5  11   72.38    7.44
   0   5 -11   67.00    7.23
   0  -5  10   47.32    5.72
   0   5 -10   51.81    6.05
   0   5 -10   53.03    6.11
   0   5 -10   52.49    6.03
   0  -5  10   44.62    5.11
   0   5  -9   73.41    6.69
   0  -5   9   84.23    7.10
   0   5  -9   95.40    7.97
   0   5  -9   87.62    7.40
   0  -5   9   79.65    6.55
   0   5  -8  124.83    8.70
   0  -5   8  133.38    7.90
   0   5  -8  134.10    8.79
   0  -5   8  139.57    8.58
   0   5  -7  142.48    8.76
   0   5  -7  147.30    8.79
   0  -5   7  140.82    7.47
   0  -5   7  140.26    8.14
   0  -5   6  599.00   14.25
   0  -5   6  574.19   15.17
   0   5  -6  620.84   10.50
   0   5  -6  581.09   16.54
   0   5  -5  422.90   13.50
   0  -5   5  408.09   10.83
   0  -5   5  426.53   12.38
   0   5  -5  424.26    9.67
   0  -5   4  995.03   18.00
   0  -5   4  983.72   15.29
   0   5  -4  985.18   19.75
   0   5  -4  972.51   15.80
   0  -5   3  655.86   11.65
   0   5  -3  661.53   15.58
   0  -5   3  635.77   13.87
   0   5  -3  658.35   13.61
   0  -5   2   20.28    2.59
   0   5  -2   22.16    2.93
   0  -5   2   18.45    1.19
   0  -5   2   18.91    2.69
   0  -5   2   19.85    2.05
   0  -5   1   76.01    4.87
   0  -5   1   74.62    5.20
   0  -5   1   76.12    3.97
   0   5  -1   73.55    5.12
   0  -5   0  148.75    7.03
   0   5   0  151.71    4.17
   0   5   0  148.87    7.01
   0  -5  -1    7.00    2.12
   0   5   1    7.54    1.84
   0   5   1    6.13    1.14
   0  -5  -1    4.75    1.57
   0   5   2 1507.02   22.47
   0  -5  -2 1500.01   25.32
   0   5   2 1500.90   18.90
   0   5   3   85.78    5.51
   0  -5  -3   72.14    5.89
   0  -5  -4    8.96    2.32
   0   5   4   12.33    2.75
   0   5   4    8.77    2.00
   0   5   5   89.84    7.00
   0   5   5   79.48    6.67
   0  -5  -5   94.49    7.46
   0   5   5   91.04    6.03
   0   5   6  669.36   19.92
   0   5   6  635.64   19.33
   0   5   6  665.09   17.15
   0  -5  -6  623.83   20.09
   0  -5  -7  499.40   18.76
   0   5   7  534.05   16.00
   0   5   7  510.17   17.80
   0   5   7  494.40   18.27
   0   5   8   26.05    4.65
   0  -5  -8   33.73    5.44
   0   5   8   35.69    4.89
   0   5   9   22.59    4.10
   0   5   9   22.86    4.71
   0  -5  -9   25.75    5.06
   0   5  10    2.90    2.65
   0  -5 -10   -2.52    2.23
   0  -5 -10   -1.71    2.13
   0  -5 -11    4.28    2.98
   0   5  11    4.50    2.97
   0   6 -14   49.05    7.45
   0   6 -14   44.30    6.70
   0  -6  14   56.75    7.62
   0   6 -13    6.51    3.15
   0   6 -13    3.66    2.55
   0  -6  13    4.82    2.81
   0   6 -13    3.07    2.40
   0   6 -12   13.99    3.75
   0   6 -12    9.69    3.04
   0   6 -12    7.64    2.99
   0  -6  12    6.50    2.47
   0  -6  12    5.92    2.40
   0   6 -11  155.72   11.50
   0  -6  11  160.52   10.94
   0  -6  11  159.67   10.40
   0   6 -11  147.03   10.80
   0   6 -11  152.53   11.12
   0   6 -10  166.46   11.28
   0  -6  10  164.97   10.61
   0   6 -10  163.50   10.89
   0   6 -10  171.60   11.32
   0  -6  10  164.28    9.91
   0   6  -9  268.45   13.69
   0  -6   9  310.42   12.85
   0   6  -9  286.42   13.97
   0  -6   9  279.76   13.11
   0  -6   8  541.47   15.81
   0   6  -8  522.16   18.10
   0  -6   8  523.82   16.98
   0   6  -7  750.29   21.07
   0  -6   7  760.17   19.21
   0  -6   7  759.78   17.40
   0  -6   6    3.22    1.29
   0  -6   6    3.37    1.76
   0  -6   6    2.14    1.66
   0   6  -6    1.17    1.32
   0   6  -6    1.99    1.01
   0   6  -5  139.99    8.31
   0  -6   5  134.77    6.37
   0  -6   5  130.64    8.09
   0  -6   5  123.26    7.09
   0   6  -5  141.38    6.51
   0   6  -4   76.08    5.92
   0  -6   4   70.52    5.20
   0  -6   4   73.16    4.40
   0   6  -4   66.13    4.72
   0  -6   4   67.22    5.68
   0   6  -3  856.76   17.64
   0  -6   3  859.16   17.54
   0  -6   3  891.07   19.81
   0   6  -3  887.20   19.43
   0  -6   3  878.17   14.60
   0  -6   2    0.97    1.09
   0  -6   2    2.93    1.57
   0  -6   2   -0.13    0.72
   0   6  -2    0.61    1.29
   0   6  -2   -0.70    1.26
   0  -6   1  289.92   10.45
   0  -6   1  288.96   11.23
   0   6  -1  297.55   10.86
   0  -6   1  282.11    8.46
   0   6   0    8.49    2.01
   0  -6   0    8.83    2.08
   0   6   1  736.04   11.92
   0  -6  -1  687.38   17.19
   0   6   1  704.37   16.70
   0  -6  -1  710.97   18.57
   0   6   2   30.65    3.56
   0   6   2   35.15    3.06
   0  -6  -2   32.00    4.04
   0  -6  -2   34.66    4.41
   0   6   3    8.55    2.02
   0   6   3    7.80    1.79
   0  -6  -3    6.25    2.12
   0   6   4  631.58   16.65
   0  -6  -4  608.72   19.18
   0   6   4  615.32   19.23
   0   6   5  403.99   13.72
   0  -6  -5  385.86   16.01
   0   6   5  398.49   15.95
   0   6   6  333.48   12.87
   0  -6  -6  337.45   15.69
   0   6   6  301.97   14.39
   0   6   7   40.13    5.76
   0  -6  -7   40.29    5.71
   0   6   7   35.17    5.12
   0  -6  -8   37.81    5.95
   0   6   8   47.86    6.37
   0   6   8   43.47    5.86
   0   6   9   55.25    7.25
   0  -6  -9   54.32    7.31
   0   6   9   61.03    7.11
   0  -6 -10   82.12    9.19
   0   6  10   77.53    8.95
   0   7 -14    0.09    1.37
   0   7 -14    3.46    2.45
   0   7 -13   67.24    8.32
   0   7 -13   62.71    8.23
   0  -7  13   69.70    7.74
   0  -7  12   63.95    7.52
   0  -7  12   57.35    6.61
   0   7 -12   65.92    7.84
   0   7 -12   70.57    8.33
   0  -7  11   16.18    3.61
   0   7 -11   11.44    3.25
   0  -7  11   12.90    3.26
   0   7 -11    8.97    3.33
   0  -7  10   59.17    6.47
   0  -7  10   57.32    5.95
   0   7 -10   58.77    7.02
   0  -7   9    3.96    2.43
   0   7  -9    1.41    1.97
   0  -7   9    0.60    1.23
   0   7  -8  176.08   11.16
   0  -7   8  186.69   10.37
   0  -7   8  178.60    9.17
   0  -7   7  268.48   13.19
   0   7  -7  244.85   12.65
   0  -7   7  265.84   11.84
   0  -7   7  279.98   10.72
   0  -7   6    3.14    1.89
   0   7  -6    3.47    1.87
   0   7  -6    5.87    1.60
   0  -7   6    3.79    1.57
   0  -7   6    2.24    1.28
   0  -7   5   10.38    2.56
   0  -7   5   11.15    2.43
   0   7  -5   13.10    3.01
   0   7  -5   11.22    2.23
   0  -7   5   12.52    2.19
   0  -7   4  100.82    7.46
   0   7  -4  110.97    6.89
   0  -7   4  111.38    6.98
   0  -7   4  119.21    5.91
   0   7  -4  108.11    7.62
   0  -7   3  313.99   12.85
   0  -7   3  309.74   11.60
   0   7  -3  340.53   12.39
   0   7  -3  314.48   12.58
   0  -7   3  345.92    9.74
   0  -7   2    0.20    0.96
   0  -7   2   -0.51    0.68
   0   7  -2    0.86    1.38
   0  -7   2   -0.44    1.29
   0   7  -2    0.68    1.02
   0  -7   1   22.98    3.34
   0   7  -1   22.84    3.38
   0   7  -1   27.73    3.88
   0  -7   1   26.45    2.87
   0   7   0   75.03    6.04
   0  -7   0   73.27    6.10
   0   7   0   78.77    6.63
   0  -7  -1   36.55    4.45
   0   7   1   46.26    3.13
   0   7   1   34.09    4.09
   0   7   1   41.15    5.15
   0  -7  -2  292.68   13.46
   0   7   2  284.43   13.33
   0  -7  -2  263.83   12.21
   0   7   2  300.30    9.13
   0   7   2  277.53   11.46
   0   7   3    1.66    1.76
   0   7   3    1.43    0.83
   0  -7  -3    3.99    2.05
   0   7   3    0.33    1.04
   0  -7  -3    2.34    1.99
   0  -7  -4  174.42   11.21
   0   7   4  162.41   10.75
   0   7   4  188.84    8.93
   0   7   4  196.97   10.05
   0   7   5    3.00    1.77
   0  -7  -5    5.21    2.75
   0   7   5    7.25    2.27
   0   7   5    3.42    2.31
   0   7   6  311.87   15.69
   0  -7  -6  331.84   16.41
   0   7   7  139.97   10.85
   0  -7  -7  146.97   11.51
   0   7   8   46.27    6.43
   0  -7  -8   39.92    6.44
   0  -7  -9    3.22    3.23
   0   7   9    3.72    2.04
   0  -8  13   13.13    3.17
   0   8 -13    9.50    3.03
   0   8 -13    6.96    3.29
   0  -8  12    7.46    2.95
   0   8 -12    2.05    1.93
   0   8 -12    3.97    2.87
   0  -8  11    5.56    2.90
   0   8 -11    2.51    2.51
   0  -8  10   65.24    7.06
   0  -8  10   65.54    7.70
   0   8 -10   65.88    7.81
   0  -8   9   12.78    2.79
   0   8  -9   12.49    3.66
   0  -8   9    8.96    2.58
   0  -8   9    3.64    1.85
   0  -8   8  136.68    9.21
   0   8  -8  150.82   10.77
   0  -8   8  129.00   10.01
   0  -8   8  144.74    8.30
   0   8  -7  311.63   14.91
   0  -8   7  289.35   14.43
   0  -8   7  289.87   12.95
   0  -8   7  300.33   11.45
   0  -8   6   73.21    5.37
   0   8  -6   71.47    7.10
   0  -8   6   62.85    5.91
   0  -8   6   70.02    7.06
   0   8  -6   77.34    5.80
   0  -8   5  142.87    8.68
   0  -8   5  142.51    9.69
   0   8  -5  150.88    9.78
   0  -8   5  162.21    7.57
   0   8  -5  161.80    8.70
   0  -8   4   30.45    4.02
   0   8  -4   26.17    4.18
   0  -8   4   26.65    4.17
   0   8  -4   29.60    4.01
   0  -8   4   29.15    3.18
   0   8  -3   36.82    4.70
   0  -8   3   29.26    3.16
   0   8  -3   30.61    4.47
   0  -8   3   34.39    4.30
   0  -8   3   39.12    5.01
   0  -8   2   -0.04    1.57
   0  -8   2   -0.85    1.36
   0   8  -2   -1.44    1.50
   0   8  -2    0.38    1.26
   0  -8   2   -0.27    0.76
   0   8  -1    6.36    2.50
   0  -8   1    3.61    1.22
   0   8  -1    1.77    1.59
   0  -8   1    5.21    1.99
   0  -8   0   93.21    6.06
   0  -8   0   97.34    7.46
   0   8   0   91.10    7.79
   0   8   0   91.56    7.15
   0  -8  -1  322.43   13.83
   0   8   1  347.69   13.92
   0   8   1  342.64   15.38
   0  -8  -2   52.19    6.11
   0   8   2   56.79    5.70
   0  -8  -2   56.69    6.17
   0   8   2   65.29    6.94
   0  -8  -3   23.53    4.23
   0  -8  -3   23.57    4.25
   0   8   3   21.66    3.71
   0   8   3   31.86    5.24
   0  -8  -4   -1.04    2.03
   0   8   4    1.68    1.83
   0   8   4    3.03    2.20
   0  -8  -4   -3.17    2.09
   0  -8  -5   49.50    6.66
   0   8   5   60.44    7.20
   0  -8  -6   92.65    9.35
   0   8   6  101.26    9.53
   0  -8  -7   29.87    5.62
   0   8   7   27.46    5.39
   0  -8  -8    2.13    2.58
   0   8   8   -0.08    1.70
   0   8   9   21.77    4.68
   0   9 -13    3.72    2.55
   0   9 -12   10.75    3.77
   0  -9  12    5.90    2.92
   0  -9  11    4.09    2.22
   0   9 -11    6.82    3.23
   0  -9  11    7.00    3.06
   0  -9  10  125.66   11.02
   0   9 -10  126.66   11.08
   0  -9  10  132.52   10.08
   0  -9   9   31.28    5.58
   0   9  -9   35.99    5.69
   0  -9   9   32.32    5.01
   0  -9   8   16.41    4.05
   0   9  -8   20.19    4.18
   0  -9   8   25.23    4.22
   0  -9   7   23.07    4.44
   0  -9   7   25.66    4.13
   0   9  -7   31.19    5.19
   0  -9   6    5.01    2.37
   0   9  -6    4.74    1.81
   0   9  -6    7.69    2.76
   0  -9   6    7.65    2.66
   0  -9   5    1.27    2.08
   0  -9   5   -0.60    1.20
   0   9  -5    3.89    1.72
   0   9  -5    1.46    1.65
   0  -9   4  224.52   11.37
   0  -9   4  198.77   12.02
   0   9  -4  210.07   12.06
   0   9  -4  224.77   11.62
   0  -9   3   27.82    4.04
   0   9  -3   25.04    4.41
   0   9  -3   32.10    4.67
   0  -9   3   17.75    3.64
   0   9  -2   20.99    3.98
   0   9  -2   22.41    4.07
   0  -9   2   25.65    3.93
   0   9  -1   80.16    7.62
   0   9  -1   70.55    6.91
   0  -9   1   70.24    6.76
   0  -9   0  372.80   15.62
   0   9   0  372.69   15.53
   0   9   0  393.54   17.17
   0   9   1   92.11    8.65
   0   9   1   89.15    7.67
   0  -9  -1   81.62    7.57
   0   9   2   38.46    5.64
   0   9   2   39.40    5.15
   0  -9  -2   44.77    5.80
   0   9   3   -0.06    1.47
   0  -9  -3    0.85    1.59
   0   9   3    0.81    1.99
   0  -9  -3    1.84    1.60
   0  -9  -4   13.68    4.13
   0   9   4   11.13    3.42
   0  -9  -4    6.12    2.48
   0   9   5   10.37    3.74
   0  -9  -5    3.98    2.19
   0  -9  -5   12.67    3.82
   0  -9  -6    6.25    3.37
   0   9   6    2.27    2.56
   0  -9  -6    1.78    1.87
   0   9   7   27.99    5.81
   0  -9  -7   31.45    6.10
   0  10 -11    3.25    2.52
   0 -10  11    7.78    3.48
   0  10 -10   24.15    5.20
   0 -10  10    8.50    3.70
   0 -10   9  157.95   12.49
   0  10  -9  170.82   12.99
   0  10  -8    4.30    2.80
   0 -10   8    3.17    1.99
   0 -10   8    3.08    1.66
   0 -10   7   86.94    8.94
   0  10  -7   91.25    9.05
   0 -10   7   88.38    7.90
   0 -10   6    2.63    1.98
   0 -10   6    6.97    2.91
   0  10  -6    4.18    2.62
   0  10  -5    7.87    3.17
   0  10  -5    9.80    2.77
   0 -10   5    5.84    1.57
   0 -10   5    8.64    2.96
   0 -10   4   75.89    7.04
   0  10  -4   63.40    7.13
   0 -10   4   67.38    7.56
   0  10  -4   70.41    7.12
   0  10  -3   17.07    3.78
   0  10  -3   17.76    4.02
   0 -10   3   18.68    4.17
   0 -10   3   23.36    4.06
   0  10  -2    2.93    2.12
   0  10  -2    7.25    2.73
   0 -10   2    4.23    1.86
   0  10  -1   19.88    4.23
   0 -10   1   22.87    4.15
   0  10  -1   21.96    4.23
   0 -10   0    8.71    3.10
   0  10   0    9.75    3.12
   0  10   0   14.14    3.65
   0 -10  -1   55.93    6.74
   0  10   1   53.81    6.52
   0  10   1   55.80    7.22
   0 -10  -2   18.16    4.00
   0  10   2   14.23    3.47
   0  10   2   21.26    4.63
   0  10   3   44.30    6.83
   0 -10  -3   46.97    6.63
   0  10   4    2.09    2.18
   0 -10  -4    6.39    2.74
   0 -10  -4    1.90    1.95
   0  10   5   -1.21    1.95
   0 -10  -5   -0.23    1.84
   0 -10  -6    7.72    3.39
   0 -11   9   32.41    6.10
   0  11  -9   38.82    6.63
   0 -11   8   12.31    4.15
   0  11  -8   19.59    4.96
   0 -11   7   17.09    4.04
   0  11  -7   19.96    4.42
   0 -11   6    0.23    2.63
   0  11  -6    3.73    2.63
   0 -11   5   27.41    5.50
   0  11  -5   23.62    4.80
   0  11  -5   24.11    4.40
   0 -11   4   -0.55    1.56
   0  11  -4    0.81    1.93
   0  11  -4   -0.23    1.44
   0  11  -3  112.05    9.88
   0 -11   3  111.94    9.23
   0  11  -3  111.31    9.76
   0 -11   2  183.32   11.92
   0  11  -2  157.58   11.88
   0  11  -2  161.92   11.68
   0 -11   1   72.61    7.67
   0  11  -1   60.59    7.21
   0  11  -1   78.20    8.62
   0  11   0   18.15    4.47
   0 -11   0   22.78    4.49
   0  11   0   15.99    3.85
   0 -11  -1   -0.07    1.60
   0  11   1    2.79    2.09
   0  11   1    1.33    1.53
   0 -11  -2    7.27    3.27
   0  11   2   10.30    4.06
   0 -11  -3   -1.50    2.31
   0  11   3    2.12    2.45
   0 -11  -4   22.77    5.26
   0  12  -7   20.92    5.01
   0  12  -6   66.66    8.41
   0 -12   6   71.69    9.09
   0  12  -5   48.66    6.75
   0 -12   5   28.40    5.59
   0  12  -5   36.37    6.38
   0  12  -4   20.79    4.61
   0  12  -4   17.10    4.69
   0  12  -3   75.00    8.61
   0  12  -3   76.12    8.62
   0  12  -2   29.91    5.37
   0  12  -2   31.75    5.86
   0  12  -1   13.24    3.93
   0  12  -1   11.86    4.15
   0  12   0   13.58    3.83
   0  12   0   20.07    5.28
   0  13  -4   25.15    5.26
   0  13  -3   40.34    6.93
   0  13  -2  129.95   11.85
   1 -13   0   64.94    8.74
   1 -13   1   34.56    6.14
   1 -13   2   23.72    5.38
  -1  13  -2   12.45    3.84
   1 -13   3   13.97    4.17
  -1  13  -3   15.18    4.34
  -1  13  -4    5.41    3.16
   1 -13   4    6.26    3.02
   1 -13   5    5.68    2.86
  -1  12   2   12.74    4.25
   1 -12  -2   22.26    4.98
  -1  12   1   24.34    5.13
   1 -12  -1   37.53    6.52
  -1  12   1   45.96    7.33
  -1  12   0   53.45    7.65
   1 -12   0   53.99    7.34
  -1  12   0   57.58    7.57
   1 -12   1   23.93    5.26
  -1  12  -1   27.07    5.56
  -1  12  -1   19.66    4.71
  -1  12  -2   26.77    5.06
  -1  12  -2   22.48    4.81
   1 -12   2   21.47    4.54
  -1  12  -3  164.96   12.85
  -1  12  -3  143.23   11.77
   1 -12   3  139.50   11.51
  -1  12  -4    5.36    2.76
   1 -12   4    4.15    2.36
  -1  12  -4    2.47    2.40
   1 -12   5    2.20    1.56
  -1  12  -5    2.60    2.08
   1 -12   6   25.64    5.27
   1 -12   6   37.93    6.02
  -1  12  -6   32.43    6.09
   1 -12   7   21.96    4.93
   1 -12   7   29.98    6.30
  -1  12  -7   15.28    4.44
   1 -12   8   27.53    5.13
   1 -11  -4    6.62    3.97
  -1  11   4   -0.54    1.69
  -1  11   3   12.35    3.81
  -1  11   3   13.21    3.97
   1 -11  -3   15.01    4.38
  -1  11   2   -0.11    1.47
  -1  11   2   -0.97    1.69
   1 -11  -2    1.86    1.75
   1 -11  -1   18.72    4.32
  -1  11   1   26.65    4.99
   1 -11   0    5.11    2.73
  -1  11   0    1.29    1.80
   1 -11   1   19.96    4.70
  -1  11  -1   12.72    3.57
  -1  11  -2  155.23   11.71
   1 -11   2  152.80   11.43
  -1  11  -3   12.89    3.63
  -1  11  -3   12.72    3.63
   1 -11   3   16.21    4.05
   1 -11   4    4.23    2.50
  -1  11  -4   -0.06    1.88
  -1  11  -4    2.55    2.84
  -1  11  -5   20.72    4.14
   1 -11   5   16.55    4.10
  -1  11  -5   20.59    4.64
   1 -11   5   18.18    3.88
   1 -11   6    0.63    2.19
  -1  11  -6    0.47    1.78
   1 -11   6    4.61    2.52
   1 -11   7   -1.26    1.80
  -1  11  -7    1.73    2.34
   1 -11   8    4.04    2.37
  -1  11  -8    0.85    3.03
   1 -11   8   -0.62    1.35
   1 -11   9   -3.05    2.71
   1 -11   9   -1.40    2.12
  -1  11  -9    2.53    2.80
   1 -11  10   32.10    6.11
   1 -10  -6    1.08    2.07
  -1  10   6    7.56    3.33
   1 -10  -5    4.33    3.00
  -1  10   5    3.72    2.67
  -1  10   5    1.00    1.94
   1 -10  -4    0.29    1.86
  -1  10   4    1.77    1.81
   1 -10  -3   19.52    4.17
  -1  10   3   15.92    4.12
  -1  10   2  199.86   12.83
   1 -10  -2  216.96   13.92
   1 -10  -1   11.75    3.60
  -1  10   1    8.67    3.34
   1 -10   0   65.16    7.44
  -1  10   0   58.15    6.82
  -1  10  -1   39.56    5.72
   1 -10   1   41.34    5.53
  -1  10  -2  154.43   11.09
   1 -10   2  155.67   10.87
  -1  10  -3   97.23    8.93
   1 -10   3   95.07    8.50
  -1  10  -4  238.68   13.89
   1 -10   4  234.12   13.81
   1 -10   4  225.67   13.09
   1 -10   5   23.78    4.52
   1 -10   5   38.83    5.46
  -1  10  -5   31.29    5.33
  -1  10  -6    3.54    2.17
   1 -10   6    4.71    2.59
   1 -10   6    6.15    2.64
   1 -10   7    7.46    2.86
   1 -10   7    8.59    2.93
  -1  10  -7    9.48    3.31
   1 -10   8   -0.63    1.85
   1 -10   8    1.01    1.66
  -1  10  -8    3.51    2.70
  -1  10  -9   51.53    7.28
   1 -10   9   46.87    6.49
   1 -10   9   39.72    6.11
   1 -10  10    8.57    3.37
   1 -10  10    1.22    1.80
  -1  10 -10    3.97    2.37
   1 -10  11   42.17    6.98
  -1  10 -11   48.64    7.14
   1 -10  11   39.41    6.30
   1 -10  12   -0.32    1.97
  -1   9   8   53.74    7.75
  -1   9   7   17.30    4.65
   1  -9  -7   30.77    6.27
   1  -9  -7   29.89    5.73
   1  -9  -6   48.52    7.17
  -1   9   6   47.51    6.46
   1  -9  -6   36.32    6.06
  -1   9   5   -0.91    1.53
   1  -9  -5    1.82    2.43
   1  -9  -4   17.81    4.43
  -1   9   4   18.37    4.31
   1  -9  -3    1.04    1.53
  -1   9   3    1.32    1.84
   1  -9  -2  241.86   13.77
  -1   9   2  209.08   12.28
   1  -9  -1    1.73    1.58
  -1   9   1    4.06    2.31
   1  -9   0   44.54    5.74
  -1   9   0   45.56    5.73
  -1   9  -1  147.83   10.25
   1  -9   1  171.37   10.97
  -1   9  -2   -0.20    1.55
   1  -9   2    2.50    1.88
  -1   9  -3   31.55    4.85
   1  -9   3   31.30    4.85
   1  -9   4   -0.89    1.37
   1  -9   4    1.31    1.95
  -1   9  -4   -1.73    1.86
   1  -9   5   41.23    5.69
   1  -9   5   49.38    5.86
  -1   9  -5   50.04    6.20
  -1   9  -6  256.36   14.05
   1  -9   6  247.43   13.68
   1  -9   6  249.50   13.17
   1  -9   7  321.50   15.45
   1  -9   7  325.29   15.90
  -1   9  -7  332.19   16.21
  -1   9  -8    7.75    2.92
   1  -9   8   -0.33    1.65
   1  -9   8    5.24    2.13
  -1   9  -9   87.73    8.88
   1  -9   9   89.73    8.94
   1  -9   9   84.43    8.42
   1  -9  10  186.52   13.01
  -1   9 -10  198.03   13.59
   1  -9  10  178.28   12.65
   1  -9  11  259.28   15.80
   1  -9  11  280.25   16.31
  -1   9 -11  247.85   15.58
  -1   9 -12   11.26    3.71
   1  -9  12   11.02    3.95
   1  -9  12    7.67    3.05
  -1   9 -12   11.53    3.66
  -1   8   9    5.33    2.78
   1  -8  -9    2.52    2.48
   1  -8  -8    2.45    2.39
  -1   8   8    0.60    1.82
  -1   8   7  255.15   14.05
   1  -8  -7  290.43   16.52
  -1   8   6    1.77    1.54
   1  -8  -6    3.53    2.56
   1  -8  -6   -0.80    1.71
   1  -8  -5  454.89   19.41
   1  -8  -5  453.92   19.81
  -1   8   5  439.60   17.63
  -1   8   4   34.98    5.07
   1  -8  -4   33.11    5.18
   1  -8  -4   35.98    5.41
   1  -8  -3   63.23    6.94
  -1   8   3   55.56    6.12
   1  -8  -2  223.70   12.35
  -1   8   2  214.59   11.64
   1  -8  -1    4.75    2.59
  -1   8   1    3.89    2.18
   1  -8   0  169.97   10.41
  -1   8   0  177.84   10.46
   1  -8   1   14.07    3.17
  -1   8  -1   12.41    2.95
   1  -8   2   10.74    2.99
  -1   8  -2   11.59    2.91
  -1   8  -3   31.41    4.63
   1  -8   3   34.90    4.81
   1  -8   3   27.58    4.22
   1  -8   4   -1.29    7.63
   1  -8   4    2.35    1.78
  -1   8  -4    0.44    1.87
   1  -8   5   32.31    4.54
   1  -8   5   28.61    4.47
  -1   8  -5   36.62    5.06
   1  -8   6   15.32    3.32
   1  -8   6   16.23    3.53
  -1   8  -6   15.90    3.68
  -1   8  -7    2.17    1.96
   1  -8   7   -0.79    1.58
   1  -8   7    1.82    2.07
   1  -8   8   55.71    6.50
  -1   8  -8   44.35    5.77
   1  -8   8   47.89    5.95
  -1   8  -9  151.19   10.97
   1  -8   9  155.20   10.99
   1  -8   9  131.99   10.12
   1  -8  10   -1.28    1.84
  -1   8 -10    3.31    2.22
   1  -8  10   -0.20    1.77
   1  -8  11    4.64    2.59
  -1   8 -11    6.62    2.67
   1  -8  11    2.54    1.54
   1  -8  12   51.11    7.06
  -1   8 -12   57.86    7.78
  -1   8 -12   68.23    8.23
   1  -8  12   60.22    8.04
   1  -8  13    4.24    3.01
   1  -8  13    0.46    1.86
  -1   8 -13    2.19    3.19
  -1   8 -13    4.44    2.56
  -1   7  10    0.88    1.59
   1  -7 -10    6.23    3.19
   1  -7  -9   47.01    7.06
  -1   7   9   24.81    4.73
  -1   7   9   30.89    5.49
  -1   7   8   50.36    6.50
  -1   7   8   42.51    5.75
   1  -7  -8   54.93    7.07
  -1   7   7  264.52   13.73
   1  -7  -7  269.15   14.93
  -1   7   7  261.65   13.51
  -1   7   6   43.09    5.50
   1  -7  -6   49.70    6.33
  -1   7   6   48.87    5.55
   1  -7  -5   43.21    5.73
  -1   7   5   42.22    5.22
  -1   7   5   48.27    5.14
   1  -7  -4  271.01   13.77
  -1   7   4  264.71   12.59
   1  -7  -4  264.25   13.27
   1  -7  -3  200.57   11.13
  -1   7   3  204.80   10.87
   1  -7  -3  212.63   11.91
   1  -7  -2  259.83   12.39
  -1   7   2  255.48   11.87
  -1   7   1   10.94    2.68
   1  -7  -1    5.71    2.22
   1  -7   0  187.63   10.11
  -1   7   0  177.85    9.66
   1  -7   1    7.95    1.16
   1  -7   1   10.17    2.37
  -1   7  -1   10.93    2.54
   1  -7   2  887.36   21.53
   1  -7   2  987.03   10.98
  -1   7  -2  910.34   21.76
  -1   7  -3   38.34    4.64
   1  -7   3   31.88    4.14
   1  -7   3   39.25    2.28
   1  -7   3   34.59    4.33
  -1   7  -4  787.62   20.62
   1  -7   4  822.17   11.51
   1  -7   4  776.10   20.33
   1  -7   4  769.20   19.89
   1  -7   5   43.62    4.99
  -1   7  -5   41.52    5.11
   1  -7   5   40.06    4.80
   1  -7   5   47.11    3.15
   1  -7   6   26.98    2.70
   1  -7   6   28.70    4.19
   1  -7   6   26.43    4.07
  -1   7  -6   25.23    4.09
   1  -7   7  311.49   13.95
   1  -7   7  313.43   14.10
   1  -7   7  366.03   10.99
  -1   7  -7  336.71   14.62
   1  -7   8   69.09    6.89
  -1   7  -8   74.57    7.17
   1  -7   8   67.31    6.73
   1  -7   9    4.31    2.14
  -1   7  -9    4.27    2.22
   1  -7   9    4.05    2.16
   1  -7  10  125.36   10.22
   1  -7  10  130.02    9.94
  -1   7 -10  116.30    9.48
   1  -7  11   31.53    5.31
  -1   7 -11   28.59    5.29
  -1   7 -11   37.84    5.75
   1  -7  11   36.76    5.74
   1  -7  12   55.25    7.56
  -1   7 -12   46.43    6.63
  -1   7 -12   46.35    7.01
  -1   7 -13    5.06    3.53
   1  -7  13    5.52    3.38
  -1   7 -13    1.20    1.73
   1  -6 -11    0.52    1.97
  -1   6  11    2.07    1.94
   1  -6 -11   -1.48    1.85
  -1   6  10    0.52    1.29
   1  -6 -10    1.09    2.50
  -1   6   9    8.04    2.61
  -1   6   9    8.57    2.96
   1  -6  -9    8.98    3.32
  -1   6   8   94.71    8.12
   1  -6  -8   93.57    8.75
  -1   6   8   97.00    8.58
   1  -6  -7   21.22    4.25
  -1   6   7   12.53    3.08
  -1   6   7   11.74    3.06
  -1   6   6    0.66    1.36
  -1   6   6    0.73    1.14
   1  -6  -6   -0.08    1.42
   1  -6  -5  110.82    8.29
  -1   6   5  121.43    8.17
  -1   6   5  116.54    7.62
  -1   6   4  181.13    8.75
  -1   6   4  182.81    9.71
   1  -6  -4  174.47    9.96
   1  -6  -3   34.95    4.59
  -1   6   3   31.27    4.13
   1  -6  -3   22.36    3.47
  -1   6   3   28.25    3.24
   1  -6  -2  345.77   13.37
   1  -6  -2  339.29   12.88
  -1   6   2  332.07   12.63
   1  -6  -1    5.99    2.01
  -1   6   1   12.70    2.74
  -1   6   0  389.20   13.03
   1  -6   0  391.00   13.42
   1  -6   1 1510.13   12.87
   1  -6   1 1445.32   25.52
  -1   6  -1 1458.27   25.35
   1  -6   2   15.35    2.68
   1  -6   2   13.96    1.19
   1  -6   2   12.16    2.52
  -1   6  -2   14.59    2.71
   1  -6   2   14.93    1.16
   1  -6   3    3.13    0.73
   1  -6   3    3.14    1.71
  -1   6  -3    5.06    2.01
   1  -6   3    2.91    1.56
   1  -6   4    9.71    1.35
   1  -6   4    8.34    1.08
  -1   6  -4    9.43    2.43
   1  -6   4    9.10    2.17
   1  -6   4    9.68    2.21
   1  -6   5   10.99    2.43
   1  -6   5   12.06    2.67
  -1   6  -5   11.87    2.59
   1  -6   5   12.77    1.73
   1  -6   6  119.50    7.99
   1  -6   6  121.80    7.91
  -1   6  -6  114.21    7.77
   1  -6   6  123.35    5.87
  -1   6  -7   22.85    3.75
   1  -6   7   16.76    3.23
   1  -6   7   15.44    3.25
   1  -6   7   27.01    3.08
  -1   6  -8  167.21   10.05
   1  -6   8  174.13    8.42
   1  -6   8  158.50   10.01
   1  -6   8  158.75    9.74
   1  -6   9    7.13    2.86
  -1   6  -9    5.11    2.24
   1  -6   9    4.78    1.97
   1  -6  10    4.84    2.03
  -1   6 -10    4.60    2.25
  -1   6 -10    4.41    2.46
   1  -6  10    3.90    2.64
  -1   6 -11   30.00    4.93
   1  -6  11   20.61    4.21
  -1   6 -11   26.40    4.96
   1  -6  11   24.56    4.21
   1  -6  12    1.45    2.13
  -1   6 -12    5.37    2.67
  -1   6 -12    1.14    1.72
   1  -6  12    2.31    1.78
  -1   6 -13    5.03    2.25
   1  -6  13    9.05    3.57
  -1   6 -13    6.94    2.99
   1  -5 -12    1.53    1.84
   1  -5 -12    4.50    2.75
   1  -5 -11   25.32    5.25
   1  -5 -11   13.17    3.44
  -1   5  11   18.85    4.44
  -1   5  10   11.53    3.84
  -1   5  10    9.79    3.18
   1  -5 -10    7.14    2.60
   1  -5 -10   11.77    3.41
  -1   5   9   14.74    3.69
  -1   5   9   18.38    3.81
   1  -5  -9    9.42    3.16
  -1   5   8    1.54    1.69
  -1   5   8   -0.12    1.50
   1  -5  -8    0.13    1.39
   1  -5  -7   71.07    6.84
  -1   5   7   76.98    6.80
  -1   5   7   79.92    7.01
  -1   5   6   65.43    5.97
   1  -5  -6   76.84    6.79
  -1   5   6   73.28    6.34
   1  -5  -5  553.91   16.94
  -1   5   5  546.97   16.40
  -1   5   5  532.25   15.43
  -1   5   4    0.91    1.46
   1  -5  -4    4.30    1.86
  -1   5   4    0.12    0.96
  -1   5   3    1.57    1.04
  -1   5   3    1.08    1.01
   1  -5  -3    1.67    1.46
   1  -5  -2   21.36    3.11
  -1   5   2   14.54    2.63
   1  -5  -2   17.43    3.00
  -1   5   2   14.48    2.01
   1  -5  -1  207.49    9.21
  -1   5   1  199.31    8.80
   1  -5   0  547.43   14.44
  -1   5   0  517.79   13.79
   1  -5   1  227.89    4.03
   1  -5   1  224.42    3.86
  -1   5  -1  220.98    8.99
   1  -5   1  231.49    9.29
   1  -5   2   38.51    3.89
  -1   5  -2   40.33    3.92
   1  -5   2   34.41    5.65
   1  -5   2   42.01    1.58
  -1   5  -3   58.63    4.79
   1  -5   3   62.18    5.02
   1  -5   3   56.41    4.60
   1  -5   3   66.46    2.56
   1  -5   3   67.37    2.64
  -1   5  -3   61.78    2.49
   1  -5   4  177.23    8.53
  -1   5  -4  193.47    8.83
   1  -5   4  194.72    5.46
   1  -5   4  191.30    5.69
   1  -5   5    1.92    1.52
   1  -5   5    1.18    0.98
  -1   5  -5    0.39    1.42
   1  -5   6   73.78    5.76
   1  -5   6   74.54    6.10
  -1   5  -6   74.59    5.95
   1  -5   6   80.97    4.74
   1  -5   7   11.67    2.16
  -1   5  -7    8.32    2.21
   1  -5   7   11.74    2.95
   1  -5   8  134.29    9.10
  -1   5  -8  156.13    9.22
   1  -5   8  158.85    8.18
   1  -5   9  480.36   17.99
  -1   5  -9  460.90   16.55
  -1   5  -9  469.05   16.56
  -1   5  -9  458.56   17.86
   1  -5   9  472.92   15.34
  -1   5 -10    2.32    1.52
  -1   5 -10    1.06    1.32
   1  -5  10    1.53    1.40
   1  -5  10    4.59    2.18
  -1   5 -10    2.66    1.95
   1  -5  11   -1.47    1.52
  -1   5 -11    0.81    1.28
   1  -5  11    2.46    1.98
  -1   5 -11    0.31    1.98
  -1   5 -11   -1.42    2.06
   1  -5  12   53.75    7.22
  -1   5 -12   49.68    6.22
  -1   5 -12   56.38    7.24
   1  -5  12   55.15    6.63
  -1   5 -12   58.15    6.74
  -1   5 -13    3.09    2.04
  -1   5 -13   11.20    3.70
   1  -5  13    5.01    2.50
  -1   5 -14    1.90    1.98
   1  -5  14    0.63    1.76
   1  -4 -12   13.52    3.98
  -1   4  12   14.24    3.59
   1  -4 -12   10.72    3.78
  -1   4  11   -0.01    1.48
   1  -4 -11    3.05    2.05
   1  -4 -11   -0.58    1.93
   1  -4 -10   86.57    8.70
  -1   4  10   84.94    8.42
  -1   4  10   88.37    8.04
   1  -4 -10   93.92    8.65
   1  -4  -9  527.88   20.30
  -1   4   9  532.92   18.70
  -1   4   9  582.78   20.55
   1  -4  -9  574.62   20.17
  -1   4   8    3.75    1.66
  -1   4   8    7.05    2.68
   1  -4  -8    6.46    2.35
   1  -4  -7   39.62    4.99
  -1   4   7   41.99    4.95
  -1   4   7   36.80    4.55
   1  -4  -6   30.17    3.99
  -1   4   6   26.29    3.74
  -1   4   6   32.08    4.19
   1  -4  -5    2.90    1.42
  -1   4   5    6.03    1.90
  -1   4   5    4.23    1.85
  -1   4   4  668.73   15.03
  -1   4   4  663.10   16.44
   1  -4  -4  671.17   16.34
  -1   4   3   35.44    3.72
  -1   4   3   34.98    3.14
   1  -4  -3   37.53    3.68
  -1   4   2    2.09    0.94
   1  -4  -2    1.33    1.41
  -1   4   2    1.65    1.28
   1  -4  -2    4.24    1.46
  -1   4   1    3.12    0.92
  -1   4   1    2.77    1.39
   1  -4  -1    1.93    1.26
   1  -4   0 1072.12   18.80
  -1   4   0 1070.35   17.95
   1  -4   0 1121.06    9.44
  -1   4  -1  310.98    4.28
   1  -4   1  307.07    9.69
  -1   4  -1  289.62    9.19
  -1   4  -2 1219.66   19.03
   1  -4   2 1270.10   19.05
   1  -4   2 1238.23   19.76
   1  -4   3  237.38    8.31
  -1   4  -3  233.50    8.59
   1  -4   3  240.79    8.93
   1  -4   3  240.76    5.85
   1  -4   3  237.34    4.94
   1  -4   4 1077.01   18.36
   1  -4   4 1073.25   13.51
   1  -4   4 1092.17   19.88
  -1   4  -4 1084.49   18.70
   1  -4   5   71.02    5.38
  -1   4  -5   68.94    5.06
   1  -4   5   66.26    4.79
   1  -4   5   67.12    3.94
  -1   4  -6  443.56   13.18
   1  -4   6  451.21   14.36
   1  -4   6  447.10   11.49
   1  -4   7  966.63   22.50
  -1   4  -7  896.06   19.73
  -1   4  -7  946.42   20.45
   1  -4   7  915.85   18.35
   1  -4   8   65.15    6.29
   1  -4   8   61.65    5.32
  -1   4  -8   65.51    5.64
  -1   4  -8   69.80    6.53
  -1   4  -8   63.83    5.70
  -1   4  -9  160.60   10.37
  -1   4  -9  168.47    9.48
   1  -4   9  169.52   10.60
  -1   4  -9  165.08    9.58
   1  -4   9  164.52    9.35
   1  -4  10    6.77    2.81
  -1   4 -10    4.26    2.08
  -1   4 -10    2.24    1.57
   1  -4  10    3.99    1.91
  -1   4 -10    5.33    2.06
  -1   4 -11   16.97    3.66
  -1   4 -11   16.54    3.69
   1  -4  11   13.03    3.16
  -1   4 -11   14.62    3.81
   1  -4  11   18.56    4.09
  -1   4 -12   21.08    4.25
   1  -4  12   19.51    4.10
  -1   4 -12   20.89    4.85
   1  -4  13    9.05    2.88
  -1   4 -13   14.54    4.87
   1  -4  14    8.46    2.90
  -1   4 -14    9.51    4.01
   1  -3 -13   22.58    5.37
   1  -3 -13   20.98    4.91
  -1   3  12   20.42    4.97
   1  -3 -12   14.93    4.08
   1  -3 -12   10.60    3.45
   1  -3 -11   65.10    7.26
   1  -3 -11   70.64    7.93
  -1   3  11   64.80    7.65
  -1   3  10    6.52    3.00
   1  -3 -10    3.67    2.08
   1  -3 -10    0.98    2.02
   1  -3  -9   45.30    5.54
   1  -3  -9   44.94    5.80
  -1   3   9   47.27    5.98
   1  -3  -8   12.98    3.19
  -1   3   8   22.78    3.84
   1  -3  -8   22.95    3.73
  -1   3   7   62.01    5.81
   1  -3  -7   48.55    5.02
  -1   3   6  499.37   14.95
   1  -3  -6  487.82   14.51
   1  -3  -5    0.80    1.35
  -1   3   5    0.90    1.29
  -1   3   4   36.51    3.64
  -1   3   4   42.31    3.65
   1  -3  -4   32.11    3.32
  -1   3   3  520.36   12.99
   1  -3  -3  509.75   12.08
  -1   3   3  524.52   11.17
   1  -3  -2  117.99    5.42
  -1   3   2  112.15    4.51
  -1   3   2  123.79    3.98
  -1   3   2  122.49    5.92
  -1   3   1   69.40    4.31
  -1   3   1   75.07    3.42
  -1   3   1   70.64    2.92
   1  -3  -1   67.32    4.29
  -1   3   0 9885.03   47.99
  -1   3   0 9847.67   21.94
   1  -3   0 9729.65   21.31
   1  -3   0 9999.00   49.79
  -1   3  -1    5.19    1.34
  -1   3  -1    7.16    0.87
   1  -3   1    5.16    1.28
  -1   3  -1    5.94    1.53
   1  -3   2 6737.50   41.66
  -1   3  -2 6845.93   39.86
  -1   3  -2 7048.60   20.37
   1  -3   2 6897.66   28.57
   1  -3   2 7044.35   38.57
   1  -3   3  300.06    6.12
   1  -3   3  283.65    9.12
  -1   3  -3  287.92    8.37
   1  -3   3  305.03    8.28
   1  -3   3  304.20    7.20
  -1   3  -4  144.78    6.21
   1  -3   4  158.58    7.21
   1  -3   4  146.05    5.22
  -1   3  -5  486.89   12.11
   1  -3   5  503.15   13.96
  -1   3  -5  503.93   12.21
   1  -3   5  496.52   11.22
  -1   3  -6  354.34   10.92
  -1   3  -6  338.06   10.77
  -1   3  -6  361.40   12.61
   1  -3   6  337.10   12.22
   1  -3   6  340.35   10.46
  -1   3  -7    6.90    1.94
   1  -3   7    9.57    2.45
   1  -3   7    9.65    2.18
  -1   3  -7    5.05    1.71
  -1   3  -7    6.94    2.23
  -1   3  -8   96.76    7.56
  -1   3  -8   96.64    6.54
   1  -3   8  104.30    7.86
   1  -3   8   98.15    6.77
  -1   3  -8   96.77    6.56
  -1   3  -9  150.30    9.95
   1  -3   9  157.80   10.12
  -1   3  -9  145.32    8.50
  -1   3  -9  167.06    9.30
   1  -3   9  166.37    9.62
  -1   3 -10    8.89    2.47
  -1   3 -10   19.50    3.58
   1  -3  10   13.12    3.55
  -1   3 -10    9.16    3.02
   1  -3  10   11.33    2.90
   1  -3  11  401.18   16.91
  -1   3 -11  419.37   18.44
  -1   3 -11  407.06   16.20
  -1   3 -12  139.75   11.31
  -1   3 -12  150.03   10.44
   1  -3  12  124.69   10.09
   1  -3  13   -0.05    1.84
  -1   3 -13   -2.40    2.75
   1  -3  14    0.30    1.56
  -1   3 -14    1.16    1.73
   1  -2 -13   62.89    7.80
  -1   2  13   74.38    8.90
   1  -2 -13   67.29    8.50
  -1   2  12    1.44    2.14
   1  -2 -12    0.30    1.87
   1  -2 -12    4.37    3.02
   1  -2 -11    7.04    2.84
   1  -2 -11    3.76    2.01
  -1   2  11   10.95    3.51
  -1   2  10    3.07    1.59
   1  -2 -10   -0.99    1.85
   1  -2 -10   -0.18    1.15
   1  -2  -9  147.84   10.15
   1  -2  -9  146.44    9.28
  -1   2   9  155.96   10.16
  -1   2   8    1.14    1.16
   1  -2  -8   -0.59    1.11
   1  -2  -8    1.87    2.10
  -1   2   7    0.90    1.42
   1  -2  -7    1.91    1.33
   1  -2  -7    0.05    1.40
   1  -2  -6 1358.57   22.52
  -1   2   6 1318.93   23.62
   1  -2  -5   18.06    2.44
  -1   2   5   23.92    3.06
   1  -2  -4  200.75    7.19
  -1   2   4  191.54    3.88
  -1   2   4  198.02    7.51
  -1   2   3   50.11    2.18
   1  -2  -3   51.95    3.33
  -1   2   3   57.57    3.60
  -1   2   2 1737.27   13.77
   1  -2  -2 1705.20   17.12
  -1   2   2 1701.74   16.35
  -1   2   2 1682.79   19.99
   1  -2  -1 8104.99   40.03
  -1   2   1 7962.95   39.76
   1  -2  -1 7973.48   27.69
  -1   2   1 8035.73   32.05
   1  -2   0  468.30    4.66
  -1   2   0  431.34    8.08
  -1   2   0  445.27    8.85
  -1   2   0  456.73    4.61
   1  -2   0  453.43    9.23
   1  -2   1 1891.24   19.00
  -1   2  -1 1885.86   17.88
   1  -2   2  628.49    9.55
   1  -2   2  623.78    7.70
  -1   2  -2  615.12   10.08
   1  -2   2  612.59    9.44
   1  -2   2  602.90   11.38
  -1   2  -2  637.03    7.80
  -1   2  -3 4824.48   32.88
  -1   2  -3 4673.50   29.00
   1  -2   3 4722.10   34.59
   1  -2   3 4706.72   27.04
   1  -2   4 1271.31   16.63
   1  -2   4 1249.07   19.56
  -1   2  -4 1240.04   16.09
  -1   2  -4 1262.66   16.30
  -1   2  -5    0.44    1.20
   1  -2   5    2.37    1.42
   1  -2   5    2.66    1.28
  -1   2  -5    0.45    0.82
  -1   2  -5    1.89    1.03
   1  -2   6  150.96    8.04
  -1   2  -6  147.18    8.02
  -1   2  -6  159.73    4.12
  -1   2  -6  161.15    7.02
  -1   2  -6  154.19    6.77
   1  -2   6  161.35    7.52
  -1   2  -7    7.30    2.43
  -1   2  -7    4.26    1.45
   1  -2   7    3.88    1.61
   1  -2   7    4.33    2.07
  -1   2  -7    5.13    1.32
   1  -2   8  170.39    9.96
  -1   2  -8  166.02    9.81
  -1   2  -8  157.19    7.85
  -1   2  -8  160.86    8.34
   1  -2   8  159.58    8.95
  -1   2  -9  287.60   13.77
  -1   2  -9  282.88   11.83
   1  -2   9  258.20   12.19
   1  -2  10   29.10    4.51
  -1   2 -10   30.14    4.32
  -1   2 -10   32.52    5.15
  -1   2 -11  125.48   10.25
   1  -2  11  128.44    9.83
  -1   2 -11  139.53    9.39
   1  -2  12    1.07    1.98
  -1   2 -12    0.23    1.56
   1  -2  13   12.29    3.68
  -1   2 -13   14.50    3.93
   1  -2  14    4.10    3.20
  -1   2 -14    0.07    2.42
   1  -1 -14    3.43    2.57
   1  -1 -13    2.88    1.83
   1  -1 -13    1.00    1.72
  -1   1  13    2.72    2.01
  -1   1  12  130.78   10.84
   1  -1 -12  134.96   11.20
   1  -1 -12  118.11    9.77
  -1   1  11   23.36    4.66
   1  -1 -11   28.93    5.36
   1  -1 -11   30.60    4.63
  -1   1  10   35.22    5.12
   1  -1 -10   44.63    5.82
   1  -1 -10   39.61    5.06
   1  -1  -9  127.30    8.34
  -1   1   9  141.59    9.50
   1  -1  -9  123.40    9.14
   1  -1  -8   -0.20    1.10
  -1   1   8    4.26    1.91
   1  -1  -8    3.22    1.83
   1  -1  -7  494.87   15.74
  -1   1   7  491.68   15.31
   1  -1  -7  469.80   13.61
   1  -1  -6 1727.74   27.49
  -1   1   6 1823.82   10.39
   1  -1  -6 1780.72   24.02
  -1   1   6 1755.42   26.56
   1  -1  -5   78.23    5.51
   1  -1  -5   74.39    4.48
  -1   1   5   81.27    2.66
  -1   1   5   73.50    4.97
   1  -1  -4   44.87    3.09
  -1   1   4   51.75    2.34
  -1   1   4   44.34    3.52
  -1   1   3    5.75    1.36
   1  -1  -3    3.09    0.88
  -1   1   2  688.78   10.30
  -1   1   2  758.33    8.93
   1  -1  -2  712.46    8.55
  -1   1   1 2165.32   13.04
  -1   1   1 2008.90   14.37
   1  -1  -1 2045.84   16.60
   1  -1  -1 2043.45   16.12
   1  -1   0  255.49    5.67
  -1   1   0  242.64    4.36
   1  -1   0  243.12    4.40
  -1   1   0  234.97    5.35
  -1   1  -1 3564.50   19.08
   1  -1   1 3606.95   22.68
   1  -1   1 3672.90   19.52
   1  -1   1 3646.49   22.26
   1  -1   2   20.97    1.40
   1  -1   2   23.67    2.10
  -1   1  -2   24.13    2.30
   1  -1   2   26.20    1.70
   1  -1   2   24.13    2.03
  -1   1  -2   20.71    2.03
  -1   1  -2   25.56    1.67
   1  -1   2   24.82    1.55
   1  -1   2   21.52    2.10
   1  -1   2   23.14    1.90
  -1   1  -3 4990.38   30.92
  -1   1  -3 4837.03   24.32
   1  -1   3 4833.95   34.20
  -1   1  -3 4880.22   24.66
  -1   1  -3 4785.59   34.13
   1  -1   3 4745.47   27.93
   1  -1   3 4888.65   30.52
  -1   1  -4  857.69   11.77
  -1   1  -4  866.79   16.14
   1  -1   4  880.45   14.87
  -1   1  -4  867.99   13.76
  -1   1  -4  867.39   12.33
   1  -1   4  854.22   12.16
   1  -1   4  884.48   16.33
  -1   1  -5  214.36    7.28
   1  -1   5  215.26    8.88
  -1   1  -5  201.82    6.47
  -1   1  -5  212.48    7.08
   1  -1   5  215.58    8.21
   1  -1   5  211.96    6.10
  -1   1  -5  215.42    8.96
   1  -1   6  124.51    7.42
  -1   1  -6  108.86    5.33
  -1   1  -6  123.74    5.98
   1  -1   6  122.15    6.86
  -1   1  -6  111.06    7.00
   1  -1   7   60.56    5.44
  -1   1  -7   58.85    5.55
  -1   1  -7   61.57    4.77
  -1   1  -8  409.24   15.58
  -1   1  -8  435.48   13.52
   1  -1   8  412.91   14.86
  -1   1  -9    1.47    2.08
   1  -1   9   -1.06    1.40
  -1   1  -9    0.94    1.13
  -1   1 -10  210.16   12.50
   1  -1  10  209.27   12.27
  -1   1 -10  225.23   11.21
  -1   1 -11   62.34    7.26
  -1   1 -11   65.85    6.46
   1  -1  11   66.10    7.30
   1  -1  12  183.91   12.83
  -1   1 -12  175.53   12.75
   1  -1  13   58.33    7.74
  -1   1 -13   41.90    6.56
   1   0 -14   30.25    5.99
   1   0 -13    9.38    3.16
   1   0 -13    6.30    2.76
  -1   0  13   14.71    4.64
   1   0 -12   50.54    6.86
   1   0 -12   50.88    6.27
  -1   0  12   56.18    7.15
   1   0 -11  109.28    8.58
  -1   0  11  111.19    9.31
   1   0 -11  113.34    9.72
   1   0 -10   -0.23    1.34
  -1   0  10    0.50    1.79
   1   0 -10    1.51    1.59
  -1   0   9  301.24   13.54
   1   0  -9  293.03   12.09
   1   0  -9  284.21   13.51
  -1   0   8    9.09    2.75
   1   0  -8   16.19    3.42
   1   0  -8   18.20    2.95
   1   0  -7    2.17    1.23
  -1   0   7    2.58    1.52
   1   0  -7    1.43    1.27
   1   0  -6  634.99   13.55
  -1   0   6  610.38   15.57
   1   0  -6  639.47   16.34
   1   0  -5   93.82    4.66
  -1   0   5   87.91    5.33
  -1   0   4  507.90    6.85
  -1   0   4  453.01   10.94
   1   0  -4  469.81    8.79
   1   0  -4  483.81    6.60
  -1   0   3    0.66    0.50
  -1   0   3    1.35    0.67
   1   0  -3    0.90    0.54
  -1   0   3    0.90    1.12
   1   0  -3    2.14    0.66
   1   0  -2  146.19    4.12
   1   0  -2  139.67    4.94
  -1   0   2  147.69    4.85
   1   0  -1 1746.92   14.72
   1   0  -1 1759.03   14.15
   1   0  -1 1761.87   11.16
  -1   0   1 1720.25   14.82
   1   0   0   13.94    0.96
  -1   0   0   12.97    1.01
   1   0   0   11.57    1.01
  -1   0   0   13.16    1.05
   1   0   0   11.44    0.94
  -1   0   0   10.03    1.17
   1   0   1 4061.17   24.22
  -1   0  -1 4043.56   23.19
   1   0   1 4039.56   21.99
   1   0   2 1018.32   12.44
  -1   0  -2 1004.36   12.56
   1   0   2 1007.60   13.23
  -1   0  -2  986.62   13.73
   1   0   3 2312.16   19.40
  -1   0  -3 2424.11   15.92
  -1   0  -3 2324.72   24.20
   1   0   3 2277.73   23.13
   1   0   3 2322.09   23.33
   1   0   3 2381.95   13.47
  -1   0  -3 2318.18   13.36
  -1   0  -3 2337.24   19.95
   1   0   4  675.27   14.32
  -1   0  -4  677.91   14.67
   1   0   4  717.61   14.39
   1   0   4  699.49   11.00
  -1   0  -4  703.07   11.62
  -1   0  -4  691.47   10.61
   1   0   5  149.84    5.23
  -1   0  -5  164.94    8.01
  -1   0  -5  151.93    5.72
  -1   0  -5  148.66    5.81
   1   0   5  145.22    7.13
   1   0   6   20.01    3.18
  -1   0  -6   20.01    2.23
  -1   0  -6   20.04    3.22
  -1   0  -6   23.08    2.63
   1   0   6   18.58    1.91
  -1   0  -7  229.76    8.99
  -1   0  -7  233.39   11.03
   1   0   7  224.74   10.51
   1   0   7  239.36    6.66
  -1   0  -8  180.60   10.49
  -1   0  -8  192.74    9.02
   1   0   8  177.33   10.00
   1   0   9    0.03    1.52
  -1   0  -9    1.94    1.54
  -1   0  -9    0.64    1.06
   1   0  10  377.23   16.74
  -1   0 -10  394.22   17.31
  -1   0 -10  404.31   15.02
   1   0  11    4.52    2.56
  -1   0 -11   -1.67    1.59
   1   0  12    2.65    2.23
  -1   0 -12    4.60    2.48
   1   0  13    2.24    2.48
  -1   0 -13   -0.75    2.02
   1   1 -14  163.18   13.33
  -1  -1  14  180.13   13.86
   1   1 -13  136.37   10.43
   1   1 -13  142.67   11.86
  -1  -1  13  145.13   11.73
   1   1 -12   99.27    8.64
   1   1 -12  100.97    9.56
  -1  -1  12  112.78    9.96
  -1  -1  11   37.93    5.42
   1   1 -11   40.13    5.93
   1   1 -11   34.75    4.75
   1   1 -10  133.27    9.82
   1   1 -10  145.13    9.04
  -1  -1  10  144.03    9.97
   1   1  -9   74.33    6.00
   1   1  -9   82.64    7.32
  -1  -1   9   72.81    6.59
   1   1  -8   42.54    4.25
  -1  -1   8   48.42    5.14
   1   1  -8   41.55    4.98
   1   1  -7 1204.99   20.18
  -1  -1   7 1187.54   23.41
   1   1  -7 1200.57   24.30
   1   1  -6  688.04    7.65
  -1  -1   6  707.20   16.36
   1   1  -6  688.67   13.76
   1   1  -5   26.72    1.71
  -1  -1   5   27.39    3.27
   1   1  -5   24.02    2.29
   1   1  -4 1459.31   13.28
   1   1  -4 1431.64   14.91
  -1  -1   4 1414.29   19.34
   1   1  -3 1241.39   10.97
   1   1  -3 1215.72   12.73
  -1  -1   3 1211.18   16.05
  -1  -1   2 1630.10   16.94
   1   1  -2 1617.86   17.18
   1   1  -2 1644.22   17.31
   1   1  -2 1667.19   15.38
  -1  -1   1  256.88    4.05
   1   1  -1  251.01    5.74
  -1  -1   1  259.24    6.49
   1   1  -1  272.89    4.11
   1   1  -1  268.89    5.78
  -1  -1   0  206.52    4.12
  -1  -1   0  196.62    4.58
   1   1   0  203.98    4.73
   1   1   0  200.97    3.99
  -1  -1   0  194.58    3.46
   1   1   0  204.72    4.10
  -1  -1   0  204.22    4.07
   1   1   1 1022.48   13.20
  -1  -1  -1 1023.41   12.86
   1   1   2 1648.30   17.15
  -1  -1  -2 1628.23   18.79
   1   1   2 1606.64   18.38
  -1  -1  -3 3514.68   31.12
   1   1   3 3358.08   14.03
   1   1   3 3425.13   25.50
   1   1   3 3418.22   28.32
   1   1   3 3377.26   14.23
   1   1   3 3422.68   31.15
  -1  -1  -4  135.80    4.98
   1   1   4  134.81    5.23
  -1  -1  -4  131.94    4.93
  -1  -1  -4  127.94    6.70
   1   1   4  138.72    6.93
   1   1   4  137.00    3.84
   1   1   4  132.50    5.82
  -1  -1  -5  943.47   15.03
   1   1   5  939.28   13.89
  -1  -1  -5  914.79   13.32
   1   1   5  918.13   16.03
  -1  -1  -5  917.31   19.35
   1   1   5  925.43   19.15
   1   1   6  218.91    6.82
   1   1   6  216.14   10.13
  -1  -1  -6  196.76    9.75
  -1  -1  -6  238.27    7.00
   1   1   6  226.28    8.25
  -1  -1  -6  231.24    8.36
  -1  -1  -7  153.06    9.25
   1   1   7  156.18    9.22
   1   1   7  175.20    7.55
  -1  -1  -7  155.52    7.66
   1   1   7  180.64    6.23
   1   1   8   68.01    4.95
   1   1   8   59.04    6.13
  -1  -1  -8   65.16    6.54
  -1  -1  -8   55.26    4.96
  -1  -1  -9  297.50   14.61
  -1  -1  -9  304.38   12.40
   1   1   9  305.28   14.67
  -1  -1 -10   49.14    6.55
   1   1  10   64.71    7.19
  -1  -1 -11    1.31    2.39
   1   1  11   -0.13    1.54
   1   1  12    1.08    2.71
  -1  -1 -12   -0.86    2.08
  -1  -1 -13    4.74    2.49
  -1  -2  14    6.47    3.07
   1   2 -14    4.64    1.90
  -1  -2  13   13.29    3.49
   1   2 -13   20.70    4.23
   1   2 -13   21.63    4.75
   1   2 -12  349.50   15.61
   1   2 -12  326.46   17.09
  -1  -2  12  356.67   17.31
   1   2 -11   15.20    3.82
  -1  -2  11   17.47    4.09
   1   2 -11   17.81    3.33
   1   2 -10   49.47    5.30
  -1  -2  10   42.34    5.42
   1   2 -10   46.22    5.97
  -1  -2   9  178.78   10.37
   1   2  -9  191.89   11.06
   1   2  -9  181.10    9.27
   1   2  -8   37.04    4.72
  -1  -2   8   43.07    4.89
   1   2  -8   40.01    4.10
   1   2  -7    1.40    0.58
  -1  -2   7    2.01    1.48
   1   2  -7    2.33    1.30
   1   2  -7    0.96    1.03
  -1  -2   6    0.38    0.94
   1   2  -6    0.54    0.94
   1   2  -6   -0.30    0.51
   1   2  -6   -0.91    0.92
   1   2  -5 1763.61   19.93
   1   2  -5 1789.19   25.27
  -1  -2   5 1809.53   24.33
   1   2  -4 9446.04   53.06
  -1  -2   4 9449.09   50.88
   1   2  -3   40.34    3.26
  -1  -2   3   36.23    2.03
   1   2  -3   30.80    2.89
  -1  -2   3   35.56    3.02
   1   2  -3   37.05    2.10
   1   2  -2  327.29    8.12
   1   2  -2  308.25    7.93
   1   2  -2  327.78    4.33
  -1  -2   2  314.27    4.25
  -1  -2   2  308.51    8.11
   1   2  -1  398.58    7.89
   1   2  -1  409.90    9.23
   1   2  -1  408.47    8.30
  -1  -2   1  398.28    8.92
  -1  -2   1  396.90    7.33
   1   2   0  157.54    6.10
   1   2   0  159.08    4.34
  -1  -2   0  163.20    5.21
  -1  -2   0  155.22    4.59
   1   2   1  231.63    7.61
   1   2   1  224.21    6.86
  -1  -2  -1  226.09    7.00
   1   2   1  232.16    4.47
  -1  -2  -1  253.86    4.71
  -1  -2  -2 3167.67   29.21
   1   2   2 3230.27   15.82
   1   2   2 3222.53   29.26
   1   2   2 3235.21   28.51
   1   2   3  826.93   13.96
   1   2   3  818.40   15.48
   1   2   3  847.44    8.76
  -1  -2  -3  824.08   16.43
   1   2   3  845.62   16.06
   1   2   4   16.84    2.70
   1   2   4    9.95    1.75
   1   2   4    9.33    1.18
  -1  -2  -4   11.10    2.23
   1   2   4   12.22    2.16
   1   2   5  255.89    8.01
  -1  -2  -5  254.88   10.81
   1   2   5  257.42    9.39
   1   2   5  252.76    6.42
   1   2   5  253.44   10.62
  -1  -2  -5  265.23    6.92
   1   2   6  705.32   13.32
  -1  -2  -6  678.21   15.09
  -1  -2  -6  701.83   19.15
   1   2   6  675.02   15.85
  -1  -2  -6  715.46   11.45
   1   2   6  716.48   12.26
   1   2   6  689.61   18.83
  -1  -2  -7   25.45    3.32
   1   2   7   21.51    2.95
  -1  -2  -7   23.34    4.07
   1   2   7   26.15    2.67
   1   2   7   22.69    3.82
  -1  -2  -8  610.80   16.69
  -1  -2  -8  596.76   20.08
   1   2   8  622.47   16.38
   1   2   8  609.23   20.23
  -1  -2  -9    2.85    1.85
  -1  -2  -9   -0.91    1.57
   1   2   9    2.44    2.10
  -1  -2 -10    9.74    3.73
   1   2  10    5.61    2.89
   1   2  11   11.60    3.60
  -1  -2 -11    7.57    2.83
  -1  -2 -12   83.56    9.44
   1   2  12   77.97    9.22
  -1  -3  14    3.65    3.22
   1   3 -14   -0.07    1.94
  -1  -3  13   36.02    5.96
   1   3 -13   33.16    5.97
   1   3 -13   41.83    5.71
   1   3 -12  122.72    9.29
  -1  -3  12  122.97   10.13
   1   3 -12  121.57   10.40
  -1  -3  11  225.37   12.98
   1   3 -11  222.27   13.53
   1   3 -11  224.19   11.94
  -1  -3  10   18.59    3.77
   1   3 -10    9.42    2.44
   1   3 -10   18.97    3.97
   1   3  -9  255.62   11.03
   1   3  -9  233.08   12.36
  -1  -3   9  234.53   11.77
   1   3  -8   31.83    2.49
   1   3  -8   24.74    3.81
  -1  -3   8   36.07    4.47
   1   3  -8   31.21    4.41
   1   3  -8   33.62    3.88
  -1  -3   7   -0.41    1.09
   1   3  -7    1.83    1.34
   1   3  -7    0.20    1.05
   1   3  -7    1.19    1.32
  -1  -3   6    1.54    1.27
  -1  -3   6    0.93    0.96
   1   3  -6   -0.76    1.09
   1   3  -5  100.80    6.28
  -1  -3   5  109.88    5.08
  -1  -3   5  112.47    6.18
  -1  -3   4   -1.06    1.05
   1   3  -4    0.65    1.25
   1   3  -4    1.68    1.12
  -1  -3   4   -0.03    0.55
  -1  -3   3 3730.72   21.84
   1   3  -3 3741.53   32.88
   1   3  -3 3788.60   32.51
  -1  -3   3 3742.45   31.05
  -1  -3   2 1982.75   22.03
   1   3  -2 1968.59   21.76
   1   3  -2 1992.48   22.33
   1   3  -2 1966.72   22.13
  -1  -3   2 2021.48   13.88
  -1  -3   1  676.50   11.96
  -1  -3   1  674.89   12.12
  -1  -3   1  693.31   12.83
   1   3  -1  687.39   11.75
  -1  -3   1  668.56    8.74
   1   3  -1  687.13   13.49
  -1  -3   0   42.24    3.26
   1   3   0   44.11    2.75
   1   3   0   46.44    3.67
  -1  -3   0   46.59    3.13
  -1  -3  -1 2177.92   24.51
   1   3   1 2191.30   26.21
   1   3   1 2197.27   18.01
   1   3   1 2157.74   22.84
   1   3   2  642.59    9.49
   1   3   2  622.59   14.45
  -1  -3  -2  616.80   14.27
   1   3   2  623.22   13.30
   1   3   3   67.19    3.24
  -1  -3  -3   72.66    5.39
   1   3   3   70.43    5.11
   1   3   3   67.46    4.82
   1   3   4  102.13    4.14
  -1  -3  -4   97.09    6.59
   1   3   4  100.21    6.35
   1   3   5  369.51   10.74
   1   3   5  357.73   12.33
  -1  -3  -5  395.46    8.43
  -1  -3  -5  360.40   13.47
   1   3   5  378.97    8.66
   1   3   5  363.34   13.51
   1   3   6   47.48    3.95
   1   3   6   40.81    3.13
  -1  -3  -6   38.70    4.91
   1   3   6   43.21    4.45
   1   3   6   46.94    5.28
   1   3   7   -0.72    1.03
   1   3   7    3.97    2.25
  -1  -3  -7    1.73    1.86
  -1  -3  -7   -0.26    1.21
   1   3   7    2.05    1.16
  -1  -3  -8  342.82   13.09
   1   3   8  361.90   13.75
   1   3   8  340.78   15.74
  -1  -3  -8  315.96   15.36
  -1  -3  -9   54.42    6.92
   1   3   9   57.45    7.06
   1   3  10   28.67    5.12
  -1  -3 -10   41.03    6.34
  -1  -3 -11   10.38    3.57
   1   3  11   23.07    4.89
  -1  -3 -12    2.34    2.58
  -1  -4  14   13.74    4.01
   1   4 -14   10.32    3.53
   1   4 -13   17.57    4.26
  -1  -4  13   14.74    3.89
   1   4 -12  116.78   10.27
   1   4 -12  130.87    9.70
  -1  -4  12  105.96    9.32
  -1  -4  11   44.78    5.88
   1   4 -11   33.31    5.49
   1   4 -11   39.15    5.05
   1   4 -10  233.45   11.43
   1   4 -10  245.46   13.33
   1   4 -10  248.00   13.71
  -1  -4  10  237.41   12.55
   1   4  -9  418.02   14.46
  -1  -4   9  400.51   15.29
   1   4  -9  404.40   16.21
   1   4  -9  402.07   16.46
   1   4  -8  536.61   15.33
   1   4  -8  530.86   17.91
   1   4  -8  562.08   18.10
  -1  -4   8  570.81   17.21
  -1  -4   7   76.80    5.28
  -1  -4   7   72.53    5.87
   1   4  -7   66.33    6.00
   1   4  -7   70.64    6.18
  -1  -4   6   11.01    2.33
   1   4  -6   12.89    2.67
  -1  -4   6   14.87    2.24
   1   4  -6   15.11    2.96
  -1  -4   5    0.37    0.87
  -1  -4   5    0.61    0.94
   1   4  -5    3.08    1.92
   1   4  -4  326.52   11.00
  -1  -4   4  317.95    9.99
  -1  -4   4  332.29    8.08
   1   4  -3  711.17   14.60
   1   4  -3  724.51   15.41
  -1  -4   3  732.69   11.00
  -1  -4   3  711.85   14.52
  -1  -4   2   44.60    2.71
   1   4  -2   46.70    3.74
   1   4  -2   44.33    3.84
  -1  -4   2   51.04    4.05
  -1  -4   2   43.70    3.56
  -1  -4   1 1727.32   22.21
  -1  -4   1 1658.78   17.52
   1   4  -1 1707.02   20.91
  -1  -4   1 1670.77   21.74
  -1  -4   1 1713.75   22.15
   1   4  -1 1722.18   23.93
   1   4   0   44.74    4.02
  -1  -4   0   42.84    3.09
  -1  -4   0   37.07    3.22
   1   4   0   42.20    3.11
  -1  -4   0   43.64    3.76
   1   4   1  560.61   12.23
   1   4   1  552.43   10.99
  -1  -4  -1  571.00   14.18
   1   4   1  545.88   14.58
   1   4   2    6.74    1.59
   1   4   2    6.44    2.01
   1   4   2    7.32    1.47
  -1  -4  -2   10.06    2.28
  -1  -4  -3  251.27   10.67
   1   4   3  251.17    7.26
   1   4   3  246.28   10.47
   1   4   4   61.03    3.71
  -1  -4  -4   50.52    5.22
   1   4   4   56.95    5.28
  -1  -4  -5  382.51   14.77
   1   4   5  397.51    9.80
   1   4   5  394.44   13.95
   1   4   5  393.87   14.26
   1   4   6   10.90    2.26
   1   4   6   13.41    2.89
   1   4   6   11.84    2.77
  -1  -4  -6   12.83    3.17
  -1  -4  -7  235.00   13.06
   1   4   7  229.18   11.53
   1   4   8  541.11   18.23
  -1  -4  -8  550.90   20.93
   1   4   8  543.29   20.69
  -1  -4  -9  229.61   14.26
   1   4   9  246.65   14.80
   1   4   9  233.55   12.40
  -1  -4 -10    5.97    3.05
   1   4  10    7.65    3.22
   1   4  11    4.03    2.59
   1   4  11    3.75    2.53
  -1  -4 -11    5.10    3.33
  -1  -5  14    0.02    2.50
   1   5 -14    1.75    2.44
  -1  -5  13   11.58    3.63
   1   5 -13   13.72    3.99
  -1  -5  12   45.30    6.22
   1   5 -12   45.69    6.72
   1   5 -12   46.38    5.96
   1   5 -11    7.39    2.84
  -1  -5  11   10.43    3.30
   1   5 -11    5.38    2.76
   1   5 -11    3.35    2.07
  -1  -5  10  235.73   12.54
   1   5 -10  226.97   13.17
   1   5 -10  214.73   12.98
   1   5 -10  222.51   11.44
   1   5  -9  344.05   15.49
  -1  -5   9  334.67   14.18
  -1  -5   9  344.11   13.10
   1   5  -9  334.92   15.41
   1   5  -9  342.51   13.55
  -1  -5   8    2.02    1.34
   1   5  -8    6.07    2.43
  -1  -5   8    6.74    1.93
   1   5  -8   10.14    3.11
  -1  -5   7   10.13    2.41
   1   5  -7    8.53    2.40
   1   5  -7   10.13    2.57
  -1  -5   7   11.89    2.42
   1   5  -6  272.50   12.14
  -1  -5   6  269.65   10.66
   1   5  -6  277.14   11.89
  -1  -5   6  296.35    9.76
  -1  -5   5  267.79    8.49
   1   5  -5  260.32   10.96
   1   5  -5  233.47   10.73
  -1  -5   5  255.74    9.86
  -1  -5   4   10.51    2.09
   1   5  -4   10.87    2.44
   1   5  -4   10.54    1.98
  -1  -5   4   11.19    1.75
  -1  -5   3   42.37    3.10
   1   5  -3   39.37    3.85
  -1  -5   3   44.57    4.29
   1   5  -3   47.48    4.28
  -1  -5   3   46.04    4.08
  -1  -5   2  252.15    7.57
   1   5  -2  265.00   10.04
  -1  -5   2  239.11    8.98
  -1  -5   2  244.74    9.58
   1   5  -2  252.24    9.30
  -1  -5   1    5.87    1.71
   1   5  -1    8.77    2.15
   1   5  -1    5.55    1.58
  -1  -5   1    7.65    1.48
  -1  -5   1    7.67    1.89
  -1  -5   0    8.05    1.68
   1   5   0    2.45    1.05
  -1  -5   0    4.48    1.77
  -1  -5   0    6.08    1.68
   1   5   0    6.15    1.56
   1   5   1  589.86   16.58
   1   5   1  594.56   12.93
  -1  -5  -1  581.47   15.75
   1   5   1  568.92   12.84
   1   5   2    0.60    0.89
   1   5   2    0.32    1.14
   1   5   2    0.24    0.86
  -1  -5  -2    2.19    1.86
   1   5   3  851.12   21.26
  -1  -5  -3  829.56   20.80
   1   5   3  886.73   15.73
   1   5   4    1.66    2.03
   1   5   4    2.35    1.62
   1   5   4    1.40    0.77
  -1  -5  -4    5.77    2.32
   1   5   5    2.56    1.81
   1   5   5    0.49    1.14
  -1  -5  -5    0.49    1.71
  -1  -5  -6   42.70    5.65
   1   5   6   46.28    5.34
   1   5   6   48.45    5.70
   1   5   7  123.64    9.18
  -1  -5  -7  110.89    9.52
   1   5   7  138.28    9.79
   1   5   8  172.11   11.12
  -1  -5  -8  165.77   12.13
   1   5   8  161.39   11.16
   1   5   9    2.78    1.95
   1   5   9    0.46    1.78
  -1  -5  -9   -0.95    1.64
   1   5  10   27.28    5.32
  -1  -5 -10   23.17    5.48
   1   5  11   28.60    5.74
  -1  -6  14    0.14    1.83
   1   6 -13    0.50    2.01
  -1  -6  13   -1.90    2.09
  -1  -6  12   15.82    3.76
   1   6 -12   27.34    5.36
   1   6 -12   13.70    3.53
   1   6 -12   18.70    4.40
  -1  -6  11    9.73    3.20
   1   6 -11    6.64    3.12
   1   6 -11    6.67    2.62
   1   6 -11    7.30    2.53
  -1  -6  10  308.39   13.40
   1   6 -10  287.92   15.18
  -1  -6  10  266.37   13.37
   1   6 -10  294.95   15.60
   1   6 -10  281.00   13.41
  -1  -6   9    9.71    2.45
   1   6  -9    9.52    2.87
  -1  -6   9   14.93    2.86
   1   6  -9   10.85    3.00
   1   6  -8  500.32   18.69
  -1  -6   8  532.25   15.51
   1   6  -8  497.17   18.37
  -1  -6   8  492.97   16.50
  -1  -6   7  259.39   10.18
   1   6  -7  221.42   11.76
   1   6  -7  240.22   12.53
  -1  -6   7  234.47   10.79
  -1  -6   6  263.53    9.60
   1   6  -6  239.25   11.69
  -1  -6   6  230.54   10.18
  -1  -6   5    1.64    1.21
  -1  -6   5    0.36    0.71
   1   6  -5    0.10    1.26
   1   6  -5    1.41    0.95
  -1  -6   4  283.99    8.98
   1   6  -4  276.69   10.63
  -1  -6   4  252.80   11.13
  -1  -6   4  265.93   10.14
   1   6  -4  271.45   11.37
  -1  -6   3   87.30    6.42
   1   6  -3   90.84    6.36
  -1  -6   3   86.40    5.74
   1   6  -3   88.94    6.32
  -1  -6   3   91.75    5.04
  -1  -6   2  402.12   10.73
   1   6  -2  354.79   12.27
   1   6  -2  383.31   13.38
  -1  -6   2  383.33   12.12
  -1  -6   2  371.89   12.96
  -1  -6   1  128.03    6.43
  -1  -6   1  130.28    7.59
   1   6  -1  125.31    6.99
  -1  -6   1  121.60    6.83
   1   6  -1  126.97    7.97
  -1  -6   0 1624.97   23.81
   1   6   0 1592.64   28.82
   1   6   0 1636.73   24.24
  -1  -6   0 1597.70   27.86
  -1  -6   0 1540.39   25.11
   1   6   1    4.46    1.73
   1   6   1    4.21    1.48
  -1  -6  -1    5.60    1.84
  -1  -6  -1    7.03    1.73
  -1  -6  -2  205.19   10.77
   1   6   2  213.04    8.63
   1   6   2  193.02   10.67
   1   6   3    5.63    1.71
   1   6   3   11.28    2.31
   1   6   3   10.04    2.68
  -1  -6  -3    9.41    2.43
   1   6   4   24.07    3.41
   1   6   4   31.22    4.75
  -1  -6  -4   26.30    4.49
   1   6   5   22.46    3.88
  -1  -6  -5   19.40    4.03
   1   6   5   25.83    4.34
   1   6   6   -0.89    1.15
   1   6   6   -0.01    1.20
  -1  -6  -6    1.85    1.82
  -1  -6  -7  103.22    9.60
   1   6   7   90.96    8.15
   1   6   7   87.55    8.41
  -1  -6  -8   16.61    4.59
   1   6   8   14.29    3.57
   1   6   8   10.87    3.17
   1   6   9   64.33    7.58
  -1  -6  -9   83.45    9.38
   1   6   9   57.71    7.34
   1   6  10   30.77    5.32
  -1  -7  14    1.65    1.76
   1   7 -13   14.88    4.38
  -1  -7  13   12.88    3.82
   1   7 -13   11.30    3.95
   1   7 -12   77.82    9.02
   1   7 -12   80.38    9.06
  -1  -7  12   76.80    8.09
   1   7 -11   22.08    4.77
  -1  -7  11   29.59    4.99
   1   7 -11   33.57    5.20
   1   7 -11   28.79    5.19
   1   7 -10  230.66   14.14
   1   7 -10  241.43   14.74
  -1  -7  10  242.89   12.90
   1   7  -9   94.17    8.85
  -1  -7   9   71.61    6.78
   1   7  -8   97.68    8.51
  -1  -7   8   97.37    6.82
  -1  -7   8  100.32    7.64
   1   7  -7   13.37    3.14
  -1  -7   7   14.56    3.02
  -1  -7   7   18.11    3.00
  -1  -7   6  384.13   12.19
   1   7  -6  415.52   13.36
   1   7  -6  365.85   15.12
  -1  -7   6  366.55   15.32
  -1  -7   6  375.05   13.36
  -1  -7   5  686.65   15.66
   1   7  -5  684.97   17.80
   1   7  -5  643.09   19.47
  -1  -7   5  637.78   19.53
  -1  -7   5  629.08   16.78
   1   7  -4  289.45   12.54
  -1  -7   4  286.03   11.13
  -1  -7   4  290.28   12.86
   1   7  -4  300.28   12.13
  -1  -7   4  317.42   10.43
  -1  -7   3    2.22    1.01
   1   7  -3    3.79    1.84
  -1  -7   3    4.18    1.48
   1   7  -3    5.55    2.32
  -1  -7   3    2.85    1.13
  -1  -7   2  129.26    8.28
   1   7  -2  121.05    8.10
  -1  -7   2  127.61    6.81
   1   7  -2  123.77    7.79
  -1  -7   2  107.87    6.90
  -1  -7   1    5.06    1.79
   1   7  -1   10.61    2.49
  -1  -7   1    9.33    2.05
  -1  -7   1    9.24    2.52
   1   7  -1   11.64    2.81
   1   7   0    2.29    1.74
   1   7   0    0.16    0.90
  -1  -7   0    2.46    1.39
  -1  -7   0    0.56    1.21
   1   7   1  171.94   10.58
  -1  -7  -1  183.66    9.42
   1   7   1  182.79    8.89
  -1  -7  -1  189.73   10.85
  -1  -7  -2    1.93    1.45
   1   7   2    7.67    2.72
   1   7   2    4.01    1.56
  -1  -7  -2    2.24    2.02
  -1  -7  -3  125.70    9.53
   1   7   3  127.26    7.62
   1   7   3  128.10    7.35
   1   7   3  109.80    9.00
   1   7   4  111.97    9.33
  -1  -7  -4  105.14    8.92
   1   7   4  102.81    7.33
   1   7   5    5.97    2.09
   1   7   5    2.51    1.70
  -1  -7  -5   11.13    3.26
   1   7   6   16.69    3.56
   1   7   6   18.90    4.22
  -1  -7  -6   20.17    4.46
   1   7   7   20.59    4.52
   1   7   7   25.24    4.53
  -1  -7  -7   18.43    4.46
   1   7   8   32.74    5.80
   1   7   8   36.18    5.63
  -1  -7  -8   36.18    6.51
   1   7   9  142.69   11.96
  -1  -8  13    3.00    2.08
   1   8 -12  169.92   13.39
  -1  -8  12  200.97   13.10
  -1  -8  11   21.81    4.34
   1   8 -11   19.26    4.47
  -1  -8  10    9.33    3.03
   1   8 -10   13.44    3.50
  -1  -8   9    8.88    2.58
   1   8  -9   10.59    3.26
  -1  -8   8   76.40    7.88
   1   8  -8   73.70    7.78
  -1  -8   8   82.37    7.06
  -1  -8   7  228.05   13.17
   1   8  -7  231.97   13.09
  -1  -8   7  242.26   11.57
  -1  -8   6    8.94    2.29
   1   8  -6   10.10    2.40
  -1  -8   6   11.37    3.32
   1   8  -6   10.40    2.84
  -1  -8   5  212.86   12.01
   1   8  -5  230.60   11.22
   1   8  -5  217.41   11.92
  -1  -8   5  217.59   10.32
   1   8  -4   37.94    4.83
   1   8  -4   27.83    4.35
  -1  -8   4   27.99    4.24
  -1  -8   4   35.68    3.81
  -1  -8   4   30.87    3.99
   1   8  -3  354.51   14.63
  -1  -8   3  366.01   12.32
  -1  -8   3  348.85   14.79
   1   8  -3  334.31   13.96
  -1  -8   3  337.35   12.63
  -1  -8   2    1.61    1.50
   1   8  -2    1.76    1.56
  -1  -8   2   -0.71    1.12
  -1  -8   2    0.85    1.42
   1   8  -2    0.32    1.31
  -1  -8   1  275.20   11.34
   1   8  -1  266.70   11.93
   1   8  -1  261.89   13.31
  -1  -8   1  256.35   11.40
  -1  -8   0  122.52    7.94
   1   8   0  115.41    9.21
   1   8   0  122.11    7.99
  -1  -8   0  111.09    7.72
  -1  -8  -1  216.15   10.90
  -1  -8  -1  197.47   11.86
   1   8   1  198.44   12.28
   1   8   1  199.83   10.03
   1   8   2    2.77    1.80
  -1  -8  -2    4.70    2.14
   1   8   2   -0.50    1.10
  -1  -8  -2    2.65    2.13
  -1  -8  -3  116.04    8.93
  -1  -8  -3  104.72    9.23
   1   8   3  127.68   10.33
   1   8   4   53.03    6.92
  -1  -8  -4   52.35    6.82
  -1  -8  -5   71.94    8.19
   1   8   5   74.91    8.38
  -1  -8  -6    2.41    2.07
   1   8   6    8.37    3.16
   1   8   7   39.17    6.35
  -1  -8  -7   46.12    7.06
   1   8   8   13.79    3.85
  -1  -9  11  113.14   10.91
   1   9 -11  118.63   11.22
  -1  -9  10    8.27    3.47
   1   9 -10   13.74    3.80
  -1  -9   9   -0.53    1.56
   1   9  -9   -0.07    2.18
  -1  -9   9   -1.27    1.74
  -1  -9   8  135.97   11.07
   1   9  -8  132.45   10.73
  -1  -9   8  132.44    9.13
  -1  -9   7    7.54    2.53
  -1  -9   7    9.14    2.98
   1   9  -7    8.15    3.22
   1   9  -6   97.53    7.83
   1   9  -6   83.20    8.11
  -1  -9   6   98.44    7.47
  -1  -9   6   85.10    8.43
   1   9  -5   98.30    7.99
  -1  -9   5  105.78    9.11
   1   9  -5   99.25    8.65
  -1  -9   5  107.73    7.62
  -1  -9   4   31.68    4.12
   1   9  -4   30.18    4.58
  -1  -9   4   31.76    4.99
   1   9  -4   30.07    4.74
  -1  -9   3    8.47    2.32
   1   9  -3   11.82    3.21
  -1  -9   3   12.06    3.22
   1   9  -3    8.07    2.60
  -1  -9   2    4.88    1.94
   1   9  -2    4.02    1.80
  -1  -9   2    9.42    3.08
   1   9  -2    5.95    2.35
  -1  -9   1    3.53    1.81
   1   9  -1    3.57    2.35
   1   9  -1    7.20    2.51
  -1  -9   0    4.12    2.15
   1   9   0    1.14    1.54
  -1  -9   0    0.90    1.67
   1   9   0    1.67    1.67
   1   9   1   23.41    4.65
  -1  -9  -1   25.70    4.27
   1   9   1   14.55    3.20
  -1  -9  -1   20.87    3.67
  -1  -9  -2  229.34   12.58
  -1  -9  -2  176.45   12.53
   1   9   2  189.18   13.11
  -1  -9  -3   68.02    7.28
  -1  -9  -3   74.72    8.36
   1   9   3   76.47    8.61
  -1  -9  -4   16.82    4.38
   1   9   4    7.01    2.99
  -1  -9  -4   19.32    4.79
  -1  -9  -5    5.22    2.63
   1   9   5    6.57    2.86
  -1  -9  -5    1.34    2.86
   1   9   6   15.89    4.26
  -1 -10  10    2.08    2.48
   1  10 -10    9.96    4.02
  -1 -10   9   37.63    6.41
   1  10  -9   33.28    5.95
  -1 -10   8  193.94   13.74
   1  10  -8  204.83   13.99
  -1 -10   7   -1.32    2.18
   1  10  -7    2.70    1.81
  -1 -10   6   21.66    4.90
   1  10  -6   19.43    4.22
   1  10  -6   21.14    3.90
   1  10  -5   27.53    4.70
  -1 -10   5   23.32    4.71
   1  10  -5   17.21    4.28
   1  10  -4   44.95    5.92
  -1 -10   4   37.61    5.74
   1  10  -4   45.44    6.14
   1  10  -3  224.53   13.56
  -1 -10   3  226.64   13.77
   1  10  -3  225.15   13.05
   1  10  -2  163.33   11.87
   1  10  -2  171.56   11.20
   1  10  -1   28.99    5.18
   1  10  -1   23.74    4.24
  -1 -10   0   22.97    4.07
   1  10   0   18.89    4.67
   1  10   0   17.36    3.63
   1  10   1  279.54   16.45
  -1 -10  -1  267.87   13.68
   1  10   2    3.32    2.87
  -1 -10  -2    4.55    2.42
   1  10   3   29.08    5.84
  -1 -10  -3   27.01    5.58
   1  10   4    1.85    1.96
  -1 -10  -4    7.62    3.44
   1  11  -8    7.70    3.30
  -1 -11   8    6.04    2.66
  -1 -11   7    6.38    3.13
   1  11  -7    6.82    3.24
  -1 -11   6    5.84    2.24
   1  11  -6    4.77    2.76
   1  11  -5   34.18    5.51
  -1 -11   5   60.81    7.68
   1  11  -5   46.61    6.81
  -1 -11   4   59.62    7.61
   1  11  -4   65.41    7.88
   1  11  -4   76.45    8.39
   1  11  -3    8.88    3.39
   1  11  -3   -2.63    1.99
   1  11  -2  145.66   11.95
   1  11  -2  121.92   10.07
   1  11  -1    7.90    3.35
   1  11  -1    1.90    1.89
   1  11   0   46.96    7.11
   1  11   1   11.20    3.91
   1  12  -6    4.25    2.08
  -1 -12   5    0.30    1.48
   1  12  -5   -1.63    1.75
   1  12  -4   42.13    6.70
   1  12  -4   41.87    6.53
   1  12  -3  115.66   11.15
   1  12  -3   90.81    9.35
   1  12  -2    6.76    3.24
  -2  12   2    2.10    2.52
   2 -12  -1    8.74    3.17
  -2  12   1    1.46    2.67
   2 -12   0   36.16    6.53
  -2  12   0   24.41    5.25
   2 -12   1    3.58    2.98
  -2  12  -1    2.87    2.03
   2 -12   2    7.74    3.51
  -2  12  -2    8.01    3.35
   2 -12   3    0.04    2.01
  -2  12  -3    6.56    3.37
   2 -12   4   26.32    5.41
  -2  12  -4   38.64    6.63
  -2  12  -5   44.76    7.10
   2 -12   5   52.25    7.39
   2 -12   6   10.53    3.44
  -2  12  -6   10.39    3.76
   2 -12   7   78.34    9.16
   2 -12   8    7.62    3.74
  -2  11   5   79.25    9.30
  -2  11   4    6.19    2.87
  -2  11   3   17.12    4.43
   2 -11  -3   21.25    5.06
   2 -11  -2    7.63    3.50
  -2  11   2    3.47    2.50
   2 -11  -1    7.91    3.49
  -2  11   1    5.51    2.99
   2 -11   0   -1.06    1.76
  -2  11   0   -1.84    2.11
  -2  11  -1   64.80    8.03
   2 -11   1   58.17    7.54
   2 -11   2    3.01    2.08
  -2  11  -2    6.35    3.28
   2 -11   3   49.84    7.07
  -2  11  -3   54.32    7.29
   2 -11   4  143.43   11.58
  -2  11  -4  135.81   11.43
   2 -11   5   40.41    6.34
  -2  11  -5   33.26    5.96
  -2  11  -6   44.56    6.78
   2 -11   6   37.96    6.17
   2 -11   7    1.46    2.23
   2 -11   7    4.26    3.02
  -2  11  -7   -0.97    1.95
   2 -11   8    3.15    2.37
   2 -11   8   10.69    3.91
  -2  11  -8    0.64    1.38
   2 -11   9  103.82   10.67
  -2  11  -9  113.48   11.01
   2 -11   9  122.40   11.27
   2 -11  10  114.89   11.11
  -2  10   6   15.39    4.35
  -2  10   5    5.82    2.50
   2 -10  -5   20.30    5.27
  -2  10   4   52.05    7.08
   2 -10  -4   57.34    7.75
   2 -10  -3    3.85    2.41
  -2  10   3    0.44    1.78
   2 -10  -2   77.30    8.69
  -2  10   2   82.54    8.67
   2 -10  -1  199.29   13.56
  -2  10   1  188.96   12.82
   2 -10   0   47.35    6.60
  -2  10   0   37.77    5.80
   2 -10   1    2.08    2.04
  -2  10  -1    1.83    2.52
   2 -10   2  145.17   11.12
  -2  10  -2  131.00   10.61
  -2  10  -3    2.07    1.57
   2 -10   3   -0.68    2.07
   2 -10   4  132.23   10.52
  -2  10  -4  133.22   10.77
  -2  10  -5   33.66    5.51
   2 -10   5   43.16    6.32
   2 -10   6    3.18    2.74
   2 -10   6    3.45    1.84
  -2  10  -6    3.03    2.05
  -2  10  -7   23.97    4.99
   2 -10   7   26.16    5.26
   2 -10   7   28.56    5.59
   2 -10   8   60.93    7.80
   2 -10   8   56.83    7.22
  -2  10  -8   54.55    7.23
   2 -10   9   10.91    3.71
   2 -10   9    6.01    2.79
  -2  10  -9   10.69    3.23
   2 -10  10   28.66    5.88
   2 -10  10   25.89    5.21
  -2  10 -10   20.89    4.42
   2 -10  11    4.28    2.98
  -2  10 -11    1.29    2.06
  -2   9   8  108.63   10.73
   2  -9  -8  106.05   10.68
   2  -9  -7   13.28    4.06
  -2   9   7   16.28    4.10
   2  -9  -6   62.22    8.26
  -2   9   6   50.69    6.90
   2  -9  -5    9.38    4.14
  -2   9   5   -1.37    1.81
   2  -9  -4    4.58    2.46
  -2   9   4    2.80    2.17
  -2   9   3  125.74   10.28
   2  -9  -3  145.93   11.40
   2  -9  -2   30.66    5.29
  -2   9   2   21.36    4.39
   2  -9  -1    5.84    3.13
  -2   9   1    1.27    1.64
   2  -9   0   95.15    8.70
  -2   9   0   86.26    8.15
   2  -9   1   21.01    4.28
  -2   9  -1   19.12    4.11
  -2   9  -2    7.13    2.97
   2  -9   2    9.26    3.03
   2  -9   3  118.79    9.50
  -2   9  -3  117.96    9.55
  -2   9  -4    0.29    1.91
   2  -9   4   -0.70    2.02
   2  -9   5  212.02   12.95
   2  -9   5  204.17   12.34
  -2   9  -5  202.50   12.58
   2  -9   6   16.25    3.96
   2  -9   6   25.38    4.66
  -2   9  -6   30.38    5.05
   2  -9   7    9.32    3.74
   2  -9   7    4.59    2.08
  -2   9  -7    6.04    2.14
   2  -9   8  145.26   11.52
  -2   9  -8  141.91   11.02
   2  -9   8  137.17   10.62
  -2   9  -9   11.55    3.48
   2  -9   9   14.91    3.63
   2  -9   9   16.92    4.61
   2  -9  10   40.21    6.73
   2  -9  10   45.95    6.49
  -2   9 -10   41.39    6.47
   2  -9  11   24.43    4.92
   2  -9  11   29.53    6.08
  -2   9 -11   24.16    4.91
  -2   9 -12   11.09    3.60
   2  -8  -9    8.95    3.46
  -2   8   9    3.28    2.34
   2  -8  -8    5.31    3.87
  -2   8   8    2.99    1.63
   2  -8  -8    4.48    2.15
   2  -8  -7   40.78    6.66
  -2   8   7   35.33    5.62
   2  -8  -7   41.91    6.17
   2  -8  -6   22.60    4.96
  -2   8   6   24.22    4.83
   2  -8  -6   25.66    4.84
   2  -8  -5    8.37    3.48
  -2   8   5    4.37    2.44
   2  -8  -4   12.90    3.87
  -2   8   4    9.22    2.92
   2  -8  -3  122.61    9.83
  -2   8   3  112.91    9.26
   2  -8  -2   89.00    8.32
  -2   8   2   75.29    7.48
   2  -8  -1  420.80   17.45
  -2   8   1  428.29   17.20
   2  -8   0  468.25   18.00
  -2   8   0  467.82   17.74
   2  -8   1   76.85    7.39
  -2   8  -1   76.47    7.19
   2  -8   2   58.64    6.35
  -2   8  -2   66.48    6.81
   2  -8   3  106.18    8.56
  -2   8  -3  104.96    8.37
   2  -8   4   83.96    7.64
  -2   8  -4   84.79    7.55
   2  -8   5   19.26    3.92
   2  -8   5   20.82    3.89
  -2   8  -5   22.95    4.14
   2  -8   6  196.10   12.17
  -2   8  -6  210.43   12.04
   2  -8   6  201.57   11.50
  -2   8  -7    4.45    1.90
   2  -8   7    3.87    2.17
   2  -8   7    3.71    2.12
   2  -8   8   42.90    6.07
  -2   8  -8   40.83    5.64
   2  -8   8   32.88    4.97
   2  -8   9    0.54    1.16
  -2   8  -9    1.18    2.06
   2  -8   9    1.83    1.92
   2  -8  10    2.98    2.93
   2  -8  10    0.34    1.19
  -2   8 -10   -0.98    2.28
  -2   8 -11   13.67    3.86
   2  -8  11   26.00    5.47
   2  -8  11   19.38    4.42
  -2   8 -11   17.27    4.71
   2  -8  12    2.69    2.25
  -2   8 -12    2.71    3.18
  -2   8 -12    1.49    1.88
  -2   7  10    4.36    2.86
   2  -7 -10    4.96    2.67
  -2   7   9   54.69    7.21
   2  -7  -9   63.38    7.79
   2  -7  -8   59.27    7.21
  -2   7   8   44.21    6.40
   2  -7  -7   46.98    6.81
  -2   7   7   40.75    5.85
   2  -7  -7   32.09    4.98
  -2   7   7   44.00    5.44
  -2   7   6   19.82    3.53
   2  -7  -6   12.54    3.79
  -2   7   6   12.49    3.31
   2  -7  -6    8.98    3.13
   2  -7  -5  115.69    9.64
   2  -7  -5  109.48    8.62
  -2   7   5  108.49    8.93
   2  -7  -4   17.06    3.70
  -2   7   4   18.80    3.95
   2  -7  -3   50.35    6.05
  -2   7   3   51.37    5.89
   2  -7  -2  208.30   11.72
  -2   7   2  192.68   10.92
   2  -7  -1    1.93    1.67
  -2   7   1    3.17    1.67
   2  -7   0    6.13    2.46
  -2   7   0    5.39    1.87
   2  -7   1    0.72    1.52
  -2   7  -1   -0.42    1.41
  -2   7  -2 1054.52   24.30
   2  -7   2 1048.61   24.67
   2  -7   3    2.19    1.55
  -2   7  -3    6.36    2.44
   2  -7   4   96.08    7.78
  -2   7  -4   99.61    7.69
   2  -7   4   97.09    7.31
   2  -7   5   17.05    3.14
  -2   7  -5   20.31    3.62
   2  -7   5   10.72    3.10
   2  -7   6   43.48    5.56
   2  -7   6   41.61    4.94
  -2   7  -6   52.05    5.72
   2  -7   7  164.48   11.00
   2  -7   7  169.41   10.09
  -2   7  -7  174.64   10.59
   2  -7   8   -0.81    1.15
   2  -7   8    8.45    3.42
  -2   7  -8    4.79    2.18
   2  -7   9    2.98    2.33
   2  -7   9    4.03    1.90
  -2   7  -9   -0.30    2.01
  -2   7 -10   21.42    4.49
  -2   7 -10   19.51    4.21
   2  -7  10   19.33    4.00
   2  -7  10   18.38    4.53
   2  -7  11  103.51   10.26
  -2   7 -11  114.32   10.93
   2  -7  11  101.96    8.93
  -2   7 -11   95.01    8.83
  -2   7 -12   12.98    4.47
   2  -7  12    2.76    2.54
  -2   6  11   54.50    7.33
  -2   6  11   55.58    7.41
   2  -6 -10   44.33    7.31
  -2   6  10   44.10    6.50
   2  -6 -10   40.01    6.13
  -2   6  10   44.73    6.76
  -2   6   9   25.87    4.94
  -2   6   9   24.97    4.67
   2  -6  -9   22.39    4.49
  -2   6   8    4.88    2.36
  -2   6   8    2.73    1.92
   2  -6  -8    3.24    2.07
  -2   6   7    5.80    2.28
  -2   6   7    4.39    2.00
   2  -6  -7    7.72    2.50
   2  -6  -6   38.89    5.78
  -2   6   6   35.96    5.18
   2  -6  -6   41.53    5.16
  -2   6   6   42.75    4.93
   2  -6  -5   70.30    7.16
  -2   6   5   86.91    7.65
   2  -6  -5   75.61    6.67
  -2   6   5   84.46    6.22
   2  -6  -4   51.12    5.83
  -2   6   4   62.94    6.23
  -2   6   4   62.91    4.91
  -2   6   3    1.60    0.96
  -2   6   3    3.46    2.04
   2  -6  -3    6.92    2.57
  -2   6   2  326.34   13.34
   2  -6  -2  349.67   14.02
  -2   6   2  347.10    8.71
  -2   6   1   24.14    1.91
  -2   6   1   21.89    3.60
   2  -6  -1   19.52    3.44
   2  -6   0  695.77   19.11
  -2   6   0  669.63   18.53
   2  -6   1  281.40   12.12
  -2   6  -1  293.28   12.05
   2  -6   2  804.99   20.47
  -2   6  -2  837.23   20.09
   2  -6   3   22.32    3.42
  -2   6  -3   25.41    3.71
   2  -6   4  164.51    9.49
   2  -6   4  155.98    8.44
  -2   6  -4  148.43    8.64
   2  -6   5  284.14   13.06
  -2   6  -5  310.83   12.54
   2  -6   5  310.82    9.48
   2  -6   5  302.25   11.94
  -2   6  -6  132.92    8.43
   2  -6   6  133.27    9.21
   2  -6   6  137.44    8.18
   2  -6   6  141.14    7.10
   2  -6   7  185.92   11.27
   2  -6   7  179.20    9.67
  -2   6  -7  185.72   10.16
   2  -6   7  208.02    9.31
   2  -6   8   -0.18    1.16
   2  -6   8    1.64    1.68
   2  -6   8   -0.18    1.83
  -2   6  -8   -0.35    1.16
   2  -6   9    0.99    1.22
   2  -6   9   -3.68    2.84
  -2   6  -9    0.13    2.32
   2  -6   9    2.31    1.59
  -2   6  -9   -1.22    1.70
   2  -6  10   86.11    8.90
  -2   6 -10   81.96    8.74
   2  -6  10   89.04    7.60
  -2   6 -10   84.93    7.55
   2  -6  10   92.09    7.79
   2  -6  11  136.90   11.64
  -2   6 -11  159.98   10.80
  -2   6 -11  140.06   11.67
   2  -6  11  145.77   10.42
   2  -6  12   24.56    5.39
  -2   6 -12   29.09    5.56
   2  -6  12   39.21    5.91
   2  -6  13   64.36    7.96
  -2   5  11   36.98    6.06
   2  -5 -11   32.78    6.13
  -2   5  11   32.48    5.73
  -2   5  10    4.03    2.64
   2  -5 -10    0.65    2.22
  -2   5  10   -0.95    1.65
   2  -5 -10    4.13    2.50
  -2   5   9    2.79    1.61
  -2   5   9    5.78    2.56
   2  -5  -9    9.06    2.89
  -2   5   8  131.54   10.10
   2  -5  -8  134.92    9.40
  -2   5   8  140.31    9.71
  -2   5   7    4.13    2.02
  -2   5   7    2.07    1.64
   2  -5  -7    1.17    1.39
  -2   5   6  316.76   14.32
   2  -5  -6  314.48   12.91
  -2   5   6  299.64   12.21
  -2   5   5    9.17    2.18
  -2   5   5    8.46    2.53
   2  -5  -5    7.84    2.21
   2  -5  -4  166.84    9.83
  -2   5   4  172.29    9.72
   2  -5  -4  172.82    8.80
  -2   5   4  177.82    7.88
   2  -5  -3  353.44   13.68
  -2   5   3  342.98   13.22
  -2   5   3  385.93   10.02
  -2   5   3  371.62   10.26
   2  -5  -2  166.03    9.10
  -2   5   2  182.32    9.27
  -2   5   2  182.42    7.31
  -2   5   2  179.02    6.12
   2  -5  -1  365.66   13.11
  -2   5   1  361.13   12.73
  -2   5   1  356.21   10.68
  -2   5   1  361.00    7.08
   2  -5   0  314.84   12.03
  -2   5   0  306.04   11.40
  -2   5   0  308.41   10.31
  -2   5  -1  717.24   16.27
   2  -5   1  728.48   17.98
  -2   5  -1  719.62   17.37
  -2   5  -2   12.92    2.41
  -2   5  -2   17.67    2.96
   2  -5   2   15.37    2.94
   2  -5   3 1196.38   23.66
  -2   5  -3 1180.07   22.02
   2  -5   4  230.86   10.75
  -2   5  -4  228.87    9.83
   2  -5   4  234.53    8.00
   2  -5   5   73.87    3.99
   2  -5   5   67.96    6.14
  -2   5  -5   61.18    5.14
   2  -5   5   57.14    4.33
   2  -5   6  122.77    8.61
  -2   5  -6  130.20    7.70
   2  -5   6  126.18    7.01
   2  -5   6  129.07    6.12
   2  -5   7   -1.17    1.28
   2  -5   7    1.67    1.40
   2  -5   7    0.44    1.39
   2  -5   7   -1.54    1.23
  -2   5  -7    1.24    1.47
   2  -5   8   57.08    6.38
  -2   5  -8   49.98    5.94
  -2   5  -8   58.99    5.63
   2  -5   8   54.37    5.15
   2  -5   8   56.07    5.51
   2  -5   8   51.19    4.72
   2  -5   9    2.62    1.44
   2  -5   9    2.35    2.28
  -2   5  -9    0.65    1.69
   2  -5   9    4.02    1.81
  -2   5  -9    3.84    1.79
   2  -5   9    5.83    2.10
   2  -5  10  441.15   19.48
   2  -5  10  452.31   16.08
  -2   5 -10  447.25   16.48
  -2   5 -10  415.28   19.04
   2  -5  10  403.67   16.72
   2  -5  10  430.73   15.95
   2  -5  11   10.96    2.86
   2  -5  11    7.35    2.94
   2  -5  11   12.76    3.85
  -2   5 -11   14.02    4.12
   2  -5  12    6.29    3.09
   2  -5  12    4.65    2.25
  -2   5 -12    2.18    2.28
   2  -5  13    2.44    2.79
  -2   5 -13   -5.35    3.03
   2  -4 -12   70.88    9.16
  -2   4  12   55.35    7.69
  -2   4  12   50.33    7.40
  -2   4  11   14.26    3.67
   2  -4 -11   10.67    3.44
  -2   4  11   12.92    4.02
   2  -4 -10   84.71    9.10
  -2   4  10   82.09    8.51
   2  -4 -10   75.02    7.28
  -2   4  10   81.16    8.18
  -2   4   9   37.39    5.33
  -2   4   9   32.01    5.33
   2  -4  -9   33.87    5.66
   2  -4  -9   34.68    4.85
  -2   4   8  180.54   11.36
   2  -4  -8  199.37   10.57
  -2   4   8  199.36   11.29
  -2   4   7   75.62    7.25
   2  -4  -7   85.65    6.67
  -2   4   7   74.11    6.50
  -2   4   6  139.20    9.13
   2  -4  -6  140.86    7.96
  -2   4   6  152.29    8.51
  -2   4   5  130.02    8.45
  -2   4   5  147.84    5.26
   2  -4  -5  134.18    7.32
  -2   4   5  137.96    7.43
  -2   4   4  333.55    8.44
   2  -4  -4  318.70   12.49
  -2   4   4  316.26   12.51
   2  -4  -4  316.74   10.74
  -2   4   4  319.95   10.37
   2  -4  -3  580.47   16.17
  -2   4   3  598.22   11.99
  -2   4   3  595.71   16.34
  -2   4   3  600.51   12.58
  -2   4   2 1351.49   23.79
   2  -4  -2 1332.91   23.51
  -2   4   2 1338.77   18.93
  -2   4   2 1378.41   16.49
   2  -4  -1  215.29    9.21
  -2   4   1  211.94    7.85
  -2   4   1  229.97    9.38
  -2   4   1  227.55    5.61
   2  -4   0  927.76   18.78
  -2   4   0  934.28   18.39
  -2   4   0  936.22   16.98
   2  -4   0  950.55    8.80
  -2   4   0  924.12    8.80
  -2   4  -1  198.71    8.34
  -2   4  -1  197.07    8.13
   2  -4   1  187.26    8.40
  -2   4  -2  442.74   12.66
  -2   4  -2  439.61    5.62
   2  -4   2  468.44   13.47
  -2   4  -2  461.47   12.49
  -2   4  -2  450.50    5.76
   2  -4   3    1.06    1.21
   2  -4   3    0.49    0.91
   2  -4   3    0.74    1.00
  -2   4  -3    0.01    0.99
   2  -4   4   42.51    4.51
  -2   4  -4   44.82    3.96
   2  -4   4   40.71    3.65
  -2   4  -4   43.08    4.41
   2  -4   4   46.10    3.79
   2  -4   5   35.81    4.41
   2  -4   5   41.82    3.73
  -2   4  -5   44.24    4.09
   2  -4   5   43.49    3.99
   2  -4   5   46.75    3.52
   2  -4   6   82.32    6.75
   2  -4   6   85.72    5.54
  -2   4  -6   94.30    6.06
   2  -4   6   97.24    6.40
   2  -4   6   93.92    5.53
   2  -4   7   64.13    6.47
  -2   4  -7   66.41    6.58
  -2   4  -7   74.86    5.60
   2  -4   7   61.57    5.50
   2  -4   7   71.75    5.34
   2  -4   8   19.62    3.13
   2  -4   8   26.53    3.95
   2  -4   8   24.65    4.38
  -2   4  -8   22.33    4.02
   2  -4   8   21.61    3.25
  -2   4  -8   19.71    3.00
   2  -4   9   14.44    2.95
   2  -4   9   17.74    3.60
   2  -4   9   11.18    3.22
  -2   4  -9   12.13    3.43
  -2   4  -9   16.79    2.97
   2  -4  10  116.37    9.90
  -2   4 -10  128.08   10.46
   2  -4  10  114.74    9.26
   2  -4  10  107.94    8.31
   2  -4  11    2.69    2.64
   2  -4  11    5.37    2.67
  -2   4 -11    0.22    1.95
   2  -4  11    1.67    2.01
   2  -4  12   34.54    5.35
   2  -4  12   35.71    5.98
  -2   4 -12   38.29    6.47
   2  -4  13    2.37    2.01
  -2   4 -13   -0.29    1.88
   2  -4  13   -0.22    1.67
  -2   3  12    8.58    3.17
   2  -3 -12    7.52    3.52
  -2   3  11   17.93    4.31
   2  -3 -11   12.28    4.39
   2  -3 -10   83.82    7.33
   2  -3 -10   82.27    8.72
  -2   3  10   91.73    8.62
  -2   3   9    1.25    1.99
   2  -3  -9   -1.15    2.20
   2  -3  -9    1.19    1.66
   2  -3  -8   10.48    2.46
  -2   3   8    6.56    2.09
   2  -3  -8    9.28    3.03
   2  -3  -7   42.63    4.25
  -2   3   7   40.00    4.76
  -2   3   6  166.92    5.50
   2  -3  -6  149.07    7.52
  -2   3   6  151.75    8.33
  -2   3   5   70.93    3.80
   2  -3  -5   63.47    4.55
  -2   3   5   74.34    5.36
  -2   3   4  169.68    6.11
   2  -3  -4  167.01    6.83
  -2   3   4  170.31    7.46
  -2   3   3  696.99   12.73
  -2   3   3  706.56   16.78
  -2   3   3  710.33   13.63
   2  -3  -3  695.53   16.20
  -2   3   2 1230.79   17.49
  -2   3   2 1255.73   21.27
  -2   3   2 1264.23   15.92
   2  -3  -2 1263.21   20.70
  -2   3   1   12.01    2.17
   2  -3  -1    9.03    1.93
  -2   3   1   11.01    1.43
  -2   3   1    6.83    1.53
   2  -3   0  136.82    6.65
  -2   3   0  142.10    6.62
  -2   3   0  141.58    4.07
  -2   3   0  132.99    6.28
   2  -3   1 1110.22   18.83
  -2   3  -1 1113.15   11.03
  -2   3  -1 1091.78   17.59
  -2   3  -1 1134.30   18.59
   2  -3   2  100.04    5.89
  -2   3  -2   88.76    4.93
   2  -3   3  536.14   14.19
  -2   3  -3  555.96   12.34
   2  -3   3  528.96   11.05
   2  -3   3  530.96   12.34
   2  -3   4  396.42   12.79
  -2   3  -4  420.42   10.86
   2  -3   4  413.80   11.69
   2  -3   4  428.58   10.07
  -2   3  -5  849.47   19.74
   2  -3   5  803.38   14.68
  -2   3  -5  829.90   15.68
  -2   3  -5  846.55   18.57
   2  -3   5  821.79   17.74
   2  -3   5  954.67   20.83
   2  -3   5  832.83   15.89
   2  -3   6    1.42    1.03
   2  -3   6    2.17    1.76
  -2   3  -6    3.61    1.57
  -2   3  -6    3.15    1.77
   2  -3   6    4.95    1.36
  -2   3  -6    2.21    1.15
   2  -3   6    4.83    1.75
  -2   3  -7  286.80   13.15
  -2   3  -7  319.65   10.55
   2  -3   7  290.41   13.11
   2  -3   7  296.22   12.34
   2  -3   7  297.54   11.40
   2  -3   8    6.15    2.09
   2  -3   8    8.86    2.63
   2  -3   8    8.38    2.56
  -2   3  -8    5.91    2.41
  -2   3  -8    5.24    1.74
  -2   3  -9  201.03   12.29
   2  -3   9  228.29   13.15
   2  -3   9  221.34   12.12
   2  -3   9  207.74   11.09
  -2   3 -10  264.58   14.88
   2  -3  10  248.27   14.38
   2  -3  10  231.23   13.39
   2  -3  10  235.90   12.66
  -2   3 -11   68.32    8.09
   2  -3  11   72.05    7.92
   2  -3  11   68.29    7.21
  -2   3 -12   48.07    7.02
   2  -3  12   41.26    6.11
   2  -3  12   67.50    8.07
   2  -3  13    0.73    1.53
   2  -3  13    1.96    2.85
  -2   3 -13    6.70    3.88
  -2   2  13   -1.10    2.20
   2  -2 -13    0.33    1.54
  -2   2  12    3.95    2.86
   2  -2 -12   -0.03    1.86
  -2   2  11    3.41    3.11
   2  -2 -11    1.03    2.77
   2  -2 -10   83.47    8.43
   2  -2 -10   90.34    7.22
  -2   2  10   86.77    8.30
   2  -2  -9   52.87    6.51
   2  -2  -9   48.92    4.99
  -2   2   9   50.03    5.96
   2  -2  -8  483.31   18.23
   2  -2  -8  511.52   14.74
  -2   2   8  494.64   17.06
   2  -2  -7   42.63    5.24
   2  -2  -7   46.42    4.17
  -2   2   7   43.07    4.86
   2  -2  -6   53.01    5.34
   2  -2  -6   47.69    3.83
  -2   2   6   46.88    4.64
   2  -2  -5  217.53    7.44
  -2   2   5  222.98    9.20
   2  -2  -4 1206.07   15.85
  -2   2   4 1177.88   19.40
   2  -2  -3  444.14   11.75
  -2   2   3  441.79   10.81
  -2   2   2   14.54    1.87
   2  -2  -2    8.35    1.74
   2  -2  -1  149.45    6.27
  -2   2   1  143.59    6.14
  -2   2   1  149.95    6.52
  -2   2   1  144.48    5.05
   2  -2  -1  142.25    6.26
   2  -2   0  984.87   15.86
  -2   2   0  964.30   16.39
  -2   2   0  987.60   15.65
  -2   2   0  969.88   12.49
  -2   2  -1  164.58    6.11
  -2   2  -1  160.67    5.15
   2  -2   1  167.11    6.73
  -2   2  -2  341.50    8.44
   2  -2   2  339.62   10.08
   2  -2   2  364.89   10.34
  -2   2  -3  688.91   14.94
   2  -2   3  709.65   15.46
  -2   2  -3  692.74   11.88
   2  -2   3  683.34   14.60
   2  -2   3  656.37   10.18
  -2   2  -3  695.86   15.19
   2  -2   3  682.47   14.45
   2  -2   4 1374.16   23.00
   2  -2   4 1390.66   15.00
  -2   2  -4 1394.26   17.08
  -2   2  -4 1409.55   23.27
   2  -2   4 1362.41   22.00
   2  -2   4 1394.92   20.92
  -2   2  -5  204.53    9.59
   2  -2   5  199.92    9.09
   2  -2   5  206.28    6.34
  -2   2  -5  206.48    6.89
   2  -2   5  207.69    8.22
   2  -2   5  193.08    9.31
   2  -2   5  198.22    8.35
  -2   2  -6  243.39   11.24
   2  -2   6  211.43   10.38
  -2   2  -6  234.19    7.74
  -2   2  -6  239.14    9.92
   2  -2   6  227.43   10.43
   2  -2   6  237.05    9.83
  -2   2  -7  344.03   14.29
   2  -2   7  366.82   14.61
  -2   2  -7  373.83   12.90
  -2   2  -7  382.44   10.53
  -2   2  -7  397.32   10.74
   2  -2   7  358.20   13.94
   2  -2   7  370.02   13.36
   2  -2   8   65.83    6.72
  -2   2  -8   64.55    6.78
  -2   2  -8   63.06    4.79
   2  -2   8   60.43    6.17
   2  -2   8   60.59    5.86
   2  -2   9  265.16   14.06
  -2   2  -9  254.18   13.87
   2  -2   9  265.05   13.56
   2  -2   9  274.00   13.19
   2  -2  10   23.91    4.20
   2  -2  10   27.13    4.63
  -2   2 -10   30.63    5.73
   2  -2  11   12.34    3.49
   2  -2  11   16.34    3.99
  -2   2 -11    8.85    2.93
   2  -2  12    9.17    3.45
  -2   2 -12    7.52    3.26
   2  -2  12    7.16    3.02
   2  -2  13   13.23    3.72
   2  -2  13   13.00    3.98
  -2   1  13    5.99    3.04
   2  -1 -13    3.23    2.95
  -2   1  12   35.37    6.09
   2  -1 -12   53.57    7.79
  -2   1  11   82.25    8.35
   2  -1 -11   81.81    8.88
   2  -1 -10  308.86   12.64
  -2   1  10  294.10   14.78
   2  -1 -10  298.55   15.86
  -2   1   9   21.22    3.93
   2  -1  -9   21.26    4.23
   2  -1  -9   28.88    3.69
   2  -1  -8   85.93    7.60
   2  -1  -8  108.05    6.43
  -2   1   8   99.91    7.72
   2  -1  -7   57.35    5.76
   2  -1  -7   57.55    4.30
  -2   1   7   59.30    5.61
   2  -1  -6   25.27    3.79
   2  -1  -6   27.95    2.67
  -2   1   6   30.00    3.71
  -2   1   5   17.09    2.63
   2  -1  -5   17.50    1.89
   2  -1  -5   14.77    1.85
   2  -1  -4  933.81   19.03
   2  -1  -4  998.36   11.57
  -2   1   4  990.13   17.66
   2  -1  -4  979.32   15.01
  -2   1   3    3.41    1.22
   2  -1  -3    2.62    1.04
   2  -1  -3    4.11    1.23
  -2   1   3    2.96    0.63
   2  -1  -2  664.63   11.83
  -2   1   2  675.59    7.31
  -2   1   2  649.08   12.13
   2  -1  -2  640.54   12.81
   2  -1  -1   94.88    4.38
  -2   1   1   97.04    4.50
   2  -1  -1   98.93    5.18
   2  -1   0   82.51    4.12
  -2   1   0   89.88    4.27
  -2   1   0   86.93    4.16
   2  -1   1    8.55    1.57
  -2   1  -1    6.38    1.13
  -2   1  -1    5.50    1.15
  -2   1  -2 1280.64   19.52
  -2   1  -2 1242.93   17.96
  -2   1  -2 1244.01   13.62
   2  -1   2 1291.42   19.84
   2  -1   2 1283.14   18.32
   2  -1   2 1277.35   19.36
   2  -1   3    2.13    1.33
   2  -1   3    0.42    0.92
  -2   1  -3    0.65    0.88
   2  -1   3    0.16    0.26
   2  -1   3    2.22    1.30
  -2   1  -3    0.27    0.93
  -2   1  -3    0.33    0.48
   2  -1   4 1814.53   13.87
  -2   1  -4 1737.88   25.80
   2  -1   4 1759.42   25.40
   2  -1   4 1792.97   13.35
  -2   1  -4 1761.92   15.57
   2  -1   4 1742.45   25.90
  -2   1  -4 1738.33   24.25
   2  -1   4 1725.53   23.28
   2  -1   5  380.39   12.88
  -2   1  -5  389.30   13.19
  -2   1  -5  408.97    8.00
   2  -1   5  389.65   13.15
   2  -1   5  398.47   11.36
   2  -1   6  337.04   13.08
  -2   1  -6  328.68   13.19
  -2   1  -6  342.43    8.04
  -2   1  -6  349.03    8.44
   2  -1   6  308.59   12.56
   2  -1   6  332.65   10.45
   2  -1   6  324.38   12.19
   2  -1   7  174.87   10.06
  -2   1  -7  197.83   10.93
  -2   1  -7  179.14    8.60
  -2   1  -7  187.41    7.08
   2  -1   7  178.49   10.15
   2  -1   7  186.58    7.96
   2  -1   7  176.16    9.59
  -2   1  -8  637.35   20.73
   2  -1   8  707.08   15.42
   2  -1   8  630.64   20.41
   2  -1   8  618.24   19.29
  -2   1  -9  138.61   10.33
   2  -1   9  169.37   11.21
   2  -1   9  156.97   10.32
   2  -1  10    7.94    3.06
   2  -1  10    7.33    3.17
  -2   1 -10    4.70    2.58
   2  -1  11    0.16    1.78
   2  -1  11    0.46    1.93
  -2   1 -11    1.24    2.42
   2  -1  12   35.12    5.98
  -2   1 -12   37.39    6.53
   2  -1  12   42.89    7.00
   2  -1  13   14.90    4.32
  -2   0  13   47.78    7.10
   2   0 -13   33.15    6.02
  -2   0  12   16.29    4.35
   2   0 -12   17.54    4.64
  -2   0  11   13.41    3.61
   2   0 -11   10.02    3.52
  -2   0  10  743.76   23.31
   2   0 -10  705.13   23.84
   2   0  -9   46.98    4.45
  -2   0   9   46.08    5.62
   2   0  -9   47.11    6.04
   2   0  -8  122.28    6.43
  -2   0   8  125.24    8.52
   2   0  -8  107.65    8.38
  -2   0   7   18.13    3.15
   2   0  -7   14.69    3.09
   2   0  -7   17.00    2.26
   2   0  -7   19.85    1.97
   2   0  -6  724.82   12.28
  -2   0   6  730.11   17.86
   2   0  -6  767.46   12.46
   2   0  -6  718.42   18.93
   2   0  -5  466.93    8.09
  -2   0   5  455.43   13.28
   2   0  -5  468.94   10.24
   2   0  -4   96.26    2.66
  -2   0   4   96.71    5.62
   2   0  -4   95.29    4.79
   2   0  -4   82.83    5.63
   2   0  -3 1940.56   23.95
   2   0  -3 1945.66   18.64
  -2   0   3 1925.83   23.31
   2   0  -3 1938.94   21.82
   2   0  -2  199.60    6.96
   2   0  -2  191.87    7.13
  -2   0   2  219.51    7.44
   2   0  -2  206.38    5.50
   2   0  -1 4558.10   34.90
   2   0  -1 4554.71   24.42
  -2   0   1 4628.30   18.61
  -2   0   1 4524.89   32.94
   2   0  -1 4450.88   28.16
   2   0   0  447.04    8.28
  -2   0   0  440.95    7.82
  -2   0   0  442.56   10.17
   2   0   0  445.62    7.30
   2   0   1 1189.63   18.52
   2   0   1 1173.26   15.13
  -2   0  -1 1221.46   12.20
  -2   0  -1 1184.93   15.62
   2   0   2  227.58    8.26
   2   0   2  222.22    7.38
  -2   0  -2  220.28    7.68
  -2   0  -2  227.54    4.25
  -2   0  -3   33.61    3.41
  -2   0  -3   32.17    3.34
   2   0   3   33.21    3.24
   2   0   3   30.99    3.25
   2   0   4   18.06    2.54
   2   0   4   19.63    2.72
  -2   0  -4   18.32    2.71
  -2   0  -4   22.24    3.11
   2   0   5  143.25    7.84
  -2   0  -5  146.48    8.23
   2   0   5  134.30    3.21
  -2   0  -5  152.67    4.38
   2   0   5  135.04    8.03
  -2   0  -5  152.68    7.30
   2   0   5  144.76    6.93
   2   0   6    5.22    1.63
  -2   0  -6    7.36    1.27
   2   0   6    6.51    2.36
  -2   0  -6    4.38    1.94
  -2   0  -7  179.58   10.54
   2   0   7  178.96   10.51
   2   0   7  179.29    7.94
   2   0   7  181.81   10.27
   2   0   8   -0.55    1.37
  -2   0  -8   -0.61    1.04
  -2   0  -8   -0.12    1.73
  -2   0  -9  172.15   11.71
   2   0   9  158.61   11.12
   2   0   9  157.76   10.85
   2   0  10   -0.24    1.85
  -2   0 -10    1.06    1.91
   2   0  10    6.38    2.76
  -2   0 -11   80.51    9.04
   2   0  11   72.73    8.41
   2   0  11   80.82    8.77
   2   0  12    5.59    2.63
   2   0  12    7.03    3.07
  -2   0 -12   10.24    3.96
  -2  -1  13    2.81    2.89
   2   1 -13    6.28    3.25
  -2  -1  12   16.41    4.45
   2   1 -12   18.84    4.87
   2   1 -11  205.17   13.61
  -2  -1  11  226.71   13.56
  -2  -1  10  318.87   15.20
   2   1 -10  284.70   15.23
   2   1  -9   50.64    4.42
  -2  -1   9   41.61    5.37
   2   1  -9   50.51    6.04
   2   1  -8  122.64    6.14
  -2  -1   8  105.62    7.91
   2   1  -8  109.57    8.44
  -2  -1   7    8.55    2.43
   2   1  -7   12.35    1.70
   2   1  -7    7.83    1.53
   2   1  -7   10.58    2.83
   2   1  -6   36.06    2.93
   2   1  -6   36.02    2.61
  -2  -1   6   31.97    3.99
   2   1  -6   33.31    4.23
   2   1  -5   41.88    3.27
   2   1  -5   41.54    2.23
  -2  -1   5   48.03    4.53
   2   1  -4 1351.32   18.68
  -2  -1   4 1358.38   21.62
   2   1  -4 1339.93   21.99
   2   1  -3  673.67   13.36
   2   1  -3  676.15    8.67
  -2  -1   3  689.41   14.53
   2   1  -3  661.38   14.04
   2   1  -2   59.27    4.11
   2   1  -2   62.59    2.10
  -2  -1   2   62.57    4.33
   2   1  -2   64.86    3.98
   2   1  -1 3172.89   29.97
   2   1  -1 3220.15   15.14
  -2  -1   1 3191.06   18.14
  -2  -1   1 3192.69   29.85
   2   1  -1 3169.09   23.78
   2   1   0  355.89    6.44
   2   1   0  364.21    6.48
  -2  -1   0  355.96    7.74
  -2  -1   0  371.05   10.19
   2   1   1    0.45    1.12
   2   1   1    0.84    0.69
  -2  -1  -1    0.28    0.25
  -2  -1  -1    0.06    0.19
  -2  -1  -1    0.57    0.48
  -2  -1  -1    0.04    0.64
   2   1   2  290.21    9.65
   2   1   2  278.69    8.23
  -2  -1  -2  284.39    9.07
   2   1   3  379.32   11.24
  -2  -1  -3  390.94   11.92
  -2  -1  -4   13.77    2.35
   2   1   4   14.93    2.74
   2   1   4   16.34    2.57
   2   1   4   15.05    1.11
  -2  -1  -4   14.79    2.63
  -2  -1  -4   18.01    1.25
   2   1   5  171.56    7.80
  -2  -1  -5  154.34    7.28
  -2  -1  -5  161.27    8.91
   2   1   5  173.48    9.41
  -2  -1  -5  183.02    5.11
   2   1   6  175.81    8.12
  -2  -1  -6  160.78    9.51
   2   1   6  161.60    9.63
  -2  -1  -7  363.50   15.19
   2   1   7  363.83   15.35
   2   1   7  394.88   12.19
  -2  -1  -8  492.94   18.94
   2   1   8  512.27   19.25
  -2  -1  -9   76.74    7.89
   2   1   9   79.06    8.07
   2   1   9   83.60    8.42
   2   1  10    4.09    2.31
   2   1  10    2.01    2.11
  -2  -1 -10    1.19    1.69
  -2  -1 -11   92.39    9.68
   2   1  11   83.80    9.27
   2   1  11   84.40    9.35
   2   1  12    8.04    4.00
   2   1  12    1.27    2.02
  -2  -1 -12    3.15    2.42
  -2  -2  13    5.93    3.17
   2   2 -13   11.38    4.34
  -2  -2  12    1.96    2.39
   2   2 -12    0.36    2.12
  -2  -2  11   25.69    4.82
   2   2 -11   27.95    5.29
   2   2 -10  612.09   22.26
  -2  -2  10  649.66   21.83
   2   2  -9  737.24   22.86
  -2  -2   9  722.77   21.62
  -2  -2   8  295.20   13.18
   2   2  -8  310.79    9.74
   2   2  -8  307.01   14.05
   2   2  -7   51.47    3.63
   2   2  -7   48.50    3.57
  -2  -2   7   48.55    5.13
   2   2  -7   48.67    5.44
   2   2  -6  337.28    9.56
   2   2  -6  350.12    8.12
  -2  -2   6  351.95   12.70
   2   2  -6  331.43   12.91
  -2  -2   5   13.03    2.50
   2   2  -5   10.47    1.87
   2   2  -5   10.77    1.32
   2   2  -4  294.88    9.32
   2   2  -4  319.78    5.72
  -2  -2   4  290.59   10.36
   2   2  -4  299.85   10.58
   2   2  -3  252.57    8.75
   2   2  -3  255.13    4.91
  -2  -2   3  266.60    9.53
   2   2  -3  248.04    8.82
   2   2  -2  383.84   11.00
   2   2  -2  390.64   10.00
  -2  -2   2  409.40   11.51
  -2  -2   1   20.25    2.74
  -2  -2   1   21.84    1.97
   2   2  -1   21.33    2.20
  -2  -2   0    4.61    0.91
  -2  -2   0    5.86    1.33
  -2  -2   0    3.71    1.47
   2   2   1  213.15    8.63
  -2  -2  -1  219.28    5.02
  -2  -2  -1  205.05    4.64
  -2  -2  -1  202.01    7.49
   2   2   2  854.02   17.49
  -2  -2  -2  864.64   17.13
  -2  -2  -2  923.58    9.61
  -2  -2  -3   10.71    2.28
   2   2   3   13.24    2.47
   2   2   4    1.51    1.40
   2   2   4    0.94    1.24
  -2  -2  -4    0.93    1.28
  -2  -2  -5   41.50    2.83
   2   2   5   39.08    3.98
  -2  -2  -5   42.66    3.94
  -2  -2  -5   38.25    4.73
   2   2   5   38.01    4.64
   2   2   6  303.29   11.01
  -2  -2  -6  279.43   13.04
   2   2   6  260.02   12.56
   2   2   7  202.63    9.12
  -2  -2  -7  197.72   11.72
   2   2   7  206.60   11.86
  -2  -2  -8  102.37    9.02
   2   2   8   95.46    8.62
  -2  -2  -9   74.52    8.16
   2   2   9   72.93    7.96
   2   2  10    1.87    1.78
  -2  -2 -10    2.16    2.22
   2   2  11    1.61    2.01
  -2  -2 -11   -0.49    2.16
  -2  -3  13    3.45    2.17
   2   3 -13    8.17    3.59
  -2  -3  12   32.10    5.59
   2   3 -12   31.64    5.75
   2   3 -11   51.32    6.84
  -2  -3  11   58.05    7.04
   2   3 -10  224.02   13.49
  -2  -3  10  257.76   13.71
   2   3  -9   43.20    5.76
  -2  -3   9   47.02    5.74
   2   3  -8  360.33   10.30
   2   3  -8  372.44   10.97
   2   3  -8  347.42   15.05
  -2  -3   8  343.49   14.32
   2   3  -7   72.66    4.83
   2   3  -7   74.29    4.49
   2   3  -7   72.19    6.56
  -2  -3   7   71.82    6.23
  -2  -3   6   -0.15    1.01
   2   3  -6    0.10    1.45
   2   3  -6   -0.31    0.77
   2   3  -5   68.90    4.90
   2   3  -5   68.10    5.67
  -2  -3   5   71.52    5.69
   2   3  -4  203.23    4.01
   2   3  -4  198.46    8.39
   2   3  -4  206.55    9.12
  -2  -3   4  202.94    9.00
   2   3  -3  249.98    9.28
   2   3  -3  248.85    9.27
  -2  -3   3  266.46   10.05
   2   3  -2  556.27   12.77
   2   3  -2  524.09   12.59
  -2  -3   2  541.14   14.27
   2   3  -1 1001.56   15.55
  -2  -3   1 1034.27   15.60
  -2  -3   1 1027.05   19.53
  -2  -3   0  567.05   10.86
  -2  -3   0  550.98   12.51
   2   3   0  556.40   10.51
  -2  -3   0  580.25   14.92
   2   3   1  731.55   16.93
  -2  -3  -1  720.43   15.46
   2   3   1  752.42   10.36
   2   3   2 2354.59   30.75
  -2  -3  -2 2290.39   30.12
   2   3   2 2412.24   14.61
   2   3   3  297.83   11.11
  -2  -3  -3  292.55   11.54
   2   3   3  305.52   11.82
   2   3   4    1.33    1.50
   2   3   4    1.44    0.98
  -2  -3  -4    3.17    1.66
   2   3   5  263.16   10.73
  -2  -3  -5  253.08   12.18
   2   3   5  266.98   12.41
   2   3   6    3.93    1.43
  -2  -3  -6    6.59    2.40
   2   3   6    7.68    2.66
   2   3   7   -0.55    1.40
   2   3   7    0.11    1.01
  -2  -3  -7    2.53    1.99
   2   3   8   -0.02    1.82
  -2  -3  -8    2.48    2.50
   2   3   9    1.41    2.04
  -2  -3  -9    2.75    2.69
  -2  -3 -10  165.25   13.00
   2   3  10  156.43   12.45
   2   3  11  112.12   11.14
  -2  -4  13   16.05    4.21
   2   4 -13   12.36    3.85
  -2  -4  12   47.64    6.68
   2   4 -12   56.59    7.60
  -2  -4  11   18.98    4.20
   2   4 -11   28.79    5.28
  -2  -4  10   10.58    3.01
   2   4 -10   10.58    3.20
   2   4  -9  127.91    9.89
  -2  -4   9  120.30    9.15
   2   4  -8  379.08   11.73
   2   4  -8  360.61   15.57
  -2  -4   8  360.54   14.83
   2   4  -7  398.74   15.52
   2   4  -7  387.69   15.26
  -2  -4   7  376.71   14.51
  -2  -4   6   10.94    2.63
   2   4  -6   14.25    2.87
   2   4  -6   15.53    3.15
   2   4  -5  135.29    8.14
   2   4  -5  134.53    8.15
  -2  -4   5  145.73    8.31
   2   4  -4   72.67    2.29
   2   4  -4   88.50    6.19
  -2  -4   4   77.18    5.92
   2   4  -3  175.14    8.13
  -2  -4   3  172.69    8.61
   2   4  -2  118.43    6.25
  -2  -4   2  117.48    7.11
  -2  -4   1  184.76    4.60
  -2  -4   1  185.74    7.44
   2   4  -1  183.25    7.20
  -2  -4   1  173.92    7.37
  -2  -4   1  187.23    8.80
  -2  -4   0   91.00    5.06
   2   4   0   99.12    4.85
  -2  -4   0   90.89    5.80
  -2  -4   0   91.15    6.41
   2   4   1   48.38    4.85
   2   4   1   44.88    4.86
   2   4   1   48.82    3.13
  -2  -4  -1   44.87    4.34
   2   4   2    8.22    2.34
   2   4   2   13.58    2.91
   2   4   2   11.62    1.43
  -2  -4  -2   10.38    2.58
   2   4   2    8.19    2.11
   2   4   3  162.21    8.90
   2   4   3  164.08    9.75
  -2  -4  -3  160.11    9.06
   2   4   3  157.79    8.80
   2   4   4   16.46    3.21
   2   4   4   18.35    3.18
   2   4   4   21.76    3.91
  -2  -4  -4   17.43    3.37
   2   4   5   24.76    3.95
   2   4   5   24.31    3.49
   2   4   5   29.26    4.60
  -2  -4  -5   25.40    4.33
   2   4   6    4.73    2.23
   2   4   6    3.64    1.78
   2   4   6    1.22    1.31
  -2  -4  -6    8.48    3.22
   2   4   7   23.90    4.34
   2   4   7   19.13    3.88
  -2  -4  -7   23.76    4.74
   2   4   8   -0.65    1.87
  -2  -4  -8    0.81    1.78
   2   4   9    4.88    2.83
  -2  -4  -9    4.14    3.10
   2   4  10   38.04    6.45
  -2  -4 -10   43.20    6.90
  -2  -5  13   -0.84    1.44
   2   5 -13    1.55    2.49
  -2  -5  12   20.90    4.47
   2   5 -12   20.97    5.07
  -2  -5  11   39.62    5.94
   2   5 -11   40.04    6.27
  -2  -5  10   27.91    4.69
   2   5 -10   27.49    4.96
   2   5  -9  105.08    9.15
   2   5  -9   98.99    8.92
  -2  -5   9  101.41    8.56
  -2  -5   8   34.95    4.91
   2   5  -8   27.05    3.64
   2   5  -8   36.35    5.23
   2   5  -8   28.03    4.63
   2   5  -7  319.28   14.35
   2   5  -7  307.49   14.13
  -2  -5   7  326.45   13.80
   2   5  -6  692.06   20.04
   2   5  -6  638.69   19.37
  -2  -5   6  681.07   19.03
   2   5  -5  147.82    8.84
   2   5  -5  139.05    8.56
  -2  -5   5  143.27    8.49
   2   5  -4  140.01    8.20
  -2  -5   4  135.30    8.11
  -2  -5   3 1100.99   21.59
   2   5  -3 1101.91   21.54
  -2  -5   3 1113.91   22.75
  -2  -5   2  144.60    7.58
   2   5  -2  143.51    7.36
  -2  -5   2  140.58    8.15
  -2  -5   2  155.84    4.32
   2   5  -1   72.84    6.31
  -2  -5   1   71.71    5.15
   2   5  -1   65.49    4.73
  -2  -5   1   77.39    3.70
  -2  -5   1   69.59    5.34
  -2  -5   1   61.01    5.49
  -2  -5   0    0.03    0.81
   2   5   0    0.38    1.48
  -2  -5   0    1.99    1.41
   2   5   0    1.47    1.00
  -2  -5   0    3.07    1.29
  -2  -5   0    0.86    1.15
   2   5   1  466.04   16.61
   2   5   1  460.16   10.87
  -2  -5  -1  430.55   14.35
   2   5   2  176.58    9.80
   2   5   2  175.23   10.50
  -2  -5  -2  168.64    9.50
   2   5   3   83.52    6.72
   2   5   3   97.59    7.95
  -2  -5  -3   91.29    7.36
   2   5   3   89.83    6.94
   2   5   4    5.46    2.13
   2   5   4    4.08    2.09
   2   5   4    3.81    2.11
  -2  -5  -4    6.57    2.09
   2   5   5   35.02    4.94
   2   5   5   32.02    4.29
   2   5   5   30.10    4.87
  -2  -5  -5   32.73    4.94
   2   5   6  184.83   10.30
   2   5   6  163.32   11.19
  -2  -5  -6  177.58   11.99
   2   5   6  176.18   11.23
   2   5   7    8.14    2.69
   2   5   7    7.64    2.75
  -2  -5  -7   11.62    3.48
   2   5   8    5.25    2.68
   2   5   8    3.53    1.71
  -2  -5  -8    3.95    2.88
   2   5   9   23.88    4.86
  -2  -5  -9   31.30    6.25
  -2  -6  13  156.46   12.66
  -2  -6  12   23.57    5.11
   2   6 -12   28.91    5.53
   2   6 -11  197.02   13.90
  -2  -6  11  191.78   12.76
  -2  -6  10    3.49    2.52
   2   6 -10    4.90    3.19
   2   6 -10    9.64    4.06
  -2  -6   9   18.64    4.00
   2   6  -9   17.08    3.99
   2   6  -9   29.25    5.23
   2   6  -8  108.55    8.99
   2   6  -8  116.67    9.42
  -2  -6   8  107.45    8.53
   2   6  -7  113.05    8.90
   2   6  -7  110.95    8.88
  -2  -6   7  115.08    8.41
  -2  -6   6   11.24    2.63
   2   6  -6   14.02    3.16
   2   6  -5  225.97   11.37
  -2  -6   5  220.36   11.02
  -2  -6   4   29.59    3.92
  -2  -6   4   26.43    3.87
   2   6  -4   26.36    3.74
  -2  -6   3  138.39    8.28
   2   6  -3  160.96    8.73
  -2  -6   3  143.33    8.63
  -2  -6   2  417.21   13.96
   2   6  -2  420.53   13.55
  -2  -6   2  400.67   14.47
   2   6  -2  407.75   15.57
   2   6  -1  188.32   10.76
  -2  -6   1  183.84    9.07
   2   6  -1  199.91    8.86
  -2  -6   1  179.46    9.73
  -2  -6   0  604.73   13.38
   2   6   0  560.00   19.05
  -2  -6   0  589.93   16.09
   2   6   0  583.54   14.37
  -2  -6   0  554.63   16.98
  -2  -6   0  564.48   17.61
  -2  -6  -1   10.09    2.13
   2   6   1    8.84    2.57
  -2  -6  -1    8.38    2.39
   2   6   2    2.95    2.28
  -2  -6  -2    6.69    2.20
   2   6   3  415.38   17.51
   2   6   3  404.47   15.88
  -2  -6  -3  406.92   16.59
   2   6   3  418.67   15.39
   2   6   4  114.18    8.60
   2   6   4  118.41    9.68
  -2  -6  -4  131.10    9.88
   2   6   4  104.48    8.16
   2   6   5   88.50    7.63
   2   6   5   86.32    8.55
  -2  -6  -5   91.87    8.67
   2   6   5   86.95    7.73
   2   6   6    1.64    1.80
   2   6   6    6.16    2.95
   2   6   6    7.21    2.49
  -2  -6  -6    1.95    2.11
   2   6   7    5.08    2.77
   2   6   7    1.54    2.10
  -2  -6  -7    1.38    2.50
   2   6   8   44.34    6.54
   2   6   8   43.09    6.47
  -2  -6  -8   42.97    6.69
   2   6   9   -1.69    1.79
  -2  -7  13  132.51   11.71
  -2  -7  12    9.37    3.50
   2   7 -12   12.47    4.58
   2   7 -11  169.11   13.23
   2   7 -11  156.43   12.82
  -2  -7  11  156.11   11.74
   2   7 -10   15.24    4.13
  -2  -7  10   15.49    3.79
   2   7 -10   26.74    5.44
  -2  -7   9   15.86    3.97
   2   7  -9   13.22    3.60
   2   7  -9   20.02    4.48
   2   7  -8   80.76    8.05
  -2  -7   8   79.78    7.59
   2   7  -7   38.60    5.41
  -2  -7   7   35.21    5.00
  -2  -7   6   39.45    5.39
   2   7  -6   43.34    5.56
  -2  -7   6   44.45    5.28
  -2  -7   5   24.69    3.98
  -2  -7   5   20.45    3.69
   2   7  -5   23.71    4.05
  -2  -7   4   39.00    5.00
   2   7  -4   37.71    4.83
  -2  -7   4   37.34    4.82
  -2  -7   3   10.02    2.44
   2   7  -3   11.44    2.86
  -2  -7   3   13.17    3.15
   2   7  -3   14.51    2.90
   2   7  -2  219.29   12.26
   2   7  -2  217.48   10.42
  -2  -7   2  210.41   10.76
  -2  -7   2  222.63   11.43
  -2  -7   1  321.66   13.10
   2   7  -1  330.09   12.26
   2   7  -1  307.05   14.70
  -2  -7   1  310.71   13.64
  -2  -7   0    1.34    1.74
   2   7   0    0.86    1.48
   2   7   0    0.88    0.96
  -2  -7   0    3.65    2.79
   2   7   1   87.04    8.29
  -2  -7  -1   90.20    7.74
  -2  -7  -1   90.44    7.70
   2   7   2  186.78   12.16
  -2  -7  -2  185.18   11.46
   2   7   3   17.50    4.08
  -2  -7  -3   20.93    4.29
   2   7   4  100.93    8.53
   2   7   4  102.91    9.53
  -2  -7  -4  102.18    9.36
   2   7   4  108.47    8.50
   2   7   5  111.96    8.99
  -2  -7  -5  124.69   10.58
   2   7   5  117.85    9.26
   2   7   5  112.92   10.22
   2   7   6   12.04    3.39
   2   7   6   14.46    4.12
  -2  -7  -6   15.43    4.38
   2   7   7   23.68    4.88
   2   7   7   18.50    4.45
  -2  -7  -7   18.01    4.67
   2   7   8    1.36    1.79
   2   7   8    6.98    3.01
  -2  -8  12    2.04    2.39
  -2  -8  11    3.13    2.16
   2   8 -11    1.64    2.25
  -2  -8  10   29.45    5.08
   2   8 -10   31.44    5.71
   2   8  -9   51.05    7.05
  -2  -8   9   49.12    6.35
  -2  -8   8   -1.83    1.57
   2   8  -8   -0.39    1.79
  -2  -8   7   17.19    3.75
  -2  -8   7   14.11    3.57
   2   8  -7   14.27    3.72
  -2  -8   6   47.05    6.05
   2   8  -6   59.56    6.81
  -2  -8   6   47.85    5.65
  -2  -8   5  602.48   20.86
   2   8  -5  629.86   21.11
  -2  -8   5  631.39   20.09
  -2  -8   4  538.73   19.11
   2   8  -4  575.17   19.28
  -2  -8   4  559.59   18.82
  -2  -8   3    2.50    1.68
   2   8  -3    2.32    1.51
  -2  -8   3    0.58    1.48
   2   8  -3    4.11    2.15
   2   8  -2  417.54   17.98
   2   8  -2  441.12   15.75
  -2  -8   2  412.67   16.14
  -2  -8   2  406.12   16.09
  -2  -8   1   -0.88    1.20
   2   8  -1    0.05    1.92
  -2  -8   1    1.92    1.87
   2   8  -1    0.16    1.35
   2   8   0  344.33   16.93
  -2  -8   0  317.18   14.67
   2   8   1   35.85    5.77
  -2  -8  -1   42.23    5.64
  -2  -8  -1   39.84    5.82
   2   8   2    9.70    3.57
  -2  -8  -2   10.06    3.23
   2   8   3   19.72    4.63
  -2  -8  -3   13.94    3.68
   2   8   4    4.07    2.66
   2   8   4    3.66    1.96
  -2  -8  -4    5.64    2.72
   2   8   5    3.82    2.17
   2   8   5    5.30    2.57
  -2  -8  -5   -1.89    2.71
   2   8   6    3.60    2.95
  -2  -8  -6    9.90    3.66
  -2  -9  11   84.43    8.90
  -2  -9  10   95.36   10.05
   2   9 -10  101.50   10.46
  -2  -9  10   89.81    8.96
  -2  -9   9  299.32   17.19
   2   9  -9  293.36   17.19
  -2  -9   9  269.26   14.96
  -2  -9   8   80.77    8.78
   2   9  -8   72.97    8.16
  -2  -9   8   84.28    8.13
  -2  -9   7   22.42    4.40
  -2  -9   7   24.46    4.75
   2   9  -7   18.95    4.37
  -2  -9   6    9.47    2.99
  -2  -9   6   12.68    3.99
   2   9  -6    9.38    3.08
  -2  -9   5   14.16    3.45
  -2  -9   5   11.70    3.29
   2   9  -5   11.64    3.18
  -2  -9   4    6.20    2.04
   2   9  -4    9.36    3.11
  -2  -9   4    6.76    2.88
   2   9  -4   11.88    3.26
   2   9  -3  223.61   13.67
  -2  -9   3  215.35   12.68
   2   9  -3  241.72   12.74
  -2  -9   3  204.83   11.86
  -2  -9   2   20.50    3.89
   2   9  -2   32.00    5.38
  -2  -9   2   27.83    4.63
   2   9  -2   24.53    4.09
   2   9  -1  182.14   12.99
  -2  -9   1  162.64   10.80
   2   9   0   81.21    8.95
  -2  -9   0   74.27    7.53
  -2  -9  -1   10.25    3.14
   2   9   1   16.28    4.38
   2   9   2   11.86    3.87
  -2  -9  -2   14.97    3.99
  -2  -9  -2    7.43    2.44
   2   9   3    8.95    3.69
  -2  -9  -3    7.77    3.26
   2   9   4   14.32    3.57
   2   9   4   12.39    3.96
  -2  -9  -4   12.44    3.64
   2   9   5   69.65    8.19
  -2 -10   9   11.95    3.98
   2  10  -9   19.57    4.87
  -2 -10   8    5.13    2.59
  -2 -10   8    0.05    1.82
   2  10  -8    0.25    1.37
  -2 -10   7   -1.52    1.69
  -2 -10   7    3.75    2.67
   2  10  -7   -1.00    1.99
  -2 -10   6    1.81    1.37
  -2 -10   6    0.21    1.53
   2  10  -6   -0.92    1.46
  -2 -10   5    5.73    2.44
  -2 -10   5    5.92    2.84
   2  10  -5    5.83    2.71
  -2 -10   4   17.95    3.76
   2  10  -4   22.58    4.58
  -2 -10   4   23.79    4.69
   2  10  -4   22.30    4.55
  -2 -10   3    9.35    2.99
   2  10  -3   15.30    4.00
  -2 -10   3   14.48    3.73
   2  10  -3    9.52    3.24
  -2 -10   2   12.29    3.33
   2  10  -2    9.65    3.49
   2  10  -1   93.06    9.81
  -2 -10   1   78.89    7.92
  -2 -10   0   18.51    4.17
   2  10   0   21.19    4.83
  -2 -10  -1   13.91    3.74
   2  10   1   22.66    5.33
  -2 -10  -2   -0.01    1.43
   2  10   2    4.47    3.31
  -2 -10  -3   81.86    9.71
  -2 -10  -3   70.80    8.38
  -2 -11   7   23.71    5.35
   2  11  -7   17.02    4.77
  -2 -11   6   -1.66    2.01
   2  11  -6   -1.22    1.88
  -2 -11   5  114.86   10.81
   2  11  -5  112.48   10.30
   2  11  -4   11.95    3.49
  -2 -11   4    7.05    2.94
   2  11  -3    2.73    2.60
   2  11  -2   34.71    6.40
   2  11  -1   19.24    5.25
   3 -11  -2    6.62    3.65
  -3  11   2    7.75    3.12
   3 -11  -1    5.16    2.82
  -3  11   1    0.74    2.02
   3 -11   0   22.00    5.08
  -3  11   0   23.84    5.20
   3 -11   1   -1.22    2.12
  -3  11  -1    6.97    3.37
   3 -11   2  136.69   11.96
  -3  11  -2  126.94   11.51
  -3  11  -3    3.51    2.89
   3 -11   3    3.88    2.95
   3 -11   4    6.27    3.31
  -3  11  -4   15.10    3.99
   3 -11   5    2.95    1.86
  -3  11  -5    4.41    2.92
   3 -11   6   10.46    3.64
  -3  11  -6   11.33    3.93
   3 -11   7    0.40    1.71
  -3  11  -7    6.98    3.61
  -3  11  -8    0.76    1.72
  -3  10   5    3.17    2.37
   3 -10  -4   42.90    6.99
  -3  10   4   41.28    6.90
   3 -10  -3    2.28    2.89
  -3  10   3   -0.42    2.22
   3 -10  -2    2.62    2.97
  -3  10   2    0.55    1.71
   3 -10  -1   86.71    9.40
  -3  10   1   83.64    9.03
   3 -10   0    3.97    1.91
  -3  10   0    5.80    2.83
  -3  10  -1   52.63    7.07
   3 -10   1   51.54    7.13
   3 -10   2   13.84    3.86
  -3  10  -2   18.48    4.38
   3 -10   3    2.71    2.68
  -3  10  -3    5.19    2.91
   3 -10   4   16.37    4.35
  -3  10  -4   12.02    3.88
   3 -10   5    6.74    3.68
  -3  10  -5    4.65    2.87
   3 -10   6    6.29    2.37
  -3  10  -6   10.40    3.46
   3 -10   7    1.77    3.30
  -3  10  -7    0.92    2.44
   3 -10   8    3.80    3.26
  -3  10  -8   -0.17    2.25
  -3  10  -9   16.42    4.14
  -3  10 -10   -0.18    1.77
  -3   9   7   31.25    6.01
   3  -9  -6   -0.04    2.05
  -3   9   6    5.38    2.41
   3  -9  -5   11.96    3.99
  -3   9   5   13.87    4.18
   3  -9  -4   16.00    4.56
  -3   9   4   15.52    4.16
   3  -9  -3    8.72    3.28
  -3   9   3    1.10    2.40
   3  -9  -2    2.80    2.81
  -3   9   2    1.63    1.43
   3  -9  -1    9.88    3.29
  -3   9   1    9.07    3.04
   3  -9   0  166.31   12.05
  -3   9   0  150.62   11.35
   3  -9   1  219.60   13.63
  -3   9  -1  206.83   13.19
   3  -9   2   74.75    8.17
  -3   9  -2   80.46    8.33
   3  -9   3    3.92    3.10
  -3   9  -3    0.58    2.12
   3  -9   4   46.58    6.53
  -3   9  -4   54.70    6.84
   3  -9   5  123.28   10.64
  -3   9  -5  113.90    9.75
   3  -9   6   25.49    5.16
  -3   9  -6   21.68    4.53
   3  -9   7   30.07    5.76
  -3   9  -7   46.21    6.52
   3  -9   8   13.45    3.44
   3  -9   8   12.01    3.56
  -3   9  -8   17.05    4.16
   3  -9   9   16.04    4.46
  -3   9  -9    8.29    2.89
  -3   9 -10    3.53    2.43
  -3   8   8   66.33    8.47
   3  -8  -7   13.04    4.61
  -3   8   7    7.73    2.85
   3  -8  -6    4.27    2.70
  -3   8   6    2.28    2.20
   3  -8  -5   -0.71    1.75
  -3   8   5   -2.63    2.85
   3  -8  -4   78.70    8.53
  -3   8   4   82.57    8.54
   3  -8  -3    8.55    3.15
  -3   8   3    4.14    2.11
   3  -8  -2   33.36    5.45
  -3   8   2   32.20    5.27
   3  -8  -1   45.76    6.28
  -3   8   1   34.43    5.41
   3  -8   0   41.20    5.76
  -3   8   0   33.63    5.02
   3  -8   1  132.03   10.09
  -3   8  -1  147.02   10.53
   3  -8   2  214.57   12.82
  -3   8  -2  215.03   12.41
   3  -8   3    0.28    2.39
  -3   8  -3   -0.79    1.77
   3  -8   4  113.47    9.57
  -3   8  -4  115.07    9.18
  -3   8  -5    0.04    1.65
   3  -8   5    5.28    2.84
   3  -8   6   11.35    3.47
  -3   8  -6   13.62    3.29
   3  -8   7    8.72    2.59
   3  -8   7    3.98    2.37
  -3   8  -7    5.52    2.46
   3  -8   8   17.19    4.42
  -3   8  -8   15.90    3.81
   3  -8   9   10.63    3.50
  -3   8  -9   11.82    3.53
   3  -8  10   60.01    8.28
  -3   8 -10   54.92    7.93
   3  -7  -9   23.42    5.70
  -3   7   9   19.53    4.76
   3  -7  -8  105.49   10.54
  -3   7   8   91.79    9.80
   3  -7  -7   -0.02    2.26
  -3   7   7    4.32    2.22
   3  -7  -6   -0.39    1.51
  -3   7   6    2.27    1.92
   3  -7  -5    1.93    2.16
  -3   7   5    1.02    1.70
  -3   7   4   51.03    6.44
   3  -7  -4   57.86    6.91
   3  -7  -3   83.64    8.04
  -3   7   3   88.09    8.30
   3  -7  -2  160.11   10.92
  -3   7   2  169.83   11.09
   3  -7  -1   -1.40    2.01
  -3   7   1    0.59    1.29
   3  -7   0  770.62   22.94
  -3   7   0  770.50   22.64
   3  -7   1  729.15   22.23
  -3   7  -1  695.24   21.24
   3  -7   2  115.85    8.92
  -3   7  -2   97.15    7.91
   3  -7   3  102.63    8.66
  -3   7  -3  100.57    7.97
   3  -7   4   23.65    4.40
  -3   7  -4   22.41    3.92
   3  -7   5   89.49    8.29
  -3   7  -5   84.83    7.48
   3  -7   6   28.50    5.13
  -3   7  -6   26.89    4.23
   3  -7   7    2.49    2.01
   3  -7   7    0.32    1.37
  -3   7  -7    0.31    1.38
   3  -7   8    3.48    2.68
  -3   7  -8    1.29    1.65
   3  -7   9  190.26   13.66
  -3   7  -9  188.05   13.39
  -3   7  -9  199.97   11.94
   3  -7  10   46.66    7.22
  -3   7 -10   40.99    6.59
   3  -7  11   19.11    4.76
  -3   7 -11   14.91    4.47
   3  -6 -10    8.24    3.51
  -3   6  10    0.48    1.80
   3  -6  -9   71.07    8.74
  -3   6   9   57.43    7.84
   3  -6  -8   25.41    5.01
  -3   6   8   35.58    6.14
   3  -6  -7   52.15    6.92
  -3   6   7   56.31    7.16
   3  -6  -6   13.79    3.61
  -3   6   6   10.98    3.78
   3  -6  -5  191.46   12.02
  -3   6   5  179.30   11.81
   3  -6  -4   31.92    4.90
  -3   6   4   33.61    5.06
   3  -6  -3    0.03    1.78
  -3   6   3    0.37    1.41
  -3   6   3   -0.20    1.24
   3  -6  -2   -0.85    1.93
  -3   6   2    3.59    1.99
  -3   6   2    0.32    1.00
   3  -6  -1   51.25    5.84
  -3   6   1   59.26    6.05
  -3   6   1   50.24    4.93
   3  -6   0    3.01    1.62
  -3   6   0    3.51    1.97
  -3   6   0    3.18    1.72
   3  -6   1   56.72    5.95
  -3   6  -1   62.10    5.98
  -3   6  -1   59.36    5.62
   3  -6   2    8.59    2.88
  -3   6  -2    4.68    2.04
  -3   6  -2    3.84    1.66
   3  -6   3   77.29    7.11
  -3   6  -3   71.66    6.31
  -3   6  -3   68.69    6.41
   3  -6   4    8.93    2.56
  -3   6  -4   13.74    3.41
  -3   6  -4   11.89    2.73
   3  -6   5   10.12    3.35
  -3   6  -5   11.52    2.88
   3  -6   6   27.82    4.75
  -3   6  -6   26.40    3.98
   3  -6   6   22.87    3.38
   3  -6   7   21.05    3.59
   3  -6   7   13.21    3.69
  -3   6  -7   16.68    3.21
   3  -6   8   59.80    7.23
  -3   6  -8   57.71    5.94
  -3   6  -8   56.76    6.93
   3  -6   8   59.80    6.05
   3  -6   9  187.41   13.22
  -3   6  -9  180.93   12.91
   3  -6   9  191.75   11.45
   3  -6  10  104.86   10.22
  -3   6 -10  100.56   10.26
   3  -6  10   96.21    8.58
   3  -6  11    0.55    2.01
   3  -6  11    0.65    1.96
  -3   6 -11    2.03    2.58
  -3   5  11    2.58    2.58
  -3   5  11    3.81    2.80
  -3   5  10   27.46    5.01
   3  -5 -10   19.38    5.02
  -3   5  10   21.04    4.67
  -3   5   9   15.88    3.77
   3  -5  -9   21.10    4.95
  -3   5   9    8.61    3.04
  -3   5   8   35.58    5.12
   3  -5  -8   38.21    5.97
  -3   5   8   34.95    5.92
  -3   5   7   24.41    3.93
   3  -5  -7   29.28    5.01
  -3   5   7   14.62    4.13
   3  -5  -6   40.70    5.76
  -3   5   6   39.32    5.60
  -3   5   6   44.51    4.91
   3  -5  -5  105.87    8.51
  -3   5   5  103.34    8.66
  -3   5   5  117.17    7.23
  -3   5   4    3.33    1.42
  -3   5   4    4.12    1.58
   3  -5  -4    2.48    2.09
  -3   5   4    3.73    1.77
  -3   5   3    0.24    1.18
  -3   5   3   -0.03    0.86
   3  -5  -3    4.05    2.18
  -3   5   3   -0.61    1.67
   3  -5  -2   62.57    5.97
  -3   5   2   52.86    5.60
  -3   5   2   61.04    5.11
  -3   5   2   62.84    3.95
   3  -5  -1  142.42    8.81
  -3   5   1  141.11    8.74
  -3   5   1  132.72    7.59
  -3   5   1  148.71    5.25
   3  -5   0   68.61    6.11
  -3   5   0   68.45    6.00
  -3   5   0   62.74    5.50
  -3   5   0   74.30    3.20
   3  -5   1  646.75   18.37
  -3   5  -1  618.52   17.35
  -3   5  -1  607.27   17.22
   3  -5   2  145.98    8.95
  -3   5  -2  158.29    8.69
  -3   5  -2  156.55    8.99
   3  -5   3   17.50    3.25
  -3   5  -3   19.58    3.15
  -3   5  -3   18.93    3.43
   3  -5   4  258.04   12.47
  -3   5  -4  261.95   11.09
  -3   5  -4  260.04   12.14
   3  -5   5  232.79   12.25
  -3   5  -5  243.40   10.69
  -3   5  -5  228.34   11.76
   3  -5   5  232.06   10.36
   3  -5   6   29.95    4.79
  -3   5  -6   31.03    4.69
  -3   5  -6   39.14    4.43
   3  -5   6   32.83    4.20
   3  -5   7    4.55    1.97
   3  -5   7    7.22    2.95
  -3   5  -7    4.24    2.32
  -3   5  -7    5.64    1.66
   3  -5   8   12.88    3.28
   3  -5   8   10.84    3.59
  -3   5  -8   18.74    4.30
   3  -5   9   25.54    4.50
   3  -5   9   34.57    5.77
  -3   5  -9   27.18    5.18
   3  -5  10   -0.86    2.07
   3  -5  10    1.61    2.10
  -3   5 -10    0.27    2.31
   3  -5  11   18.20    4.18
   3  -5  11   24.66    5.71
  -3   5 -11   19.47    4.96
   3  -5  12    9.76    3.59
  -3   4  12    2.23    2.00
  -3   4  11    3.77    2.60
  -3   4  11    6.34    2.88
   3  -4 -11    1.72    2.10
  -3   4  10    4.29    1.95
  -3   4  10    5.88    2.95
   3  -4 -10    5.38    3.04
   3  -4  -9  134.17   11.38
  -3   4   9  136.28   11.17
  -3   4   9  123.38    9.72
  -3   4   8    8.10    2.72
  -3   4   8    9.39    3.26
   3  -4  -8    5.48    1.87
  -3   4   7    6.33    2.39
   3  -4  -7    0.55    1.22
  -3   4   7    4.67    2.30
   3  -4  -6   86.98    7.57
  -3   4   6   76.30    7.45
  -3   4   6   82.10    6.56
  -3   4   5   22.20    3.29
   3  -4  -5   20.21    3.73
  -3   4   5   16.36    3.32
  -3   4   5   25.79    3.22
  -3   4   4    6.86    1.88
  -3   4   4    6.37    1.72
  -3   4   4    4.89    2.47
   3  -4  -4    5.04    1.85
   3  -4  -3  142.21    8.52
  -3   4   3  137.74    8.79
  -3   4   3  149.68    6.86
  -3   4   3  141.19    7.39
   3  -4  -2  602.78   17.06
  -3   4   2  602.94   17.42
  -3   4   2  647.56   13.04
  -3   4   2  570.64   15.26
   3  -4  -1   37.20    4.35
  -3   4   1   33.22    4.10
  -3   4   1   27.91    3.55
  -3   4   1   40.03    3.00
   3  -4   0  260.93   10.95
  -3   4   0  250.86   10.56
  -3   4   0  263.69    7.03
  -3   4   0  252.40   10.66
   3  -4   1  158.30    8.64
  -3   4  -1  164.56    8.34
  -3   4  -1  170.78    5.59
  -3   4  -1  157.69    8.56
   3  -4   2  341.80   12.80
  -3   4  -2  365.09   12.10
  -3   4  -2  387.18    8.69
  -3   4  -2  358.86   13.34
  -3   4  -3   18.09    3.08
   3  -4   3   19.51    3.25
  -3   4  -3   27.23    3.30
  -3   4  -3   25.48    2.41
   3  -4   4   67.49    6.22
  -3   4  -4   71.36    5.33
  -3   4  -4   59.81    5.74
   3  -4   5   20.57    3.78
  -3   4  -5   19.59    3.72
  -3   4  -5   18.21    2.79
  -3   4  -5   13.60    2.88
   3  -4   5   18.88    3.03
   3  -4   6  204.15   11.58
  -3   4  -6  196.28   11.23
  -3   4  -6  220.64    9.32
  -3   4  -6  203.41   11.08
   3  -4   6  205.18   10.62
   3  -4   7  106.34    8.78
  -3   4  -7  114.40    9.01
  -3   4  -7  109.42    8.45
   3  -4   7  104.14    7.99
   3  -4   8  208.23   12.85
  -3   4  -8  215.53   13.10
   3  -4   8  204.31   11.76
   3  -4   9    1.34    1.61
   3  -4   9    3.35    2.17
  -3   4  -9   -1.81    1.59
   3  -4  10    5.02    2.19
   3  -4  10    7.00    3.21
  -3   4 -10   15.18    4.08
   3  -4  11   42.83    6.40
   3  -4  11   50.64    7.39
  -3   4 -11   44.04    6.95
   3  -4  12   14.02    4.08
  -3   3  12    3.22    2.72
  -3   3  11   22.25    4.69
   3  -3 -11   15.84    4.46
   3  -3 -10  292.34   17.10
  -3   3  10  271.26   14.83
  -3   3   9   25.76    4.53
   3  -3  -9   17.47    4.10
   3  -3  -8  192.88   12.62
  -3   3   8  172.74   10.67
  -3   3   7   26.01    4.00
   3  -3  -7   24.39    4.29
  -3   3   6   -0.87    1.45
   3  -3  -6   -0.67    1.22
  -3   3   6    1.37    1.13
  -3   3   5   26.34    3.52
   3  -3  -5   25.17    3.71
  -3   3   5   33.39    3.60
   3  -3  -4   41.35    4.61
  -3   3   4   44.79    4.26
  -3   3   4   48.53    5.38
  -3   3   4   45.86    4.22
  -3   3   3   14.38    2.35
   3  -3  -3    9.19    2.33
  -3   3   3   11.39    2.60
  -3   3   3    9.34    2.24
  -3   3   2    0.99    0.90
   3  -3  -2   -0.78    1.05
  -3   3   2    1.76    1.19
  -3   3   2    0.38    1.10
  -3   3   1  818.23   18.56
   3  -3  -1  851.99   18.33
  -3   3   1  841.26   18.67
  -3   3   1  872.64   14.80
  -3   3   0    0.69    0.60
   3  -3   0   -0.69    1.04
  -3   3   0   -0.30    1.52
  -3   3   0    0.07    1.23
  -3   3  -1  205.31    9.52
   3  -3   1  198.13    8.96
  -3   3  -1  210.89    8.68
  -3   3  -1  201.25    6.93
   3  -3   1  200.50    9.43
  -3   3  -2    5.61    1.30
   3  -3   2    7.35    2.09
  -3   3  -2    4.95    1.45
  -3   3  -2    4.51    1.50
   3  -3   2    4.83    1.87
   3  -3   3  519.34   15.50
  -3   3  -3  519.04   14.87
  -3   3  -3  560.44   13.39
  -3   3  -3  533.55   16.18
   3  -3   3  543.83   15.85
  -3   3  -4    2.77    1.37
   3  -3   4    8.80    2.56
   3  -3   4    3.55    1.53
  -3   3  -4    3.57    1.96
  -3   3  -4    4.00    1.27
   3  -3   5   17.11    3.16
   3  -3   5    8.48    2.48
  -3   3  -5    9.45    2.56
  -3   3  -5   11.55    1.99
  -3   3  -5   13.80    3.02
   3  -3   6  413.15   16.12
  -3   3  -6  397.58   15.74
  -3   3  -6  397.49   15.01
   3  -3   6  393.87   15.09
   3  -3   7    2.27    1.16
   3  -3   7    7.50    2.69
  -3   3  -7    6.32    2.19
  -3   3  -7    2.88    2.11
   3  -3   8   53.54    6.58
  -3   3  -8   68.01    7.33
  -3   3  -8   59.88    6.29
   3  -3   8   65.31    6.91
   3  -3   9  200.46   13.15
  -3   3  -9  204.80   13.34
   3  -3   9  187.72   12.24
   3  -3  10   22.77    4.41
   3  -3  10   11.90    3.54
  -3   3 -10   19.42    4.41
  -3   3 -11  121.18   11.33
   3  -3  11  106.60   10.14
   3  -3  12    0.82    1.81
  -3   2  12    0.91    2.14
   3  -2 -12    0.50    1.81
  -3   2  11    7.73    3.70
   3  -2 -11    0.05    2.55
  -3   2  10   20.64    4.40
   3  -2 -10   27.62    5.42
   3  -2  -9   65.34    7.61
  -3   2   9   60.23    6.81
   3  -2  -8   75.53    7.82
  -3   2   8   70.61    6.86
   3  -2  -7  684.10   21.71
  -3   2   7  707.28   20.18
   3  -2  -6  133.52    9.12
   3  -2  -6  134.34    8.24
  -3   2   6  125.75    7.96
   3  -2  -5  263.00   12.03
   3  -2  -5  294.90   11.37
  -3   2   5  273.41   11.15
   3  -2  -4  435.01   13.09
  -3   2   4  452.85   13.35
   3  -2  -3  277.37   10.13
  -3   2   3  267.19    9.67
   3  -2  -2 1139.26   19.81
  -3   2   2 1151.46   21.79
  -3   2   2 1132.43   18.74
   3  -2  -1  555.02   13.48
  -3   2   1  541.12   14.11
  -3   2   1  560.73   12.68
  -3   2   0    0.19    1.26
  -3   2   0    0.59    0.86
   3  -2   0   -0.17    1.17
   3  -2   0    0.29    0.87
  -3   2   0    0.94    1.03
  -3   2  -1   49.62    4.74
   3  -2   1   57.03    4.65
  -3   2  -1   56.51    4.07
  -3   2  -1   61.58    4.31
  -3   2  -1   65.67    4.41
   3  -2   1   53.82    4.83
  -3   2  -2  236.64   10.35
   3  -2   2  238.83    9.60
  -3   2  -2  239.38    9.15
  -3   2  -2  250.79    8.26
  -3   2  -2  249.89    8.72
   3  -2   2  243.90   10.49
  -3   2  -3   43.59    4.63
   3  -2   3   51.82    4.76
  -3   2  -3   52.62    4.70
  -3   2  -3   59.50    3.92
   3  -2   3   50.45    4.94
   3  -2   4   12.42    2.67
   3  -2   4    4.76    1.79
  -3   2  -4    7.56    2.24
  -3   2  -4    7.09    1.94
  -3   2  -4    7.63    1.50
   3  -2   4    9.79    2.43
   3  -2   5  133.05    8.54
  -3   2  -5  127.29    8.27
   3  -2   5  121.05    8.29
  -3   2  -5  127.42    8.18
   3  -2   5  126.31    7.94
   3  -2   6  161.08    9.93
  -3   2  -6  159.03    9.87
   3  -2   6  153.55    9.69
  -3   2  -6  158.57    9.42
   3  -2   6  157.98    8.84
   3  -2   7    7.44    2.44
   3  -2   7    9.43    2.83
   3  -2   7    5.53    2.18
  -3   2  -7    6.14    2.59
  -3   2  -7    6.04    2.11
   3  -2   8    7.87    2.43
  -3   2  -8   16.40    3.49
  -3   2  -8   12.02    3.51
   3  -2   8   10.02    3.05
   3  -2   9    0.99    1.93
   3  -2   9   -0.49    1.56
  -3   2  -9   -0.89    1.36
  -3   2  -9    0.58    1.54
   3  -2  10   40.38    6.23
  -3   2 -10   48.72    7.13
   3  -2  11   35.91    6.31
  -3   2 -11   47.98    7.14
  -3   1  12   16.52    4.25
   3  -1 -12   10.26    3.51
  -3   1  11   26.79    4.94
   3  -1 -11   12.21    3.36
  -3   1  10   36.78    5.38
   3  -1 -10   42.54    6.42
  -3   1   9   59.36    6.73
   3  -1  -9   59.30    7.16
  -3   1   8  177.59   10.73
   3  -1  -8  184.78   11.86
  -3   1   7 1212.48   26.47
   3  -1  -7 1183.08   28.24
   3  -1  -6  324.74   13.82
  -3   1   6  331.08   13.09
   3  -1  -5  694.95   18.95
   3  -1  -5  727.98   16.27
  -3   1   5  696.42   17.84
  -3   1   4    4.92    1.66
   3  -1  -4    2.46    1.27
   3  -1  -4    5.77    2.01
  -3   1   3   11.95    2.22
   3  -1  -3   16.81    2.33
  -3   1   2    2.82    1.37
   3  -1  -2   -0.39    0.73
   3  -1  -2    0.73    0.99
  -3   1   2    0.99    0.37
  -3   1   2    0.65    0.31
   3  -1  -1  202.60    7.37
   3  -1  -1  203.71    7.34
  -3   1   1  213.67    5.63
  -3   1   1  229.58    8.69
   3  -1   0  161.46    5.75
   3  -1   0  147.07    6.41
  -3   1   0  160.13    5.83
  -3   1   0  150.28    6.62
  -3   1   0  150.89    6.97
  -3   1  -1    1.75    1.04
   3  -1   1   -0.67    1.24
   3  -1   1    1.34    1.08
   3  -1   1    0.90    0.58
  -3   1  -1    1.02    0.85
  -3   1  -1    0.92    0.77
   3  -1   2 1502.81   22.80
  -3   1  -2 1486.98   25.94
  -3   1  -2 1541.89   22.80
  -3   1  -2 1514.83   18.20
   3  -1   2 1513.54   25.96
   3  -1   2 1533.72    9.91
  -3   1  -3   -0.33    1.17
   3  -1   3    1.94    1.46
   3  -1   3   -0.91    1.24
  -3   1  -3    0.93    0.68
  -3   1  -3    1.96    1.31
  -3   1  -4  141.16    8.39
   3  -1   4  143.30    8.12
  -3   1  -4  143.97    8.29
   3  -1   4  149.01    8.94
   3  -1   4  141.48    8.28
   3  -1   5  369.51   13.80
  -3   1  -5  365.80   14.11
   3  -1   5  361.79   14.51
  -3   1  -5  352.59   13.45
   3  -1   5  356.08   13.20
   3  -1   6  554.58   17.96
  -3   1  -6  516.88   17.88
   3  -1   6  525.19   18.42
  -3   1  -6  552.46   17.16
   3  -1   6  572.20   16.90
   3  -1   7  460.49   17.29
  -3   1  -7  486.17   18.29
  -3   1  -7  477.76   16.15
   3  -1   7  435.24   17.65
   3  -1   7  473.76   15.51
   3  -1   8   30.74    4.95
  -3   1  -8   37.37    4.81
  -3   1  -8   32.00    5.10
   3  -1   8   37.16    4.44
   3  -1   9   16.50    3.91
  -3   1  -9   19.21    3.63
  -3   1  -9   13.10    3.62
  -3   1 -10   78.27    8.82
   3  -1  10   76.90    8.68
   3  -1  11    0.38    1.64
  -3   1 -11    7.06    3.76
   3   0 -12   79.42    9.43
  -3   0  12   75.31    8.67
  -3   0  11   17.67    4.40
   3   0 -11   12.03    3.98
  -3   0  10  107.68    9.55
   3   0 -10  109.46   10.02
  -3   0   9  240.19   13.18
   3   0  -9  206.53   13.08
  -3   0   8  483.45   17.81
   3   0  -8  476.11   18.63
  -3   0   7  141.66    9.28
   3   0  -7  146.24    9.75
  -3   0   6    0.88    1.85
   3   0  -6    8.49    2.39
   3   0  -5  369.53   10.57
  -3   0   5  348.81   12.90
   3   0  -5  352.32   13.28
   3   0  -4  557.04   11.90
  -3   0   4  527.01   15.12
  -3   0   3    5.90    1.78
   3   0  -3    4.56    1.25
   3   0  -3    2.70    1.29
   3   0  -2   37.29    2.81
  -3   0   2   41.84    4.08
   3   0  -2   37.41    3.46
  -3   0   1    1.03    1.10
   3   0  -1    0.22    1.26
   3   0  -1   -0.08    0.56
   3   0  -1   -0.05    0.64
  -3   0   1   -0.22    0.36
   3   0   0  152.11    5.89
  -3   0   0  148.76    5.59
  -3   0   0  153.14    7.53
   3   0   0  146.80    5.04
   3   0   1   99.63    5.19
  -3   0  -1  105.13    4.59
  -3   0  -1  107.13    5.42
  -3   0  -1   93.09    6.04
   3   0   1   99.72    2.85
   3   0   1  105.64    6.93
   3   0   2 1170.08   19.29
  -3   0  -2 1146.80   19.81
  -3   0  -2 1223.59   13.34
   3   0   2 1117.37   22.58
   3   0   3  247.24    9.65
  -3   0  -3  241.37   10.61
  -3   0  -3  267.75   10.50
   3   0   3  245.24   10.77
   3   0   4   -0.10    1.14
  -3   0  -4    0.99    1.20
   3   0   4    1.92    1.73
   3   0   4    0.04    1.07
  -3   0  -4    0.79    1.47
   3   0   5   18.65    3.41
  -3   0  -5   14.88    3.01
   3   0   5   15.30    2.92
   3   0   5   20.42    3.60
  -3   0  -5   14.62    3.01
   3   0   6   16.82    3.62
   3   0   6   21.51    3.59
  -3   0  -6   24.17    3.79
  -3   0  -6   16.91    3.70
  -3   0  -7  346.26   15.73
   3   0   7  333.89   15.72
  -3   0  -7  349.00   13.70
   3   0   7  347.80   13.53
  -3   0  -8   63.32    7.24
  -3   0  -8   65.41    6.13
   3   0   8   63.31    7.20
  -3   0  -9   74.01    8.25
   3   0   9   71.36    8.23
   3   0  10    9.37    3.73
  -3   0 -10    8.32    3.09
  -3   0 -11  206.98   14.98
   3   0  11  202.68   14.91
  -3  -1  12   28.30    5.67
   3   1 -12   30.38    6.28
  -3  -1  11   18.59    4.32
   3   1 -11   16.41    4.56
  -3  -1  10   10.87    3.41
   3   1 -10   13.23    3.52
  -3  -1   9   45.68    5.94
   3   1  -9   44.26    6.06
  -3  -1   8  358.93   15.52
   3   1  -8  348.83   15.87
  -3  -1   7  712.52   20.60
   3   1  -7  713.35   21.37
  -3  -1   6   43.70    5.12
   3   1  -6   41.73    4.92
   3   1  -5   67.02    3.84
  -3  -1   5   71.57    6.01
   3   1  -5   61.05    5.59
  -3  -1   4   20.66    3.28
   3   1  -4   21.06    1.94
   3   1  -3  124.24    7.29
   3   1  -3  132.87    4.10
  -3  -1   3  121.33    7.37
   3   1  -3  131.17    6.93
   3   1  -2  149.08    8.02
   3   1  -2  152.74    4.17
  -3  -1   2  150.91    3.28
  -3  -1   2  156.98    8.12
   3   1  -2  155.69    6.86
  -3  -1   1   10.12    2.05
   3   1  -1   11.40    1.72
   3   1  -1   11.48    2.49
   3   1  -1    9.77    1.27
  -3  -1   1   10.68    1.39
   3   1   0 1063.11   21.93
   3   1   0 1099.93   13.99
  -3  -1   0 1101.76   16.08
   3   1   0 1083.53   13.01
  -3  -1   0 1067.15   21.09
   3   1   1   20.33    3.30
   3   1   1   18.41    2.16
  -3  -1  -1   19.89    1.13
  -3  -1  -1   21.19    2.64
  -3  -1  -1   17.02    2.77
   3   1   2  246.09   10.91
   3   1   2  260.40    8.83
  -3  -1  -2  252.75    9.62
   3   1   3    3.90    1.42
  -3  -1  -3    3.46    1.39
   3   1   4   72.56    6.13
  -3  -1  -4   68.24    5.92
  -3  -1  -4   80.38    6.39
   3   1   4   65.87    6.26
  -3  -1  -5  300.44   12.30
  -3  -1  -5  303.74   13.23
   3   1   5  306.63   14.26
   3   1   5  293.49   12.39
  -3  -1  -6   14.47    2.80
   3   1   6    5.11    2.05
   3   1   6   13.29    2.93
  -3  -1  -6   15.38    3.36
   3   1   7   17.10    4.16
   3   1   7   14.66    3.06
  -3  -1  -7   13.59    2.68
  -3  -1  -7   15.78    3.43
   3   1   8    0.44    1.58
  -3  -1  -8    1.23    1.83
   3   1   9   14.69    4.19
  -3  -1  -9    8.31    3.37
   3   1  10   16.69    4.77
  -3  -1 -10   26.64    5.49
  -3  -2  12   39.41    6.39
   3   2 -12   40.00    6.89
  -3  -2  11   49.21    6.90
   3   2 -11   35.31    6.20
  -3  -2  10   20.98    4.41
   3   2 -10   28.16    5.19
  -3  -2   9    7.79    2.95
   3   2  -9    4.37    2.64
   3   2  -8   79.86    7.68
  -3  -2   8   78.17    7.39
   3   2  -7  375.37   12.39
  -3  -2   7  337.29   14.54
   3   2  -7  341.55   14.86
   3   2  -6   65.22    5.34
  -3  -2   6   67.11    6.32
   3   2  -6   72.62    6.46
   3   2  -5  308.85   11.48
  -3  -2   5  309.96   12.87
   3   2  -5  294.78   12.12
   3   2  -4   86.83    6.26
  -3  -2   4   90.19    6.72
   3   2  -3  351.85   12.61
   3   2  -3  364.40   11.57
  -3  -2   3  372.05   13.27
   3   2  -2  224.67   10.15
  -3  -2   2  237.14    5.79
   3   2  -2  244.18    8.63
  -3  -2   2  236.75   10.45
   3   2  -1  247.96   10.84
  -3  -2   1  260.50    7.31
   3   2  -1  252.75    7.91
  -3  -2   1  243.39   10.67
   3   2   0   49.05    5.03
  -3  -2   0   55.21    3.13
  -3  -2   0   53.44    3.91
  -3  -2   0   52.63    5.12
   3   2   1  427.13   14.50
  -3  -2  -1  427.17   12.08
  -3  -2  -1  397.49   13.89
   3   2   2  170.12    9.38
  -3  -2  -2  196.46    9.02
   3   2   3    4.16    2.01
  -3  -2  -3    5.90    1.87
   3   2   4    9.01    2.49
   3   2   4    7.76    2.24
  -3  -2  -4    7.73    2.26
   3   2   5  375.57   14.40
  -3  -2  -5  364.36   13.56
  -3  -2  -5  334.31   14.55
   3   2   5  326.49   15.11
   3   2   6    8.24    2.68
   3   2   6   12.59    2.85
  -3  -2  -6   10.62    2.66
  -3  -2  -6   17.71    3.80
   3   2   7    6.16    3.57
   3   2   7    1.11    1.75
  -3  -2  -7    5.21    3.02
  -3  -2  -8   77.22    8.35
   3   2   8   79.89    8.56
   3   2   9   40.53    6.67
  -3  -2  -9   50.46    7.20
   3   2  10   37.38    6.61
  -3  -2 -10   49.26    7.55
  -3  -3  12    4.34    2.69
   3   3 -12    5.11    3.00
  -3  -3  11   33.98    5.77
   3   3 -11   35.71    6.12
  -3  -3  10    9.07    3.37
   3   3 -10    5.97    3.14
  -3  -3   9   20.48    4.34
   3   3  -9    9.62    2.70
  -3  -3   8   13.25    3.56
   3   3  -8   12.33    2.53
   3   3  -8    8.32    2.89
   3   3  -7  376.68   13.06
   3   3  -7  343.40   14.98
  -3  -3   7  337.50   14.90
  -3  -3   6    4.78    1.77
   3   3  -6    6.91    2.40
   3   3  -6    4.50    1.85
  -3  -3   5   14.29    2.95
   3   3  -5   16.53    3.12
   3   3  -5   16.62    2.91
  -3  -3   4    1.32    1.60
   3   3  -4   -0.70    1.21
   3   3  -4    0.97    1.08
  -3  -3   3    2.05    1.62
   3   3  -3    4.65    2.13
   3   3  -2  350.77   13.35
   3   3  -2  367.46   11.07
  -3  -3   2  361.30   13.58
  -3  -3   1    2.17    1.58
   3   3  -1    1.63    1.61
  -3  -3   1    2.28    0.80
   3   3   0  202.80   10.33
  -3  -3   0  222.96    7.01
  -3  -3   0  211.08    8.37
  -3  -3   0  210.40   10.51
   3   3   1    3.53    2.05
  -3  -3  -1    1.97    1.24
  -3  -3  -1    1.52    1.71
   3   3   2   20.39    3.41
  -3  -3  -2   28.41    3.82
   3   3   3   63.63    6.06
  -3  -3  -3   64.54    6.06
   3   3   4   74.89    6.63
  -3  -3  -4   73.21    6.76
   3   3   4   80.97    7.45
   3   3   5  127.93    8.77
  -3  -3  -5  134.92    9.55
   3   3   5  129.61    9.87
   3   3   6    0.68    1.38
   3   3   6    1.47    1.35
  -3  -3  -6    2.74    2.24
   3   3   7   23.70    4.03
   3   3   7   22.35    4.56
  -3  -3  -7   20.39    4.29
   3   3   8    0.61    2.01
  -3  -3  -8    0.08    1.79
   3   3   9   -1.05    2.17
  -3  -3  -9    2.26    1.90
   3   4 -12   97.61   10.26
  -3  -4  12  109.13   10.67
   3   4 -11  128.38   11.29
  -3  -4  11  109.10   10.11
  -3  -4  10    0.81    1.93
   3   4 -10   -0.12    1.32
  -3  -4   9   18.85    4.10
   3   4  -9   17.66    4.19
   3   4  -8  109.10    7.35
   3   4  -8   92.63    8.44
  -3  -4   8  101.20    8.71
   3   4  -7   39.54    4.59
  -3  -4   7   39.28    5.32
   3   4  -7   31.63    4.80
   3   4  -6   60.80    5.71
   3   4  -6   69.23    6.53
  -3  -4   6   66.79    6.51
  -3  -4   5    1.65    1.55
   3   4  -5    0.26    1.16
   3   4  -5    1.86    1.46
  -3  -4   4    6.33    2.38
   3   4  -4   10.19    2.52
   3   4  -4    7.88    2.44
   3   4  -3  192.19   10.23
  -3  -4   3  190.46   10.52
   3   4  -2  493.01   16.59
  -3  -4   2  447.07   15.99
   3   4  -1  317.49   13.50
  -3  -4   1  344.70   10.52
  -3  -4   1  334.42   10.90
  -3  -4   1  308.79   13.32
  -3  -4   0    0.56    1.40
   3   4   0    1.60    1.47
  -3  -4   0    1.77    1.37
   3   4   1   38.10    4.80
  -3  -4  -1   35.33    4.24
  -3  -4  -1   33.14    4.75
   3   4   2  423.16   16.02
  -3  -4  -2  439.76   15.20
   3   4   3   26.25    4.37
  -3  -4  -3   28.04    4.24
   3   4   4   26.38    4.26
   3   4   4   24.01    4.34
  -3  -4  -4   21.16    3.81
   3   4   5  132.74    9.36
  -3  -4  -5  130.48    9.94
   3   4   5  120.38    9.72
   3   4   6   41.33    5.30
   3   4   6   41.87    6.13
  -3  -4  -6   44.78    6.26
   3   4   7   25.43    4.95
  -3  -4  -7   29.65    5.33
   3   4   8    3.52    2.99
  -3  -4  -8   -0.64    1.76
   3   4   9  102.15   10.60
   3   5 -12   63.11    8.58
  -3  -5  12   61.34    8.04
  -3  -5  11    0.68    2.27
   3   5 -11    2.72    3.13
   3   5 -10  124.35   10.90
  -3  -5  10  140.56   11.19
   3   5  -9   75.67    8.19
  -3  -5   9   74.29    7.94
  -3  -5   8   -1.12    1.74
   3   5  -8    1.34    1.72
   3   5  -8    0.30    1.26
  -3  -5   7   10.57    3.26
   3   5  -7    7.77    2.60
  -3  -5   6    9.40    2.91
   3   5  -6    4.61    2.17
   3   5  -6    7.70    2.30
   3   5  -5  296.93   13.38
   3   5  -5  315.71   13.70
  -3  -5   5  296.19   13.89
  -3  -5   4    7.90    2.41
   3   5  -4   12.71    2.99
   3   5  -4   12.38    2.79
   3   5  -3  422.45   16.17
  -3  -5   3  453.71   14.57
   3   5  -3  449.81   14.79
  -3  -5   3  447.51   16.62
   3   5  -2 1431.44   29.93
  -3  -5   2 1543.81   25.42
   3   5  -2 1535.14   25.62
  -3  -5   2 1466.74   30.02
  -3  -5   1    0.99    1.53
   3   5  -1    0.02    1.37
  -3  -5   1    1.14    1.23
   3   5  -1    0.75    0.99
  -3  -5   1    1.63    1.40
   3   5   0   69.20    6.69
  -3  -5   0   65.12    5.75
  -3  -5   0   69.64    6.75
   3   5   1  239.02   12.67
  -3  -5  -1  248.68   11.56
  -3  -5  -1  244.71   12.88
   3   5   2   57.29    6.37
  -3  -5  -2   73.55    6.68
   3   5   3   -1.66    1.39
  -3  -5  -3    4.59    2.42
   3   5   4   50.60    6.08
  -3  -5  -4   41.43    5.69
   3   5   5    0.90    1.28
  -3  -5  -5    0.74    1.62
   3   5   5    3.30    2.60
   3   5   6   -1.53    1.68
   3   5   6    2.40    2.01
  -3  -5  -6    0.75    1.97
  -3  -5  -7  110.27   10.57
   3   5   7  120.03   10.83
   3   5   8   50.73    7.31
  -3  -5  -8   48.31    7.45
   3   6 -11   72.09    8.78
  -3  -6  11   91.60    9.69
   3   6 -10   85.48    9.31
  -3  -6  10   83.76    8.92
  -3  -6   9    7.46    3.02
   3   6  -9    4.20    2.41
  -3  -6   8   -0.11    1.46
   3   6  -8   -1.35    1.72
   3   6  -8    2.13    1.51
   3   6  -7   72.83    6.94
   3   6  -7   78.84    7.84
  -3  -6   7   79.68    7.83
   3   6  -6   61.08    6.44
   3   6  -6   67.68    7.05
  -3  -6   6   63.97    6.83
  -3  -6   5    1.63    1.17
   3   6  -5    6.95    2.57
   3   6  -5    7.08    2.68
  -3  -6   4   29.26    4.68
   3   6  -4   39.10    5.18
  -3  -6   4   40.01    4.90
   3   6  -4   43.06    5.11
   3   6  -3  133.47    9.67
  -3  -6   3  132.17    8.35
   3   6  -3  147.64    8.87
  -3  -6   3  127.77    9.36
  -3  -6   2   35.40    5.08
   3   6  -2   28.10    4.55
  -3  -6   2   30.09    4.05
   3   6  -2   30.54    3.89
   3   6  -1 1695.92   34.64
  -3  -6   1 1789.63   30.42
  -3  -6   1 1721.85   34.59
  -3  -6   0   13.97    3.25
   3   6   0   15.66    3.72
  -3  -6   0   15.37    3.08
   3   6   1   99.01    8.66
  -3  -6  -1  109.58    8.32
  -3  -6  -1  100.68    8.73
   3   6   2   29.05    4.71
  -3  -6  -2   21.93    4.40
  -3  -6  -2   21.08    4.00
   3   6   3   71.63    7.41
  -3  -6  -3   66.45    7.15
   3   6   4    2.42    1.61
  -3  -6  -4    9.64    3.22
   3   6   5   10.66    3.12
  -3  -6  -5   11.36    3.51
   3   6   6   -1.28    2.06
  -3  -6  -6    1.51    1.91
   3   6   6    0.65    2.03
  -3  -6  -7   70.03    8.65
   3   6   7   64.33    8.13
  -3  -7  11   36.70    5.92
   3   7 -11   40.12    6.71
  -3  -7  10   20.04    4.72
   3   7 -10   22.43    5.26
  -3  -7   9   33.79    5.49
   3   7  -9   32.35    5.74
  -3  -7   8   34.66    5.48
   3   7  -8   34.89    5.20
   3   7  -8   34.92    5.65
   3   7  -7   96.68    8.52
   3   7  -7   85.69    8.42
  -3  -7   7   91.45    8.62
  -3  -7   6   40.02    5.89
   3   7  -6   35.15    5.15
  -3  -7   6   44.92    5.78
   3   7  -6   41.87    5.80
   3   7  -5   69.59    7.31
  -3  -7   5   79.36    7.47
   3   7  -5   77.20    7.34
  -3  -7   5   69.12    7.30
   3   7  -4  210.85   12.89
  -3  -7   4  217.95   11.79
   3   7  -4  222.29   11.87
  -3  -7   4  213.14   12.71
  -3  -7   3    0.17    1.42
   3   7  -3    2.26    1.73
  -3  -7   3    0.57    1.50
   3   7  -3    1.92    1.78
  -3  -7   2   17.56    3.77
   3   7  -2   19.71    4.00
   3   7  -1  230.98   13.59
  -3  -7   1  234.83   13.40
  -3  -7   0    5.00    2.53
   3   7   0    9.37    3.12
  -3  -7   0   10.05    3.12
  -3  -7  -1    9.78    3.04
   3   7   1   21.05    4.76
  -3  -7  -1   17.07    3.64
   3   7   2   60.46    7.24
  -3  -7  -2   52.13    6.51
  -3  -7  -2   53.21    6.81
   3   7   3    5.83    2.52
  -3  -7  -3    4.41    2.31
   3   7   4   -0.47    2.05
  -3  -7  -4   -3.19    2.09
   3   7   5    4.66    2.18
  -3  -7  -5   14.10    4.09
  -3  -7  -6   18.13    4.90
  -3  -8  10    2.24    2.03
  -3  -8   9    3.30    2.58
   3   8  -9   -1.36    1.54
   3   8  -8  117.36    9.86
  -3  -8   8  138.82   11.44
   3   8  -8  131.97   11.17
  -3  -8   8  119.03   10.33
  -3  -8   7   13.28    3.90
   3   8  -7    6.42    2.85
  -3  -8   7    9.12    3.21
   3   8  -7   11.52    3.37
  -3  -8   6   12.45    3.56
   3   8  -6   17.64    4.33
  -3  -8   6   19.14    4.12
   3   8  -6   15.92    3.97
   3   8  -5  233.28   14.04
  -3  -8   5  257.87   14.04
   3   8  -5  264.38   14.10
  -3  -8   5  242.16   14.04
  -3  -8   4    6.81    2.74
  -3  -8   4    2.17    1.93
   3   8  -4    4.08    2.10
   3   8  -4    0.78    1.61
  -3  -8   3    3.81    2.97
   3   8  -3   -0.65    1.62
  -3  -8   2   45.45    6.12
   3   8  -2   40.83    6.15
  -3  -8   1    4.84    2.46
   3   8  -1    1.14    1.90
  -3  -8   0    1.78    1.78
   3   8   0    2.93    1.71
  -3  -8  -1    6.04    3.05
   3   8   1    7.35    2.95
  -3  -8  -1    6.70    2.95
   3   8   2    4.10    2.51
  -3  -8  -2    1.99    1.80
  -3  -8  -2    3.28    2.25
   3   8   3   50.97    6.94
  -3  -8  -3   45.50    6.66
  -3  -8  -3   48.32    7.11
   3   8   4  141.28   11.60
  -3  -8  -4  112.19   10.67
  -3  -9   9    0.12    1.44
  -3  -9   9    0.29    2.61
   3   9  -9   -1.24    2.52
   3   9  -8   93.04    9.27
  -3  -9   8  117.62   10.92
   3   9  -8  104.04   10.19
  -3  -9   8  109.71   10.26
  -3  -9   7   10.17    3.26
   3   9  -7   20.48    4.62
  -3  -9   7   12.20    3.78
   3   9  -7   11.16    3.71
  -3  -9   6   -1.21    1.67
   3   9  -6   -2.18    2.32
  -3  -9   6   -1.15    2.38
   3   9  -6    0.67    1.96
  -3  -9   5   13.40    3.96
   3   9  -5    8.64    3.26
  -3  -9   5    3.08    2.05
  -3  -9   4    5.10    2.43
   3   9  -4    5.47    2.12
  -3  -9   3    6.03    2.92
   3   9  -3    0.13    1.59
  -3  -9   2    3.43    2.18
   3   9  -2    2.46    2.16
  -3  -9   1   18.11    4.53
   3   9  -1   16.55    3.90
  -3  -9   0   27.50    5.36
   3   9   0   25.61    5.20
  -3  -9  -1   44.45    6.70
   3   9   1   59.85    7.75
  -3  -9  -2    8.48    3.56
  -3  -9  -2   12.59    4.13
  -3  -9  -3    6.32    3.11
  -3 -10   8  119.29   11.07
  -3 -10   7   23.74    4.80
  -3 -10   7   21.79    5.11
   3  10  -7   21.60    5.23
  -3 -10   6   54.05    7.44
  -3 -10   6   49.83    6.98
  -3 -10   5   48.31    6.73
  -3 -10   4   40.66    6.24
  -3 -10   3   87.28    9.09
  -3 -10   2   -1.38    1.89
  -3 -10   1   15.61    4.14
  -3 -10   0   19.00    4.80
  -4  11  -2    3.69    2.32
  -4  11  -3   -1.67    2.35
  -4  11  -4  151.02   12.81
  -4  11  -5   11.76    4.42
   4 -10  -2    4.51    3.33
  -4  10   2    2.04    1.70
   4 -10  -1   36.36    6.36
  -4  10   1   34.78    6.39
   4 -10   0  197.73   14.49
  -4  10   0  191.75   14.23
   4 -10   1    2.63    2.87
  -4  10  -1   -0.40    1.85
   4 -10   2   -2.56    2.91
  -4  10  -2    2.31    2.17
   4 -10   3   72.61    8.80
  -4  10  -3   80.87    8.97
   4 -10   4   36.82    6.40
  -4  10  -4   35.54    6.04
   4 -10   5    2.37    1.66
  -4  10  -5    0.35    1.74
   4 -10   6   15.69    4.53
  -4  10  -6    6.60    2.76
  -4  10  -7   46.03    6.93
   4  -9  -5   29.73    6.39
   4  -9  -4    1.61    2.64
  -4   9   4   -0.61    2.20
   4  -9  -3   30.42    5.94
  -4   9   3   31.68    5.76
   4  -9  -2    0.51    1.68
  -4   9   2    2.87    2.65
   4  -9  -1    2.42    2.55
  -4   9   1    2.36    2.23
   4  -9   0   70.79    8.40
  -4   9   0   59.37    7.71
   4  -9   1   22.35    4.83
  -4   9  -1   14.58    3.93
   4  -9   2   48.40    6.93
  -4   9  -2   25.13    4.82
   4  -9   3    1.93    2.81
  -4   9  -3    0.68    1.92
   4  -9   4    1.86    1.81
  -4   9  -4    6.31    3.13
   4  -9   5   41.32    6.64
  -4   9  -5   47.41    6.61
   4  -9   6   47.59    7.26
  -4   9  -6   41.75    6.36
   4  -9   7   24.13    5.13
  -4   9  -7   30.03    5.41
   4  -8  -6    0.94    1.76
  -4   8   6    3.85    2.57
   4  -8  -5   12.57    3.92
  -4   8   5   11.43    4.40
   4  -8  -4    0.01    1.50
  -4   8   4   -0.67    1.67
   4  -8  -3   12.12    3.70
  -4   8   3   17.51    4.42
   4  -8  -2   12.75    3.73
  -4   8   2   21.93    4.90
   4  -8  -1   14.09    3.90
  -4   8   1   17.97    4.32
   4  -8   0   91.54    8.99
  -4   8   0   76.88    8.19
   4  -8   1   -1.87    1.57
  -4   8  -1   -1.65    2.20
   4  -8   2   14.06    4.02
  -4   8  -2    7.72    2.78
   4  -8   3   14.98    3.83
  -4   8  -3   17.25    3.77
   4  -8   4   84.25    8.75
  -4   8  -4   70.58    7.57
   4  -8   5   -1.44    1.83
  -4   8  -5    3.45    2.45
   4  -8   6   22.06    4.77
  -4   8  -6   27.60    4.91
   4  -8   7   18.42    4.68
  -4   8  -8    7.30    3.62
   4  -8   8    6.79    3.15
  -4   8  -9    9.64    4.20
   4  -7  -8    4.73    2.83
   4  -7  -7    3.37    1.79
  -4   7   7    8.27    3.35
   4  -7  -6   15.03    4.38
  -4   7   6    5.90    3.18
   4  -7  -5   18.65    4.60
  -4   7   5   15.38    3.97
   4  -7  -4   43.46    6.32
  -4   7   4   43.81    6.52
   4  -7  -3    1.00    1.78
  -4   7   3    1.26    2.65
   4  -7  -2   50.55    6.62
  -4   7   2   40.45    5.85
  -4   7   2   38.29    4.87
   4  -7  -1   29.29    5.06
  -4   7   1   32.69    5.19
  -4   7   1   33.75    4.81
   4  -7   0   41.86    5.87
  -4   7   0   45.63    6.04
  -4   7   0   43.63    5.53
   4  -7   1    6.59    2.62
  -4   7  -1    9.26    3.14
  -4   7  -1    9.13    3.07
   4  -7   2    6.24    2.70
  -4   7  -2    7.57    2.92
  -4   7  -2   11.16    2.95
   4  -7   3    5.92    2.67
  -4   7  -3    4.19    2.38
  -4   7  -3    5.58    2.52
   4  -7   4   92.84    8.99
  -4   7  -4   86.30    7.82
  -4   7  -4   86.16    8.51
   4  -7   5   12.49    3.94
  -4   7  -5   15.66    3.71
   4  -7   6   10.12    3.44
  -4   7  -6   17.88    3.65
   4  -7   7   67.47    8.18
  -4   7  -7   75.42    8.45
   4  -7   8   10.70    3.81
  -4   7  -8    6.35    3.04
   4  -7   9   11.49    4.06
  -4   7  -9   10.06    3.45
   4  -6  -9    7.27    3.59
   4  -6  -8   73.16    8.64
  -4   6   8   64.95    8.45
   4  -6  -7    5.50    2.62
  -4   6   7    5.17    3.36
   4  -6  -6   10.10    3.22
  -4   6   6    7.73    3.57
   4  -6  -5   57.61    7.13
  -4   6   5   62.65    7.58
   4  -6  -4   11.04    2.93
  -4   6   4   18.98    4.44
  -4   6   3   39.04    4.85
   4  -6  -3   36.43    5.37
  -4   6   3   44.18    6.03
   4  -6  -2   39.35    5.42
  -4   6   2   44.84    5.93
  -4   6   2   47.38    5.41
   4  -6  -1   15.45    3.46
  -4   6   1   10.62    2.92
  -4   6   1   16.93    3.32
   4  -6   0  219.99   12.38
  -4   6   0  230.23   12.47
  -4   6   0  219.19   11.77
   4  -6   1   53.06    6.24
  -4   6  -1   68.62    6.79
  -4   6  -1   63.49    6.68
   4  -6   2   86.08    7.91
  -4   6  -2   91.37    7.70
  -4   6  -2   91.99    7.87
   4  -6   3   15.97    3.57
  -4   6  -3   22.42    3.92
  -4   6  -3   24.66    4.34
   4  -6   4   -2.77    2.17
  -4   6  -4    1.03    1.70
  -4   6  -4   -0.14    1.72
   4  -6   5   23.10    4.50
  -4   6  -5   23.22    4.51
  -4   6  -5   26.97    4.17
   4  -6   6    1.97    2.60
  -4   6  -6   -1.05    1.76
  -4   6  -6    1.74    2.50
   4  -6   7   23.26    4.77
  -4   6  -7   21.44    4.36
   4  -6   8   18.50    4.96
  -4   6  -8    9.30    3.35
   4  -6   9   14.98    4.11
  -4   6  -9   18.87    5.01
  -4   6 -10    0.08    1.36
   4  -5 -10    2.96    2.91
   4  -5  -9    9.97    3.54
   4  -5  -9   16.43    4.38
  -4   5   9   12.06    3.86
   4  -5  -8    8.05    3.20
   4  -5  -8    9.67    3.71
  -4   5   8    7.03    3.70
   4  -5  -7  221.52   13.59
  -4   5   7  217.81   14.42
   4  -5  -6   11.40    3.15
  -4   5   6    6.41    3.04
   4  -5  -5   81.05    7.76
  -4   5   5   80.60    8.31
   4  -5  -4  293.09   14.34
  -4   5   4  288.31   14.93
  -4   5   4  307.83   12.82
   4  -5  -3   82.88    7.50
  -4   5   3   86.65    8.01
  -4   5   3   79.22    6.74
   4  -5  -2  137.20    9.48
  -4   5   2  124.83    9.14
  -4   5   2  134.79    8.79
   4  -5  -1    4.10    1.99
  -4   5   1    6.75    2.64
  -4   5   1    3.15    2.10
  -4   5   0   37.23    4.91
   4  -5   0   31.89    4.68
  -4   5   0   33.76    4.61
   4  -5   1  182.02   10.81
  -4   5  -1  194.90   10.59
  -4   5  -1  205.80   11.56
   4  -5   2  166.22   10.44
  -4   5  -2  171.60    9.72
  -4   5  -2  181.15   10.95
   4  -5   3   16.35    3.47
  -4   5  -3   14.94    3.05
  -4   5  -3   12.49    3.48
   4  -5   4  131.54    9.75
  -4   5  -4  152.34    8.92
  -4   5  -4  150.81   10.47
   4  -5   5   66.19    7.26
  -4   5  -5   59.28    6.50
  -4   5  -5   67.88    7.36
   4  -5   6   33.55    5.49
  -4   5  -6   31.41    5.25
  -4   5  -6   20.63    4.23
   4  -5   7    2.16    2.44
  -4   5  -7    1.76    1.43
  -4   5  -7    6.13    2.90
   4  -5   8   15.62    3.98
  -4   5  -8   20.09    4.30
  -4   5  -8   17.17    4.22
   4  -5   8   16.97    3.79
   4  -5   9  124.87   11.34
  -4   5  -9  144.29   12.15
   4  -5   9  125.71   10.53
   4  -5  10   22.65    4.82
   4  -5  10   13.02    3.96
  -4   5 -10   17.62    4.92
   4  -5  11   23.05    5.27
  -4   4  10    2.00    1.71
   4  -4 -10   -0.54    1.91
   4  -4 -10   10.18    3.61
  -4   4  10    4.05    2.41
  -4   4   9    2.35    1.64
   4  -4  -9    8.40    3.43
   4  -4  -9   -0.12    1.65
  -4   4   9   14.02    4.22
  -4   4   8   11.76    3.18
   4  -4  -8    5.16    2.53
   4  -4  -8    9.56    3.71
  -4   4   8    5.11    3.11
  -4   4   7   28.73    4.43
   4  -4  -7   22.83    4.36
   4  -4  -7   23.07    4.65
  -4   4   7   28.37    5.23
  -4   4   6    1.26    1.80
   4  -4  -6    1.24    1.63
  -4   4   6   -0.61    1.98
  -4   4   5   16.03    3.04
   4  -4  -5   14.56    3.54
  -4   4   5    8.32    2.72
  -4   4   5   11.35    2.67
  -4   4   4    0.82    1.20
   4  -4  -4    0.45    1.65
  -4   4   4   -1.34    2.06
  -4   4   4    0.42    1.43
  -4   4   3  221.49   11.12
   4  -4  -3  220.28   11.44
  -4   4   3  232.12   12.38
  -4   4   3  244.15    9.98
  -4   4   2   53.78    5.51
   4  -4  -2   50.81    5.47
  -4   4   2   57.48    6.05
  -4   4   2   56.03    4.59
  -4   4   1   41.28    4.98
   4  -4  -1   42.86    5.00
  -4   4   1   39.84    4.85
  -4   4   1   39.89    3.71
   4  -4   0   17.71    3.52
  -4   4   0   20.24    3.43
  -4   4   0   18.07    3.53
   4  -4   1    8.57    2.46
  -4   4  -1   15.23    2.97
  -4   4  -1   14.61    3.46
   4  -4   2  135.06    8.87
  -4   4  -2  151.54    8.54
  -4   4  -2  132.89    9.30
  -4   4  -3   20.33    4.00
   4  -4   3   20.68    4.00
  -4   4  -3   23.87    3.73
  -4   4  -3   23.15    3.39
   4  -4   4  173.52   10.74
  -4   4  -4  173.95   10.39
  -4   4  -4  192.86   11.60
   4  -4   5  129.80    9.68
  -4   4  -5  138.45    9.59
  -4   4  -5  130.30    9.68
   4  -4   6    4.39    2.19
  -4   4  -6    1.27    1.78
  -4   4  -6    6.98    2.72
   4  -4   7    0.46    1.89
   4  -4   7   -0.52    1.40
  -4   4  -7    3.54    2.79
  -4   4  -7   -4.66    2.24
   4  -4   8   96.59    9.38
  -4   4  -8   91.61    9.16
  -4   4  -8   85.23    8.38
   4  -4   8   93.60    9.04
   4  -4   9   76.85    8.85
  -4   4  -9   80.42    8.98
   4  -4   9   66.14    7.87
   4  -4  10   -1.84    1.97
   4  -4  10    4.82    3.61
  -4   4 -10    6.40    2.58
  -4   3  11    5.77    2.81
  -4   3  10   17.62    4.10
   4  -3 -10   22.72    5.38
   4  -3  -9  144.65   12.11
   4  -3  -9  152.72   11.00
  -4   3   9  134.09   10.47
   4  -3  -8   62.29    7.64
   4  -3  -8   75.31    7.49
  -4   3   8   58.93    6.75
   4  -3  -7  153.43   11.42
   4  -3  -7  162.98   10.44
  -4   3   7  166.63   10.58
   4  -3  -6   98.52    8.67
   4  -3  -6  104.05    8.11
  -4   3   6  105.47    7.94
  -4   3   5    5.81    2.04
   4  -3  -5    6.99    2.44
  -4   3   5    9.89    3.08
   4  -3  -5    2.01    1.54
  -4   3   5   11.64    2.97
   4  -3  -4   49.34    5.58
   4  -3  -4   45.29    5.06
  -4   3   4   53.04    5.57
  -4   3   4   50.72    5.99
  -4   3   4   54.20    5.15
   4  -3  -3  470.40   15.35
  -4   3   3  475.55   16.31
  -4   3   3  489.30   17.30
  -4   3   3  495.09   14.75
   4  -3  -2   36.38    4.31
  -4   3   2   37.89    4.83
  -4   3   2   41.14    4.89
  -4   3   2   45.46    4.29
   4  -3  -2   37.20    4.93
  -4   3   1    6.80    1.70
   4  -3  -1   11.39    2.99
  -4   3   1    6.03    2.24
   4  -3  -1    6.43    2.01
  -4   3   1    7.97    2.29
  -4   3   0  284.57   13.02
   4  -3   0  296.02   11.95
  -4   3   0  322.26   10.36
  -4   3   0  327.33   12.47
  -4   3   0  315.59   10.69
   4  -3   0  287.04   13.13
  -4   3  -1    0.45    0.99
   4  -3   1    0.55    1.29
   4  -3   1   -0.23    1.41
  -4   3  -1   -1.81    1.53
  -4   3  -1   -0.94    0.94
  -4   3  -1    0.04    1.18
  -4   3  -2    9.28    2.09
  -4   3  -2    6.13    2.54
   4  -3   2    7.54    2.68
   4  -3   2    5.17    2.16
  -4   3  -2    9.21    2.17
  -4   3  -2    7.70    2.05
  -4   3  -3    1.37    1.27
   4  -3   3    2.19    1.66
   4  -3   3    1.07    1.28
  -4   3  -3    2.89    1.33
  -4   3  -3    2.41    1.40
  -4   3  -3    0.65    1.56
   4  -3   4    4.06    2.19
   4  -3   4    5.76    2.44
  -4   3  -4    9.31    2.92
  -4   3  -4    5.75    1.91
  -4   3  -4   10.53    2.42
   4  -3   5  206.47   11.76
  -4   3  -5  211.12   11.72
  -4   3  -5  212.60   12.29
   4  -3   5  200.15   11.58
   4  -3   6  186.71   11.64
  -4   3  -6  181.17   11.54
  -4   3  -6  176.45   11.47
   4  -3   7   94.09    8.69
  -4   3  -7  101.09    9.08
   4  -3   7   98.50    9.05
  -4   3  -7   91.07    8.30
   4  -3   8   90.33    8.98
  -4   3  -8   98.86    9.45
  -4   3  -8   99.86    9.09
   4  -3   8   92.31    9.12
   4  -3   9   81.10    8.90
  -4   3  -9   88.36    9.42
  -4   3  -9   90.42    8.87
   4  -3   9   87.59    9.22
   4  -3  10   59.22    7.93
   4  -3  10   57.67    7.71
  -4   3 -10   47.51    7.25
  -4   2  11   25.95    5.19
   4  -2 -11   30.27    6.29
  -4   2  10   11.22    3.31
   4  -2 -10    1.52    2.70
  -4   2   9    3.94    2.68
   4  -2  -9   -0.53    2.95
  -4   2   8   53.18    6.48
   4  -2  -8   54.24    7.06
   4  -2  -7  159.29   11.22
   4  -2  -7  177.38   10.21
  -4   2   7  156.30   10.23
   4  -2  -6  868.03   24.88
   4  -2  -6  940.72   22.21
  -4   2   6  897.79   23.38
   4  -2  -5   58.72    6.26
   4  -2  -5   60.51    5.49
  -4   2   5   60.68    5.84
   4  -2  -5   55.96    5.55
   4  -2  -4  151.59    9.18
   4  -2  -4  163.93    8.63
  -4   2   4  156.33    8.92
   4  -2  -4  153.86    9.21
  -4   2   3    2.80    1.41
   4  -2  -3    1.42    1.32
   4  -2  -3    2.78    1.39
  -4   2   3    4.54    1.97
   4  -2  -3    0.88    1.08
  -4   2   2   26.11    3.49
   4  -2  -2   19.63    3.69
   4  -2  -2   24.53    3.23
  -4   2   2   26.20    3.76
   4  -2  -1  192.32    8.39
   4  -2  -1  183.34    8.62
  -4   2   1  190.57    9.47
  -4   2   1  188.75    8.96
   4  -2  -1  181.68   10.26
   4  -2   0   87.87    5.18
   4  -2   0   83.20    5.98
  -4   2   0   75.26    6.79
  -4   2   0   93.84    5.32
  -4   2   0   79.30    5.81
  -4   2   0   85.32    5.97
   4  -2   0   83.77    7.03
   4  -2   1   73.05    5.79
  -4   2  -1   72.58    6.61
  -4   2  -1   81.01    5.36
  -4   2  -1   79.87    5.55
  -4   2  -1   80.26    5.92
   4  -2   1   79.71    7.02
  -4   2  -2  128.60    8.97
   4  -2   2  125.02    7.80
  -4   2  -2  122.42    7.20
  -4   2  -2  135.28    6.80
  -4   2  -2  138.57    7.79
   4  -2   2  124.32    8.88
   4  -2   3   29.27    4.52
  -4   2  -3   21.66    4.01
   4  -2   3   26.36    3.91
  -4   2  -3   33.96    4.19
  -4   2  -3   28.23    3.66
   4  -2   4   21.94    4.21
   4  -2   4   19.29    3.69
  -4   2  -4   18.49    3.31
  -4   2  -4   17.89    3.70
   4  -2   5   18.81    3.85
   4  -2   5   17.74    3.64
  -4   2  -5   21.39    3.85
  -4   2  -5   16.62    3.67
   4  -2   6    1.62    1.88
  -4   2  -6    2.08    1.92
   4  -2   6    0.15    1.49
   4  -2   6   -0.33    1.43
  -4   2  -6    0.49    1.91
   4  -2   7   19.59    3.79
   4  -2   7   14.82    3.63
  -4   2  -7   18.71    4.26
  -4   2  -7   23.58    4.38
   4  -2   7   18.11    4.03
   4  -2   8   46.84    6.82
   4  -2   8   33.88    5.45
  -4   2  -8   40.73    6.29
  -4   2  -8   34.22    5.20
   4  -2   8   40.02    5.48
   4  -2   9   89.82    9.33
  -4   2  -9  100.85   10.09
  -4   2  -9   90.95    8.63
   4  -2   9   94.49    9.81
   4  -2  10   23.59    5.20
  -4   2 -10   20.73    5.14
  -4   1  11   -2.68    2.40
   4  -1 -11    4.11    2.77
  -4   1  10  105.74    9.81
   4  -1 -10  115.08   11.16
  -4   1   9   35.30    5.51
   4  -1  -9   33.93    5.73
  -4   1   8  325.57   15.70
   4  -1  -8  338.45   17.05
  -4   1   7   22.99    4.42
   4  -1  -7   15.91    2.93
   4  -1  -7   17.54    3.86
  -4   1   6   41.43    5.21
   4  -1  -6   41.52    4.84
   4  -1  -6   39.80    5.52
  -4   1   5  130.47    8.82
   4  -1  -5  145.84    8.88
   4  -1  -5  127.25    8.84
  -4   1   4  172.16    9.68
   4  -1  -4  172.86    9.72
   4  -1  -4  194.85   10.21
  -4   1   3    1.47    1.29
   4  -1  -3   -1.85    1.90
   4  -1  -3    0.54    0.90
   4  -1  -3   -0.65    1.26
   4  -1  -2   33.06    4.54
   4  -1  -2   35.30    3.49
  -4   1   2   39.04    4.25
   4  -1  -1  436.90   12.06
  -4   1   1  425.35   13.41
  -4   1   1  402.62   13.64
   4  -1  -1  395.65   15.27
   4  -1  -1  430.37   11.88
   4  -1   0   32.32    4.61
   4  -1   0   38.00    3.74
  -4   1   0   39.17    3.92
  -4   1   0   37.53    4.19
   4  -1   1  284.03   10.52
  -4   1  -1  258.07    9.42
  -4   1  -1  258.99    9.19
  -4   1  -1  268.55   11.33
   4  -1   1  247.20   12.25
   4  -1   2  176.63    8.80
  -4   1  -2  152.10    9.73
  -4   1  -2  189.71    8.86
  -4   1  -2  159.10    8.87
   4  -1   2  171.34   10.41
  -4   1  -3  420.87   16.47
   4  -1   3  435.03   14.56
  -4   1  -3  440.28   14.69
  -4   1  -3  413.74   14.68
   4  -1   3  422.02   16.45
   4  -1   4    8.89    2.73
   4  -1   4    3.49    1.65
  -4   1  -4    3.72    2.00
  -4   1  -4    7.73    2.18
   4  -1   5  125.46    8.86
  -4   1  -5  154.13   10.00
   4  -1   5  130.92    9.42
  -4   1  -5  147.15   10.11
   4  -1   6   50.12    5.90
  -4   1  -6   55.86    6.36
   4  -1   6   45.03    6.28
  -4   1  -6   47.10    5.95
   4  -1   6   54.80    6.27
   4  -1   7   69.05    7.38
  -4   1  -7   60.44    6.96
   4  -1   7   68.37    7.96
  -4   1  -7   74.68    7.44
   4  -1   7   74.54    7.25
   4  -1   8   15.17    4.39
   4  -1   8    6.97    2.40
  -4   1  -8   13.42    3.85
  -4   1  -8   10.17    3.36
   4  -1   9   19.48    4.82
  -4   1  -9   11.28    3.84
  -4   1 -10   17.22    4.60
  -4   0  11   23.21    4.75
   4   0 -11   20.74    5.07
   4   0 -10   31.14    5.73
  -4   0  10   45.81    6.69
  -4   0   9    9.56    3.14
   4   0  -9    4.06    2.38
  -4   0   8   10.90    3.31
   4   0  -8   10.51    3.27
  -4   0   7  192.57   11.68
   4   0  -7  193.18   12.00
   4   0  -7  232.33   11.05
  -4   0   6   10.53    3.19
   4   0  -6    9.27    2.42
   4   0  -6   13.48    2.99
  -4   0   5  166.26    9.99
   4   0  -5  172.88   10.05
   4   0  -5  162.87    9.53
  -4   0   4   58.53    5.73
   4   0  -4   62.83    5.74
   4   0  -4   69.95    6.35
  -4   0   3    5.55    2.04
   4   0  -3    8.07    2.37
  -4   0   2   23.25    3.45
   4   0  -2   23.44    3.89
   4   0  -2   26.46    3.27
  -4   0   1  149.10    8.72
   4   0  -1  148.66    9.48
  -4   0   0  476.72   12.70
  -4   0   0  473.28   15.55
   4   0   0  453.25   16.61
   4   0   1   93.90    5.75
  -4   0  -1  101.05    5.88
  -4   0  -1   91.39    7.10
   4   0   1   90.30    7.55
  -4   0  -2   23.05    3.79
   4   0   2   22.45    4.08
   4   0   2   21.78    3.07
  -4   0  -2   22.45    3.05
   4   0   3    2.95    2.13
   4   0   3    1.21    1.54
  -4   0  -3    0.99    1.07
  -4   0  -3    1.71    1.13
  -4   0  -3    0.06    1.40
  -4   0  -4   80.49    7.38
   4   0   4   84.17    6.70
  -4   0  -4   84.45    6.93
   4   0   4   70.31    7.05
   4   0   5    1.67    1.99
  -4   0  -5   -1.15    1.99
   4   0   5    1.09    1.88
  -4   0  -5    1.36    1.89
   4   0   6   15.70    3.59
  -4   0  -6   19.61    4.11
  -4   0  -6   15.20    3.20
   4   0   6   21.72    4.65
   4   0   7   34.21    5.16
  -4   0  -7   32.94    4.91
  -4   0  -7   38.02    5.86
   4   0   7   30.91    5.66
   4   0   8    9.44    3.16
  -4   0  -8    5.01    2.29
   4   0   9    7.28    3.52
  -4   0  -9    8.47    3.53
   4   1 -11  253.79   16.65
  -4  -1  11  278.46   16.72
  -4  -1  10   20.20    4.66
   4   1 -10   19.81    4.95
  -4  -1   9   31.91    5.63
   4   1  -9   30.00    5.44
  -4  -1   8   68.14    7.68
   4   1  -8   62.53    7.11
  -4  -1   7   50.20    6.26
   4   1  -7   57.07    6.57
   4   1  -7   55.42    5.62
  -4  -1   6  140.98    9.73
   4   1  -6  140.44    9.66
   4   1  -6  149.48    9.17
  -4  -1   5    3.17    2.27
   4   1  -5    5.31    1.88
   4   1  -5    6.11    1.96
  -4  -1   4    5.33    2.40
   4   1  -4    2.46    1.86
   4   1  -4    2.73    1.55
  -4  -1   3  536.25   17.50
   4   1  -3  535.27   17.75
   4   1  -2  316.44   13.92
  -4  -1   2  324.87   13.61
   4   1  -2  345.28   10.98
   4   1  -1  153.68    9.77
  -4  -1   1  144.90    9.06
   4   1   0   57.44    6.20
  -4  -1   0   46.53    5.25
  -4  -1  -1   53.37    5.62
   4   1   1   49.08    5.84
  -4  -1  -2  298.43   11.59
  -4  -1  -2  269.35   12.82
   4   1   2  279.91   13.54
   4   1   3   -1.05    1.61
  -4  -1  -3    1.35    1.20
  -4  -1  -4   -0.08    1.71
   4   1   4    1.74    1.41
  -4  -1  -4    4.45    2.26
  -4  -1  -5   81.14    7.50
  -4  -1  -5  108.82    8.66
   4   1   5   94.46    8.26
  -4  -1  -6   16.17    3.31
   4   1   6   24.96    4.42
   4   1   6   11.92    3.66
  -4  -1  -6   12.79    3.36
   4   1   7   -1.05    1.76
  -4  -1  -7   -2.37    1.78
  -4  -1  -7   -3.22    2.02
   4   1   7    0.52    1.48
   4   1   8   42.82    6.89
  -4  -1  -8   51.59    7.10
  -4  -1  -9   10.16    4.17
   4   2 -11   77.40    9.36
  -4  -2  11   70.95    8.62
   4   2 -10  162.58   12.69
  -4  -2  10  163.65   12.65
  -4  -2   9    6.21    2.83
   4   2  -9    4.03    2.73
   4   2  -8  108.28    9.41
  -4  -2   8  118.28    9.88
  -4  -2   7   42.38    5.77
   4   2  -7   31.95    4.45
   4   2  -7   34.14    5.26
  -4  -2   6   14.94    3.60
   4   2  -6    9.98    2.53
   4   2  -6   11.21    3.14
   4   2  -5  128.66    8.81
   4   2  -5  148.35    9.31
  -4  -2   5  140.49    9.72
   4   2  -4   74.93    6.81
   4   2  -4   89.59    6.79
  -4  -2   4   82.39    7.33
  -4  -2   3   12.33    2.80
   4   2  -3    9.61    2.84
   4   2  -2   81.05    7.25
  -4  -2   2   96.19    7.73
  -4  -2   1   32.53    4.51
   4   2  -1   24.23    4.20
  -4  -2   0   28.80    4.47
   4   2   0   28.73    4.50
   4   2   1  150.36   10.16
  -4  -2  -1  152.89    9.91
   4   2   2   13.52    3.07
  -4  -2  -2   21.12    3.43
  -4  -2  -2   13.45    3.21
   4   2   3  337.42   15.54
  -4  -2  -3  362.47   14.21
  -4  -2  -3  338.68   15.59
   4   2   4   44.71    5.72
  -4  -2  -4   45.11    5.49
  -4  -2  -5  146.24   10.22
  -4  -2  -5  150.13   10.50
   4   2   5  144.88   10.45
   4   2   6    1.40    1.90
  -4  -2  -6    2.34    1.62
   4   2   6    0.23    1.87
  -4  -2  -6    1.13    1.92
  -4  -2  -7   67.01    7.91
   4   2   7   71.20    8.69
   4   2   7   73.32    7.66
   4   2   8   16.77    4.53
  -4  -2  -8   18.94    4.45
   4   3 -11  105.51   10.85
  -4  -3  11  110.06   10.88
   4   3 -10   97.32    9.98
  -4  -3  10   98.25    9.90
  -4  -3   9    3.40    2.42
   4   3  -9    1.15    2.07
   4   3  -8   47.17    6.44
  -4  -3   8   51.44    6.83
  -4  -3   7   10.59    3.30
   4   3  -7   11.06    2.97
   4   3  -7   10.50    2.86
  -4  -3   6    1.32    1.25
   4   3  -6    5.26    2.55
   4   3  -6   -0.52    1.29
  -4  -3   5    9.87    3.16
   4   3  -5    2.75    1.50
   4   3  -5    1.71    1.76
   4   3  -4  346.73   15.11
   4   3  -4  362.01   13.61
  -4  -3   4  371.26   15.92
   4   3  -3  152.79   10.06
  -4  -3   3  147.21    9.93
   4   3  -2  259.29   13.29
  -4  -3   2  281.47   13.73
   4   3  -1  468.15   17.97
  -4  -3   1  471.24   17.79
  -4  -3   0   34.91    5.03
   4   3   0   34.21    5.13
   4   3   1  957.99   26.40
  -4  -3  -1 1003.20   26.52
   4   3   2    0.92    1.76
  -4  -3  -2    1.20    1.49
  -4  -3  -2   -1.22    1.68
   4   3   3   -0.24    1.63
  -4  -3  -3    0.32    1.69
  -4  -3  -3    4.62    2.18
   4   3   4   53.29    6.59
  -4  -3  -4   59.69    6.57
   4   3   5    0.84    1.67
  -4  -3  -5    4.08    2.54
  -4  -3  -5    3.53    2.60
   4   3   6   13.84    3.65
  -4  -3  -6   16.88    4.16
   4   3   7    9.30    3.45
  -4  -3  -7    1.77    1.56
  -4  -3  -8   12.93    3.80
   4   4 -11   17.65    4.63
   4   4 -10   47.04    6.89
  -4  -4  10   57.23    7.79
  -4  -4   9   46.20    6.83
   4   4  -9   34.40    5.89
  -4  -4   8    2.28    2.47
   4   4  -8    4.82    2.72
   4   4  -8    2.35    2.25
   4   4  -7   97.05    8.14
   4   4  -7  101.11    8.78
  -4  -4   7   95.50    9.05
   4   4  -6  104.57    8.49
   4   4  -6  103.54    8.44
  -4  -4   6  101.08    8.95
   4   4  -5   53.81    6.22
   4   4  -5   56.50    5.96
  -4  -4   5   57.31    6.70
   4   4  -4   53.31    6.29
  -4  -4   4   55.87    6.47
  -4  -4   3    6.45    2.32
   4   4  -3    6.56    2.70
   4   4  -2  311.32   15.03
  -4  -4   2  323.41   15.36
  -4  -4   1    6.27    2.43
   4   4  -1    3.15    1.90
   4   4   0   44.97    5.92
  -4  -4   0   57.56    6.73
   4   4   1  197.36   12.30
  -4  -4  -1  176.74   11.70
  -4  -4  -2   12.20    3.22
   4   4   2   19.86    4.34
   4   4   3    6.58    2.91
  -4  -4  -3    8.94    2.96
  -4  -4  -3    7.59    3.01
   4   4   4   74.94    7.95
  -4  -4  -4   91.73    8.37
   4   4   5   -0.01    1.98
  -4  -4  -5    3.41    2.15
   4   4   6   28.87    4.99
  -4  -4  -6   24.29    4.98
  -4  -4  -7   -0.18    2.31
  -4  -5  10   36.82    6.45
   4   5 -10   29.84    5.78
  -4  -5   9    4.93    2.56
   4   5  -9    3.70    3.32
  -4  -5   8   29.62    5.61
   4   5  -8   21.86    4.61
   4   5  -8   29.05    4.84
   4   5  -7  107.20    8.92
   4   5  -7   95.64    8.67
  -4  -5   7  110.49    9.95
  -4  -5   6   15.10    3.83
   4   5  -6   11.15    3.14
   4   5  -6   12.64    3.36
   4   5  -5   70.16    7.33
  -4  -5   5   68.79    7.61
  -4  -5   4    8.39    3.05
   4   5  -4    4.73    1.86
  -4  -5   3   17.18    4.15
   4   5  -3   12.21    3.42
  -4  -5   2   13.95    3.76
   4   5  -2   14.85    3.74
  -4  -5   1   12.43    3.57
   4   5  -1    5.95    2.38
   4   5   0  105.83    9.25
  -4  -5   0  102.08    9.32
  -4  -5  -1    6.50    3.12
   4   5   1    5.20    2.79
   4   5   2   75.50    8.06
  -4  -5  -2   83.53    8.74
   4   5   3    5.41    2.85
  -4  -5  -3    8.72    3.44
   4   5   4   -0.63    1.72
  -4  -5  -4    0.16    1.47
   4   5   5    1.59    1.94
  -4  -5  -5    1.86    2.15
   4   5   6  103.73    9.86
  -4  -5  -6  106.90   10.41
   4   6 -10   37.29    6.60
  -4  -6   9   28.21    5.74
   4   6  -9   15.36    4.16
  -4  -6   8   23.06    4.87
   4   6  -8   23.68    4.82
   4   6  -8   23.59    4.21
  -4  -6   7    0.64    1.54
   4   6  -7   -5.93    2.47
   4   6  -7    3.00    2.47
   4   6  -6  350.94   16.94
  -4  -6   6  388.63   18.65
  -4  -6   5    1.40    1.55
   4   6  -5    0.81    1.90
  -4  -6   4   19.80    4.32
   4   6  -4   14.80    3.63
  -4  -6   3   34.83    5.70
   4   6  -3   35.59    5.65
  -4  -6   2   10.49    3.31
   4   6  -2   11.55    3.56
  -4  -6   1   16.71    4.03
   4   6  -1   13.89    3.49
  -4  -6   0   30.51    5.41
   4   6   0   38.40    5.97
   4   6   1   74.08    8.16
  -4  -6  -1   81.58    8.75
   4   6   2  103.40    9.76
  -4  -6  -2  101.58    9.97
   4   6   3  159.09   12.25
  -4  -6  -3  181.57   13.50
   4   6   4   54.33    7.43
   4   6   5    6.86    3.20
  -4  -7   8   23.37    4.99
   4   7  -8   22.21    4.82
  -4  -7   7   28.75    5.41
   4   7  -7   22.78    4.81
   4   7  -6   71.03    8.02
  -4  -7   6   81.67    8.80
  -4  -7   5    7.12    3.29
   4   7  -5   12.94    3.84
  -4  -7   4   12.39    3.49
   4   7  -4   13.29    3.76
  -4  -7   3    0.30    2.16
   4   7  -3    3.56    2.63
  -4  -7   2   13.99    3.71
   4   7  -2   17.70    4.46
  -4  -7   1    1.20    2.23
   4   7  -1    2.84    2.46
  -4  -7   0   28.07    5.66
   4   7   0   21.32    5.01
   4   7   1   71.34    8.39
  -4  -7  -1   73.14    8.59
   4   7   2   10.09    3.74
   4   8  -8   18.95    4.90
   4   8  -7   27.80    5.45
   4   8  -6  238.27   15.37
  -4  -8   6  242.03   15.65
   4   8  -5  478.80   21.79
  -4  -8   5  485.28   21.93
   4   8  -4   64.18    8.20
  -4  -8   4   62.79    8.01
  -4  -8   3   33.09    5.72
   4   8  -3   30.34    5.77
  -4  -8   2   -0.97    2.32
  -4  -8   1   74.30    8.77
  -5  10  -4   19.02    4.62
   5  -9  -2    1.97    2.55
   5  -9  -1    2.79    1.90
  -5   9   1    2.21    2.05
   5  -9   0   26.63    5.43
  -5   9   0   32.42    6.02
   5  -9   1  110.64   10.96
  -5   9  -1  117.37   11.12
   5  -9   2    2.56    1.80
  -5   9  -2    1.79    1.79
   5  -9   3    5.99    3.07
  -5   9  -3    6.81    3.51
   5  -9   4   20.86    5.15
  -5   9  -4   19.04    4.46
   5  -8  -5  128.81   12.12
   5  -8  -4    6.23    3.04
   5  -8  -3   -3.47    3.05
  -5   8   3    3.93    3.08
   5  -8  -2    2.12    2.36
  -5   8   2    9.02    3.67
   5  -8  -1   13.50    4.14
  -5   8   1   14.59    3.59
  -5   8   1   16.38    4.53
   5  -8   0    5.38    3.30
  -5   8   0    2.99    2.32
  -5   8   0    3.32    2.01
   5  -8   1   20.55    4.53
  -5   8  -1   11.88    3.59
  -5   8  -1   26.11    5.25
   5  -8   2   28.66    5.36
  -5   8  -2   30.54    5.55
  -5   8  -2   33.77    5.68
   5  -8   3    5.89    3.16
  -5   8  -3   11.69    3.77
  -5   8  -3   11.72    3.57
   5  -8   4   -1.90    2.26
  -5   8  -4    1.67    2.67
   5  -8   5   12.18    3.93
   5  -8   6   69.41    8.89
  -5   8  -6   79.89    8.99
  -5   8  -7   28.75    5.82
   5  -7  -6    0.56    2.31
   5  -7  -5   14.55    4.19
  -5   7   5   12.53    4.24
   5  -7  -4    2.59    2.40
  -5   7   4    3.30    2.50
   5  -7  -3   98.41    9.70
  -5   7   3  116.24   10.85
   5  -7  -2    7.10    2.72
  -5   7   2   11.69    3.69
  -5   7   2   16.17    4.01
   5  -7  -1   19.64    4.34
  -5   7   1   21.54    4.63
  -5   7   1   20.75    4.37
   5  -7   0    2.84    2.17
  -5   7   0    8.76    3.20
  -5   7   0    9.69    3.53
   5  -7   1   -0.15    1.34
  -5   7  -1    2.15    2.26
  -5   7  -1   -2.62    2.17
   5  -7   2    8.82    2.31
  -5   7  -2   12.33    3.44
  -5   7  -2   23.90    4.99
   5  -7   3   75.07    8.52
  -5   7  -3   83.32    8.20
  -5   7  -3   76.12    8.51
   5  -7   4   20.30    4.91
  -5   7  -4   23.20    4.90
   5  -7   5   21.04    5.10
  -5   7  -5   12.41    3.92
  -5   7  -5   20.34    4.58
   5  -7   6    5.86    3.23
  -5   7  -6    3.65    2.55
  -5   7  -6    0.72    2.05
   5  -7   7    1.45    1.74
  -5   7  -7    2.10    1.68
   5  -6  -7   11.67    3.67
   5  -6  -7    8.43    3.49
   5  -6  -6   33.15    5.83
  -5   6   6   33.77    6.30
   5  -6  -5   15.88    4.27
  -5   6   5   22.29    5.04
   5  -6  -4    0.81    1.67
  -5   6   4    0.04    2.17
  -5   6   3    0.72    1.63
   5  -6  -3    2.87    2.10
  -5   6   3   -0.03    1.61
  -5   6   2   15.26    3.96
   5  -6  -2   14.43    3.71
  -5   6   2   17.28    4.30
  -5   6   1   41.95    6.02
   5  -6  -1   49.55    6.34
  -5   6   1   41.60    5.89
  -5   6   0   30.60    5.15
   5  -6   0   22.82    4.51
  -5   6   0   23.86    4.55
  -5   6  -1    2.07    2.28
   5  -6   1    2.94    2.44
   5  -6   2   10.11    3.26
  -5   6  -2   13.83    3.34
  -5   6  -2   12.29    3.83
   5  -6   3   35.74    5.73
  -5   6  -3   38.24    6.19
   5  -6   4    7.03    3.25
  -5   6  -4    2.40    2.21
   5  -6   5   -1.56    2.06
  -5   6  -5   -1.34    1.87
   5  -6   6   -0.27    1.97
  -5   6  -6    8.05    3.24
  -5   6  -6    4.30    2.08
   5  -6   7   89.78    9.78
  -5   6  -7   77.04    8.89
  -5   6  -7   86.29    9.64
  -5   6  -8  145.12   12.59
   5  -5  -7    0.28    2.11
  -5   5   7    9.93    3.71
   5  -5  -6  192.48   13.70
  -5   5   6  186.48   13.89
   5  -5  -5    9.26    3.36
   5  -5  -5   10.23    3.43
  -5   5   5   18.85    4.92
   5  -5  -4   93.11    8.60
  -5   5   4   86.76    8.96
  -5   5   4   77.12    7.66
   5  -5  -3   12.85    3.49
  -5   5   3   10.14    3.26
  -5   5   3   12.78    3.46
   5  -5  -2   -2.24    1.92
  -5   5   2   -0.19    1.22
  -5   5   2   -1.71    2.06
   5  -5  -1    4.51    2.35
  -5   5   1    7.11    2.75
  -5   5   1    2.91    1.78
   5  -5   0    0.59    1.99
  -5   5   0    1.73    2.65
  -5   5   0    3.52    1.66
  -5   5  -1    6.38    2.66
   5  -5   1    7.21    2.78
  -5   5  -1    2.61    2.23
  -5   5  -2   12.49    3.84
   5  -5   2    2.84    2.20
   5  -5   3   58.89    7.13
  -5   5  -3   68.84    7.94
   5  -5   4    5.29    2.67
  -5   5  -4    1.36    1.40
   5  -5   5   39.45    6.11
  -5   5  -5   58.17    6.97
  -5   5  -5   54.05    7.32
   5  -5   6   30.01    5.55
  -5   5  -6   19.13    4.40
  -5   5  -6   20.04    4.59
   5  -5   7    0.96    2.84
  -5   5  -7    1.35    1.57
  -5   5  -7    4.17    2.31
   5  -5   8    7.47    3.44
  -5   5  -8    8.84    3.47
   5  -4  -8   52.67    7.54
  -5   4   8   63.99    8.61
   5  -4  -7   20.39    4.58
  -5   4   7   33.44    6.26
   5  -4  -6   31.53    5.64
  -5   4   6   36.20    6.28
   5  -4  -5   -0.47    1.30
  -5   4   5   -0.16    1.98
   5  -4  -4   13.50    3.32
  -5   4   4   23.54    4.80
  -5   4   4   17.67    3.72
   5  -4  -3   78.79    7.36
  -5   4   3   77.50    7.63
  -5   4   3   87.24    8.42
  -5   4   2  127.18    9.85
   5  -4  -2  117.24    8.75
  -5   4   2  128.16    9.73
  -5   4   1   22.83    4.35
   5  -4  -1   22.32    3.98
  -5   4   1   14.59    3.42
   5  -4   0   44.20    5.48
  -5   4   0   61.94    6.37
  -5   4   0   62.19    7.14
   5  -4   1  151.60   10.17
  -5   4  -1  154.37   11.16
   5  -4   2    2.07    1.71
  -5   4  -2    3.31    2.13
   5  -4   3  266.56   14.08
  -5   4  -3  300.30   16.01
  -5   4  -4    4.64    2.69
   5  -4   4    3.09    1.80
  -5   4  -5    1.25    1.52
   5  -4   5    0.63    2.26
   5  -4   6    3.72    2.17
  -5   4  -6    4.71    2.42
  -5   4  -6    2.89    2.14
   5  -4   7   26.19    5.43
  -5   4  -7   33.60    5.82
  -5   4  -7   36.80    6.25
   5  -4   8   37.35    6.43
  -5   4  -8   42.32    6.77
  -5   4  -8   52.59    7.63
   5  -3  -9   24.74    5.59
  -5   3   8    0.38    1.61
  -5   3   8    0.31    1.90
   5  -3  -8    0.90    1.96
  -5   3   7   21.13    4.11
   5  -3  -7   15.66    4.07
  -5   3   7   15.07    3.90
  -5   3   6   20.22    4.08
  -5   3   6   24.83    4.77
   5  -3  -6   27.02    4.93
  -5   3   6   23.97    4.98
  -5   3   5    6.03    1.99
  -5   3   5    5.85    2.73
   5  -3  -5    5.55    2.29
  -5   3   5    4.72    2.28
  -5   3   4    4.21    2.13
   5  -3  -4    0.44    1.58
  -5   3   4    0.54    1.77
  -5   3   4   -0.25    1.68
  -5   3   3  206.29   12.44
  -5   3   3  210.24   12.35
  -5   3   2   61.88    6.94
  -5   3   2   80.45    7.55
   5  -3  -2   65.53    7.16
  -5   3   1   49.60    6.38
  -5   3   1   55.04    5.94
   5  -3  -1   55.64    6.62
   5  -3   0    2.52    2.14
  -5   3   0    4.52    1.62
  -5   3   0    4.94    2.68
  -5   3  -1  139.99   10.66
   5  -3   1  143.01   10.79
   5  -3   2   82.36    7.40
   5  -3   2   80.47    8.23
  -5   3  -2   74.21    7.96
   5  -3   3   18.12    3.68
   5  -3   3   13.49    3.44
  -5   3  -3   16.01    3.89
   5  -3   4   22.38    4.54
   5  -3   4   26.78    4.77
  -5   3  -4   19.48    4.38
  -5   3  -5    7.25    2.96
   5  -3   5    1.62    1.86
   5  -3   5    4.66    2.62
  -5   3  -6   -1.01    1.36
   5  -3   6    4.56    2.53
  -5   3  -6    6.14    2.88
   5  -3   7   20.78    4.49
  -5   3  -7   20.65    4.52
  -5   3  -7   29.09    5.40
   5  -3   8    5.87    3.04
  -5   3  -8   11.90    4.01
  -5   3  -8   10.13    3.47
  -5   2  10    2.42    1.51
  -5   2   9    0.92    2.16
   5  -2  -9    2.27    1.39
  -5   2   8   90.27    8.85
   5  -2  -8   94.12    9.75
  -5   2   7   10.15    3.01
   5  -2  -7   14.13    3.76
  -5   2   6   29.99    4.70
   5  -2  -6   31.57    5.27
  -5   2   5    5.61    2.50
   5  -2  -5    5.12    2.49
  -5   2   5    7.64    3.20
   5  -2  -5    6.85    2.70
  -5   2   4   51.89    6.26
  -5   2   4   71.56    6.89
   5  -2  -4   53.22    6.43
   5  -2  -4   62.84    6.53
  -5   2   3   -0.89    1.60
   5  -2  -3    3.39    2.72
  -5   2   3    1.56    1.06
  -5   2   2   67.35    6.57
  -5   2   2   74.93    6.63
   5  -2  -2   70.46    7.40
  -5   2   1  353.47   16.51
  -5   2   1  380.14   14.67
  -5   2   1  382.96   14.68
   5  -2  -1  341.04   16.26
  -5   2   0   15.87    3.09
   5  -2   0   15.19    4.01
  -5   2   0   23.25    4.44
   5  -2   1   41.14    5.89
  -5   2  -1   48.17    6.45
  -5   2  -1   47.02    5.23
  -5   2  -2   28.71    4.05
   5  -2   2   21.80    4.39
  -5   2  -2   17.88    4.00
  -5   2  -3   93.54    8.87
  -5   2  -3  109.56    8.22
   5  -2   3   87.75    8.64
  -5   2  -4   12.70    2.98
   5  -2   4   13.40    3.99
  -5   2  -4   10.92    2.90
   5  -2   5    1.85    2.00
  -5   2  -5    1.60    1.77
   5  -2   6    2.17    2.42
  -5   2  -6   -4.66    2.55
  -5   2  -7   -0.03    2.67
   5  -2   7   -1.88    2.21
  -5   2  -7    4.73    2.40
  -5   2  -8    0.41    2.12
  -5   2  -8   -5.17    2.75
  -5   1  10    3.35    1.97
  -5   1   9    9.09    2.80
   5  -1  -9    9.97    3.33
  -5   1   8   95.99    9.28
   5  -1  -8   78.68    8.66
  -5   1   7    2.02    1.33
   5  -1  -7    4.06    2.62
  -5   1   6   21.40    4.36
   5  -1  -6   10.20    3.24
   5  -1  -6   19.04    3.94
  -5   1   5    1.74    1.48
   5  -1  -5    0.81    1.20
   5  -1  -5   -0.47    1.32
  -5   1   4  300.24   14.18
   5  -1  -4  300.97   14.99
   5  -1  -3   35.71    5.36
  -5   1   3   32.25    4.79
  -5   1   3   42.40    5.37
  -5   1   2   13.38    3.16
   5  -1  -2   13.95    3.87
  -5   1   2   11.92    5.29
  -5   1   1   -1.34    1.40
   5  -1  -1    1.59    1.76
  -5   1   0   20.74    3.70
   5  -1   0    9.87    3.25
  -5   1  -1  430.65   18.72
  -5   1  -1  444.21   16.85
   5  -1   1  467.26   19.44
  -5   1  -2   10.95    3.18
   5  -1   2    4.94    2.42
  -5   1  -2    3.91    2.21
  -5   1  -3  196.32   12.88
  -5   1  -3  196.22   11.59
   5  -1   3  194.09   12.87
   5  -1   4   47.60    6.55
  -5   1  -4   44.97    6.51
  -5   1  -4   43.99    5.67
  -5   1  -5   66.19    7.09
   5  -1   5   75.34    8.33
  -5   1  -5   68.03    7.82
   5  -1   6   10.21    3.41
  -5   1  -6   23.37    4.71
   5  -1   7    4.68    2.45
  -5   1  -7    5.08    2.48
  -5   1  -7    4.64    2.66
  -5   1  -8    1.67    1.81
  -5   1  -8    4.04    2.89
   5   0 -10   93.08   10.40
  -5   0   9   31.21    5.83
   5   0  -9   29.16    5.71
  -5   0   8   41.43    6.08
   5   0  -8   58.45    7.57
  -5   0   7    2.52    2.04
   5   0  -7    0.62    1.70
   5   0  -7   -0.34    2.17
  -5   0   6   21.59    4.40
   5   0  -6   21.61    3.92
   5   0  -6   20.71    4.32
  -5   0   5   80.93    7.86
   5   0  -5   70.10    7.31
  -5   0   4   81.73    7.66
   5   0  -4   73.32    7.57
  -5   0   3   24.37    4.29
   5   0  -3   18.09    3.69
  -5   0   2   -0.01    1.18
   5   0  -2    0.09    1.52
  -5   0   1  112.92    8.75
   5   0  -1  116.28    9.76
  -5   0   0    0.88    1.52
   5   0   0    1.23    2.32
  -5   0  -1  310.88   14.75
   5   0   1  326.64   16.37
  -5   0  -2   83.89    8.42
  -5   0  -2   81.14    7.58
   5   0   2   81.22    8.49
  -5   0  -3   42.00    5.56
   5   0   3   37.52    5.82
  -5   0  -3   39.57    5.89
  -5   0  -4   35.44    5.39
   5   0   4   23.49    4.82
  -5   0  -4   31.82    5.48
  -5   0  -5   11.61    3.44
   5   0   5   10.99    3.67
  -5   0  -5    8.94    2.90
   5   0   6   21.39    4.71
  -5   0  -6   21.99    4.71
   5   0   7   13.91    4.17
  -5   0  -7   14.86    4.38
   5   1 -10   36.58    6.44
   5   1  -9   59.03    7.91
  -5  -1   9   77.84    8.96
  -5  -1   8    3.82    2.26
   5   1  -8   -3.53    2.11
  -5  -1   7   42.89    6.34
   5   1  -7   46.60    6.03
   5   1  -7   46.65    6.38
  -5  -1   6    7.28    2.78
   5   1  -6    5.97    2.58
  -5  -1   5  232.12   13.58
   5   1  -5  216.69   12.89
  -5  -1   4  230.35   13.21
   5   1  -4  215.74   13.01
  -5  -1   3   74.69    7.52
   5   1  -3   71.70    7.57
  -5  -1   2  163.02   11.09
   5   1  -2  169.18   11.72
  -5  -1   1   70.87    7.30
   5   1  -1   74.75    8.03
  -5  -1   0  100.43    8.64
   5   1   0   97.11    9.14
  -5  -1  -1    1.28    1.72
   5   1   1   -1.33    2.24
  -5  -1  -2   54.57    6.68
   5   1   2   52.65    7.08
  -5  -1  -3   61.08    7.10
  -5  -1  -3   48.65    6.57
   5   1   3   59.49    7.47
  -5  -1  -4   39.38    6.03
   5   1   4   57.44    7.36
  -5  -1  -4   41.96    6.19
   5   1   5    0.83    2.24
  -5  -1  -5    3.64    2.23
  -5  -1  -5    1.50    1.53
   5   1   6    2.77    2.51
  -5  -1  -6    1.18    2.14
   5   2 -10   42.47    7.07
  -5  -2   9   50.49    7.53
   5   2  -9   40.98    6.68
   5   2  -8   79.17    8.52
  -5  -2   8   84.12    9.19
  -5  -2   7   38.93    6.14
   5   2  -7   32.41    5.24
  -5  -2   6   35.80    5.72
   5   2  -6   32.64    4.98
  -5  -2   5   23.17    4.54
   5   2  -5   17.98    4.14
  -5  -2   4    0.83    1.24
   5   2  -4    1.10    1.44
   5   2  -3   46.86    6.49
  -5  -2   3   41.71    5.88
  -5  -2   2   27.87    4.99
   5   2  -2   25.68    4.61
  -5  -2   1   16.34    3.73
   5   2  -1   18.44    4.05
  -5  -2   0   23.77    4.65
   5   2   0   16.52    4.08
  -5  -2  -1    4.29    1.71
   5   2   1    7.42    2.89
  -5  -2  -2   -4.24    2.25
   5   2   2   -1.78    1.62
  -5  -2  -3   53.63    6.92
   5   2   3   56.13    7.44
   5   2   4    4.85    2.47
  -5  -2  -4   10.71    3.44
  -5  -2  -4    5.62    2.84
  -5  -2  -5   73.75    8.43
  -5  -2  -5   65.64    8.10
   5   2   5   73.07    8.45
   5   2   6    3.29    2.44
   5   3 -10   30.42    6.05
   5   3  -9    0.64    2.18
  -5  -3   8    1.25    2.32
  -5  -3   7   16.32    4.49
   5   3  -7   16.15    3.80
  -5  -3   6  114.10   10.39
   5   3  -6  119.65   10.06
  -5  -3   5    3.43    2.06
   5   3  -5    3.23    2.03
  -5  -3   4    0.88    1.94
   5   3  -4    3.62    2.50
  -5  -3   3   13.35    3.52
   5   3  -3   15.61    3.82
  -5  -3   2    4.84    2.72
   5   3  -2    2.53    2.31
  -5  -3   1    2.10    2.00
   5   3  -1    8.28    3.49
  -5  -3   0    8.90    3.38
   5   3   0   12.93    4.03
  -5  -3  -1   12.39    3.93
   5   3   1   18.58    4.11
  -5  -3  -2   22.93    4.92
   5   3   2   18.30    4.69
  -5  -3  -3   15.21    3.86
   5   3   3   14.62    4.24
  -5  -3  -4   31.80    5.95
  -5  -3  -4   29.62    5.53
   5   3   4   32.16    5.67
   5   3   5  103.49   10.33
  -5  -4   7   54.56    7.39
   5   4  -7   44.91    6.51
  -5  -4   6   12.96    3.87
   5   4  -6    8.58    2.94
   5   4  -5  133.40   10.96
  -5  -4   5  141.80   11.65
   5   4  -4   52.58    7.10
  -5  -4   4   56.26    7.36
  -5  -4   3   15.29    4.04
   5   4  -3    8.36    2.89
  -5  -4   2   20.33    4.42
   5   4  -2   19.36    4.39
  -5  -4   1    6.46    2.57
   5   4  -1    5.76    3.38
  -5  -4   0    5.87    2.65
   5   4   0    8.38    3.32
   5   4   1   63.80    8.01
  -5  -4  -1   64.14    7.97
  -5  -4  -2   29.77    5.69
   5   4   2   21.99    5.02
   5   4   3  149.24   12.42
   5   5  -7   42.74    6.58
   5   5  -6  115.57   10.61
  -5  -5   6  138.62   11.95
  -5  -5   5   20.35    5.33
   5   5  -5    5.80    3.11
   5   5  -4   61.15    7.91
  -5  -5   4   56.19    7.49
   5   5  -3  257.64   15.95
  -5  -5   3  223.46   14.85
  -5  -5   2   14.87    4.12
   5   5  -2   17.80    4.52
  -5  -5   1    6.51    2.92
   5   5  -1    7.09    3.77
  -5  -5   0    1.62    2.92
   5   5   0    0.98    1.62
  -6   7   1   14.99    3.95
  -6   6   3   14.13    4.43
  -6   6   3   24.03    5.42
  -6   6   2   -1.02    2.12
  -6   6   2    3.18    2.28
  -6   6   1    7.02    3.74
  -6   6   0   56.67    7.68
  -6   5   4    2.11    2.29
  -6   5   4   -2.11    2.29
  -6   5   3   44.35    6.69
  -6   5   3   39.79    6.22
  -6   5   2    0.07    2.03
  -6   5   2   -1.92    1.94
  -6   5   1    4.12    2.90
  -6   5   0    9.13    3.52
  -6   5  -1   73.45    8.89
  -6   4   5   -0.79    2.02
  -6   4   5    1.50    2.87
  -6   4   4    3.73    2.60
  -6   4   4    0.74    1.65
  -6   4   3    1.41    2.15
  -6   4   3    3.21    2.58
  -6   4   2  145.69   12.05
  -6   4   1    6.78    3.09
  -6   4   0    3.63    2.53
  -6   4  -1    4.14    2.58
  -6   4  -2    2.03    2.14
  -6   3   6    0.95    1.65
  -6   3   5   32.66    5.64
  -6   3   5   34.03    5.98
  -6   3   4    6.49    2.58
  -6   3   4    6.43    2.74
  -6   3   3   56.33    7.43
  -6   3   2    6.95    3.89
  -6   3   1   71.26    8.58
   6  -3  -1   76.39    8.84
  -6   3   0  174.31   13.27
   6  -3   0  157.49   12.58
  -6   3  -1   23.32    5.61
   6  -3   1   21.87    5.24
   6  -3   2   87.21    9.64
  -6   3  -2   83.65    9.48
  -6   2   6   11.22    3.58
  -6   2   5  179.53   13.01
  -6   2   5  173.19   13.10
   6  -2  -5  149.96   11.93
   6  -2  -4    0.67    2.39
  -6   2   4    4.27    2.49
   6  -2  -3   10.46    3.51
  -6   2   3    6.73    2.93
  -6   2   2  148.58   12.36
   6  -2  -2  174.55   13.21
  -6   2   1   94.98    9.92
   6  -2  -1  100.63   10.08
  -6   2   0   91.74    9.78
   6  -2   0   95.45    9.89
   6  -2   1   11.50    3.63
  -6   2  -1   12.47    3.73
   6  -2   2    8.95    2.84
  -6   2  -2   17.85    4.92
  -6   1   6    2.91    2.25
   6  -1  -6   -3.94    2.35
  -6   1   6    5.72    2.86
  -6   1   5    4.89    2.75
   6  -1  -5   -0.44    1.81
  -6   1   4    3.15    2.74
   6  -1  -4   -3.08    2.14
  -6   1   3   41.95    5.99
   6  -1  -3   37.33    6.46
  -6   1   2   38.17    5.59
   6  -1  -2   33.32    5.89
  -6   1   1   34.55    5.25
   6  -1  -1   35.13    6.14
  -6   1   1   31.31    5.91
  -6   1   0   84.09    9.53
   6  -1   0   63.17    8.12
   6  -1   1   40.89    6.56
  -6   1  -1   29.10    5.99
  -6   0   6   51.25    7.21
   6   0  -6   66.28    8.12
  -6   0   5    0.66    1.66
   6   0  -5   -1.34    1.71
  -6   0   4   15.40    4.06
   6   0  -4    7.76    3.42
  -6   0   3    5.73    2.23
   6   0  -3    3.86    2.72
  -6   0   2   33.67    5.66
   6   0  -2   33.14    6.26
  -6   0   1   74.92    8.08
   6   0  -1   73.43    8.73
  -6   0   0   41.01    5.94
  -6   0   0   33.06    6.12
   6   0   0   28.90    6.00
  -6   0  -1    5.62    2.90
  -6   0  -2   -1.05    1.49
  -6   0  -3    5.96    2.52
   6   1  -6    0.18    1.67
  -6  -1   5   32.42    5.69
   6   1  -5   41.15    6.58
  -6  -1   4   16.46    4.03
   6   1  -4   13.81    3.96
  -6  -1   3   34.25    5.69
   6   1  -3   26.55    5.42
  -6  -1   2   15.55    3.58
   6   1  -2   12.87    3.95
  -6  -1   1    7.92    3.02
  -6  -1   0   -0.92    2.38
  -6  -1  -1   10.95    3.93
  -6  -1  -2    2.41    1.72
  -6  -2   3   50.11    6.98
  -6  -2   2   15.39    3.96
  -6  -2   1   10.68    3.94
  -6  -2   0   31.28    5.73
   0   0   0    0.00    0.00

TITL test_1 in P-1
REM P-1 (#2 in standard setting)
CELL 0.71073   4.933638  10.032415  11.323189 103.4635  94.3102  99.7662
ZERR    2.00   0.000248   0.000661   0.000739   0.0056   0.0047   0.0049
LATT  1
SFAC C H N O
UNIT 22.00 20.00 2.00 2.00
TREF
HKLF 4
END
_computing_structure_solution     'SHELXT 2014/5 (Sheldrick, 2014)'
;
_shelx_hkl_checksum              96246
_olex2_exptl_crystal_mounting_method 'MiTiGen microloop, cryo-oi'
_olex2_submission_special_instructions 'No special instructions were received'
loop_
_space_group_symop_operation_xyz
'x, y, z'
'-x, -y, -z'
loop_
_atom_site_label
_atom_site_type_symbol
_atom_site_fract_x
_atom_site_fract_y
_atom_site_fract_z
_atom_site_U_iso_or_equiv
_atom_site_adp_type
_atom_site_occupancy
_atom_site_site_symmetry_order
_atom_site_calc_flag
_atom_site_refinement_flags_posn
_atom_site_refinement_flags_adp
_atom_site_refinement_flags_occupancy
_atom_site_disorder_assembly
_atom_site_disorder_group
O4 O 0.75629(19) 0.32598(10) 1.01073(9) 0.0253(2) Uani 1 1 d . . . . .
H4 H 0.897334 0.339240 0.977723 0.030 Uiso 1 1 calc GR . . . .
O8 O 1.3360(2) 0.40758(11) 0.42695(9) 0.0279(2) Uani 1 1 d . . . . .
H8 H 1.432382 0.468532 0.482436 0.029(9) Uiso 0.5 1 calc GR . P . .
O3 O 0.2374(2) 0.37768(11) 0.90600(10) 0.0296(3) Uani 1 1 d . . . . .
H3 H 0.316120 0.458181 0.911863 0.036 Uiso 1 1 calc GR . . . .
O5 O 0.4124(2) 0.17298(11) 1.11609(9) 0.0332(3) Uani 1 1 d . . . . .
O2 O 0.6680(2) 0.48187(11) 0.79869(10) 0.0344(3) Uani 1 1 d . . . . .
O7 O 1.0746(2) 0.37687(12) 0.57402(9) 0.0335(3) Uani 1 1 d . . . . .
O6 O 0.1446(2) 0.06665(11) 0.94086(9) 0.0338(3) Uani 1 1 d . . . . .
H6 H 0.060609 0.023298 0.984328 0.041 Uiso 0.5 1 calc GR . P . .
O1 O 0.6739(2) 0.26843(11) 0.68302(10) 0.0355(3) Uani 1 1 d . . . . .
H1 H 0.788754 0.311069 0.649630 0.043 Uiso 1 1 calc GR . . . .
N1 N 0.9599(3) 0.28543(15) 0.24398(12) 0.0281(4) Uani 0.929(2) 1 d . . P A 1
H1A H 0.807340 0.258627 0.190562 0.042 Uiso 0.929(2) 1 calc GR . P A 1
H1B H 1.083433 0.233222 0.218706 0.042 Uiso 0.929(2) 1 calc GR . P A 1
H1C H 1.030904 0.374727 0.249797 0.042 Uiso 0.929(2) 1 calc GR . P A 1
C5 C 1.1147(3) 0.35783(14) 0.46582(12) 0.0210(3) Uani 1 1 d . . . . .
C3 C 0.5533(3) 0.22179(13) 0.92920(12) 0.0200(3) Uani 1 1 d . . . . .
H3A H 0.645806 0.152264 0.881018 0.024 Uiso 1 1 calc R . . . .
C2 C 0.3900(3) 0.28412(14) 0.84129(12) 0.0209(3) Uani 1 1 d . . . . .
H2 H 0.261017 0.207981 0.783095 0.025 Uiso 1 1 calc R . . . .
C4 C 0.3585(3) 0.15022(14) 1.00451(12) 0.0212(3) Uani 1 1 d . . . . .
C1 C 0.5908(3) 0.35724(14) 0.77115(12) 0.0228(3) Uani 1 1 d . . . . .
C6 C 0.8899(3) 0.26821(14) 0.36601(12) 0.0221(3) Uani 1 1 d . U . . .
H6A H 0.715716 0.300463 0.380473 0.026 Uiso 1 1 calc R . . A 1
C7 C 0.8473(3) 0.11415(16) 0.36773(15) 0.0267(4) Uani 0.929(2) 1 d . . P A 1
H7A H 0.762677 0.102628 0.440219 0.032 Uiso 0.929(2) 1 calc R . P A 1
H7B H 0.719560 0.059741 0.296976 0.032 Uiso 0.929(2) 1 calc R . P A 1
C8 C 1.1140(5) 0.0565(2) 0.3669(2) 0.0373(5) Uani 0.929(2) 1 d . . P A 1
H8A H 1.197522 0.065619 0.294578 0.056 Uiso 0.929(2) 1 calc GR . P A 1
H8B H 1.072688 -0.040283 0.367686 0.056 Uiso 0.929(2) 1 calc GR . P A 1
H8C H 1.239907 0.107874 0.437956 0.056 Uiso 0.929(2) 1 calc GR . P A 1
N1A N 0.836(3) 0.3586(18) 0.2743(14) 0.0215(19) Uani 0.071(2) 1 d . U P A 2
H1AA H 0.700920 0.310440 0.215826 0.032 Uiso 0.071(2) 1 calc GR . P A 2
H1AB H 0.990007 0.380166 0.240872 0.032 Uiso 0.071(2) 1 calc GR . P A 2
H1AC H 0.786813 0.436703 0.314056 0.032 Uiso 0.071(2) 1 calc GR . P A 2
C8A C 1.005(6) 0.067(3) 0.376(2) 0.025(2) Uani 0.071(2) 1 d . U P A 2
H8AA H 1.115452 0.121186 0.450057 0.038 Uiso 0.071(2) 1 calc GR . P A 2
H8AB H 1.096066 -0.006483 0.337335 0.038 Uiso 0.071(2) 1 calc GR . P A 2
H8AC H 0.827090 0.026216 0.393979 0.038 Uiso 0.071(2) 1 calc GR . P A 2
C7A C 0.974(4) 0.141(2) 0.3071(19) 0.0247(12) Uani 0.071(2) 1 d . U P A 2
H7AA H 0.835997 0.089702 0.239075 0.030 Uiso 0.071(2) 1 calc R . P A 2
H7AB H 1.147385 0.164100 0.274340 0.030 Uiso 0.071(2) 1 calc R . P A 2
loop_
_atom_site_aniso_label
_atom_site_aniso_U_11
_atom_site_aniso_U_22
_atom_site_aniso_U_33
_atom_site_aniso_U_23
_atom_site_aniso_U_13
_atom_site_aniso_U_12
O4 0.0171(5) 0.0316(6) 0.0246(5) 0.0084(4) 0.0030(4) -0.0049(4)
O8 0.0209(5) 0.0339(6) 0.0224(5) 0.0015(4) 0.0036(4) -0.0051(4)
O3 0.0264(5) 0.0269(5) 0.0398(6) 0.0122(5) 0.0146(5) 0.0069(4)
O5 0.0283(5) 0.0455(7) 0.0239(5) 0.0157(5) 0.0016(4) -0.0075(5)
O2 0.0443(7) 0.0256(6) 0.0338(6) 0.0111(4) 0.0142(5) -0.0013(5)
O7 0.0311(6) 0.0434(6) 0.0218(5) 0.0049(5) 0.0080(4) -0.0017(5)
O6 0.0302(6) 0.0383(6) 0.0273(6) 0.0135(5) 0.0002(4) -0.0147(5)
O1 0.0428(7) 0.0320(6) 0.0335(6) 0.0089(5) 0.0211(5) 0.0039(5)
N1 0.0277(7) 0.0306(7) 0.0235(7) 0.0105(6) -0.0037(5) -0.0033(6)
C5 0.0201(6) 0.0209(7) 0.0219(7) 0.0050(5) 0.0035(5) 0.0040(5)
C3 0.0177(6) 0.0199(6) 0.0218(7) 0.0060(5) 0.0044(5) -0.0004(5)
C2 0.0199(6) 0.0213(7) 0.0208(7) 0.0062(5) 0.0042(5) 0.0000(5)
C4 0.0209(7) 0.0204(7) 0.0228(7) 0.0086(5) 0.0033(5) 0.0009(5)
C1 0.0231(7) 0.0271(7) 0.0194(7) 0.0097(5) 0.0031(5) 0.0028(6)
C6 0.0166(6) 0.0262(7) 0.0233(7) 0.0072(6) 0.0033(5) 0.0020(5)
C7 0.0265(8) 0.0240(8) 0.0278(8) 0.0078(6) 0.0023(6) -0.0017(7)
C8 0.0408(12) 0.0311(9) 0.0428(11) 0.0099(8) 0.0014(10) 0.0153(10)
N1A 0.017(4) 0.026(3) 0.019(4) 0.004(3) 0.003(3) 0.001(3)
C8A 0.018(4) 0.027(4) 0.027(4) 0.001(4) 0.001(4) 0.003(4)
C7A 0.018(2) 0.028(2) 0.026(2) 0.0043(19) 0.003(2) 0.0018(19)
loop_
_atom_type_symbol
_atom_type_description
_atom_type_scat_dispersion_real
_atom_type_scat_dispersion_imag
_atom_type_scat_source
C C 0.0033 0.0016 'International Tables Vol C Tables 4.2.6.8 and 6.1.1.4'
H H 0.0000 0.0000 'International Tables Vol C Tables 4.2.6.8 and 6.1.1.4'
N N 0.0061 0.0033 'International Tables Vol C Tables 4.2.6.8 and 6.1.1.4'
O O 0.0106 0.0060 'International Tables Vol C Tables 4.2.6.8 and 6.1.1.4'
loop_
_geom_angle_atom_site_label_1
_geom_angle_atom_site_label_2
_geom_angle_atom_site_label_3
_geom_angle
C3 O4 H4 109.5
C5 O8 H8 109.5
C2 O3 H3 109.5
C4 O6 H6 109.5
C1 O1 H1 109.5
H1A N1 H1B 109.5
H1A N1 H1C 109.5
H1B N1 H1C 109.5
C6 N1 H1A 109.5
C6 N1 H1B 109.5
C6 N1 H1C 109.5
O8 C5 C6 114.57(11)
O7 C5 O8 125.35(13)
O7 C5 C6 120.08(12)
O4 C3 H3A 108.8
O4 C3 C2 111.44(10)
O4 C3 C4 108.41(10)
C2 C3 H3A 108.8
C4 C3 H3A 108.8
C4 C3 C2 110.63(11)
O3 C2 C3 110.82(11)
O3 C2 H2 108.8
O3 C2 C1 110.70(11)
C3 C2 H2 108.8
C1 C2 C3 108.97(11)
C1 C2 H2 108.8
O5 C4 O6 125.03(12)
O5 C4 C3 120.93(12)
O6 C4 C3 114.04(11)
O2 C1 O1 125.79(13)
O2 C1 C2 122.09(13)
O1 C1 C2 112.07(11)
N1 C6 C5 110.07(11)
N1 C6 H6A 108.2
N1 C6 C7 110.28(12)
C5 C6 H6A 108.2
C5 C6 C7 111.66(11)
C5 C6 N1A 107.0(6)
C7 C6 H6A 108.2
C7A C6 C5 110.5(8)
C7A C6 N1A 112.0(10)
C6 C7 H7A 108.8
C6 C7 H7B 108.8
H7A C7 H7B 107.7
C8 C7 C6 113.77(14)
C8 C7 H7A 108.8
C8 C7 H7B 108.8
C7 C8 H8A 109.5
C7 C8 H8B 109.5
C7 C8 H8C 109.5
H8A C8 H8B 109.5
H8A C8 H8C 109.5
H8B C8 H8C 109.5
C6 N1A H1AA 109.5
C6 N1A H1AB 109.5
C6 N1A H1AC 109.5
H1AA N1A H1AB 109.5
H1AA N1A H1AC 109.5
H1AB N1A H1AC 109.5
H8AA C8A H8AB 109.5
H8AA C8A H8AC 109.5
H8AB C8A H8AC 109.5
C7A C8A H8AA 109.5
C7A C8A H8AB 109.5
C7A C8A H8AC 109.5
C6 C7A H7AA 109.0
C6 C7A H7AB 109.0
C8A C7A C6 113(2)
C8A C7A H7AA 109.0
C8A C7A H7AB 109.0
H7AA C7A H7AB 107.8
loop_
_geom_bond_atom_site_label_1
_geom_bond_atom_site_label_2
_geom_bond_distance
O4 H4 0.8200
O4 C3 1.4157(16)
O8 H8 0.8200
O8 C5 1.2746(16)
O3 H3 0.8200
O3 C2 1.4099(16)
O5 C4 1.2304(16)
O2 C1 1.2020(17)
O7 C5 1.2315(16)
O6 H6 0.8200
O6 C4 1.2807(16)
O1 H1 0.8200
O1 C1 1.3149(17)
N1 H1A 0.8900
N1 H1B 0.8900
N1 H1C 0.8900
N1 C6 1.4905(18)
C5 C6 1.5218(18)
C3 H3A 0.9800
C3 C2 1.5399(18)
C3 C4 1.5300(17)
C2 H2 0.9800
C2 C1 1.5144(18)
C6 H6A 0.9800
C6 C7 1.529(2)
C6 N1A 1.565(16)
C6 C7A 1.44(2)
C7 H7A 0.9700
C7 H7B 0.9700
C7 C8 1.524(3)
C8 H8A 0.9600
C8 H8B 0.9600
C8 H8C 0.9600
N1A H1AA 0.8900
N1A H1AB 0.8900
N1A H1AC 0.8900
C8A H8AA 0.9600
C8A H8AB 0.9600
C8A H8AC 0.9600
C8A C7A 1.21(4)
C7A H7AA 0.9700
C7A H7AB 0.9700
loop_
_geom_hbond_atom_site_label_D
_geom_hbond_atom_site_label_H
_geom_hbond_atom_site_label_A
_geom_hbond_distance_DH
_geom_hbond_distance_HA
_geom_hbond_distance_DA
_geom_hbond_angle_DHA
_geom_hbond_site_symmetry_A
_geom_hbond_publ_flag
O4 H4 O3 0.82 1.94 2.7568(13) 177.4 1_655 yes
O3 H3 O4 0.82 2.24 2.8961(14) 137.5 2_667 yes
O1 H1 O7 0.82 1.81 2.6226(14) 169.0 . yes
N1 H1A O4 0.89 2.30 2.8967(16) 124.4 1_554 yes
N1 H1A O5 0.89 2.02 2.8782(16) 160.7 1_554 yes
N1 H1B O5 0.89 2.15 2.9887(19) 156.0 1_654 yes
N1 H1C O2 0.89 2.08 2.8735(16) 147.3 2_766 yes
N1A H1AA O5 0.89 1.89 2.759(16) 164.9 1_554 yes
N1A H1AB O2 0.89 2.14 2.970(15) 155.2 2_766 yes
N1A H1AC O7 0.89 1.98 2.748(17) 144.3 2_766 yes
C7A H7AA O6 0.97 2.28 3.03(2) 133.1 2_656 yes
loop_
_geom_torsion_atom_site_label_1
_geom_torsion_atom_site_label_2
_geom_torsion_atom_site_label_3
_geom_torsion_atom_site_label_4
_geom_torsion
O4 C3 C2 O3 -64.27(13)
O4 C3 C2 C1 57.77(14)
O4 C3 C4 O5 -9.52(18)
O4 C3 C4 O6 171.20(12)
O8 C5 C6 N1 -12.39(17)
O8 C5 C6 C7 110.44(14)
O8 C5 C6 N1A -54.5(7)
O8 C5 C6 C7A 67.7(9)
O3 C2 C1 O2 21.73(18)
O3 C2 C1 O1 -160.84(12)
O7 C5 C6 N1 167.77(13)
O7 C5 C6 C7 -69.39(17)
O7 C5 C6 N1A 125.6(7)
O7 C5 C6 C7A -112.2(9)
N1 C6 C7 C8 71.10(17)
C5 C6 C7 C8 -51.61(18)
C5 C6 C7A C8A 64(2)
C3 C2 C1 O2 -100.38(15)
C3 C2 C1 O1 77.06(14)
C2 C3 C4 O5 -132.00(14)
C2 C3 C4 O6 48.72(16)
C4 C3 C2 O3 56.42(14)
C4 C3 C2 C1 178.46(10)
N1A C6 C7A C8A -176.9(18)
