#------------------------------------------------------------------------------
#$Date: 2017-07-25 12:06:57 +0300 (Tue, 25 Jul 2017) $
#$Revision: 199090 $
#$URL: file:///home/coder/svn-repositories/cod/cif/2/02/08/2020802.cif $
#------------------------------------------------------------------------------
#
# This file is available in the Crystallography Open Database (COD),
# http://www.crystallography.net/. The original data for this entry
# were provided by IUCr Journals, http://journals.iucr.org/.
#
# The file may be used within the scientific community so long as
# proper attribution is given to the journal article from which the
# data were obtained.
#
data_2020802
loop_
_publ_author_name
'Ridenour, J. August'
'Pyrch, Mikaela M.'
'Manning, Zachery J.'
'Bertke, Jeffery A.'
'Cahill, Christopher L.'
_publ_section_title
;
 Two novel bimetallic transition metal--uranyl one-dimensional
 coordination polymers with manganese(II) and cobalt(II) incorporating
 bridging diglycolate (2,2&#x2032;-oxydiacetate) ligands
;
_journal_issue                   8
_journal_name_full
'Acta Crystallographica Section C Structural Chemistry'
_journal_paper_doi               10.1107/S2053229617009263
_journal_volume                  73
_journal_year                    2017
_chemical_formula_iupac          '[Co U (C4 H4 O5)2 O2 (H2 O)4], 2H2 O'
_chemical_formula_moiety         'C8 H16 Co O16 U, 2(H2 O)'
_chemical_formula_sum            'C8 H20 Co O18 U'
_chemical_formula_weight         701.20
_chemical_name_systematic
'<i>catena</i>-Poly[[[tetraaquacobalt(II)]-\m-2,2'-oxydiacetato-[dioxidouranium(VI)]-\m-2,2'-oxydiacetato] dihydrate]'
_space_group_crystal_system      triclinic
_space_group_IT_number           2
_space_group_name_Hall           '-P 1'
_space_group_name_H-M_alt        'P -1'
_symmetry_space_group_name_Hall  '-P 1'
_symmetry_space_group_name_H-M   'P -1'
_atom_sites_solution_hydrogens   mixed
_audit_creation_method           SHELXL-2014/7
_cell_angle_alpha                106.356(12)
_cell_angle_beta                 93.891(10)
_cell_angle_gamma                115.130(16)
_cell_formula_units_Z            1
_cell_length_a                   6.997(2)
_cell_length_b                   7.185(3)
_cell_length_c                   11.043(3)
_cell_measurement_reflns_used    9382
_cell_measurement_temperature    100(2)
_cell_measurement_theta_max      29.62
_cell_measurement_theta_min      3.33
_cell_volume                     470.9(3)
_computing_cell_refinement
;
SAINT (Bruker, 2005)
;
_computing_data_collection
;
APEX3 (Bruker, 2016)
;
_computing_data_reduction
;
SAINT (Bruker, 2005)
;
_computing_molecular_graphics
;
CrystalMaker (Palmer, 2014)
;
_computing_publication_material
;
WinGX (Farrugia, 2012), PLATON (Spek, 2009)
and publCIF (Westrip, 2010)
;
_computing_structure_refinement
;
SHELXL2014 (Sheldrick, 2015)
;
_computing_structure_solution
;
SIR92 (Altomare <i>et al.</i>,  1994)
;
_diffrn_ambient_temperature      100(2)
_diffrn_measured_fraction_theta_full 0.998
_diffrn_measured_fraction_theta_max 0.979
_diffrn_measurement_device_type  'Bruker D8 Quest/Photon 100'
_diffrn_measurement_method       omega
_diffrn_radiation_type           MoK\a
_diffrn_radiation_wavelength     0.71073
_diffrn_reflns_av_R_equivalents  0.0478
_diffrn_reflns_limit_h_max       9
_diffrn_reflns_limit_h_min       -9
_diffrn_reflns_limit_k_max       9
_diffrn_reflns_limit_k_min       -8
_diffrn_reflns_limit_l_max       15
_diffrn_reflns_limit_l_min       -15
_diffrn_reflns_number            16760
_diffrn_reflns_theta_full        25.242
_diffrn_reflns_theta_max         29.586
_diffrn_reflns_theta_min         3.294
_diffrn_standards_decay_%        0
_diffrn_standards_interval_count 0
_diffrn_standards_number         0
_exptl_absorpt_coefficient_mu    9.556
_exptl_absorpt_correction_T_max  0.38178
_exptl_absorpt_correction_T_min  0.20925
_exptl_absorpt_correction_type   multi-scan
_exptl_absorpt_process_details
;
(SADABS; Sheldrick, 1999)
;
_exptl_crystal_colour            Yellow
_exptl_crystal_density_diffrn    2.473
_exptl_crystal_description       Block
_exptl_crystal_F_000             331
_exptl_crystal_size_max          0.260
_exptl_crystal_size_mid          0.210
_exptl_crystal_size_min          0.190
_refine_diff_density_max         0.781
_refine_diff_density_min         -2.068
_refine_ls_extinction_method     none
_refine_ls_goodness_of_fit_ref   1.267
_refine_ls_hydrogen_treatment    mixed
_refine_ls_matrix_type           full
_refine_ls_number_parameters     148
_refine_ls_number_reflns         2596
_refine_ls_number_restraints     0
_refine_ls_restrained_S_all      1.267
_refine_ls_R_factor_all          0.0170
_refine_ls_R_factor_gt           0.0170
_refine_ls_shift/su_max          0.027
_refine_ls_shift/su_mean         0.003
_refine_ls_structure_factor_coef Fsqd
_refine_ls_weighting_details
'w=1/[\s^2^(Fo^2^)+(0.0175P)^2^+0.0378P] where P=(Fo^2^+2Fc^2^)/3'
_refine_ls_weighting_scheme      calc
_refine_ls_wR_factor_gt          0.0399
_refine_ls_wR_factor_ref         0.0399
_reflns_number_gt                2596
_reflns_number_total             2596
_reflns_threshold_expression     'I > 2\s(I)'
_cod_data_source_file            fn3236sup1.cif
_cod_data_source_block           compound_2
_cod_database_code               2020802
_shelx_space_group_comment
;
The symmetry employed for this shelxl refinement is uniquely defined
by the following loop, which should always be used as a source of
symmetry information in preference to the above space-group names.
They are only intended as comments.
;
_shelx_estimated_absorpt_t_min   0.185
_shelx_estimated_absorpt_t_max   0.258
_shelx_hkl_file
;
  -1   0   0  157.01    8.78
  -1   0   0  148.86    8.77
  -1   0   0  156.35    8.79
   1   0   0  153.90    8.76
   1   0   0  157.93    8.78
   1   0   0  152.05    8.79
   1   0   0  157.68    8.77
  -2   0   0  217.68   13.23
  -2   0   0  238.63   13.17
  -2   0   0  234.47   13.16
  -2   0   0  234.98   13.20
  -2   0   0  225.76   13.21
   2   0   0  230.63   13.21
   2   0   0  235.94   13.17
   2   0   0  231.06   13.24
   2   0   0  243.37   13.20
  -3   0   0   62.97    3.75
  -3   0   0   68.82    3.75
  -3   0   0   61.05    3.86
  -3   0   0   60.21    3.79
  -3   0   0   63.83    3.82
   3   0   0   64.55    3.76
   3   0   0   66.58    3.83
   3   0   0   67.67    3.81
   3   0   0   64.06    3.86
  -4   0   0  314.87   17.27
  -4   0   0  300.67   17.21
  -4   0   0  307.87   17.42
  -4   0   0  297.45   17.32
  -4   0   0  303.08   17.24
  -4   0   0  281.06   17.34
   4   0   0  289.71   17.39
   4   0   0  323.73   17.36
   4   0   0  295.59   17.26
   4   0   0  322.86   17.34
  -5   0   0   83.59    5.64
  -5   0   0   94.58    5.45
  -5   0   0   97.72    5.74
  -5   0   0   94.61    5.49
  -5   0   0   90.48    5.60
  -5   0   0   94.07    5.54
   5   0   0  107.01    5.66
   5   0   0   94.44    5.54
   5   0   0   98.81    5.66
   5   0   0   86.65    5.69
  -6   0   0  140.23    8.17
  -6   0   0  144.85    8.12
  -6   0   0  135.62    8.05
  -6   0   0  130.72    8.32
  -6   0   0  131.59    8.24
  -6   0   0  153.31    8.44
   6   0   0  133.96    8.16
   6   0   0  127.88    8.33
   6   0   0  152.50    8.31
   6   0   0  150.66    8.35
  -7   0   0   29.92    1.98
  -7   0   0   34.11    2.59
  -7   0   0   31.63    2.08
  -7   0   0   29.55    2.48
  -7   0   0   28.76    2.31
   7   0   0   31.65    2.43
   7   0   0   30.24    2.41
   7   0   0   36.70    2.51
   7   0   0   30.98    2.18
  -8   0   0   98.48    5.77
  -8   0   0   97.19    6.13
  -8   0   0  102.33    6.39
   8   0   0   93.77    5.95
   8   0   0  109.57    6.28
   8   0   0   89.22    6.21
   8  -1   0   38.80    3.02
   8  -1   0   42.11    2.90
   8  -1   0   35.97    2.94
  -8   1   0   40.08    2.74
  -8   1   0   39.77    2.57
  -8   1   0   43.46    3.11
  -8   1   0   39.44    2.81
   7  -1   0  171.06   10.86
   7  -1   0  198.59   10.75
   7  -1   0  174.23   10.65
   7  -1   0  193.97   10.88
  -7   1   0  172.46   10.57
  -7   1   0  201.85   10.98
  -7   1   0  173.74   10.69
  -7   1   0  174.10   10.85
  -7   1   0  182.10   10.65
  -7   1   0  196.70   10.69
   6  -1   0  111.51    6.48
   6  -1   0  100.72    6.32
   6  -1   0  108.33    6.53
   6  -1   0  118.89    6.40
  -6   1   0  108.41    6.35
  -6   1   0  110.20    6.55
  -6   1   0  102.15    6.35
  -6   1   0  104.13    6.28
  -6   1   0  108.23    6.32
  -6   1   0  105.13    6.48
   5  -1   0  236.82   14.11
   5  -1   0  247.62   13.97
   5  -1   0  234.94   13.94
   5  -1   0  249.46   14.10
  -5   1   0  238.72   13.97
  -5   1   0  252.24   14.13
  -5   1   0  252.30   13.98
  -5   1   0  255.30   13.96
  -5   1   0  243.61   13.94
  -5   1   0  231.72   14.05
   4  -1   0  100.05    5.75
   4  -1   0  105.03    5.76
   4  -1   0   95.20    5.87
   4  -1   0  102.25    5.83
  -4   1   0  102.60    5.88
  -4   1   0   98.92    5.74
  -4   1   0   91.11    5.81
  -4   1   0   99.41    5.75
  -4   1   0   98.87    5.75
   3  -1   0  420.16   23.07
   3  -1   0  421.80   23.01
   3  -1   0  395.52   23.11
   3  -1   0  401.40   23.02
  -3   1   0  403.13   23.01
  -3   1   0  404.44   23.08
  -3   1   0  416.62   23.11
  -3   1   0  414.62   23.02
  -3   1   0  385.53   23.02
   2  -1   0   37.68    2.27
   2  -1   0   40.66    2.35
   2  -1   0   41.15    2.31
   2  -1   0   37.71    2.25
  -2   1   0   39.78    2.30
  -2   1   0   39.27    2.31
  -2   1   0   35.60    2.27
  -2   1   0   41.87    2.28
   1  -1   0  260.04   15.04
  -1   1   0  264.88   15.06
   0  -1   0  104.89    5.85
   0  -1   0  101.48    5.89
   0  -1   0  107.42    5.89
   0  -1   0  106.14    5.86
   0   1   0  105.25    5.85
   0   1   0  100.00    5.86
   0   1   0   93.54    5.88
   0   1   0  108.37    5.89
  -1  -1   0  119.15    6.77
  -1  -1   0  118.58    6.68
  -1  -1   0  113.99    6.74
  -1  -1   0  122.25    6.79
   1   1   0  108.30    6.76
   1   1   0  120.25    6.68
   1   1   0  128.26    6.74
   1   1   0  113.43    6.71
  -2  -1   0   63.12    3.77
  -2  -1   0   66.47    3.76
  -2  -1   0   65.02    3.65
  -2  -1   0   59.96    3.79
   2   1   0   62.00    3.69
   2   1   0   62.80    3.73
   2   1   0   69.41    3.79
   2   1   0   60.89    3.78
  -3  -1   0  188.76   11.24
  -3  -1   0  192.99   11.30
  -3  -1   0  191.64   11.09
  -3  -1   0  192.29   11.24
   3   1   0  187.11   11.27
   3   1   0  202.92   11.23
   3   1   0  200.18   11.16
   3   1   0  208.59   11.27
  -4  -1   0   62.99    4.09
  -4  -1   0   64.94    4.10
  -4  -1   0   67.41    3.91
  -4  -1   0   68.19    4.18
  -4  -1   0   66.50    3.87
   4   1   0   65.63    4.13
   4   1   0   65.55    3.99
   4   1   0   72.88    4.15
   4   1   0   71.30    4.10
  -5  -1   0  198.75   12.60
  -5  -1   0  206.17   12.59
  -5  -1   0  212.68   12.36
  -5  -1   0  227.73   12.72
  -5  -1   0  208.29   12.32
   5   1   0  210.98   12.64
   5   1   0  243.67   12.62
   5   1   0  210.25   12.47
   5   1   0  238.18   12.67
  -6  -1   0   24.94    2.10
  -6  -1   0   24.17    1.48
  -6  -1   0   22.68    1.94
  -6  -1   0   21.49    1.99
  -6  -1   0   24.38    1.52
   6   1   0   22.39    1.95
   6   1   0   27.74    2.05
   6   1   0   23.69    1.75
   6   1   0   24.76    1.95
  -7  -1   0   92.93    6.07
  -7  -1   0   87.49    5.94
   7   1   0  100.18    6.06
   7   1   0   99.03    6.02
   7   1   0  104.60    6.12
   7   1   0   89.82    5.75
   9  -2   0   40.25    3.29
   9  -2   0   45.61    2.98
  -9   2   0   39.40    3.12
  -9   2   0   43.40    2.96
  -9   2   0   37.78    3.35
   8  -2   0   66.68    4.65
   8  -2   0   74.32    4.51
   8  -2   0   65.81    4.39
  -8   2   0   66.77    4.65
  -8   2   0   73.14    4.48
  -8   2   0   69.10    4.35
  -8   2   0   72.13    4.38
  -8   2   0   79.70    4.78
   7  -2   0   27.90    1.88
   7  -2   0   28.15    2.13
   7  -2   0   24.77    1.90
   7  -2   0   27.23    2.16
  -7   2   0   29.36    2.19
  -7   2   0   28.34    1.99
  -7   2   0   25.92    1.86
  -7   2   0   28.76    2.14
  -7   2   0   27.50    1.90
  -7   2   0   27.15    1.89
   6  -2   0   91.78    5.26
   6  -2   0   82.04    5.10
   6  -2   0   87.87    5.06
   6  -2   0   80.25    5.29
  -6   2   0   98.45    5.35
  -6   2   0   85.43    5.12
  -6   2   0   87.81    5.10
  -6   2   0   81.08    5.22
  -6   2   0   80.78    5.05
  -6   2   0   87.59    5.18
   5  -2   0   90.40    5.14
   5  -2   0   86.64    5.30
   5  -2   0   86.63    5.07
   5  -2   0   90.98    5.24
  -5   2   0   92.82    5.14
  -5   2   0   84.57    5.09
  -5   2   0   85.18    5.17
  -5   2   0   82.00    5.23
  -5   2   0   90.79    5.29
   4  -2   0  188.06   10.22
   4  -2   0  169.85   10.40
   4  -2   0  166.32   10.27
   4  -2   0  188.32   10.36
  -4   2   0  175.22   10.22
  -4   2   0  171.65   10.35
  -4   2   0  181.80   10.33
  -4   2   0  190.97   10.42
  -4   2   0  188.74   10.28
   3  -2   0   33.94    2.05
   3  -2   0   34.37    2.16
   3  -2   0   33.76    2.09
  -3   2   0   36.10    2.05
  -3   2   0   34.26    2.10
  -3   2   0   33.45    2.10
  -3   2   0   35.29    2.14
   2  -2   0  325.48   19.10
   2  -2   0  333.95   19.05
   2  -2   0  334.22   19.04
  -2   2   0  332.93   19.10
  -2   2   0  338.82   19.05
  -2   2   0  316.32   19.08
  -2   2   0  376.09   19.05
   1  -2   0  144.19    8.01
   1  -2   0  137.23    7.99
   1  -2   0  145.28    7.99
  -1   2   0  136.46    8.01
  -1   2   0  143.11    7.98
  -1   2   0  140.62    7.99
  -1   2   0  136.26    7.95
   0  -2   0  160.15    8.97
   0  -2   0  154.80    8.93
   0  -2   0  162.95    9.03
   0  -2   0  157.30    9.03
   0   2   0  162.84    8.95
   0   2   0  152.73    8.97
   0   2   0  149.36    9.01
   0   2   0  165.44    9.02
   0   2   0  154.94    8.99
  -1  -2   0  236.67   13.45
  -1  -2   0  237.25   13.59
  -1  -2   0  220.16   13.52
   1   2   0  245.65   13.59
   1   2   0  236.63   13.46
   1   2   0  247.82   13.51
   1   2   0  241.35   13.59
  -2  -2   0  379.09   20.66
  -2  -2   0  346.39   20.57
  -2  -2   0  357.05   20.62
  -2  -2   0  354.23   20.42
   2   2   0  353.37   20.41
   2   2   0  344.38   20.50
   2   2   0  355.93   20.62
   2   2   0  396.45   20.65
   2   2   0  370.76   20.54
  -3  -2   0   84.43    5.38
  -3  -2   0   85.45    5.36
  -3  -2   0   87.03    5.32
   3   2   0   90.15    5.37
   3   2   0   88.51    5.23
   3   2   0   93.18    5.29
   3   2   0   98.11    5.41
  -4  -2   0  116.50    6.57
  -4  -2   0  102.97    6.44
  -4  -2   0  103.84    6.47
   4   2   0  102.97    6.31
   4   2   0  115.36    6.41
   4   2   0  118.51    6.54
   4   2   0   96.71    6.45
  -5  -2   0   44.97    3.10
  -5  -2   0   43.15    3.22
  -5  -2   0   47.88    3.20
   5   2   0   42.37    3.23
   5   2   0   51.61    3.21
   5   2   0   42.88    2.89
   5   2   0   49.53    3.06
  -6  -2   0  103.97    6.69
  -6  -2   0  106.28    6.70
  -6  -2   0  112.33    6.86
   6   2   0  121.08    6.84
   6   2   0  114.53    6.65
   6   2   0  103.15    6.46
   6   2   0  101.15    6.67
  -7  -2   0   38.11    3.12
  -7  -2   0   34.79    3.01
   7   2   0   35.59    2.92
   7   2   0   37.67    2.65
   9  -3   0   94.06    6.43
   9  -3   0   99.67    6.13
  -9   3   0  107.80    6.27
  -9   3   0  102.06    6.10
  -9   3   0   90.86    6.39
  -9   3   0  105.58    6.08
   8  -3   0   47.35    3.22
   8  -3   0   46.89    3.52
   8  -3   0   51.87    3.10
   8  -3   0   54.47    3.54
  -8   3   0   48.97    3.26
  -8   3   0   55.84    3.61
  -8   3   0   47.64    3.47
  -8   3   0   49.14    3.20
  -8   3   0   51.02    3.39
   7  -3   0  181.64   11.25
   7  -3   0  181.99   11.53
   7  -3   0  205.81   11.45
   7  -3   0  199.04   11.14
  -7   3   0  199.19   11.41
  -7   3   0  214.47   11.53
  -7   3   0  206.00   11.37
  -7   3   0  191.40   11.32
  -7   3   0  177.15   11.40
   6  -3   0   83.70    4.95
   6  -3   0   75.09    4.81
   6  -3   0   83.73    4.68
   6  -3   0   78.77    5.04
  -6   3   0   78.79    4.89
  -6   3   0   78.13    4.95
  -6   3   0   84.05    4.81
  -6   3   0   89.25    5.05
   5  -3   0  287.29   15.97
   5  -3   0  270.78   15.89
   5  -3   0  262.65   16.05
  -5   3   0  267.81   15.96
  -5   3   0  271.09   15.98
  -5   3   0  284.87   15.88
  -5   3   0  308.73   16.07
   4  -3   0   42.79    2.82
   4  -3   0   44.57    2.73
   4  -3   0   43.78    2.69
  -4   3   0   48.26    2.69
  -4   3   0   44.37    2.75
  -4   3   0   41.51    2.75
  -4   3   0   49.01    2.82
   3  -3   0  553.95   32.35
   3  -3   0  595.96   32.26
   3  -3   0  556.34   32.25
  -3   3   0  576.62   32.27
  -3   3   0  592.03   32.26
  -3   3   0  576.99   32.34
  -3   3   0  542.90   32.31
   2  -3   0  411.81   22.85
   2  -3   0  398.40   22.89
   2  -3   0  400.68   22.94
  -2   3   0  399.68   22.96
  -2   3   0  382.04   22.94
  -2   3   0  453.44   22.91
  -2   3   0  384.86   22.85
  -2   3   0  405.28   22.85
   1  -3   0  390.35   21.05
   1  -3   0  365.40   21.06
   1  -3   0  376.18   21.04
  -1   3   0  373.60   21.03
  -1   3   0  393.91   21.05
  -1   3   0  356.68   21.05
  -1   3   0  343.32   21.06
   0  -3   0   21.59    1.31
   0  -3   0   20.26    1.40
   0  -3   0   21.45    1.42
   0   3   0   20.08    1.39
   0   3   0   20.33    1.35
   0   3   0   21.78    1.40
   0   3   0   21.39    1.29
   0   3   0   20.13    1.32
  -1  -3   0  306.70   16.86
  -1  -3   0  289.15   16.65
  -1  -3   0  283.83   16.82
  -1  -3   0  264.88   16.71
   1   3   0  277.78   16.67
   1   3   0  311.66   16.84
   1   3   0  313.44   16.85
   1   3   0  307.38   16.70
  -2  -3   0  113.76    6.86
  -2  -3   0  124.39    6.92
  -2  -3   0  103.42    6.75
  -2  -3   0  116.68    6.59
   2   3   0  112.21    6.84
   2   3   0  114.42    6.60
   2   3   0  125.10    6.89
   2   3   0  107.54    6.70
   2   3   0  126.67    6.74
  -3  -3   0  311.50   16.89
  -3  -3   0  275.20   16.82
  -3  -3   0  266.36   16.73
   3   3   0  282.92   16.65
   3   3   0  278.07   16.80
   3   3   0  322.45   16.89
   3   3   0  307.99   16.70
  -4  -3   0   49.69    3.17
  -4  -3   0   38.58    2.98
   4   3   0   52.09    3.21
   4   3   0   42.97    3.09
   4   3   0   45.91    2.97
   4   3   0   46.50    2.88
  -5  -3   0  104.69    6.71
  -5  -3   0  108.34    6.80
  -5  -3   0  106.39    6.83
   5   3   0  118.53    6.67
   5   3   0  113.88    6.77
   5   3   0  100.92    6.53
   5   3   0  120.12    6.92
  -6  -3   0   22.09    2.29
  -6  -3   0   24.70    2.30
   6   3   0   21.34    1.85
   6   3   0   23.93    2.15
   6   3   0   21.84    2.11
   9  -4   0   80.30    5.70
   9  -4   0   87.77    5.39
  -9   4   0   89.82    5.32
  -9   4   0   82.29    5.64
  -9   4   0   90.28    5.43
  -9   4   0   90.79    5.65
   8  -4   0  121.08    7.84
   8  -4   0  124.23    7.53
   8  -4   0  135.29    7.80
  -8   4   0  125.70    7.64
  -8   4   0  129.54    7.52
  -8   4   0  137.52    7.78
  -8   4   0  132.02    7.83
  -8   4   0  117.96    7.72
   7  -4   0   28.39    1.98
   7  -4   0   27.65    2.29
   7  -4   0   32.16    2.18
  -7   4   0   35.24    2.32
  -7   4   0   27.67    2.28
  -7   4   0   26.69    2.08
  -7   4   0   29.27    2.11
   6  -4   0  213.08   12.96
   6  -4   0  220.30   12.75
   6  -4   0  241.87   12.86
  -6   4   0  203.41   12.83
  -6   4   0  230.39   12.74
  -6   4   0  214.69   12.85
  -6   4   0  232.47   12.95
   5  -4   0   19.61    1.34
   5  -4   0   19.17    1.53
   5  -4   0   19.90    1.40
  -5   4   0   19.81    1.33
  -5   4   0   18.78    1.63
  -5   4   0   19.83    1.46
  -5   4   0   19.10    1.41
   4  -4   0  311.56   18.07
   4  -4   0  333.17   18.09
  -4   4   0  331.32   18.20
  -4   4   0  295.99   18.15
  -4   4   0  308.87   18.09
  -4   4   0  326.06   18.07
   3  -4   0  123.15    6.99
   3  -4   0  120.53    7.03
  -3   4   0  126.78    7.13
  -3   4   0  120.53    6.99
  -3   4   0  122.01    6.93
  -3   4   0  126.22    7.03
  -3   4   0  112.72    7.09
   2  -4   0  354.92   20.77
   2  -4   0  350.49   20.76
   2  -4   0  377.13   20.81
  -2   4   0  352.78   20.81
  -2   4   0  361.56   20.68
  -2   4   0  380.89   20.74
  -2   4   0  382.43   20.77
   1  -4   0   21.77    1.51
   1  -4   0   24.00    1.46
  -1   4   0   22.09    1.32
  -1   4   0   22.43    1.48
  -1   4   0   22.77    1.34
  -1   4   0   20.85    1.45
  -1   4   0   22.39    1.48
  -1   4   0   20.24    1.48
   0  -4   0   84.59    5.35
   0  -4   0   93.29    5.23
   0  -4   0   95.29    5.40
   0   4   0   90.66    5.29
   0   4   0   81.44    5.32
   0   4   0   87.25    5.25
   0   4   0   92.26    5.19
   0   4   0   95.24    5.36
  -1  -4   0   51.21    3.35
  -1  -4   0   52.17    3.16
  -1  -4   0   56.06    3.40
  -1  -4   0   53.43    3.12
   1   4   0   48.27    3.31
   1   4   0   52.53    3.14
   1   4   0   54.17    3.16
   1   4   0   58.78    3.38
   1   4   0   51.63    3.28
  -2  -4   0  293.70   15.85
  -2  -4   0  246.55   15.61
  -2  -4   0  257.98   15.76
   2   4   0  287.96   15.58
   2   4   0  254.39   15.73
   2   4   0  304.78   15.84
   2   4   0  257.00   15.58
   2   4   0  290.07   15.69
   2   4   0  266.08   15.45
  -3  -4   0   30.97    2.25
  -3  -4   0   28.75    2.22
  -3  -4   0   27.21    2.01
   3   4   0   31.24    2.26
   3   4   0   24.87    2.31
   3   4   0   28.06    1.92
   3   4   0   28.49    1.94
  -4  -4   0   95.85    6.38
  -4  -4   0  111.96    6.65
  -4  -4   0   99.84    6.55
   4   4   0  108.25    6.52
   4   4   0  116.17    6.69
   4   4   0  111.22    6.34
   4   4   0   99.18    6.28
  -5  -4   0   24.24    2.30
  -5  -4   0   22.89    2.14
   5   4   0   20.11    2.06
   5   4   0   25.09    1.96
   5   4   0   20.53    1.79
   9  -5   0   84.93    5.97
   9  -5   0   91.23    5.56
  -9   5   0   93.09    5.53
  -9   5   0   96.41    5.88
  -9   5   0   88.43    5.69
   8  -5   0   24.90    2.28
   8  -5   0   28.62    2.23
   8  -5   0   24.54    1.88
  -8   5   0   23.38    2.03
  -8   5   0   26.67    2.30
  -8   5   0   28.09    1.89
  -8   5   0   23.01    2.06
   7  -5   0  122.77    7.56
   7  -5   0  121.73    7.84
   7  -5   0  139.65    7.72
  -7   5   0  136.11    7.83
  -7   5   0  119.45    7.69
  -7   5   0  135.79    7.56
   6  -5   0   43.56    2.67
   6  -5   0   39.86    2.59
   6  -5   0   41.51    2.86
  -6   5   0   39.50    2.67
  -6   5   0   39.48    2.73
  -6   5   0   41.73    2.79
   5  -5   0  109.55    6.52
   5  -5   0  116.44    6.53
  -5   5   0  116.43    6.52
  -5   5   0  119.28    6.69
  -5   5   0  107.39    6.54
  -5   5   0   99.45    6.60
   4  -5   0  120.57    6.93
   4  -5   0  126.19    7.00
  -4   5   0  119.15    6.81
  -4   5   0  123.63    7.12
  -4   5   0  115.67    7.07
  -4   5   0  127.56    6.99
  -4   5   0  113.47    6.94
  -4   5   0  113.38    6.80
   3  -5   0   72.64    4.44
  -3   5   0   78.28    4.44
  -3   5   0   72.81    4.34
  -3   5   0   71.29    4.52
  -3   5   0   77.97    4.56
  -3   5   0   74.98    4.36
   2  -5   0   59.88    3.75
  -2   5   0   58.41    3.77
  -2   5   0   58.70    3.76
  -2   5   0   59.12    3.57
  -2   5   0   65.94    3.71
  -2   5   0   66.10    3.73
  -2   5   0   63.70    3.57
   1  -5   0  291.81   17.04
   1  -5   0  315.40   16.95
  -1   5   0  286.96   17.15
  -1   5   0  289.20   16.78
  -1   5   0  281.85   16.97
  -1   5   0  317.19   17.01
  -1   5   0  288.38   17.01
  -1   5   0  304.80   16.83
   0  -5   0   92.92    5.74
   0  -5   0   96.77    5.54
   0   5   0   88.53    5.68
   0   5   0   97.73    5.48
   0   5   0   91.03    5.57
   0   5   0   98.77    5.66
   0   5   0   99.17    5.76
  -1  -5   0  178.96   11.50
  -1  -5   0  209.29   11.60
   1   5   0  199.31   11.24
   1   5   0  203.07   11.43
   1   5   0  183.95   11.25
   1   5   0  190.63   11.49
   1   5   0  214.10   11.56
  -2  -5   0   24.33    2.03
  -2  -5   0   27.59    2.13
  -2  -5   0   23.73    1.70
   2   5   0   22.68    1.73
   2   5   0   22.29    1.91
   2   5   0   26.96    1.94
   2   5   0   25.02    1.67
   2   5   0   28.12    2.09
   2   5   0   24.79    1.51
  -3  -5   0   88.66    5.82
  -3  -5   0  111.89    6.29
  -3  -5   0   90.17    6.08
   3   5   0  107.51    6.27
   3   5   0   88.04    5.78
   3   5   0  103.94    6.03
   3   5   0   91.86    6.01
   3   5   0   99.52    5.77
  -4  -5   0   48.87    3.72
  -4  -5   0   49.82    3.39
   4   5   0   49.77    3.61
   4   5   0   55.80    3.35
   4   5   0   49.89    3.33
   9  -6   0   19.57    2.41
   9  -6   0   19.55    1.77
  -9   6   0   20.33    2.11
  -9   6   0   19.26    2.09
  -9   6   0   19.89    1.80
   8  -6   0  138.51    7.97
  -8   6   0  142.22    7.79
  -8   6   0  126.42    7.93
  -8   6   0  120.12    7.94
   7  -6   0  112.63    6.96
   7  -6   0  125.43    7.05
  -7   6   0  123.85    6.96
  -7   6   0  126.36    7.25
  -7   6   0  107.70    7.50
  -7   6   0  108.91    7.10
   6  -6   0  136.72    8.27
   6  -6   0  148.07    8.28
  -6   6   0  135.73    8.29
  -6   6   0  130.29    8.39
  -6   6   0  151.61    8.49
  -6   6   0  145.91    8.26
   5  -6   0   97.56    5.59
   5  -6   0   99.62    5.53
  -5   6   0   93.24    5.56
  -5   6   0   84.35    5.67
  -5   6   0   97.11    5.75
  -5   6   0   89.86    5.54
   4  -6   0  296.38   17.35
  -4   6   0  291.75   17.46
  -4   6   0  339.38   17.37
  -4   6   0  316.87   17.51
  -4   6   0  293.55   17.26
  -4   6   0  282.49   17.19
  -3   6   0   82.19    4.77
  -3   6   0   73.44    4.68
  -3   6   0   78.54    4.53
  -3   6   0   75.60    4.59
  -3   6   0   72.94    4.65
  -3   6   0   75.15    4.44
   2  -6   0  126.04    7.95
  -2   6   0  143.98    7.72
  -2   6   0  127.65    7.95
  -2   6   0  128.41    7.94
  -2   6   0  143.07    7.92
  -2   6   0  143.79    7.91
  -2   6   0  131.48    7.69
   1  -6   0   52.96    3.51
  -1   6   0   55.22    3.16
  -1   6   0   59.28    3.48
  -1   6   0   54.08    3.13
  -1   6   0   49.36    3.37
  -1   6   0   56.74    3.43
  -1   6   0   52.46    3.46
   0  -6   0  180.49   11.11
   0   6   0  184.81   10.90
   0   6   0  172.26   11.31
   0   6   0  197.49   11.02
   0   6   0  191.04   10.73
   0   6   0  206.85   11.12
  -1  -6   0   43.10    3.33
   1   6   0   50.48    3.11
   1   6   0   54.17    3.42
   1   6   0   46.98    3.27
   1   6   0   49.10    2.99
   1   6   0   50.82    3.28
   1   6   0   49.11    2.92
  -2  -6   0   46.92    3.32
  -2  -6   0   38.72    3.11
   2   6   0   39.87    2.99
   2   6   0   45.77    3.29
   2   6   0   43.37    2.62
   2   6   0   39.01    2.77
   2   6   0   42.72    3.03
  -3  -6   0   46.46    3.58
  -3  -6   0   46.22    3.01
   3   6   0   47.67    2.96
   3   6   0   47.06    3.10
   3   6   0   43.99    3.34
   9  -7   0   91.07    5.62
  -9   7   0   90.25    5.85
  -9   7   0   86.91    5.90
  -9   7   0   95.42    5.65
   8  -7   0   25.16    1.90
   8  -7   0   20.84    2.07
  -8   7   0   23.49    2.01
  -8   7   0   22.43    2.17
  -8   7   0   22.30    1.87
   7  -7   0  119.03    6.43
   7  -7   0  105.47    6.40
  -7   7   0   99.03    6.56
  -7   7   0  105.89    6.69
  -7   7   0  100.55    6.54
  -7   7   0  107.91    6.37
   6  -7   0   49.33    3.41
  -6   7   0   50.41    3.24
  -6   7   0   51.11    3.26
  -6   7   0   54.01    3.54
  -6   7   0   49.35    3.44
  -5   7   0  180.69   10.28
  -5   7   0  167.74    9.80
  -5   7   0  165.59    9.97
  -5   7   0  163.20   10.21
  -5   7   0  186.59   10.09
  -4   7   0   24.28    1.62
  -4   7   0   26.70    1.82
  -4   7   0   24.30    1.98
  -4   7   0   22.11    1.83
  -4   7   0   23.67    1.60
  -3   7   0  137.56    7.70
  -3   7   0  124.57    7.43
  -3   7   0  145.67    7.64
  -3   7   0  133.33    7.45
  -3   7   0  116.16    7.71
  -3   7   0  135.78    7.88
  -3   7   0  116.18    7.73
  -2   7   0   20.35    1.66
  -2   7   0   22.80    1.66
  -2   7   0   19.31    1.66
  -2   7   0   19.40    1.68
  -1   7   0  196.43   11.02
  -1   7   0  182.11   11.04
  -1   7   0  195.69   11.05
  -1   7   0  177.67   10.92
   0  -7   0   71.16    4.70
   0   7   0   69.21    4.34
   0   7   0   74.54    4.68
   0   7   0   68.29    4.59
   0   7   0   75.86    4.60
  -1  -7   0  120.56    7.59
   1   7   0  124.05    7.06
   1   7   0  117.95    7.44
   1   7   0  122.97    7.24
  -2  -7   0   21.61    2.55
   2   7   0   22.16    2.15
   2   7   0   19.64    1.88
   8  -8   0   77.89    4.96
  -8   8   0   88.90    5.28
  -8   8   0   75.26    4.98
  -8   8   0   72.24    5.18
   7  -8   0   32.27    2.41
  -7   8   0   31.34    2.64
  -7   8   0   31.64    2.46
  -7   8   0   31.80    2.35
   6  -8   0  140.27    8.10
  -6   8   0  135.96    7.98
  -6   8   0  142.05    8.09
  -6   8   0  123.90    8.22
  -5   8   0   46.55    2.93
  -5   8   0   44.10    3.30
  -5   8   0   49.25    3.18
  -5   8   0   45.08    2.82
  -5   8   0   43.42    3.20
  -5   8   0   48.73    2.83
  -5   8   0   51.42    3.71
  -4   8   0  104.48    6.10
  -4   8   0  110.39    6.40
  -4   8   0   94.03    6.46
  -4   8   0  104.46    6.60
  -4   8   0  111.36    6.09
  -4   8   0  101.12    6.44
  -4   8   0  108.66    6.22
  -3   8   0   36.09    2.63
  -3   8   0   36.80    2.90
  -3   8   0   37.29    2.50
  -3   8   0   35.59    2.62
  -3   8   0   32.39    2.61
  -2   8   0  113.15    6.61
  -2   8   0  103.15    6.64
  -1   8   0   31.07    2.63
  -1   8   0   37.60    2.82
  -1   8   0   36.19    2.50
   0   8   0   48.57    3.51
   0   8   0   45.05    3.22
   0   8   0   50.99    3.15
  -7   9   0   46.03    3.94
  -7   9   0   58.75    3.59
  -6   9   0   34.16    2.96
  -6   9   0   33.32    2.82
  -6   9   0   38.65    2.46
  -5   9   0   80.17    5.21
  -5   9   0   82.49    4.77
  -5   9   0   77.12    5.29
  -4   9   0   28.14    2.15
  -4   9   0   31.75    2.44
  -4   9   0   23.50    2.41
  -3   9   0  114.42    7.39
  -3   9   0  126.29    7.28
  -3   9   0  118.11    7.35
  -2   9   0   45.66    3.50
  -2   9   0   49.28    3.36
  -2   9  -1  116.21    7.25
  -2   9  -1  120.68    7.24
  -2   9  -1  113.22    7.08
  -3   9  -1   54.56    3.80
  -3   9  -1   59.48    3.73
  -3   9  -1   50.34    3.72
  -4   9  -1   49.50    3.08
  -4   9  -1   48.96    3.61
  -4   9  -1   52.08    3.33
  -4   9  -1   53.13    3.15
  -4   9  -1   49.40    3.53
  -5   9  -1   40.60    2.48
  -5   9  -1   36.60    2.43
  -5   9  -1   37.25    2.90
  -5   9  -1   36.22    2.99
  -5   9  -1   37.96    2.50
  -5   9  -1   39.11    2.48
  -6   9  -1   65.20    4.56
  -6   9  -1   68.73    4.69
  -6   9  -1   72.58    4.31
  -7   9  -1   26.46    2.68
  -7   9  -1   29.62    2.29
   1   8  -1   52.93    3.85
   1   8  -1   54.90    3.74
   0   8  -1   17.21    1.68
   0   8  -1   20.37    1.55
   0   8  -1   17.94    1.92
  -1   8  -1   93.66    5.70
  -1   8  -1   88.68    5.60
  -1   8  -1   85.72    5.40
  -2   8  -1   27.74    2.28
  -2   8  -1   29.31    1.94
  -2   8  -1   31.61    1.88
  -2   8  -1   31.82    2.38
  -2   8  -1   30.04    2.37
  -2   8  -1   37.53    2.47
  -3   8  -1   82.33    5.22
  -3   8  -1   77.29    4.66
  -3   8  -1   83.70    4.72
  -3   8  -1   83.53    4.93
  -3   8  -1   75.58    5.01
  -3   8  -1   75.46    5.02
  -3   8  -1   81.89    5.00
  -4   8  -1   14.92    1.26
  -4   8  -1   14.17    1.46
  -4   8  -1   15.08    1.12
  -4   8  -1   13.54    1.11
  -4   8  -1   12.87    1.56
  -4   8  -1   13.36    1.45
  -4   8  -1   15.46    1.72
  -5   8  -1  159.63    8.94
  -5   8  -1  143.25    9.08
  -5   8  -1  160.47    9.20
  -5   8  -1  147.73    8.67
  -5   8  -1  150.79    8.80
  -5   8  -1  146.46    8.68
  -6   8  -1   30.73    2.08
  -6   8  -1   27.97    2.17
  -6   8  -1   25.89    2.34
  -7   8  -1  141.81    8.33
  -7   8  -1  136.50    8.57
  -7   8  -1  135.78    8.35
   7  -8   1  147.41    8.35
  -8   8  -1   47.53    3.65
  -8   8  -1   48.44    3.42
  -8   8  -1   48.99    3.33
   8  -8   1   50.00    3.30
   2   7  -1   73.76    4.84
   2   7  -1   73.89    4.63
   1   7  -1   46.14    3.76
   1   7  -1   36.64    2.65
   1   7  -1   39.96    2.43
   1   7  -1   40.36    2.87
   1   7  -1   39.15    2.46
  -1  -7   1   36.21    3.04
   0   7  -1  108.20    6.51
   0   7  -1  102.31    6.48
   0   7  -1  108.52    6.18
   0   7  -1  105.12    6.13
   0   7  -1  112.59    6.62
   0   7  -1  103.75    6.28
  -1   7  -1   66.51    4.28
  -1   7  -1   67.04    4.06
  -1   7  -1   71.22    4.42
  -1   7  -1   71.62    4.40
  -1   7  -1   69.91    4.13
  -1   7  -1   74.85    4.47
  -2   7  -1  227.99   13.96
  -2   7  -1  258.27   13.78
  -2   7  -1  230.64   13.99
  -2   7  -1  241.99   13.96
  -2   7  -1  255.33   13.98
  -2   7  -1  234.57   13.72
  -3   7  -1  107.53    6.34
  -3   7  -1  112.19    6.31
  -3   7  -1   99.28    6.42
  -3   7  -1  112.79    6.17
  -3   7  -1   99.94    6.41
  -3   7  -1  101.82    6.15
  -3   7  -1  110.54    6.52
  -4   7  -1  198.65   12.16
  -4   7  -1  206.48   11.92
  -4   7  -1  220.22   12.05
  -4   7  -1  201.02   11.91
  -4   7  -1  213.72   12.22
  -5   7  -1   15.87    1.32
  -5   7  -1   15.73    1.25
  -5   7  -1   15.06    1.02
  -5   7  -1   16.12    1.52
  -5   7  -1   14.76    1.01
  -5   7  -1   17.72    1.60
   5  -7   1   15.26    1.33
  -6   7  -1  159.10    8.20
  -6   7  -1  148.18    8.44
  -6   7  -1  130.84    8.17
  -6   7  -1  125.79    8.32
   6  -7   1  131.71    8.15
  -7   7  -1   66.43    4.63
  -7   7  -1   77.66    4.45
  -7   7  -1   73.35    4.76
  -7   7  -1   69.81    4.53
   7  -7   1   69.77    4.44
   7  -7   1   75.11    4.50
  -8   7  -1   99.80    6.43
  -8   7  -1  109.08    6.16
  -8   7  -1   97.98    6.32
   8  -7   1  104.18    6.33
   8  -7   1  101.62    6.18
  -9   7  -1   25.53    2.39
  -9   7  -1   23.94    2.23
  -9   7  -1   24.36    2.43
   9  -7   1   27.64    2.11
   3   6  -1   76.52    4.41
   3   6  -1   72.53    4.46
   3   6  -1   66.56    4.64
  -3  -6   1   67.93    4.86
  -3  -6   1   71.72    4.42
   2   6  -1   44.13    2.87
   2   6  -1   41.59    3.14
   2   6  -1   46.09    2.80
   2   6  -1   48.94    3.37
   2   6  -1   40.22    3.02
  -2  -6   1   41.88    2.77
  -2  -6   1   40.51    3.17
  -2  -6   1   48.34    3.32
   1   6  -1  132.66    7.41
   1   6  -1  116.65    7.26
   1   6  -1  116.83    7.02
   1   6  -1  119.02    6.97
   1   6  -1  118.00    7.10
   1   6  -1  128.86    7.26
  -1  -6   1  114.65    7.35
   0   6  -1   88.85    5.66
   0   6  -1   94.68    5.48
   0   6  -1  100.55    5.67
   0   6  -1   99.64    5.77
   0   6  -1   88.51    5.50
   0  -6   1   89.73    5.76
  -1   6  -1  165.57    9.15
  -1   6  -1  171.49    9.36
  -1   6  -1  171.79    9.31
  -1   6  -1  152.20    9.32
  -1   6  -1  153.88    9.08
  -1   6  -1  147.23    9.24
   1  -6   1  153.57    9.38
  -2   6  -1    8.76    0.96
  -2   6  -1    9.11    0.95
  -2   6  -1   10.24    0.96
  -2   6  -1    9.08    0.70
  -2   6  -1   10.19    0.75
  -2   6  -1    9.37    0.93
  -3   6  -1  171.04   10.59
  -3   6  -1  190.79   10.67
  -3   6  -1  186.59   10.47
  -3   6  -1  170.87   10.40
  -3   6  -1  190.81   10.52
  -4   6  -1   99.58    5.92
  -4   6  -1  110.98    6.25
  -4   6  -1  100.03    6.18
  -4   6  -1  108.79    6.07
  -4   6  -1  101.85    5.93
  -4   6  -1   97.96    6.00
   4  -6   1  101.29    6.06
  -5   6  -1  101.81    5.64
  -5   6  -1   85.56    5.75
  -5   6  -1  102.38    5.85
  -5   6  -1   89.96    5.63
   5  -6   1  100.50    5.62
   5  -6   1   90.57    5.62
  -6   6  -1   90.44    6.15
  -6   6  -1  104.47    6.24
  -6   6  -1   99.14    6.08
  -6   6  -1  105.23    6.00
   6  -6   1  109.95    6.08
   6  -6   1  100.56    6.01
  -7   6  -1  132.94    7.69
  -7   6  -1  121.94    7.50
  -7   6  -1  126.98    7.36
  -7   6  -1  116.59    7.54
   7  -6   1  119.65    7.35
   7  -6   1  135.33    7.50
  -8   6  -1   46.06    3.32
  -8   6  -1   50.56    3.08
  -8   6  -1   44.55    3.28
   8  -6   1   45.39    3.55
   8  -6   1   46.61    3.07
   8  -6   1   53.90    3.40
  -9   6  -1   64.65    4.26
  -9   6  -1   64.69    3.94
  -9   6  -1   62.58    4.29
   9  -6   1   56.81    4.50
   5   5  -1    9.94    1.32
   5   5  -1   12.70    1.81
  -5  -5   1   13.88    2.11
  -5  -5   1   10.84    1.56
   4   5  -1   48.39    3.23
   4   5  -1   54.01    3.32
   4   5  -1   47.88    3.45
  -4  -5   1   47.06    3.60
  -4  -5   1   49.75    3.37
   3   5  -1   17.75    1.96
   3   5  -1   17.98    1.48
   3   5  -1   20.66    1.79
   3   5  -1   19.57    1.71
  -3  -5   1   22.55    1.97
  -3  -5   1   18.40    1.85
  -3  -5   1   16.65    1.54
   2   5  -1  143.35    8.42
   2   5  -1  158.56    8.57
   2   5  -1  124.89    8.32
   2   5  -1  149.57    8.40
   2   5  -1  142.02    8.25
  -2  -5   1  132.06    8.26
  -2  -5   1  155.57    8.55
  -2  -5   1  129.55    8.47
   1   5  -1   66.20    4.01
   1   5  -1   66.09    4.25
   1   5  -1   68.45    4.09
   1   5  -1   68.13    4.12
   1   5  -1   71.50    4.23
   1   5  -1   74.76    4.37
  -1  -5   1   65.10    4.31
  -1  -5   1   73.38    4.36
  -1  -5   1   65.20    4.05
   0   5  -1  176.20   10.40
   0   5  -1  189.22   10.60
   0   5  -1  184.19   10.39
   0   5  -1  185.93   10.48
   0   5  -1  183.23   10.51
   0  -5   1  168.01   10.56
  -1   5  -1   36.50    2.31
  -1   5  -1   32.71    2.24
  -1   5  -1   39.32    2.27
  -1   5  -1   36.67    2.10
  -1   5  -1   35.74    2.15
  -1   5  -1   32.70    2.27
   1  -5   1   32.94    2.33
  -2   5  -1  130.58    7.17
  -2   5  -1  129.94    7.07
  -2   5  -1  120.92    7.06
  -2   5  -1  126.89    7.17
  -2   5  -1  117.98    7.20
  -2   5  -1  113.16    7.20
  -3   5  -1  102.12    5.69
  -3   5  -1   90.46    5.48
  -3   5  -1   90.58    5.63
  -3   5  -1  101.22    5.55
  -3   5  -1   93.89    5.49
   3  -5   1   89.99    5.54
  -4   5  -1  280.33   16.37
  -4   5  -1  278.77   16.48
  -4   5  -1  293.93   16.25
  -4   5  -1  281.38   16.23
  -4   5  -1  298.43   16.37
   4  -5   1  296.24   16.36
   4  -5   1  281.15   16.37
  -5   5  -1   94.51    5.79
  -5   5  -1   99.55    5.73
  -5   5  -1   93.27    5.87
  -5   5  -1  106.49    5.95
   5  -5   1   99.87    5.78
   5  -5   1   94.49    5.73
  -6   5  -1  149.46    8.26
  -6   5  -1  136.36    8.37
  -6   5  -1  134.53    8.41
  -6   5  -1  149.62    8.51
   6  -5   1  141.69    8.27
   6  -5   1  135.61    8.52
   6  -5   1  151.24    8.38
  -7   5  -1    9.87    0.95
  -7   5  -1    9.52    1.24
  -7   5  -1    9.18    1.14
  -7   5  -1    7.78    1.08
   7  -5   1    8.73    1.08
   7  -5   1    7.36    1.23
   7  -5   1    6.46    0.84
  -8   5  -1  120.06    7.29
  -8   5  -1  110.77    7.13
  -8   5  -1  123.31    7.25
  -8   5  -1  122.51    6.91
  -8   5  -1  110.67    7.08
   8  -5   1  111.37    6.89
   8  -5   1  123.48    7.18
   8  -5   1  117.44    7.35
  -9   5  -1   51.91    3.28
  -9   5  -1   51.28    3.51
  -9   5  -1   50.21    3.66
   9  -5   1   47.52    3.80
   9  -5   1   51.16    3.27
   5   4  -1   88.46    5.79
   5   4  -1  108.09    5.96
   5   4  -1   93.00    6.00
  -5  -4   1   95.40    6.00
  -5  -4   1   95.73    6.16
   4   4  -1   36.75    2.81
   4   4  -1   34.24    2.58
   4   4  -1   36.72    2.52
   4   4  -1   33.79    2.40
  -4  -4   1   33.91    2.55
  -4  -4   1   43.28    2.80
  -4  -4   1   35.10    2.69
   3   4  -1  159.42    8.44
   3   4  -1  136.83    8.12
   3   4  -1  153.47    8.19
   3   4  -1  127.73    8.25
  -3  -4   1  121.38    8.49
  -3  -4   1  126.51    8.19
  -3  -4   1  150.98    8.39
   2   4  -1   81.33    5.05
   2   4  -1   92.15    5.21
   2   4  -1   94.19    5.32
   2   4  -1   87.50    5.09
  -2  -4   1   75.19    5.09
  -2  -4   1   89.29    5.27
  -2  -4   1   81.07    5.23
   1   4  -1  359.27   21.41
   1   4  -1  421.36   21.51
   1   4  -1  361.58   21.30
   1   4  -1  358.86   21.23
   1   4  -1  394.11   21.34
  -1  -4   1  395.08   21.48
  -1  -4   1  358.19   21.45
  -1  -4   1  354.88   21.30
   0   4  -1   22.82    1.50
   0   4  -1   25.13    1.66
   0   4  -1   21.90    1.58
   0   4  -1   25.01    1.58
   0   4  -1   25.46    1.53
   0  -4   1   21.29    1.62
  -1   4  -1  460.22   25.53
  -1   4  -1  466.25   25.46
  -1   4  -1  439.25   25.54
  -1   4  -1  412.90   25.54
  -1   4  -1  480.03   25.58
   1  -4   1  443.71   25.59
  -2   4  -1  104.65    5.97
  -2   4  -1  106.99    5.98
  -2   4  -1  101.34    6.03
  -2   4  -1   98.55    5.92
  -2   4  -1  104.71    6.07
  -3   4  -1  248.30   15.22
  -3   4  -1  256.59   15.14
  -3   4  -1  271.65   15.09
  -3   4  -1  270.94   15.26
  -3   4  -1  259.17   15.07
  -3   4  -1  277.01   15.15
   3  -4   1  265.68   15.15
   3  -4   1  281.38   15.14
  -4   4  -1   59.08    3.65
  -4   4  -1   56.24    3.71
  -4   4  -1   66.13    3.77
  -4   4  -1   64.06    3.62
   4  -4   1   60.21    3.61
   4  -4   1   62.83    3.65
   4  -4   1   59.51    3.77
  -5   4  -1  331.98   19.64
  -5   4  -1  349.54   19.51
  -5   4  -1  331.64   19.61
  -5   4  -1  361.42   19.76
   5  -4   1  330.70   19.51
   5  -4   1  337.06   19.73
   5  -4   1  363.65   19.62
  -6   4  -1   92.81    5.26
  -6   4  -1   79.38    5.12
  -6   4  -1   87.14    4.98
  -6   4  -1   82.26    5.12
   6  -4   1   78.41    5.23
   6  -4   1   88.50    5.13
   6  -4   1   84.62    4.98
  -7   4  -1  139.59    7.97
  -7   4  -1  133.66    7.87
  -7   4  -1  144.76    8.04
  -7   4  -1  136.38    7.71
  -7   4  -1  121.92    7.89
   7  -4   1  142.09    7.93
   7  -4   1  122.82    7.70
   7  -4   1  120.80    8.01
  -8   4  -1   23.05    2.00
  -8   4  -1   24.84    2.16
  -8   4  -1   23.88    1.66
  -8   4  -1   20.24    1.95
  -8   4  -1   23.16    1.86
   8  -4   1   21.26    2.10
   8  -4   1   23.81    1.68
   8  -4   1   20.09    2.06
  -9   4  -1  129.78    7.76
  -9   4  -1  131.46    7.62
  -9   4  -1  140.57    8.00
  -9   4  -1  122.29    7.95
   9  -4   1  117.36    8.05
   9  -4   1  131.49    7.63
   6   3  -1   99.70    6.35
   6   3  -1  102.03    6.55
   6   3  -1  111.84    6.59
  -6  -3   1  107.16    6.64
  -6  -3   1  109.06    6.71
   5   3  -1   48.75    3.53
   5   3  -1   51.64    3.40
   5   3  -1   56.01    3.56
   5   3  -1   59.14    3.80
  -5  -3   1   49.26    3.58
  -5  -3   1   53.06    3.66
  -5  -3   1   61.17    3.73
   4   3  -1  133.34    7.06
   4   3  -1  114.06    6.74
   4   3  -1  117.67    6.84
   4   3  -1  113.69    6.88
  -4  -3   1  105.74    6.86
  -4  -3   1  106.93    6.92
  -4  -3   1  113.19    6.94
   3   3  -1   56.79    3.37
   3   3  -1   52.29    3.41
   3   3  -1   50.46    3.28
   3   3  -1   60.01    3.54
  -3  -3   1   49.66    3.38
  -3  -3   1   52.91    3.46
  -3  -3   1   57.76    3.50
   2   3  -1  392.67   21.42
   2   3  -1  371.88   21.48
   2   3  -1  353.37   21.36
   2   3  -1  418.37   21.57
  -2  -3   1  353.11   21.50
  -2  -3   1  341.05   21.43
  -2  -3   1  405.56   21.54
   1   3  -1   90.35    5.54
   1   3  -1   98.82    5.51
   1   3  -1   89.35    5.45
   1   3  -1  104.38    5.61
   1   3  -1   92.87    5.39
  -1  -3   1   99.24    5.58
  -1  -3   1   91.13    5.57
  -1  -3   1   88.45    5.48
   0   3  -1  243.27   14.43
   0   3  -1  247.05   14.38
   0   3  -1  269.68   14.40
   0   3  -1  267.66   14.48
   0  -3   1  245.67   14.36
   0  -3   1  249.27   14.47
   0  -3   1  251.25   14.45
  -1   3  -1  174.54   10.37
  -1   3  -1  188.49   10.39
  -1   3  -1  182.16   10.35
  -2   3  -1  166.96    9.22
  -2   3  -1  155.75    9.19
  -2   3  -1  161.13    9.13
  -2   3  -1  154.84    9.13
  -2   3  -1  155.43    9.12
   2  -3   1  162.79    9.13
   2  -3   1  165.22    9.14
  -3   3  -1   64.53    3.73
  -3   3  -1   61.57    3.71
  -3   3  -1   60.52    3.57
  -3   3  -1   61.15    3.65
  -3   3  -1   64.87    3.62
   3  -3   1   59.83    3.61
   3  -3   1   63.00    3.74
   3  -3   1   62.52    3.65
  -4   3  -1  273.71   16.16
  -4   3  -1  291.90   16.06
  -4   3  -1  277.77   15.99
  -4   3  -1  262.69   16.14
  -4   3  -1  306.87   16.24
   4  -3   1  287.40   15.99
   4  -3   1  279.45   16.06
   4  -3   1  265.42   16.22
   4  -3   1  303.65   16.16
  -5   3  -1  102.49    6.17
  -5   3  -1  101.43    5.99
  -5   3  -1  107.48    6.05
  -5   3  -1  115.58    6.28
  -5   3  -1   99.80    6.15
   5  -3   1  107.44    6.17
   5  -3   1  101.45    6.04
   5  -3   1   98.00    6.25
   5  -3   1  107.88    5.98
  -6   3  -1  213.46   12.91
  -6   3  -1  217.37   13.12
  -6   3  -1  222.04   13.07
  -6   3  -1  245.68   13.24
  -6   3  -1  220.43   13.16
  -6   3  -1  240.55   12.98
   6  -3   1  242.53   13.14
   6  -3   1  219.86   13.23
   6  -3   1  230.92   12.91
   6  -3   1  217.34   12.97
  -7   3  -1   45.00    2.97
  -7   3  -1   38.48    2.84
  -7   3  -1   39.52    2.58
  -7   3  -1   42.65    2.85
  -7   3  -1   41.55    2.64
  -7   3  -1   41.62    2.75
   7  -3   1   43.66    2.60
   7  -3   1   46.22    2.89
   7  -3   1   39.43    2.63
   7  -3   1   41.98    3.00
  -8   3  -1  138.07    7.81
  -8   3  -1  120.37    7.53
  -8   3  -1  121.82    7.83
  -8   3  -1  131.69    7.56
  -8   3  -1  130.77    7.96
   8  -3   1  126.58    7.58
   8  -3   1  136.84    7.55
   8  -3   1  121.49    7.93
   8  -3   1  134.67    7.89
  -9   3  -1   53.46    3.51
  -9   3  -1   55.35    3.92
  -9   3  -1   50.99    3.46
  -9   3  -1   55.90    3.78
   9  -3   1   48.40    3.93
   9  -3   1   55.80    3.52
   7   2  -1   49.75    3.21
   7   2  -1   43.61    3.38
  -7  -2   1   47.01    3.55
  -7  -2   1   46.76    3.47
   6   2  -1   36.84    2.44
   6   2  -1   38.98    2.82
   6   2  -1   38.44    2.67
   6   2  -1   33.73    2.60
  -6  -2   1   32.62    2.70
  -6  -2   1   34.19    2.67
   5   2  -1  107.41    6.09
   5   2  -1   92.87    6.04
   5   2  -1  109.24    6.19
   5   2  -1   98.00    5.93
  -5  -2   1  102.91    6.18
  -5  -2   1   98.18    6.10
  -5  -2   1   92.72    6.08
   4   2  -1   31.12    2.08
   4   2  -1   34.89    2.30
   4   2  -1   31.59    2.21
   4   2  -1   33.41    2.20
  -4  -2   1   28.79    2.21
  -4  -2   1   31.99    2.25
  -4  -2   1   34.98    2.30
   3   2  -1  259.67   15.80
   3   2  -1  264.14   15.90
   3   2  -1  299.75   15.97
   3   2  -1  296.07   15.90
  -3  -2   1  268.19   15.90
  -3  -2   1  264.73   15.92
  -3  -2   1  290.53   15.96
   2   2  -1   60.51    3.37
   2   2  -1   51.68    3.29
   2   2  -1   57.36    3.30
  -2  -2   1   58.21    3.35
  -2  -2   1   49.63    3.29
  -2  -2   1   50.48    3.31
   1   2  -1   40.34    2.44
   1   2  -1   40.32    2.49
   1   2  -1   41.28    2.37
   1   2  -1   46.08    2.56
   1   2  -1   43.46    2.50
  -1  -2   1   41.17    2.51
  -1  -2   1   36.98    2.48
   0   2  -1  122.15    6.47
   0   2  -1   99.01    6.41
   0   2  -1  118.21    6.40
   0   2  -1  115.81    6.38
   0  -2   1  107.94    6.42
   0  -2   1  109.58    6.38
  -1   2  -1  440.06   24.86
  -2   2  -1  458.53   26.46
   2  -2   1  466.66   26.54
  -3   2  -1  334.14   18.23
  -3   2  -1  322.36   18.30
  -3   2  -1  323.39   18.21
   3  -2   1  320.24   18.21
   3  -2   1  309.09   18.35
   3  -2   1  333.69   18.30
   3  -2   1  313.67   18.23
  -4   2  -1   25.39    1.57
  -4   2  -1   28.30    1.59
  -4   2  -1   23.96    1.68
  -4   2  -1   26.83    1.76
   4  -2   1   26.20    1.68
   4  -2   1   24.40    1.57
   4  -2   1   26.83    1.57
   4  -2   1   23.76    1.75
  -5   2  -1  139.76    7.82
  -5   2  -1  129.84    7.70
  -5   2  -1  136.51    7.70
  -5   2  -1  142.21    7.92
  -5   2  -1  130.89    7.76
  -5   2  -1  122.76    7.81
   5  -2   1  138.22    7.70
   5  -2   1  134.30    7.70
   5  -2   1  137.13    7.82
   5  -2   1  126.89    7.90
  -6   2  -1   42.74    2.63
  -6   2  -1   40.04    2.68
  -6   2  -1   44.23    2.78
  -6   2  -1   41.78    2.82
  -6   2  -1   40.97    2.65
  -6   2  -1   47.48    2.94
   6  -2   1   41.14    2.64
   6  -2   1   39.69    2.87
   6  -2   1   43.98    2.66
   6  -2   1   46.04    2.83
  -7   2  -1  128.44    7.29
  -7   2  -1  113.97    7.18
  -7   2  -1  116.48    7.37
  -7   2  -1  119.78    7.19
  -7   2  -1  137.95    7.53
  -7   2  -1  123.21    7.15
   7  -2   1  130.53    7.39
   7  -2   1  111.91    7.16
   7  -2   1  126.46    7.20
   7  -2   1  116.99    7.45
  -8   2  -1   49.49    3.17
  -8   2  -1   53.52    3.36
  -8   2  -1   44.67    3.46
  -8   2  -1   47.47    3.15
  -8   2  -1   48.60    3.19
   8  -2   1   54.32    3.28
   8  -2   1   51.55    3.18
   8  -2   1   43.28    3.50
  -9   2  -1   40.09    2.74
  -9   2  -1   36.10    3.30
   9  -2   1   41.66    2.83
   9  -2   1   36.81    3.25
   8   1  -1   72.96    4.96
   8   1  -1   74.92    4.71
  -8  -1   1   75.07    5.12
   7   1  -1    7.82    1.09
   7   1  -1    9.41    1.42
   7   1  -1    6.50    1.10
   7   1  -1    8.96    1.33
  -7  -1   1    7.81    1.30
  -7  -1   1    9.11    1.30
  -7  -1   1    7.75    1.31
   6   1  -1  140.19    8.14
   6   1  -1  148.93    8.19
   6   1  -1  130.39    8.14
   6   1  -1  131.44    7.97
  -6  -1   1  131.52    8.18
  -6  -1   1  141.02    8.21
  -6  -1   1  128.45    8.09
   5   1  -1   84.04    5.49
   5   1  -1   89.45    5.37
   5   1  -1   95.98    5.53
   5   1  -1   97.66    5.54
  -5  -1   1   84.48    5.46
  -5  -1   1   93.26    5.57
  -5  -1   1   89.71    5.53
  -5  -1   1   94.86    5.41
  -5  -1   1   91.11    5.21
  -5  -1   1   87.48    5.18
   4   1  -1  440.78   25.27
   4   1  -1  405.99   25.34
   4   1  -1  503.19   25.42
   4   1  -1  461.22   25.38
  -4  -1   1  408.89   25.37
  -4  -1   1  481.82   25.30
  -4  -1   1  429.72   25.35
  -4  -1   1  434.19   25.12
  -4  -1   1  436.42   25.14
  -4  -1   1  451.91   25.39
   3   1  -1  127.44    7.92
   3   1  -1  144.37    7.96
   3   1  -1  140.15    7.94
   3   1  -1  138.43    7.86
  -3  -1   1  156.13    7.99
  -3  -1   1  132.93    7.86
  -3  -1   1  135.42    7.75
  -3  -1   1  130.50    7.92
  -3  -1   1  125.24    7.93
   2   1  -1  154.19    8.10
   2   1  -1  151.79    8.08
   2   1  -1  131.85    8.00
   2   1  -1  133.34    8.06
  -2  -1   1  142.39    8.08
  -2  -1   1  135.96    8.08
  -2  -1   1  140.36    8.02
  -2  -1   1  132.41    8.06
   1   1  -1  211.48   12.49
   1   1  -1  240.06   12.54
   1   1  -1  226.79   12.52
   1   1  -1  202.82   12.46
  -1  -1   1  217.65   12.47
  -1  -1   1  226.83   12.51
  -1  -1   1  222.88   12.52
  -1  -1   1  213.58   12.52
  -1   1  -1   11.55    0.63
  -1   1  -1   10.48    0.68
  -1   1  -1    9.08    0.65
   1  -1   1   10.71    0.62
   1  -1   1   10.26    0.64
   1  -1   1   10.51    0.68
   1  -1   1   11.73    0.66
  -2   1  -1  680.71   38.53
   2  -1   1  669.51   38.52
  -3   1  -1   22.86    1.54
  -3   1  -1   24.59    1.47
  -3   1  -1   24.79    1.61
  -3   1  -1   24.28    1.53
  -3   1  -1   24.63    1.50
   3  -1   1   25.11    1.50
   3  -1   1   23.77    1.60
   3  -1   1   24.92    1.54
   3  -1   1   23.62    1.46
  -4   1  -1  257.15   13.73
  -4   1  -1  238.14   13.58
  -4   1  -1  247.12   13.61
  -4   1  -1  225.33   13.63
  -4   1  -1  241.07   13.54
   4  -1   1  212.81   13.68
   4  -1   1  237.41   13.63
   4  -1   1  243.44   13.55
   4  -1   1  240.42   13.58
  -5   1  -1   42.38    2.69
  -5   1  -1   45.98    2.95
  -5   1  -1   47.02    2.76
  -5   1  -1   43.45    2.75
  -5   1  -1   46.66    2.69
  -5   1  -1   41.98    2.82
   5  -1   1   43.46    2.69
   5  -1   1   47.07    2.76
   5  -1   1   39.91    2.86
  -6   1  -1  227.38   12.28
  -6   1  -1  201.60   12.04
  -6   1  -1  195.13   12.12
  -6   1  -1  200.23   11.95
  -6   1  -1  217.47   12.05
  -6   1  -1  207.18   11.96
   6  -1   1  212.52   11.98
   6  -1   1  193.99   12.19
   6  -1   1  215.25   12.13
   6  -1   1  214.55   12.05
  -7   1  -1  135.54    8.24
  -7   1  -1  134.67    8.11
  -7   1  -1  149.35    8.53
  -7   1  -1  121.47    8.34
  -7   1  -1  152.22    8.23
   7  -1   1  153.54    8.31
   7  -1   1  143.45    8.37
   7  -1   1  129.53    8.41
   7  -1   1  136.79    8.16
  -8   1  -1   99.43    6.16
  -8   1  -1   96.98    5.91
  -8   1  -1  114.33    6.08
  -8   1  -1   87.98    6.29
   8  -1   1   98.69    6.02
   8  -1   1  109.34    6.21
   8  -1   1   90.96    6.31
   8   0  -1   72.03    4.82
   8   0  -1   68.48    4.54
   8   0  -1   78.93    4.86
  -8   0   1   72.16    4.26
  -8   0   1   72.03    4.96
   7   0  -1  149.77    9.10
   7   0  -1  161.73    9.31
   7   0  -1  168.85    9.25
   7   0  -1  149.33    9.26
  -7   0   1  169.60    9.38
  -7   0   1  149.37    8.90
  -7   0   1  153.74    9.10
  -7   0   1  165.22    8.96
  -7   0   1  143.63    9.15
  -7   0   1  139.71    9.27
   6   0  -1   21.13    1.54
   6   0  -1   22.60    1.69
   6   0  -1   21.26    1.73
   6   0  -1   20.13    1.68
  -6   0   1   20.69    1.43
  -6   0   1   21.62    1.56
  -6   0   1   20.23    1.36
  -6   0   1   18.92    1.73
  -6   0   1   22.33    1.76
  -6   0   1   18.16    1.59
   5   0  -1  214.53   11.13
   5   0  -1  176.39   11.01
   5   0  -1  188.31   11.15
   5   0  -1  218.26   11.19
  -5   0   1  188.80   11.03
  -5   0   1  177.85   11.13
  -5   0   1  182.75   11.06
  -5   0   1  197.22   10.97
  -5   0   1  182.34   10.92
   4   0  -1  120.36    6.55
   4   0  -1  104.86    6.57
   4   0  -1  109.39    6.48
   4   0  -1  113.11    6.58
  -4   0   1  103.23    6.56
  -4   0   1  114.86    6.43
  -4   0   1  118.70    6.50
  -4   0   1  109.79    6.52
  -4   0   1  110.66    6.41
  -4   0   1  112.32    6.59
   3   0  -1  386.62   20.47
   3   0  -1  326.90   20.48
   3   0  -1  352.98   20.43
   3   0  -1  414.16   20.53
  -3   0   1  339.68   20.49
  -3   0   1  362.24   20.44
  -3   0   1  347.26   20.45
  -3   0   1  356.05   20.38
  -3   0   1  359.50   20.50
   2   0  -1   10.09    0.62
   2   0  -1    8.47    0.63
   2   0  -1    8.83    0.63
   2   0  -1    9.14    0.66
  -2   0   1    9.13    0.57
  -2   0   1    8.24    0.63
  -2   0   1    8.45    0.61
  -2   0   1    8.18    0.65
   1   0  -1  653.28   36.81
  -1   0   1  640.63   36.81
  -1   0  -1  484.66   26.96
   1   0   1  460.58   26.93
  -2   0  -1  149.51    8.32
  -2   0  -1  142.63    8.25
  -2   0  -1  142.40    8.22
  -2   0  -1  146.61    8.26
  -2   0  -1  144.13    8.20
   2   0   1  145.03    8.21
   2   0   1  148.79    8.25
   2   0   1  147.06    8.26
   2   0   1  143.07    8.20
   2   0   1  134.79    8.30
  -3   0  -1  589.42   33.11
  -3   0  -1  563.06   33.16
  -3   0  -1  572.63   33.16
  -3   0  -1  577.41   33.26
   3   0   1  559.87   33.09
   3   0   1  606.07   33.16
   3   0   1  626.32   33.17
   3   0   1  592.96   33.23
  -4   0  -1  167.55    9.68
  -4   0  -1  177.87    9.89
  -4   0  -1  170.96    9.70
  -4   0  -1  165.13    9.77
  -4   0  -1  160.07    9.77
   4   0   1  174.64    9.78
   4   0   1  162.53    9.85
   4   0   1  167.92    9.69
   4   0   1  175.99    9.78
  -5   0  -1  162.69    9.15
  -5   0  -1  160.72    8.91
  -5   0  -1  143.26    9.02
  -5   0  -1  142.44    8.98
   5   0   1  148.73    8.89
   5   0   1  166.07    9.03
   5   0   1  160.28    9.02
   5   0   1  150.05    9.11
  -6   0  -1   15.13    1.13
  -6   0  -1   15.61    1.50
  -6   0  -1   16.03    1.25
  -6   0  -1   14.85    1.38
  -6   0  -1   16.78    1.59
   6   0   1   15.35    1.23
   6   0   1   16.57    1.43
   6   0   1   18.17    1.51
   6   0   1   13.37    1.48
  -7   0  -1  148.09    8.81
  -7   0  -1  162.35    8.91
  -7   0  -1  162.50    9.35
  -7   0  -1  142.74    9.08
  -7   0  -1  145.78    9.17
   7   0   1  167.34    9.17
   7   0   1  153.13    8.94
   7   0   1  141.11    9.20
   7   0   1  154.59    9.15
  -8   0  -1   15.61    2.08
  -8   0  -1   16.45    1.86
   8   0   1   16.67    2.05
   8   0   1   14.97    1.56
   8   0   1   18.98    2.28
   9  -1  -1   16.49    2.21
   9  -1  -1   18.95    1.95
  -9   1   1   18.05    2.60
   8  -1  -1   76.47    4.82
   8  -1  -1   76.27    5.02
   8  -1  -1   81.61    4.90
  -8   1   1   69.08    5.05
  -8   1   1   74.10    4.64
  -8   1   1   82.63    4.75
  -8   1   1   81.50    4.83
   7  -1  -1   22.78    2.02
   7  -1  -1   27.62    1.95
   7  -1  -1   27.78    2.13
   7  -1  -1   28.50    1.87
  -7   1   1   25.53    1.83
  -7   1   1   23.00    2.06
  -7   1   1   24.10    1.72
  -7   1   1   23.77    1.83
  -7   1   1   27.55    2.12
   6  -1  -1  159.42    8.71
   6  -1  -1  137.74    8.80
   6  -1  -1  141.23    8.67
   6  -1  -1  162.12    8.86
  -6   1   1  140.87    8.67
  -6   1   1  149.27    8.62
  -6   1   1  137.60    8.81
  -6   1   1  160.86    8.87
  -6   1   1  149.64    8.67
  -6   1   1  154.66    8.69
   5  -1  -1  123.88    6.88
   5  -1  -1  111.70    6.74
   5  -1  -1  109.27    6.84
   5  -1  -1  118.68    6.73
  -5   1   1  126.80    6.89
  -5   1   1  105.58    6.82
  -5   1   1  120.91    6.74
  -5   1   1  113.93    6.70
  -5   1   1  110.75    6.72
   4  -1  -1  178.70    9.98
   4  -1  -1  179.79   10.05
   4  -1  -1  164.76   10.05
   4  -1  -1  181.87    9.95
  -4   1   1  179.45    9.97
  -4   1   1  166.64    9.94
  -4   1   1  175.76   10.05
  -4   1   1  168.78   10.04
  -4   1   1  169.95    9.94
   3  -1  -1  186.88   10.89
   3  -1  -1  204.84   10.87
   3  -1  -1  187.61   10.95
  -3   1   1  203.72   10.97
  -3   1   1  182.26   10.86
  -3   1   1  201.19   10.90
  -3   1   1  175.38   10.93
  -3   1   1  188.19   10.89
   2  -1  -1  334.32   19.09
   2  -1  -1  330.99   19.11
   2  -1  -1  339.86   19.10
   2  -1  -1  342.66   19.08
  -2   1   1  357.01   19.07
  -2   1   1  312.96   19.08
  -2   1   1  338.64   19.10
  -2   1   1  342.17   19.10
   1  -1  -1  128.37    7.37
   1  -1  -1  125.82    7.31
   1  -1  -1  128.61    7.33
  -1   1   1  130.73    7.31
  -1   1   1  135.40    7.35
  -1   1   1  127.18    7.37
   0   1   1  329.86   19.40
   0   1   1  334.31   19.40
   0   1   1  365.30   19.38
  -1  -1  -1   56.39    3.18
  -1  -1  -1   53.01    3.15
  -1  -1  -1   52.65    3.10
  -1  -1  -1   51.41    3.08
   1   1   1   49.80    3.16
   1   1   1   55.92    3.15
   1   1   1   54.13    3.08
   1   1   1   54.06    3.09
  -2  -1  -1  149.34    8.38
  -2  -1  -1  145.24    8.33
  -2  -1  -1  138.51    8.27
  -2  -1  -1  144.13    8.24
   2   1   1  138.43    8.35
   2   1   1  153.71    8.34
   2   1   1  148.18    8.27
   2   1   1  140.79    8.21
   2   1   1  142.38    8.24
  -3  -1  -1   33.87    2.18
  -3  -1  -1   30.86    2.10
  -3  -1  -1   32.96    1.98
  -3  -1  -1   28.97    2.05
   3   1   1   35.22    2.13
   3   1   1   33.83    2.16
   3   1   1   32.62    1.99
   3   1   1   32.46    2.04
  -4  -1  -1  124.46    7.07
  -4  -1  -1  121.25    7.33
  -4  -1  -1  118.66    7.23
  -4  -1  -1  116.59    7.20
   4   1   1  120.44    7.29
   4   1   1  119.80    7.09
   4   1   1  132.03    7.26
   4   1   1  128.31    7.19
  -5  -1  -1   89.12    5.29
  -5  -1  -1   91.71    5.34
  -5  -1  -1   83.51    5.54
  -5  -1  -1   87.22    5.56
  -5  -1  -1  101.53    5.74
   5   1   1   97.75    5.53
   5   1   1   96.98    5.61
   5   1   1   87.77    5.40
   5   1   1   90.08    5.63
  -6  -1  -1   90.39    6.08
  -6  -1  -1   92.70    6.06
  -6  -1  -1  103.34    6.26
  -6  -1  -1   96.21    5.70
  -6  -1  -1  102.05    5.76
   6   1   1   91.01    6.12
   6   1   1  103.58    6.05
   6   1   1  114.31    6.19
   6   1   1   98.24    5.88
  -7  -1  -1   25.33    2.22
  -7  -1  -1   21.21    2.29
   7   1   1   23.49    2.26
   7   1   1   25.65    2.23
   7   1   1   31.32    2.54
   7   1   1   24.03    1.90
   9  -2  -1   73.27    4.87
   9  -2  -1   72.32    5.11
  -9   2   1   80.24    4.89
  -9   2   1   70.42    5.16
  -9   2   1   83.07    5.28
  -9   2   1   79.36    4.73
   8  -2  -1   47.01    3.30
   8  -2  -1   45.39    2.88
   8  -2  -1   43.52    3.17
   8  -2  -1   40.73    2.96
  -8   2   1   42.70    3.21
  -8   2   1   43.71    2.86
  -8   2   1   40.94    3.17
  -8   2   1   44.60    2.90
  -8   2   1   45.48    2.99
   7  -2  -1  177.43   10.32
   7  -2  -1  179.81   10.22
   7  -2  -1  189.44   10.49
  -7   2   1  157.09   10.43
  -7   2   1  172.06   10.26
  -7   2   1  191.41   10.52
  -7   2   1  168.26   10.46
  -7   2   1  182.63   10.28
   6  -2  -1  132.35    8.71
   6  -2  -1  140.99    8.87
   6  -2  -1  150.35    8.64
   6  -2  -1  162.06    8.88
  -6   2   1  157.15    8.88
  -6   2   1  159.65    8.73
  -6   2   1  155.67    8.87
  -6   2   1  145.47    8.72
   5  -2  -1  145.65    8.23
   5  -2  -1  132.78    8.43
   5  -2  -1  136.60    8.31
   5  -2  -1  151.84    8.42
  -5   2   1  161.49    8.47
  -5   2   1  141.36    8.33
  -5   2   1  147.65    8.31
  -5   2   1  135.02    8.39
   4  -2  -1    4.58    0.49
   4  -2  -1    4.55    0.34
   4  -2  -1    4.09    0.57
   4  -2  -1    5.20    0.55
  -4   2   1    5.02    0.56
  -4   2   1    4.06    0.49
  -4   2   1    4.87    0.47
  -4   2   1    3.66    0.51
   3  -2  -1  229.23   12.95
   3  -2  -1  218.51   12.97
   3  -2  -1  221.27   12.90
   3  -2  -1  236.75   12.92
  -3   2   1  213.52   12.93
  -3   2   1  227.37   12.93
  -3   2   1  229.70   12.96
  -3   2   1  238.67   12.90
   2  -2  -1  241.37   13.63
   2  -2  -1  238.96   13.68
   2  -2  -1  243.95   13.75
   2  -2  -1  237.18   13.71
  -2   2   1  228.92   13.74
  -2   2   1  239.21   13.69
  -2   2   1  247.89   13.74
  -2   2   1  255.23   13.71
  -1   2   1  562.30   31.78
   0  -2  -1  107.29    6.18
   0  -2  -1  114.61    6.22
   0  -2  -1  106.05    6.06
   0  -2  -1  107.18    6.16
   0   2   1  107.58    6.15
   0   2   1  109.95    6.18
   0   2   1  103.59    6.16
   0   2   1  102.50    6.19
   0   2   1  106.28    6.06
  -1  -2  -1  161.98    9.36
  -1  -2  -1  156.97    9.44
  -1  -2  -1  170.04    9.48
  -1  -2  -1  163.02    9.35
   1   2   1  163.19    9.36
   1   2   1  162.77    9.38
   1   2   1  158.58    9.46
   1   2   1  166.36    9.32
   1   2   1  174.25    9.45
  -2  -2  -1  115.90    6.39
  -2  -2  -1  103.03    6.33
  -2  -2  -1  108.29    6.17
  -2  -2  -1  104.72    6.24
   2   2   1  104.95    6.34
   2   2   1  108.00    6.15
   2   2   1  103.82    6.20
   2   2   1  113.46    6.34
   2   2   1  106.26    6.20
  -3  -2  -1  189.30   10.99
  -3  -2  -1  192.05   11.14
  -3  -2  -1  190.20   11.22
  -3  -2  -1  209.39   11.30
   3   2   1  178.43   11.22
   3   2   1  198.84   11.09
   3   2   1  214.32   11.25
   3   2   1  186.37   10.96
   3   2   1  181.99   11.05
  -4  -2  -1  115.80    7.10
  -4  -2  -1  116.16    7.04
  -4  -2  -1  117.11    6.73
  -4  -2  -1  110.54    6.96
   4   2   1  111.69    6.84
   4   2   1  109.43    7.03
   4   2   1  134.74    7.11
   4   2   1  126.03    6.92
  -5  -2  -1  215.81   12.24
  -5  -2  -1  189.26   12.07
  -5  -2  -1  196.10   12.12
   5   2   1  218.12   12.03
   5   2   1  199.06   11.91
   5   2   1  195.25   12.13
   5   2   1  235.36   12.22
  -6  -2  -1   27.60    2.36
  -6  -2  -1   29.29    2.38
   6   2   1   27.95    2.04
   6   2   1   29.79    2.39
   6   2   1   25.75    2.22
   6   2   1   32.18    2.63
  -7  -2  -1   52.44    3.74
  -7  -2  -1   51.50    3.80
   7   2   1   47.22    3.35
   7   2   1   49.54    3.76
   9  -3  -1   26.03    2.23
   9  -3  -1   25.95    2.50
  -9   3   1   27.98    2.14
  -9   3   1   25.68    2.53
  -9   3   1   26.38    2.16
  -9   3   1   29.85    2.36
   8  -3  -1  104.07    6.22
   8  -3  -1   99.80    5.99
   8  -3  -1  101.31    5.74
   8  -3  -1   95.65    6.19
  -8   3   1  100.64    5.92
  -8   3   1   89.30    6.13
  -8   3   1  104.39    6.22
  -8   3   1  102.55    6.07
  -8   3   1   91.13    5.94
   7  -3  -1   82.17    6.34
   7  -3  -1   96.08    5.60
   7  -3  -1  102.49    5.99
   7  -3  -1   95.45    5.82
  -7   3   1  103.10    5.80
  -7   3   1   96.80    5.84
  -7   3   1   95.27    5.97
  -7   3   1  107.48    6.02
   6  -3  -1  260.07   14.63
   6  -3  -1  240.56   14.53
   6  -3  -1  241.51   14.70
  -6   3   1  282.38   14.71
  -6   3   1  248.24   14.63
  -6   3   1  258.85   14.51
  -6   3   1  243.82   14.57
   5  -3  -1   30.19    2.07
   5  -3  -1   30.10    1.97
   5  -3  -1   28.58    1.91
  -5   3   1   27.88    1.96
  -5   3   1   28.51    1.97
  -5   3   1   31.17    1.90
  -5   3   1   31.76    2.04
   4  -3  -1  354.94   19.90
   4  -3  -1  343.70   19.88
   4  -3  -1  337.40   19.98
  -4   3   1  333.10   19.90
  -4   3   1  325.84   19.92
  -4   3   1  384.78   19.88
  -4   3   1  370.30   19.97
   3  -3  -1   99.95    5.92
   3  -3  -1  106.28    6.00
   3  -3  -1  105.74    5.90
  -3   3   1  101.23    5.91
  -3   3   1  109.08    6.00
  -3   3   1   93.82    5.97
  -3   3   1  100.64    5.91
   2  -3  -1  721.84   39.49
   2  -3  -1  690.67   39.39
  -2   3   1  713.01   39.43
  -2   3   1  666.47   39.48
   1  -3  -1   28.53    1.72
   1  -3  -1   27.83    1.71
   1  -3  -1   25.93    1.72
  -1   3   1   25.57    1.73
  -1   3   1   28.16    1.70
  -1   3   1   26.39    1.73
  -1   3   1   28.63    1.70
   0  -3  -1  329.42   18.02
   0  -3  -1  326.30   17.92
   0  -3  -1  306.67   17.98
   0   3   1  332.68   17.98
   0   3   1  299.33   17.98
   0   3   1  312.47   17.80
   0   3   1  294.58   17.92
   0   3   1  323.09   17.93
  -1  -3  -1  189.29   10.55
  -1  -3  -1  178.68   10.69
  -1  -3  -1  194.21   10.74
  -1  -3  -1  165.81   10.54
   1   3   1  174.86   10.69
   1   3   1  186.95   10.61
   1   3   1  181.44   10.56
   1   3   1  192.07   10.51
   1   3   1  201.40   10.71
  -2  -3  -1  302.03   16.05
  -2  -3  -1  274.11   15.88
  -2  -3  -1  249.51   15.74
  -2  -3  -1  282.84   15.65
   2   3   1  266.45   15.71
   2   3   1  287.39   15.78
   2   3   1  285.55   15.69
   2   3   1  265.18   15.87
   2   3   1  271.40   15.65
  -3  -3  -1   33.54    2.49
  -3  -3  -1   44.78    2.75
  -3  -3  -1   39.33    2.28
  -3  -3  -1   37.53    2.64
   3   3   1   37.88    2.27
   3   3   1   40.80    2.67
   3   3   1   37.12    2.42
   3   3   1   41.07    2.44
   3   3   1   37.10    2.62
  -4  -3  -1  171.14   10.67
  -4  -3  -1  173.08   10.79
  -4  -3  -1  200.29   10.90
   4   3   1  174.08   10.78
   4   3   1  175.55   10.56
   4   3   1  205.21   10.88
  -5  -3  -1   27.51    2.43
  -5  -3  -1   34.23    2.61
  -5  -3  -1   26.97    2.35
   5   3   1   31.31    2.23
   5   3   1   29.95    2.10
   5   3   1   35.52    2.66
   5   3   1   27.63    2.36
  -6  -3  -1   87.93    5.62
  -6  -3  -1   88.30    5.75
   6   3   1   88.71    5.52
   6   3   1   90.55    5.37
   6   3   1   82.05    5.62
   9  -4  -1   68.48    5.00
   9  -4  -1   75.97    4.74
  -9   4   1   75.19    5.01
  -9   4   1   74.83    4.98
  -9   4   1   76.19    4.77
  -9   4   1   78.01    4.67
   8  -4  -1   15.02    1.71
   8  -4  -1   17.86    1.77
   8  -4  -1   14.75    1.46
  -8   4   1   16.41    1.43
  -8   4   1   15.77    1.53
  -8   4   1   16.86    1.70
  -8   4   1   16.67    1.76
   7  -4  -1  180.37    9.83
   7  -4  -1  149.56    9.91
   7  -4  -1  159.39    9.68
  -7   4   1  160.44    9.76
  -7   4   1  172.00    9.67
  -7   4   1  177.65    9.90
   6  -4  -1   47.64    3.29
   6  -4  -1   53.37    3.18
   6  -4  -1   48.12    3.09
  -6   4   1   45.42    3.15
  -6   4   1   48.36    3.18
  -6   4   1   53.57    3.10
  -6   4   1   52.68    3.27
   5  -4  -1  286.14   16.80
   5  -4  -1  280.40   16.64
   5  -4  -1  309.56   16.67
  -5   4   1  279.66   16.71
  -5   4   1  291.33   16.91
  -5   4   1  307.56   16.63
  -5   4   1  285.68   16.67
   4  -4  -1   51.50    3.21
   4  -4  -1   52.59    3.18
   4  -4  -1   57.30    3.33
  -4   4   1   51.69    3.20
  -4   4   1   50.13    3.28
  -4   4   1   54.21    3.20
  -4   4   1   54.66    3.31
   3  -4  -1  183.19   10.19
   3  -4  -1  171.34   10.19
   3  -4  -1  182.18   10.28
   3  -4  -1  183.45   10.35
  -3   4   1  167.64   10.33
  -3   4   1  177.23   10.20
  -3   4   1  175.68   10.15
  -3   4   1  189.22   10.27
  -3   4   1  180.23   10.35
   2  -4  -1  132.50    7.60
   2  -4  -1  139.55    7.66
   2  -4  -1  131.83    7.59
  -2   4   1  132.88    7.47
  -2   4   1  119.02    7.62
  -2   4   1  125.61    7.65
  -2   4   1  135.28    7.60
  -2   4   1  134.37    7.56
   1  -4  -1  131.96    7.65
   1  -4  -1  129.90    7.68
  -1   4   1  139.84    7.65
  -1   4   1  139.60    7.67
  -1   4   1  125.31    7.69
  -1   4   1  126.05    7.67
   0  -4  -1   64.55    4.10
   0  -4  -1   70.00    3.99
   0  -4  -1   71.81    4.15
   0   4   1   64.61    4.01
   0   4   1   68.04    4.08
   0   4   1   61.89    4.08
   0   4   1   67.07    3.84
   0   4   1   70.32    4.03
  -1  -4  -1  217.97   11.59
  -1  -4  -1  190.68   11.26
  -1  -4  -1  199.16   11.30
  -1  -4  -1  189.29   11.50
   1   4   1  188.49   11.32
   1   4   1  203.52   11.43
   1   4   1  192.59   11.50
   1   4   1  199.59   11.24
   1   4   1  200.32   11.49
  -2  -4  -1   12.57    1.12
  -2  -4  -1   15.16    1.40
  -2  -4  -1   15.69    1.43
  -2  -4  -1   13.93    0.99
   2   4   1   15.82    1.27
   2   4   1   15.10    1.35
   2   4   1   14.83    1.05
   2   4   1   14.64    1.01
   2   4   1   15.36    1.40
   2   4   1   15.62    1.13
  -3  -4  -1  106.44    6.98
  -3  -4  -1  115.63    7.21
  -3  -4  -1  129.77    7.30
   3   4   1  117.67    6.74
   3   4   1  110.85    7.05
   3   4   1  127.76    7.08
   3   4   1  132.92    7.27
   3   4   1  109.39    7.15
   3   4   1  117.79    6.90
  -4  -4  -1   11.36    1.33
  -4  -4  -1   12.89    1.73
  -4  -4  -1    9.74    1.43
   4   4   1   10.96    1.71
   4   4   1   11.93    1.11
   4   4   1   11.32    1.41
   4   4   1   10.76    1.41
   4   4   1   10.60    1.14
  -5  -4  -1   71.71    4.63
  -5  -4  -1   68.62    4.86
   5   4   1   70.78    4.43
   5   4   1   75.52    4.49
   5   4   1   66.97    4.70
   9  -5  -1   59.23    4.42
   9  -5  -1   61.53    4.02
  -9   5   1   61.93    4.32
  -9   5   1   62.46    4.17
  -9   5   1   65.94    4.01
   8  -5  -1  134.54    8.84
   8  -5  -1  153.29    8.74
  -8   5   1  143.55    8.72
  -8   5   1  139.88    8.67
  -8   5   1  149.79    8.83
  -8   5   1  151.08    8.54
   7  -5  -1   40.54    3.05
   7  -5  -1   46.79    2.90
   7  -5  -1   42.80    2.80
  -7   5   1   44.11    2.99
  -7   5   1   43.82    2.77
  -7   5   1   39.95    2.90
  -7   5   1   42.43    3.00
   6  -5  -1   63.07    3.72
   6  -5  -1   57.63    3.69
  -6   5   1   64.44    3.68
  -6   5   1   56.11    3.72
  -6   5   1   55.99    3.78
  -6   5   1   62.57    3.85
   5  -5  -1   99.03    5.57
   5  -5  -1   87.47    5.58
  -5   5   1   88.41    5.68
  -5   5   1   94.55    5.59
  -5   5   1   98.56    5.73
  -5   5   1   98.47    5.61
   4  -5  -1  259.64   14.59
   4  -5  -1  245.90   14.68
  -4   5   1  250.90   14.49
  -4   5   1  241.62   14.76
  -4   5   1  280.00   14.81
  -4   5   1  273.08   14.70
  -4   5   1  243.16   14.61
   3  -5  -1   64.06    3.86
   3  -5  -1   68.36    3.94
   3  -5  -1   61.30    3.80
  -3   5   1   61.21    3.93
  -3   5   1   68.92    3.86
  -3   5   1   56.79    4.11
  -3   5   1   64.35    3.74
  -3   5   1   64.12    3.72
   2  -5  -1  107.94    5.80
   2  -5  -1   96.83    5.75
   2  -5  -1   93.49    5.76
  -2   5   1  100.22    5.72
  -2   5   1  101.36    5.55
  -2   5   1   90.02    5.79
  -2   5   1   89.96    5.78
  -2   5   1   98.55    5.55
   1  -5  -1   57.72    3.85
   1  -5  -1   67.37    3.80
  -1   5   1   66.61    3.84
  -1   5   1   59.12    3.81
  -1   5   1   64.77    3.81
  -1   5   1   58.72    3.85
   0  -5  -1  195.20   11.21
   0  -5  -1  189.21   11.39
   0   5   1  206.52   11.37
   0   5   1  207.53   11.31
   0   5   1  187.51   11.36
   0   5   1  186.02   11.24
  -1  -5  -1   67.97    3.99
  -1  -5  -1   73.70    4.38
  -1  -5  -1   64.52    4.28
   1   5   1   66.03    3.89
   1   5   1   64.14    4.24
   1   5   1   63.35    4.01
   1   5   1   72.72    4.29
   1   5   1   67.71    4.16
  -2  -5  -1  197.80   10.86
  -2  -5  -1  180.77   10.41
  -2  -5  -1  166.06   10.71
   2   5   1  172.25   10.35
   2   5   1  164.15   10.67
   2   5   1  180.36   10.36
   2   5   1  183.47   10.50
   2   5   1  194.80   10.79
   2   5   1  194.02   10.64
  -3  -5  -1  110.34    7.24
  -3  -5  -1  131.34    7.44
  -3  -5  -1  113.82    6.89
   3   5   1  111.00    6.91
   3   5   1  123.32    7.11
   3   5   1  106.51    7.13
   3   5   1  122.32    6.82
  -4  -5  -1   50.39    3.40
  -4  -5  -1   48.15    3.81
   4   5   1   56.02    3.29
   4   5   1   51.06    3.66
   4   5   1   48.69    3.34
   9  -6  -1   95.40    6.00
  -9   6   1   97.51    6.26
  -9   6   1   98.85    6.20
  -9   6   1   99.87    6.01
   8  -6  -1   27.95    2.29
   8  -6  -1   29.33    2.17
  -8   6   1   30.49    2.14
  -8   6   1   28.23    2.36
  -8   6   1   28.49    2.29
   7  -6  -1  133.14    7.38
  -7   6   1  113.81    7.45
  -7   6   1  128.20    7.55
  -7   6   1  129.88    7.33
  -7   6   1  113.37    7.39
   6  -6  -1   27.60    2.00
   6  -6  -1   29.79    1.95
  -6   6   1   31.25    2.21
  -6   6   1   24.38    2.10
  -6   6   1   26.06    1.95
  -6   6   1   30.16    1.99
   5  -6  -1  269.79   15.68
   5  -6  -1  288.43   15.59
  -5   6   1  257.52   15.60
  -5   6   1  247.20   15.77
  -5   6   1  281.71   15.66
  -5   6   1  292.07   15.84
   4  -6  -1  206.10   11.94
  -4   6   1  199.33   12.04
  -4   6   1  196.31   11.80
  -4   6   1  204.42   11.75
  -4   6   1  219.85   12.08
  -4   6   1  212.99   11.92
   3  -6  -1  204.42   12.25
   3  -6  -1  212.60   12.28
   3  -6  -1  223.63   12.33
  -3   6   1  220.39   12.18
  -3   6   1  199.09   12.34
  -3   6   1  193.68   12.30
  -3   6   1  230.55   12.28
  -3   6   1  207.85   12.06
  -3   6   1  218.53   12.04
   2  -6  -1   46.41    2.83
   2  -6  -1   40.29    2.85
  -2   6   1   47.63    2.81
  -2   6   1   38.99    2.85
  -2   6   1   41.49    2.87
  -2   6   1   47.99    2.85
   1  -6  -1  213.59   11.69
   1  -6  -1  195.07   11.81
  -1   6   1  213.76   11.75
  -1   6   1  213.79   11.78
  -1   6   1  189.48   11.71
  -1   6   1  187.80   11.82
   0  -6  -1   61.34    4.76
   0  -6  -1   75.78    4.32
   0   6   1   68.88    4.51
   0   6   1   71.64    4.35
   0   6   1   77.53    4.48
   0   6   1   73.12    4.53
  -1  -6  -1  135.06    8.67
   1   6   1  144.63    8.54
   1   6   1  142.15    8.63
   1   6   1  155.78    8.70
   1   6   1  141.61    8.33
  -2  -6  -1   18.06    2.07
   2   6   1   18.91    1.27
   2   6   1   19.32    1.86
   2   6   1   18.18    1.58
   2   6   1   19.26    1.26
  -3  -6  -1   59.72    4.50
   3   6   1   66.71    4.39
   3   6   1   64.87    4.08
   9  -7  -1   32.68    2.65
  -9   7   1   33.41    2.92
  -9   7   1   33.97    2.89
   8  -7  -1  146.14    8.43
   8  -7  -1  131.18    8.35
  -8   7   1  145.55    8.36
  -8   7   1  135.76    8.55
  -8   7   1  143.51    8.46
   7  -7  -1   46.35    3.07
   7  -7  -1   47.44    3.04
  -7   7   1   44.94    3.25
  -7   7   1   42.21    3.08
  -7   7   1   47.73    3.08
   6  -7  -1  140.23    8.42
  -6   7   1  134.72    8.32
  -6   7   1  154.72    8.65
  -6   7   1  151.81    8.41
  -6   7   1  130.15    8.52
   5  -7  -1   28.20    2.11
  -5   7   1   31.02    2.11
  -5   7   1   29.32    1.75
  -5   7   1   26.44    2.21
  -5   7   1   27.06    1.91
  -5   7   1   32.22    2.34
   4  -7  -1   82.93    5.40
  -4   7   1   83.91    5.52
  -4   7   1   96.02    5.61
  -4   7   1   94.81    5.23
  -4   7   1   85.23    5.17
  -4   7   1   97.42    5.42
  -4   7   1   82.20    5.46
  -3   7   1   18.16    1.50
  -3   7   1   16.92    1.59
  -3   7   1   17.66    1.36
  -3   7   1   15.23    1.49
   2  -7  -1  156.09    9.39
  -2   7   1  167.29    9.31
  -2   7   1  146.95    9.32
  -2   7   1  170.13    9.34
  -2   7   1  150.65    9.37
   1  -7  -1   20.97    1.96
  -1   7   1   26.00    1.93
  -1   7   1   20.01    1.71
  -1   7   1   22.65    1.85
  -1   7   1   20.15    1.82
   0  -7  -1   81.81    5.46
   0   7   1   88.68    5.44
   0   7   1   84.66    5.16
   0   7   1   86.03    5.43
  -1  -7  -1   19.18    2.28
   1   7   1   23.74    2.14
   1   7   1   23.60    1.66
   1   7   1   23.75    1.86
  -2  -7  -1   65.83    4.97
   2   7   1   70.05    4.47
   2   7   1   72.57    4.79
   8  -8  -1   29.26    2.45
   8  -8  -1   28.63    2.37
  -8   8   1   24.80    2.58
  -8   8   1   27.00    2.32
   7  -8  -1   61.28    3.88
  -7   8   1   53.68    4.01
  -7   8   1   58.50    3.76
   6  -8  -1   62.29    4.08
  -6   8   1   62.46    3.88
  -6   8   1   56.77    4.21
  -6   8   1   68.67    4.10
  -5   8   1   74.28    4.52
  -5   8   1   71.33    4.94
  -5   8   1   76.07    4.89
  -5   8   1   79.23    4.81
  -5   8   1   78.43    4.46
  -4   8   1   30.41    2.55
  -4   8   1   33.70    2.48
  -4   8   1   34.08    2.21
  -4   8   1   32.79    2.51
  -3   8   1  136.56    8.66
  -3   8   1  162.45    8.55
  -3   8   1  132.91    8.64
   2  -8  -1   48.88    3.44
  -2   8   1   47.27    3.33
  -2   8   1   45.61    3.25
  -2   8   1   47.89    3.26
   1  -8  -1   96.72    6.12
  -1   8   1   93.42    5.96
  -1   8   1   78.30    6.39
  -1   8   1  107.61    6.08
   0  -8  -1   30.41    3.01
   0   8   1   36.40    2.38
   0   8   1   29.27    2.72
  -6   9   1  150.53    9.55
  -6   9   1  162.10    9.57
  -5   9   1   12.38    1.80
  -5   9   1   13.36    1.99
  -4   9   1   65.78    4.19
  -4   9   1   58.71    4.18
  -4   9   1   57.08    4.23
  -3   9   1   53.74    3.78
  -3   9   1   49.48    3.81
  -3   9   1   57.74    3.70
  -1   9  -2   61.92    4.27
  -1   9  -2   59.72    4.01
  -1   9  -2   67.75    4.14
  -2   9  -2   31.88    2.68
  -2   9  -2   33.58    2.08
  -2   9  -2   30.24    2.51
  -2   9  -2   28.63    2.39
  -3   9  -2   80.53    4.98
  -3   9  -2   79.56    4.70
  -3   9  -2   75.84    5.04
  -3   9  -2   75.27    4.99
  -3   9  -2   79.35    4.61
  -4   9  -2   79.95    4.81
  -4   9  -2   76.70    5.15
  -4   9  -2   84.05    5.00
  -4   9  -2   84.99    4.85
  -4   9  -2   76.87    5.18
  -5   9  -2  118.15    6.69
  -5   9  -2  111.07    6.65
  -5   9  -2  108.32    6.99
  -5   9  -2  112.67    6.71
  -5   9  -2  130.36    7.32
  -5   9  -2  106.86    6.61
  -5   9  -2  108.92    7.07
  -6   9  -2   17.30    1.90
  -6   9  -2   17.02    2.04
  -7   9  -2   81.61    4.87
  -7   9  -2   68.26    5.04
  -7   9  -2   72.67    4.70
   1   8  -2   20.96    1.91
   1   8  -2   20.85    2.07
   0   8  -2   85.29    5.30
   0   8  -2   82.11    5.46
   0   8  -2   90.78    5.12
   0   8  -2   86.78    5.05
   0   8  -2   83.88    5.14
   0   8  -2   88.77    5.12
  -1   8  -2   28.55    1.85
  -1   8  -2   25.52    2.13
  -1   8  -2   25.48    1.95
  -1   8  -2   29.06    2.39
  -1   8  -2   25.48    1.71
  -2   8  -2  118.49    6.78
  -2   8  -2  116.22    6.52
  -2   8  -2  106.47    6.43
  -2   8  -2  104.94    6.69
  -2   8  -2  114.04    6.77
  -2   8  -2  107.39    6.75
  -3   8  -2   39.82    2.65
  -3   8  -2   41.39    2.91
  -3   8  -2   41.04    2.46
  -3   8  -2   37.12    2.39
  -3   8  -2   33.30    2.88
  -3   8  -2   40.75    2.72
  -3   8  -2   35.40    2.67
  -4   8  -2  124.76    7.48
  -4   8  -2  119.49    7.35
  -4   8  -2  127.63    7.12
  -4   8  -2  125.03    7.18
  -4   8  -2  124.28    7.28
  -4   8  -2  118.90    7.40
  -4   8  -2  113.83    7.11
  -5   8  -2   16.06    1.43
  -5   8  -2   15.47    1.17
  -5   8  -2   14.61    1.26
  -5   8  -2   15.10    1.11
  -5   8  -2   14.90    1.80
  -5   8  -2   14.86    1.60
  -6   8  -2  106.47    6.81
  -6   8  -2  114.81    6.61
  -6   8  -2  108.91    6.60
  -7   8  -2   31.76    2.19
  -7   8  -2   26.74    2.45
  -7   8  -2   28.85    2.26
  -8   8  -2  126.07    7.81
  -8   8  -2  139.28    7.66
  -8   8  -2  118.91    7.94
   8  -8   2  129.31    7.65
   2   7  -2   18.39    1.61
   2   7  -2   17.49    1.84
   1   7  -2  107.37    6.05
   1   7  -2   79.54    5.67
   1   7  -2   92.64    5.50
   1   7  -2   92.35    5.35
   1   7  -2   90.37    5.57
   1   7  -2   93.50    5.32
   0   7  -2   76.12    4.76
   0   7  -2   68.93    4.42
   0   7  -2   70.57    4.35
   0   7  -2   69.49    4.55
   0   7  -2   78.15    4.63
   0   7  -2   73.85    4.39
  -1   7  -2  123.40    6.81
  -1   7  -2  113.51    6.53
  -1   7  -2  107.07    6.59
  -1   7  -2  112.02    6.69
  -1   7  -2  104.44    6.68
  -1   7  -2  109.17    6.44
  -2   7  -2   71.14    4.26
  -2   7  -2   62.61    4.60
  -2   7  -2   77.04    4.32
  -2   7  -2   77.22    4.51
  -2   7  -2   78.22    4.49
  -2   7  -2   67.80    4.45
  -3   7  -2  243.07   13.73
  -3   7  -2  243.73   13.62
  -3   7  -2  226.46   13.80
  -3   7  -2  257.65   13.77
  -3   7  -2  226.68   13.61
  -3   7  -2  243.51   13.91
  -3   7  -2  227.59   13.81
  -4   7  -2   39.23    2.77
  -4   7  -2   39.71    2.61
  -4   7  -2   39.73    2.52
  -4   7  -2   41.56    2.52
  -4   7  -2   38.27    2.47
  -4   7  -2   41.63    2.83
  -5   7  -2  175.75   10.15
  -5   7  -2  177.24   10.17
  -5   7  -2  170.42   10.51
  -5   7  -2  185.64   10.35
  -5   7  -2  166.98   10.32
  -5   7  -2  194.58   10.61
  -6   7  -2  125.25    7.93
  -6   7  -2  147.67    7.90
  -6   7  -2  128.89    8.09
  -6   7  -2  144.61    8.20
   6  -7   2  126.38    7.87
  -7   7  -2  150.60    9.41
  -7   7  -2  148.52    9.51
  -7   7  -2  164.28    9.66
  -7   7  -2  170.71    9.29
   7  -7   2  155.49    9.27
   7  -7   2  166.26    9.40
  -8   7  -2   24.83    2.22
  -8   7  -2   24.71    2.25
  -8   7  -2   26.40    1.91
   8  -7   2   25.34    1.92
  -9   7  -2   31.04    2.72
  -9   7  -2   30.36    2.69
   4   6  -2   81.35    5.38
   4   6  -2   90.12    5.60
  -4  -6   2   88.98    5.51
   3   6  -2   24.36    1.87
   3   6  -2   21.86    1.75
   3   6  -2   19.44    1.92
  -3  -6   2   20.69    1.82
   2   6  -2   93.30    5.61
   2   6  -2   84.58    5.37
   2   6  -2   87.06    5.38
   2   6  -2   82.98    5.51
   2   6  -2   96.03    5.81
  -2  -6   2   84.94    5.35
  -2  -6   2   99.90    5.74
   1   6  -2   95.84    5.34
   1   6  -2   87.25    5.14
   1   6  -2   78.83    5.41
   1   6  -2   80.21    4.79
   1   6  -2   85.04    4.99
   1   6  -2   80.33    4.82
   1   6  -2   76.26    4.96
   0   6  -2  191.02   12.02
   0   6  -2  211.45   11.95
   0   6  -2  222.55   12.18
   0   6  -2  222.68   12.06
   0   6  -2  191.58   11.89
  -1   6  -2   69.44    3.88
  -1   6  -2   67.36    3.98
  -1   6  -2   65.92    4.08
  -1   6  -2   61.00    3.96
  -1   6  -2   58.92    3.90
  -2   6  -2  105.98    5.99
  -2   6  -2   97.08    6.11
  -2   6  -2  100.40    6.12
  -2   6  -2  107.31    6.14
  -2   6  -2  108.27    6.10
  -2   6  -2   99.52    5.96
  -3   6  -2   58.05    3.92
  -3   6  -2   61.17    3.77
  -3   6  -2   67.09    3.84
  -3   6  -2   67.68    4.01
  -4   6  -2  124.19    6.72
  -4   6  -2  108.85    6.59
  -4   6  -2  107.58    6.68
  -4   6  -2  110.91    6.84
  -4   6  -2  120.38    6.90
  -4   6  -2  116.75    6.63
  -5   6  -2   41.51    2.78
  -5   6  -2   42.92    2.56
  -5   6  -2   39.18    2.36
  -5   6  -2   39.15    2.73
  -5   6  -2   40.20    2.59
   5  -6   2   40.36    2.55
  -6   6  -2  112.87    7.44
  -6   6  -2  117.40    7.37
  -6   6  -2  130.85    7.54
  -6   6  -2  129.64    7.26
   6  -6   2  123.27    7.26
   6  -6   2  133.45    7.37
  -7   6  -2   56.24    3.63
  -7   6  -2   57.92    3.81
  -7   6  -2   52.82    3.66
   7  -6   2   56.73    3.43
   7  -6   2   52.20    3.82
   7  -6   2   58.78    3.63
  -8   6  -2   84.23    5.35
  -8   6  -2   90.34    5.05
  -8   6  -2   80.79    5.31
   8  -6   2   80.04    5.53
   8  -6   2   82.94    5.04
   8  -6   2   86.56    5.36
  -9   6  -2   14.60    1.95
  -9   6  -2   12.90    1.84
   9  -6   2   19.96    1.50
   9  -6   2   15.05    2.10
   5   5  -2   93.74    5.90
   5   5  -2  104.00    6.11
   5   5  -2   95.03    6.09
  -5  -5   2   92.56    6.05
   4   5  -2   29.41    2.21
   4   5  -2   31.45    2.38
   4   5  -2   32.96    2.42
  -4  -5   2   27.36    2.36
  -4  -5   2   33.22    2.71
   3   5  -2   83.47    5.42
   3   5  -2   84.02    5.28
   3   5  -2   97.65    5.70
   3   5  -2   89.20    5.35
  -3  -5   2   80.89    5.34
  -3  -5   2   83.96    5.57
  -3  -5   2   98.30    5.62
   2   5  -2   37.63    2.75
   2   5  -2   38.69    2.57
   2   5  -2   36.65    2.49
  -2  -5   2   44.03    2.74
  -2  -5   2   32.63    2.46
   1   5  -2   74.83    4.93
   1   5  -2   91.79    5.12
   1   5  -2   79.19    4.84
   1   5  -2   77.45    4.72
   1   5  -2   85.58    4.89
  -1  -5   2   77.89    5.04
  -1  -5   2   77.37    4.83
  -1  -5   2   91.02    5.06
   0   5  -2   41.80    2.80
   0   5  -2   51.80    2.94
   0   5  -2   42.17    2.89
   0   5  -2   49.02    3.04
   0   5  -2   48.31    2.87
  -1   5  -2  440.93   23.47
  -1   5  -2  415.30   23.31
  -1   5  -2  437.60   23.39
  -1   5  -2  374.35   23.35
  -1   5  -2  388.34   23.39
  -2   5  -2   32.24    2.00
  -2   5  -2   34.22    2.12
  -2   5  -2   32.36    2.18
  -2   5  -2   30.74    2.12
  -2   5  -2   36.26    2.09
  -2   5  -2   30.96    2.00
  -3   5  -2  218.60   11.63
  -3   5  -2  187.26   11.41
  -3   5  -2  203.78   11.47
  -3   5  -2  207.88   11.48
  -3   5  -2  191.12   11.45
  -3   5  -2  194.15   11.57
  -4   5  -2   20.61    1.32
  -4   5  -2   18.97    1.20
  -4   5  -2   17.57    1.68
  -4   5  -2   19.21    1.47
  -4   5  -2   19.38    1.25
  -4   5  -2   19.13    1.35
   4  -5   2   20.41    1.31
  -5   5  -2  245.31   14.79
  -5   5  -2  270.01   14.64
  -5   5  -2  245.33   14.72
  -5   5  -2  275.70   14.87
   5  -5   2  252.31   14.87
   5  -5   2  256.40   14.92
   5  -5   2  251.59   14.63
  -6   5  -2   85.59    5.16
  -6   5  -2   83.80    5.05
  -6   5  -2   86.35    4.89
  -6   5  -2   80.82    5.09
   6  -5   2   79.25    5.18
   6  -5   2   78.90    4.87
   6  -5   2   86.74    5.04
  -7   5  -2  132.67    7.62
  -7   5  -2  118.20    7.50
  -7   5  -2  119.87    7.50
  -7   5  -2  133.09    7.67
  -7   5  -2  127.65    7.30
   7  -5   2  134.44    7.52
   7  -5   2  111.16    7.62
   7  -5   2  127.24    7.29
  -8   5  -2   59.06    3.95
  -8   5  -2   61.97    4.12
  -8   5  -2   57.73    4.01
  -8   5  -2   63.23    3.72
  -8   5  -2   66.10    5.03
   8  -5   2   64.92    4.07
   8  -5   2   56.02    4.18
   8  -5   2   58.52    3.68
  -9   5  -2  100.41    6.44
  -9   5  -2  104.26    6.36
  -9   5  -2  102.51    6.09
   9  -5   2  103.96    6.04
   9  -5   2   98.22    6.62
   6   4  -2   83.04    5.14
   6   4  -2   81.82    5.31
  -6  -4   2   81.63    5.43
   5   4  -2   40.53    2.87
   5   4  -2   44.99    3.09
   5   4  -2   41.98    3.02
  -5  -4   2   41.27    3.09
  -5  -4   2   46.66    3.29
   4   4  -2   83.54    5.39
   4   4  -2   98.39    5.78
   4   4  -2   87.13    5.53
   4   4  -2   95.11    5.54
  -4  -4   2   88.83    5.67
  -4  -4   2   81.98    5.51
  -4  -4   2   96.65    5.67
   3   4  -2   54.41    3.50
   3   4  -2   51.70    3.60
   3   4  -2   64.18    3.84
   3   4  -2   62.24    3.63
  -3  -4   2   51.39    3.61
  -3  -4   2   63.15    3.75
  -3  -4   2   54.58    3.74
   2   4  -2  268.30   16.20
   2   4  -2  294.96   16.29
   2   4  -2  300.12   16.32
   2   4  -2  312.69   16.46
  -2  -4   2  265.72   16.37
  -2  -4   2  286.45   16.41
  -2  -4   2  260.31   16.26
   1   4  -2   43.04    2.71
   1   4  -2   45.46    2.79
   1   4  -2   43.88    2.80
   1   4  -2   43.08    2.62
   1   4  -2   48.19    2.94
  -1  -4   2   50.44    2.89
  -1  -4   2   42.58    2.89
  -1  -4   2   42.06    2.74
   0   4  -2  434.48   22.94
   0   4  -2  423.74   22.81
   0   4  -2  376.95   22.75
   0   4  -2  372.79   22.82
  -1   4  -2   91.32    5.39
  -1   4  -2   96.95    5.34
  -1   4  -2   96.10    5.46
  -1   4  -2   85.76    5.39
  -1   4  -2   92.17    5.38
  -2   4  -2  349.74   20.00
  -2   4  -2  344.41   19.99
  -2   4  -2  361.93   20.05
  -2   4  -2  357.84   20.10
  -2   4  -2  350.05   20.07
  -3   4  -2  121.70    7.57
  -3   4  -2  128.71    7.50
  -3   4  -2  129.26    7.65
  -3   4  -2  135.60    7.55
  -3   4  -2  134.68    7.56
  -3   4  -2  139.74    7.69
   3  -4   2  131.38    7.54
  -4   4  -2  340.93   20.08
  -4   4  -2  379.86   20.34
  -4   4  -2  353.22   20.28
  -4   4  -2  338.02   20.14
  -4   4  -2  348.88   20.22
   4  -4   2  374.35   20.23
   4  -4   2  357.51   20.15
   4  -4   2  351.98   20.33
  -5   4  -2  172.87   10.09
  -5   4  -2  176.95   10.32
  -5   4  -2  166.16   10.28
  -5   4  -2  195.29   10.41
  -5   4  -2  187.30   10.16
   5  -4   2  179.53   10.16
   5  -4   2  166.65   10.38
  -6   4  -2  195.33   10.78
  -6   4  -2  187.57   10.97
  -6   4  -2  180.45   10.95
  -6   4  -2  180.54   10.71
  -6   4  -2  195.77   11.03
  -6   4  -2  190.46   11.07
   6  -4   2  169.50   11.05
   6  -4   2  184.29   10.77
   6  -4   2  201.67   10.97
   6  -4   2  198.74   10.71
  -7   4  -2   16.35    1.19
  -7   4  -2   14.87    1.48
  -7   4  -2   16.57    1.59
  -7   4  -2   15.16    1.09
  -7   4  -2   16.75    1.53
  -7   4  -2   15.11    1.41
   7  -4   2   15.83    1.64
   7  -4   2   15.85    1.07
   7  -4   2   16.38    1.49
   7  -4   2   16.00    1.17
  -8   4  -2  166.33   10.06
  -8   4  -2  185.58   10.60
  -8   4  -2  171.70   10.43
  -8   4  -2  184.67   10.13
  -8   4  -2  179.31   10.45
  -8   4  -2  159.87   10.28
   8  -4   2  159.25   10.53
   8  -4   2  193.36   10.05
   8  -4   2  189.50   10.49
   8  -4   2  165.08   10.10
  -9   4  -2   35.38    2.68
  -9   4  -2   34.31    2.53
  -9   4  -2   34.18    2.98
  -9   4  -2   37.53    2.99
   9  -4   2   38.00    3.11
   9  -4   2   35.71    2.40
   6   3  -2   36.64    2.71
   6   3  -2   43.69    3.06
   6   3  -2   41.65    2.89
  -6  -3   2   34.26    3.10
  -6  -3   2   40.54    3.01
   5   3  -2   43.11    3.13
   5   3  -2   39.80    2.87
   5   3  -2   43.75    2.96
   5   3  -2   40.32    2.76
  -5  -3   2   39.19    2.98
  -5  -3   2   47.78    3.05
   4   3  -2   57.09    3.61
   4   3  -2   60.29    3.74
   4   3  -2   63.77    3.75
   4   3  -2   64.03    3.92
  -4  -3   2   55.97    3.76
  -4  -3   2   58.12    3.82
  -4  -3   2   54.07    3.76
   3   3  -2  302.34   18.60
   3   3  -2  357.77   18.65
   3   3  -2  364.58   18.77
   3   3  -2  299.11   18.52
  -3  -3   2  352.93   18.71
  -3  -3   2  294.09   18.63
  -3  -3   2  307.79   18.68
   2   3  -2  167.37    8.89
   2   3  -2  145.03    8.68
   2   3  -2  159.96    8.79
   2   3  -2  144.51    8.75
  -2  -3   2  138.14    8.76
  -2  -3   2  142.07    8.81
  -2  -3   2  160.50    8.82
   1   3  -2  213.88   11.97
   1   3  -2  208.01   11.80
   1   3  -2  200.21   11.95
   1   3  -2  203.93   11.82
   1   3  -2  196.68   11.89
   1   3  -2  228.55   12.06
  -1  -3   2  206.47   11.95
  -1  -3   2  205.56   12.03
  -1  -3   2  216.63   11.99
   0   3  -2   33.77    2.04
   0   3  -2   36.21    2.08
   0   3  -2   36.01    2.17
   0   3  -2   31.09    2.06
   0  -3   2   33.77    2.05
  -1   3  -2  226.22   12.73
  -1   3  -2  221.82   12.79
  -2   3  -2  187.77    9.91
  -2   3  -2  164.98    9.80
  -2   3  -2  170.74    9.80
  -2   3  -2  166.87    9.83
  -3   3  -2  196.27   11.46
  -3   3  -2  210.37   11.54
  -3   3  -2  194.59   11.38
  -3   3  -2  210.59   11.39
   3  -3   2  201.86   11.46
   3  -3   2  195.54   11.53
   3  -3   2  195.94   11.38
  -4   3  -2  111.35    6.17
  -4   3  -2  116.54    6.39
  -4   3  -2  100.83    6.16
  -4   3  -2  103.74    6.28
   4  -3   2  106.73    6.16
   4  -3   2  111.80    6.16
   4  -3   2  113.04    6.28
   4  -3   2   97.85    6.35
  -5   3  -2   97.21    5.85
  -5   3  -2  106.13    6.05
  -5   3  -2  102.18    6.02
  -5   3  -2   99.40    5.85
   5  -3   2  101.76    5.85
   5  -3   2  101.26    5.84
   5  -3   2   98.58    6.10
   5  -3   2  106.33    6.22
  -6   3  -2    6.47    0.84
  -6   3  -2    8.59    0.95
  -6   3  -2    7.38    0.94
  -6   3  -2    8.33    0.70
  -6   3  -2    7.59    0.70
  -6   3  -2    9.77    1.05
   6  -3   2    5.89    0.89
   6  -3   2    7.74    0.71
   6  -3   2    7.32    0.68
   6  -3   2    8.14    1.06
  -7   3  -2  112.37    6.55
  -7   3  -2  120.20    6.83
  -7   3  -2  108.47    6.58
  -7   3  -2  108.21    6.69
  -7   3  -2  119.50    6.94
  -7   3  -2  105.64    6.80
   7  -3   2  112.99    6.56
   7  -3   2  120.81    6.60
   7  -3   2  102.98    6.90
   7  -3   2  114.93    6.81
  -8   3  -2   73.23    4.69
  -8   3  -2   76.75    4.64
  -8   3  -2   83.07    4.97
  -8   3  -2   77.78    4.81
  -8   3  -2   75.05    4.98
   8  -3   2   83.75    4.73
   8  -3   2   75.50    4.65
   8  -3   2   76.14    5.12
  -9   3  -2   87.96    5.37
  -9   3  -2   78.33    5.42
  -9   3  -2   80.35    5.09
  -9   3  -2   83.25    5.02
   9  -3   2   84.85    4.98
   9  -3   2   73.73    5.52
   7   2  -2   35.96    2.71
   7   2  -2   31.37    2.48
  -7  -2   2   36.50    2.95
   6   2  -2  140.15    7.68
   6   2  -2  134.30    7.59
   6   2  -2  116.11    7.34
   6   2  -2  118.57    7.49
  -6  -2   2  114.43    7.56
  -6  -2   2  123.69    7.57
   5   2  -2   32.21    2.35
   5   2  -2   33.29    2.27
   5   2  -2   28.20    2.15
   5   2  -2   28.06    2.06
  -5  -2   2   35.38    2.33
  -5  -2   2   27.78    2.25
  -5  -2   2   29.89    2.26
   4   2  -2  150.09    9.06
   4   2  -2  164.17    9.15
   4   2  -2  168.90    9.18
   4   2  -2  151.89    8.98
  -4  -2   2  163.89    9.15
  -4  -2   2  146.01    9.10
  -4  -2   2  142.51    9.10
   3   2  -2   39.39    2.44
   3   2  -2   36.13    2.26
   3   2  -2   35.56    2.32
   3   2  -2   39.76    2.39
  -3  -2   2   33.62    2.36
  -3  -2   2   38.52    2.38
  -3  -2   2   32.34    2.37
   2   2  -2  239.26   13.08
   2   2  -2  244.73   13.11
   2   2  -2  216.02   13.01
   2   2  -2  215.44   12.97
  -2  -2   2  218.42   13.07
  -2  -2   2  224.00   13.08
  -2  -2   2  237.56   13.05
   1   2  -2   87.77    5.00
   1   2  -2   87.08    4.96
   1   2  -2   85.76    4.81
   1   2  -2   82.32    4.89
   1   2  -2   85.53    4.92
  -1  -2   2   86.17    4.93
  -1  -2   2   79.43    4.95
   0   2  -2   75.58    4.21
   0   2  -2   72.24    4.30
   0   2  -2   77.70    4.25
   0   2  -2   70.06    4.23
   0   2  -2   74.54    4.22
   0  -2   2   71.16    4.24
  -1   2  -2  107.18    6.13
  -1   2  -2  104.13    6.15
  -1   2  -2  108.02    6.17
  -1   2  -2  111.60    6.17
  -2   2  -2  290.37   16.21
  -2   2  -2  295.46   16.28
  -2   2  -2  277.25   16.24
  -2   2  -2  283.01   16.30
  -2   2  -2  294.79   16.32
   2  -2   2  287.02   16.20
   2  -2   2  278.62   16.31
   2  -2   2  290.58   16.24
  -3   2  -2  140.73    7.96
  -3   2  -2  135.27    8.00
  -3   2  -2  135.09    8.06
  -3   2  -2  143.11    8.13
  -3   2  -2  139.71    8.09
   3  -2   2  138.24    8.12
   3  -2   2  148.83    8.01
   3  -2   2  143.61    8.06
   3  -2   2  138.26    7.96
  -4   2  -2  432.03   24.29
  -4   2  -2  425.00   24.42
  -4   2  -2  425.38   24.34
  -4   2  -2  439.74   24.51
  -4   2  -2  432.32   24.43
   4  -2   2  443.76   24.34
   4  -2   2  455.38   24.43
   4  -2   2  413.23   24.28
   4  -2   2  402.50   24.48
  -5   2  -2   70.16    4.62
  -5   2  -2   75.31    4.34
  -5   2  -2   72.78    4.17
  -5   2  -2   69.72    4.22
  -5   2  -2   67.85    4.33
   5  -2   2   68.00    4.41
   5  -2   2   73.88    4.22
   5  -2   2   73.02    4.16
  -6   2  -2  240.20   13.23
  -6   2  -2  218.88   13.13
  -6   2  -2  227.28   13.04
  -6   2  -2  222.96   13.24
  -6   2  -2  240.59   13.38
  -6   2  -2  221.19   13.11
   6  -2   2  248.18   13.25
   6  -2   2  214.34   13.32
   6  -2   2  234.03   13.11
   6  -2   2  218.30   13.04
  -7   2  -2   53.70    3.55
  -7   2  -2   60.70    3.70
  -7   2  -2   56.01    3.72
  -7   2  -2   54.27    3.45
  -7   2  -2   55.12    3.83
  -7   2  -2   58.33    3.56
   7  -2   2   54.72    3.83
   7  -2   2   60.70    3.60
   7  -2   2   58.65    3.48
   7  -2   2   57.62    3.73
  -8   2  -2   58.84    4.19
  -8   2  -2   62.47    4.04
  -8   2  -2   60.50    3.88
  -8   2  -2   60.22    3.94
   8  -2   2   59.42    4.28
   8  -2   2   63.95    3.83
   8  -2   2   68.17    4.04
  -9   2  -2   39.50    2.76
  -9   2  -2   40.81    2.93
  -9   2  -2   38.96    3.46
   9  -2   2   36.16    3.69
   8   1  -2   40.10    3.14
   8   1  -2   38.21    2.87
  -8  -1   2   43.66    3.41
   7   1  -2   82.81    5.33
   7   1  -2   76.70    5.03
   7   1  -2   81.56    5.19
   7   1  -2   85.32    5.30
  -7  -1   2   79.52    5.30
  -7  -1   2   87.98    5.36
   6   1  -2   22.65    1.92
   6   1  -2   23.61    1.93
   6   1  -2   20.55    1.78
   6   1  -2   21.67    1.68
  -6  -1   2   24.45    1.77
  -6  -1   2   24.16    1.90
  -6  -1   2   21.31    1.92
   5   1  -2  208.62   11.35
   5   1  -2  183.37   11.71
   5   1  -2  184.45   11.17
   5   1  -2  184.90   11.26
  -5  -1   2  216.07   11.35
  -5  -1   2  184.45   11.26
  -5  -1   2  188.88   11.33
  -5  -1   2  194.33   10.98
  -5  -1   2  201.38   11.22
  -5  -1   2  190.97   10.97
   4   1  -2   64.24    3.94
   4   1  -2   69.18    4.08
   4   1  -2   61.84    3.99
   4   1  -2   71.46    4.07
  -4  -1   2   60.18    4.05
  -4  -1   2   65.89    3.78
  -4  -1   2   61.56    4.01
  -4  -1   2   66.17    4.04
  -4  -1   2   75.17    4.00
  -4  -1   2   64.29    3.78
   3   1  -2  381.60   22.13
   3   1  -2  374.35   22.16
   3   1  -2  417.48   22.24
   3   1  -2  408.05   22.22
  -3  -1   2  390.44   22.14
  -3  -1   2  364.16   22.22
  -3  -1   2  415.03   22.21
  -3  -1   2  370.22   22.19
   2   1  -2  184.69    9.74
   2   1  -2  161.16    9.64
   2   1  -2  177.19    9.72
   2   1  -2  163.33    9.54
  -2  -1   2  167.87    9.66
  -2  -1   2  160.31    9.71
  -2  -1   2  162.15    9.55
  -2  -1   2  175.36    9.65
   0   1  -2  147.41    8.66
   0   1  -2  157.97    8.69
   0   1  -2  159.79    8.69
   0  -1   2  151.74    8.66
   0  -1   2  152.60    8.69
   0  -1   2  149.01    8.69
  -1   1  -2  362.53   20.48
  -2   1  -2  129.62    7.34
  -2   1  -2  125.21    7.26
  -2   1  -2  128.91    7.39
  -2   1  -2  128.60    7.36
  -2   1  -2  122.54    7.34
   2  -1   2  131.96    7.34
   2  -1   2  129.55    7.36
   2  -1   2  132.15    7.35
   2  -1   2  127.72    7.26
  -3   1  -2  659.22   37.48
  -3   1  -2  654.74   37.57
  -3   1  -2  660.64   37.50
   3  -1   2  614.82   37.56
   3  -1   2  693.91   37.48
   3  -1   2  684.23   37.50
   3  -1   2  675.15   37.41
  -4   1  -2   34.58    2.32
  -4   1  -2   33.50    2.22
  -4   1  -2   37.97    2.22
  -4   1  -2   34.92    2.09
  -4   1  -2   34.00    2.19
   4  -1   2   33.82    2.31
   4  -1   2   35.89    2.11
   4  -1   2   35.02    2.18
  -5   1  -2  118.86    7.12
  -5   1  -2  114.92    7.16
  -5   1  -2  126.71    7.14
  -5   1  -2  126.13    7.30
  -5   1  -2  119.57    7.00
   5  -1   2  127.10    7.13
   5  -1   2  117.48    7.02
   5  -1   2  129.74    7.17
   5  -1   2  115.27    7.27
  -6   1  -2   66.23    4.15
  -6   1  -2   69.60    3.93
  -6   1  -2   60.59    3.98
  -6   1  -2   61.70    3.92
   6  -1   2   59.72    3.78
   6  -1   2   68.83    4.00
   6  -1   2   55.96    4.10
  -7   1  -2  169.02   10.39
  -7   1  -2  167.46   10.28
  -7   1  -2  187.69   10.58
  -7   1  -2  166.91   10.14
  -7   1  -2  164.66   10.38
   7  -1   2  193.84   10.35
   7  -1   2  170.30   10.49
   7  -1   2  186.96   10.39
   7  -1   2  173.14   10.15
  -8   1  -2   18.18    2.13
  -8   1  -2   18.30    1.52
  -8   1  -2   18.44    1.79
  -8   1  -2   17.43    1.83
   8  -1   2   17.97    2.10
   8  -1   2   17.84    1.57
   8  -1   2   21.34    2.08
   8   0  -2   96.85    6.23
   8   0  -2   92.36    6.05
   8   0  -2  104.56    6.26
  -8   0   2  101.53    5.76
  -8   0   2   96.75    6.39
  -8   0   2  104.62    6.16
   7   0  -2   30.74    2.40
   7   0  -2   31.43    2.27
   7   0  -2   31.88    2.55
   7   0  -2   33.72    2.44
  -7   0   2   33.75    2.57
  -7   0   2   33.55    2.09
  -7   0   2   31.76    2.32
  -7   0   2   35.80    2.54
  -7   0   2   30.09    2.02
   6   0  -2  207.85   12.87
   6   0  -2  220.27   12.78
   6   0  -2  237.50   12.91
   6   0  -2  241.59   12.98
  -6   0   2  220.30   12.67
  -6   0   2  231.90   12.94
  -6   0   2  212.87   12.63
  -6   0   2  219.73   12.79
  -6   0   2  204.32   12.92
   5   0  -2   99.31    6.45
   5   0  -2  115.99    6.54
   5   0  -2  110.95    6.40
   5   0  -2  114.60    6.46
  -5   0   2  105.15    6.48
  -5   0   2  116.19    6.41
  -5   0   2  105.26    6.27
  -5   0   2  104.47    6.51
   4   0  -2  475.63   25.27
   4   0  -2  464.82   25.33
   4   0  -2  424.89   25.21
   4   0  -2  425.32   25.27
  -4   0   2  453.71   25.29
  -4   0   2  426.23   25.31
  -4   0   2  426.75   25.14
  -4   0   2  459.05   25.23
   3   0  -2   27.66    1.72
   3   0  -2   25.60    1.68
   3   0  -2   26.69    1.63
   3   0  -2   25.07    1.70
  -3   0   2   25.26    1.76
  -3   0   2   27.44    1.63
  -3   0   2   26.07    1.71
  -3   0   2   31.86    1.72
   2   0  -2    9.07    0.65
   2   0  -2    9.01    0.72
   2   0  -2    9.27    0.63
   2   0  -2    8.41    0.66
  -2   0   2    9.00    0.62
  -2   0   2   10.39    0.65
  -2   0   2    9.44    0.73
   1   0  -2  168.45    9.18
   1   0  -2  159.86    9.10
   1   0  -2  161.59    9.13
   1   0  -2  170.34    9.15
   1   0  -2  165.96    9.14
  -1   0   2  149.34    9.13
  -1   0   2  157.32    9.17
  -1   0   2  157.21    9.15
  -1   0   2  158.79    9.10
   0   0  -2  461.49   26.61
   0   0   2  472.79   26.62
  -1   0  -2  120.08    6.96
  -1   0  -2  119.59    6.99
  -1   0  -2  126.16    7.00
  -1   0  -2  120.74    7.01
   1   0   2  119.47    7.01
   1   0   2  121.02    6.92
   1   0   2  132.24    6.96
   1   0   2  118.18    6.99
   1   0   2  123.43    6.99
  -2   0  -2  326.59   18.39
  -2   0  -2  317.80   18.41
  -2   0  -2  317.45   18.46
  -2   0  -2  330.12   18.38
   2   0   2  309.49   18.32
   2   0   2  328.19   18.40
   2   0   2  321.63   18.37
   2   0   2  326.79   18.47
   2   0   2  341.26   18.38
  -3   0  -2   13.05    0.98
  -3   0  -2   12.50    0.96
  -3   0  -2   13.18    1.06
  -3   0  -2   13.51    0.94
   3   0   2   12.86    0.87
   3   0   2   12.80    1.06
   3   0   2   13.26    0.94
   3   0   2   13.48    0.90
   3   0   2   14.13    0.99
  -4   0  -2  202.16   12.21
  -4   0  -2  214.49   12.17
  -4   0  -2  204.88   12.21
  -4   0  -2  223.85   12.35
   4   0   2  199.76   12.30
   4   0   2  221.88   12.20
   4   0   2  203.34   12.10
   4   0   2  228.46   12.24
  -5   0  -2   66.17    4.23
  -5   0  -2   68.28    4.23
  -5   0  -2   70.65    4.15
  -5   0  -2   72.14    4.39
   5   0   2   67.58    4.35
   5   0   2   66.41    4.08
   5   0   2   67.66    4.36
   5   0   2   71.21    4.21
  -6   0  -2  189.30   10.59
  -6   0  -2  167.34   10.67
  -6   0  -2  183.94   10.87
   6   0   2  171.18   10.81
   6   0   2  203.94   10.75
   6   0   2  191.56   10.71
   6   0   2  171.83   10.53
  -7   0  -2   56.47    3.95
  -7   0  -2   57.81    3.56
  -7   0  -2   55.20    3.86
  -7   0  -2   61.70    3.69
   7   0   2   61.93    3.94
   7   0   2   63.63    3.97
   7   0   2   53.76    4.01
   7   0   2   58.15    3.65
  -8   0  -2   45.22    3.28
  -8   0  -2   42.49    3.48
   8   0   2   43.46    2.94
   8   0   2   41.63    3.45
   9  -1  -2   51.37    3.62
   9  -1  -2   48.52    3.45
  -9   1   2   43.81    3.89
   8  -1  -2    8.69    1.25
   8  -1  -2    8.18    1.42
   8  -1  -2   10.75    1.36
  -8   1   2   12.42    1.69
  -8   1   2   10.25    1.15
  -8   1   2   11.39    1.59
  -8   1   2   10.51    1.33
  -8   1   2    8.85    0.98
   7  -1  -2   85.23    5.47
   7  -1  -2   76.45    5.56
   7  -1  -2   92.37    5.30
   7  -1  -2   83.97    5.27
  -7   1   2   85.18    5.16
  -7   1   2   82.95    5.45
  -7   1   2   93.52    5.30
  -7   1   2   91.45    5.24
  -7   1   2   92.39    5.46
   6  -1  -2   90.03    5.25
   6  -1  -2   73.84    5.04
   6  -1  -2   89.99    5.08
   6  -1  -2   81.04    5.17
  -6   1   2   76.90    4.98
  -6   1   2   93.24    5.23
  -6   1   2   79.89    5.20
  -6   1   2   93.98    5.09
   5  -1  -2  138.75    7.97
   5  -1  -2  130.91    7.90
   5  -1  -2  127.69    7.82
   5  -1  -2  141.24    7.81
  -5   1   2  125.38    7.91
  -5   1   2  144.58    7.84
  -5   1   2  136.62    7.91
  -5   1   2  132.29    7.78
   4  -1  -2   79.47    4.53
   4  -1  -2   77.48    4.41
   4  -1  -2   74.17    4.50
   4  -1  -2   74.26    4.43
  -4   1   2   74.71    4.43
  -4   1   2   72.31    4.51
  -4   1   2   79.55    4.49
  -4   1   2   70.67    4.40
   3  -1  -2   99.35    5.67
   3  -1  -2  101.69    5.72
   3  -1  -2   95.59    5.74
   3  -1  -2   94.64    5.70
   3  -1  -2  101.25    5.77
  -3   1   2  102.38    5.73
  -3   1   2   94.38    5.75
  -3   1   2   95.90    5.70
  -3   1   2  103.28    5.70
   2  -1  -2  158.99    8.67
   2  -1  -2  144.44    8.65
   2  -1  -2  154.99    8.68
   2  -1  -2  147.76    8.59
  -2   1   2  144.71    8.66
  -2   1   2  147.93    8.63
  -2   1   2  158.24    8.68
  -2   1   2  155.87    8.64
   1  -1  -2  432.74   24.60
   1  -1  -2  432.21   24.65
  -1   1   2  442.08   24.60
   0  -1  -2  155.81    8.65
   0  -1  -2  150.30    8.72
   0  -1  -2  151.98    8.75
   0  -1  -2  157.76    8.70
   0  -1  -2  152.17    8.73
   0   1   2  162.00    8.70
   0   1   2  143.66    8.74
   0   1   2  145.15    8.73
   0   1   2  158.65    8.72
  -1  -1  -2  518.19   30.32
  -1  -1  -2  539.24   30.34
   1   1   2  519.90   30.31
   1   1   2  543.93   30.27
   1   1   2  575.14   30.34
   1   1   2  520.95   30.36
  -2  -1  -2   75.21    4.54
  -2  -1  -2   83.30    4.62
  -2  -1  -2   74.04    4.46
  -2  -1  -2   75.58    4.49
   2   1   2   76.92    4.54
   2   1   2   80.14    4.60
   2   1   2   71.21    4.42
   2   1   2   78.14    4.45
   2   1   2   77.16    4.45
  -3  -1  -2   66.72    4.46
  -3  -1  -2   73.22    4.55
  -3  -1  -2   76.84    4.47
  -3  -1  -2   81.43    4.65
   3   1   2   80.37    4.57
   3   1   2   71.59    4.60
   3   1   2   82.87    4.48
   3   1   2   76.60    4.41
   3   1   2   73.45    4.41
  -4  -1  -2  117.54    6.73
  -4  -1  -2  111.75    6.86
  -4  -1  -2  115.55    6.96
  -4  -1  -2  109.01    6.79
   4   1   2  115.27    6.69
   4   1   2  125.74    6.89
   4   1   2  120.84    6.78
   4   1   2  108.81    6.91
  -5  -1  -2  155.73    9.08
  -5  -1  -2  150.51    8.74
  -5  -1  -2  144.10    8.90
  -5  -1  -2  142.65    8.93
   5   1   2  144.45    8.74
   5   1   2  166.87    8.99
   5   1   2  154.70    8.85
  -6  -1  -2   52.73    3.29
  -6  -1  -2   52.66    3.21
  -6  -1  -2   57.98    3.86
  -6  -1  -2   52.41    3.60
  -6  -1  -2   50.77    3.59
   6   1   2   53.95    3.35
   6   1   2   58.96    3.69
   6   1   2   48.09    3.63
   6   1   2   57.61    3.53
  -7  -1  -2   59.51    3.42
  -7  -1  -2   57.96    3.99
  -7  -1  -2   53.73    4.01
   7   1   2   57.21    3.66
   7   1   2   57.17    4.05
   9  -2  -2   19.70    2.12
   9  -2  -2   23.24    2.33
  -9   2   2   24.15    2.14
  -9   2   2   25.66    2.17
  -9   2   2   24.45    2.51
  -9   2   2   23.70    1.87
   8  -2  -2  124.18    8.01
   8  -2  -2  127.53    7.87
   8  -2  -2  134.54    7.75
   8  -2  -2  126.16    8.08
  -8   2   2  135.97    7.86
  -8   2   2  138.43    7.83
  -8   2   2  126.02    7.76
  -8   2   2  127.92    8.07
  -8   2   2  147.16    8.09
   7  -2  -2   59.01    3.70
   7  -2  -2   59.98    3.87
   7  -2  -2   62.10    3.58
   7  -2  -2   55.49    3.83
  -7   2   2   55.64    3.62
  -7   2   2   61.14    3.67
  -7   2   2   54.74    3.83
  -7   2   2   61.91    3.84
   6  -2  -2  203.62   12.05
   6  -2  -2  198.45   12.15
   6  -2  -2  220.59   11.94
   6  -2  -2  230.11   12.19
  -6   2   2  213.08   12.13
  -6   2   2  203.10   12.15
  -6   2   2  197.48   12.38
  -6   2   2  203.47   12.02
   5  -2  -2  104.87    6.79
   5  -2  -2  111.27    6.90
   5  -2  -2  122.71    6.91
   5  -2  -2  121.17    6.70
  -5   2   2  132.76    6.81
  -5   2   2  110.05    6.80
  -5   2   2  111.32    6.89
  -5   2   2  120.00    6.89
   4  -2  -2  378.30   20.90
   4  -2  -2  365.75   20.92
   4  -2  -2  379.31   20.90
   4  -2  -2  345.53   20.71
   4  -2  -2  355.93   20.84
   4  -2  -2  380.89   20.73
  -4   2   2  383.07   20.83
  -4   2   2  360.48   20.86
  -4   2   2  341.07   20.88
  -4   2   2  379.53   20.90
   3  -2  -2  213.99   12.51
   3  -2  -2  220.92   12.52
   3  -2  -2  228.03   12.48
   3  -2  -2  214.48   12.47
  -3   2   2  215.23   12.50
  -3   2   2  211.51   12.48
  -3   2   2  217.88   12.45
  -3   2   2  227.75   12.50
   2  -2  -2  510.08   28.60
   2  -2  -2  497.29   28.56
   2  -2  -2  530.19   28.66
  -2   2   2  505.44   28.62
  -2   2   2  509.82   28.58
  -2   2   2  522.40   28.59
  -2   2   2  465.40   28.63
   1  -2  -2    9.74    0.67
   1  -2  -2    7.81    0.47
   1  -2  -2    7.70    0.58
   1  -2  -2    7.71    0.58
  -1   2   2    6.76    0.59
  -1   2   2    8.46    0.59
  -1   2   2    7.40    0.49
  -1   2   2    7.26    0.63
  -1   2   2    8.89    0.57
   0  -2  -2  519.64   29.44
   0  -2  -2  533.70   29.47
   0  -2  -2  511.69   29.43
   0  -2  -2  514.77   29.40
   0   2   2  500.62   29.44
   0   2   2  490.34   29.45
   0   2   2  554.23   29.44
   0   2   2  535.73   29.40
  -1  -2  -2  177.14   10.69
  -1  -2  -2  180.47   10.57
  -1  -2  -2  192.19   10.74
  -1  -2  -2  191.16   10.64
   1   2   2  189.83   10.73
   1   2   2  180.31   10.63
   1   2   2  191.68   10.62
   1   2   2  182.12   10.54
   1   2   2  189.36   10.69
  -2  -2  -2  278.60   16.17
  -2  -2  -2  270.42   16.01
  -2  -2  -2  264.56   16.12
  -2  -2  -2  284.68   16.02
   2   2   2  270.42   16.15
   2   2   2  293.34   16.03
   2   2   2  299.29   16.14
   2   2   2  300.90   15.98
   2   2   2  270.75   15.98
  -3  -2  -2   62.11    4.08
  -3  -2  -2   64.43    4.20
  -3  -2  -2   67.64    4.02
  -3  -2  -2   74.81    4.30
   3   2   2   68.24    3.97
   3   2   2   74.22    4.22
   3   2   2   75.24    4.06
   3   2   2   67.52    4.03
   3   2   2   59.55    4.20
  -4  -2  -2  158.46    9.73
  -4  -2  -2  158.19    9.63
  -4  -2  -2  160.59    9.47
  -4  -2  -2  183.43    9.86
   4   2   2  150.52    9.74
   4   2   2  157.86    9.51
   4   2   2  175.35    9.58
   4   2   2  177.40    9.76
  -5  -2  -2   47.53    3.20
  -5  -2  -2   40.80    2.98
  -5  -2  -2   42.01    2.58
  -5  -2  -2   41.11    2.91
   5   2   2   39.78    2.69
   5   2   2   38.95    2.99
   5   2   2   47.53    3.08
   5   2   2   44.21    2.81
  -6  -2  -2  101.97    6.33
  -6  -2  -2  102.04    6.28
   6   2   2   94.53    5.99
   6   2   2  107.96    6.16
   6   2   2   94.98    6.32
   9  -3  -2   59.66    4.41
   9  -3  -2   68.27    4.67
  -9   3   2   66.49    4.67
  -9   3   2   73.23    4.51
  -9   3   2   71.56    4.38
  -9   3   2   70.14    4.35
   8  -3  -2   36.79    2.88
   8  -3  -2   36.44    2.76
   8  -3  -2   39.29    2.67
  -8   3   2   36.17    2.51
  -8   3   2   30.56    2.71
  -8   3   2   35.26    2.53
  -8   3   2   42.33    2.81
   7  -3  -2  233.89   12.61
   7  -3  -2  209.06   12.62
   7  -3  -2  200.68   12.44
  -7   3   2  193.47   12.57
  -7   3   2  229.83   12.43
  -7   3   2  228.29   12.59
  -7   3   2  210.70   12.46
   6  -3  -2   71.96    4.30
   6  -3  -2   64.58    4.32
   6  -3  -2   66.66    4.20
  -6   3   2   70.82    4.24
  -6   3   2   65.61    4.28
  -6   3   2   75.60    4.33
   5  -3  -2  211.69   11.84
   5  -3  -2  194.04   11.80
   5  -3  -2  201.62   11.91
  -5   3   2  200.50   11.85
  -5   3   2  220.80   11.90
  -5   3   2  213.93   11.78
  -5   3   2  195.13   11.83
   4  -3  -2   13.81    1.09
   4  -3  -2   12.95    0.99
   4  -3  -2   14.37    0.99
   4  -3  -2   14.30    1.09
  -4   3   2   12.00    1.03
  -4   3   2   12.61    1.00
  -4   3   2   13.14    0.97
  -4   3   2   12.63    1.03
   3  -3  -2  528.26   29.76
   3  -3  -2  529.33   29.70
   3  -3  -2  547.45   29.89
   3  -3  -2  503.96   29.81
  -3   3   2  556.73   29.81
  -3   3   2  523.39   29.78
  -3   3   2  524.52   29.85
  -3   3   2  498.19   29.86
   2  -3  -2   58.94    3.46
   2  -3  -2   57.01    3.34
   2  -3  -2   61.33    3.53
   2  -3  -2   54.46    3.40
  -2   3   2   61.84    3.45
  -2   3   2   58.27    3.39
  -2   3   2   58.42    3.37
  -2   3   2   55.65    3.51
   1  -3  -2  193.95   10.82
   1  -3  -2  199.19   10.87
   1  -3  -2  182.31   10.82
  -1   3   2  175.05   10.85
  -1   3   2  195.51   10.81
  -1   3   2  181.07   10.86
  -1   3   2  196.66   10.82
   0  -3  -2   73.60    4.53
   0  -3  -2   81.00    4.58
   0  -3  -2   80.08    4.50
   0   3   2   72.14    4.50
   0   3   2   78.40    4.52
   0   3   2   75.56    4.55
   0   3   2   72.45    4.46
  -1  -3  -2  185.60   11.38
  -1  -3  -2  214.10   11.46
  -1  -3  -2  171.19   11.20
  -1  -3  -2  197.71   11.28
   1   3   2  190.99   11.28
   1   3   2  183.80   11.39
   1   3   2  210.36   11.17
   1   3   2  215.82   11.40
   1   3   2  204.16   11.30
  -2  -3  -2   45.70    2.89
  -2  -3  -2   41.04    2.65
  -2  -3  -2   42.11    2.83
  -2  -3  -2   41.72    2.61
   2   3   2   41.46    2.82
   2   3   2   43.26    2.69
   2   3   2   43.13    2.61
   2   3   2   45.20    2.82
   2   3   2   44.74    2.58
  -3  -3  -2  201.37   11.43
  -3  -3  -2  186.18   11.55
  -3  -3  -2  219.70   11.81
  -3  -3  -2  194.56   11.72
   3   3   2  182.26   11.69
   3   3   2  198.61   11.41
   3   3   2  222.71   11.75
   3   3   2  208.93   11.57
   3   3   2  206.94   11.48
   3   3   2  182.59   11.48
  -4  -3  -2   52.34    3.39
  -4  -3  -2   48.81    2.82
  -4  -3  -2   43.87    3.26
  -4  -3  -2   42.24    3.08
   4   3   2   45.41    2.98
   4   3   2   53.24    3.34
   4   3   2   45.61    3.24
   4   3   2   49.69    3.09
  -5  -3  -2  149.21    9.07
  -5  -3  -2  139.07    8.88
   5   3   2  140.30    9.01
   5   3   2  162.20    8.87
   5   3   2  162.40    8.81
   5   3   2  142.01    8.72
  -6  -3  -2   12.44    1.66
  -6  -3  -2    9.32    1.67
   6   3   2    7.98    1.11
   6   3   2   11.14    1.65
   6   3   2   11.60    1.83
   9  -4  -2   37.25    2.73
   9  -4  -2   35.08    2.97
  -9   4   2   36.52    2.63
  -9   4   2   35.46    2.66
  -9   4   2   35.19    2.96
   8  -4  -2  114.88    7.30
   8  -4  -2  113.31    7.09
   8  -4  -2  126.97    7.30
  -8   4   2  113.41    7.11
  -8   4   2  113.69    7.23
  -8   4   2  124.67    7.28
  -8   4   2  121.62    7.04
   7  -4  -2   52.90    3.29
   7  -4  -2   49.79    3.19
   7  -4  -2   41.75    3.87
  -7   4   2   54.73    3.37
  -7   4   2   47.24    3.23
  -7   4   2   53.49    3.16
  -7   4   2   43.96    3.51
   6  -4  -2   72.78    4.69
   6  -4  -2   78.03    4.56
   6  -4  -2   69.60    4.51
  -6   4   2   78.13    4.49
  -6   4   2   84.20    4.67
  -6   4   2   70.97    4.57
  -6   4   2   69.38    4.57
   5  -4  -2   29.51    2.08
   5  -4  -2   30.64    1.96
   5  -4  -2   28.71    1.96
  -5   4   2   32.43    2.07
  -5   4   2   26.73    1.96
  -5   4   2   30.69    1.95
  -5   4   2   28.74    2.04
   4  -4  -2  152.21    8.77
   4  -4  -2  148.11    8.60
   4  -4  -2  144.48    8.67
  -4   4   2  158.53    8.66
  -4   4   2  154.88    8.74
  -4   4   2  140.33    8.62
   3  -4  -2  146.36    8.18
   3  -4  -2  142.24    7.96
   3  -4  -2  134.65    8.08
   3  -4  -2  136.25    7.99
  -3   4   2  155.64    8.09
  -3   4   2  135.17    7.99
  -3   4   2  134.51    7.95
  -3   4   2  129.06    8.14
  -3   4   2  141.96    8.15
   2  -4  -2  423.57   22.83
   2  -4  -2  390.55   22.76
   2  -4  -2  395.97   22.74
  -2   4   2  369.36   22.78
  -2   4   2  430.90   22.76
  -2   4   2  421.28   22.71
  -2   4   2  371.21   22.81
   1  -4  -2  107.41    6.44
   1  -4  -2  108.46    6.41
   1  -4  -2  118.09    6.44
  -1   4   2  104.25    6.44
  -1   4   2  117.77    6.41
  -1   4   2  100.31    6.44
  -1   4   2  110.69    6.40
   0  -4  -2  102.25    6.39
   0  -4  -2  113.55    6.31
   0   4   2  113.42    6.38
   0   4   2  113.51    6.32
   0   4   2   97.63    6.38
   0   4   2  106.08    6.32
  -1  -4  -2   34.93    2.54
  -1  -4  -2   37.79    2.35
  -1  -4  -2   39.97    2.62
  -1  -4  -2   35.78    2.22
   1   4   2   39.33    2.20
   1   4   2   37.13    2.37
   1   4   2   37.84    2.42
   1   4   2   40.32    2.54
   1   4   2   35.95    2.53
  -2  -4  -2  209.91   11.99
  -2  -4  -2  188.51   12.00
  -2  -4  -2  236.79   12.39
  -2  -4  -2  198.53   12.26
   2   4   2  203.78   12.05
   2   4   2  196.53   12.24
   2   4   2  226.21   12.16
   2   4   2  203.36   11.95
   2   4   2  224.05   12.28
   2   4   2  213.07   12.00
  -3  -4  -2   67.39    4.52
  -3  -4  -2   84.29    4.92
  -3  -4  -2   76.50    4.36
  -3  -4  -2   71.40    4.79
   3   4   2   74.54    4.43
   3   4   2   76.45    4.62
   3   4   2   83.21    4.85
   3   4   2   70.24    4.52
   3   4   2   71.63    4.75
   3   4   2   73.82    4.35
  -4  -4  -2   55.29    3.61
  -4  -4  -2   54.07    3.90
   4   4   2   51.62    3.80
   4   4   2   56.14    3.51
   4   4   2   58.82    3.47
   4   4   2   57.39    3.69
  -5  -4  -2   14.89    2.27
   5   4   2   14.43    1.59
   5   4   2   18.36    2.00
   5   4   2   15.51    1.62
   9  -5  -2   87.64    5.45
   9  -5  -2   86.59    5.77
  -9   5   2   90.97    5.38
  -9   5   2   86.15    5.50
  -9   5   2   81.80    5.63
   8  -5  -2  100.01    6.56
   8  -5  -2  106.50    6.43
   8  -5  -2   99.98    6.30
  -8   5   2  102.25    6.44
  -8   5   2  100.52    6.38
  -8   5   2  108.08    6.27
  -8   5   2  111.61    6.55
   7  -5  -2  147.87    8.20
   7  -5  -2  130.32    8.14
  -7   5   2  146.80    8.32
  -7   5   2  128.39    8.20
  -7   5   2  142.13    8.10
  -7   5   2  132.35    8.22
   6  -5  -2   43.61    2.80
   6  -5  -2   40.28    2.81
  -6   5   2   40.87    2.82
  -6   5   2   46.63    2.81
  -6   5   2   47.60    2.97
  -6   5   2   42.97    2.92
   5  -5  -2  356.25   20.82
   5  -5  -2  366.99   20.74
   5  -5  -2  383.21   20.95
  -5   5   2  328.85   20.87
  -5   5   2  381.65   20.80
  -5   5   2  384.12   20.92
  -5   5   2  350.47   20.77
   4  -5  -2  104.48    6.70
   4  -5  -2  110.28    6.57
   4  -5  -2  118.04    6.60
   4  -5  -2  121.18    6.85
  -4   5   2  124.60    6.73
  -4   5   2  116.66    6.81
  -4   5   2  110.28    6.62
  -4   5   2  115.73    6.53
  -4   5   2  107.24    6.80
   3  -5  -2  124.11    7.54
   3  -5  -2  127.44    7.48
   3  -5  -2  134.33    7.63
  -3   5   2  121.31    7.61
  -3   5   2  129.38    7.38
  -3   5   2  130.48    7.42
  -3   5   2  115.31    7.55
  -3   5   2  148.77    7.68
   2  -5  -2   73.97    4.61
   2  -5  -2   73.68    4.61
   2  -5  -2   80.44    4.66
  -2   5   2   89.59    4.63
  -2   5   2   77.41    4.56
  -2   5   2   68.17    4.64
  -2   5   2   73.52    4.65
   1  -5  -2  172.79   10.26
   1  -5  -2  190.04   10.22
  -1   5   2  163.75   10.25
  -1   5   2  183.48   10.20
  -1   5   2  159.84   10.21
  -1   5   2  186.05   10.22
   0  -5  -2   82.36    4.73
   0  -5  -2   75.22    4.88
   0   5   2   75.98    4.87
   0   5   2   83.86    4.80
   0   5   2   74.78    4.75
   0   5   2   82.34    4.86
  -1  -5  -2   93.83    5.55
  -1  -5  -2   85.63    5.17
   1   5   2   93.12    5.43
   1   5   2   84.18    5.42
   1   5   2   89.49    5.31
   1   5   2   81.41    5.19
  -2  -5  -2   58.73    3.45
  -2  -5  -2   64.17    4.02
  -2  -5  -2   55.57    3.86
  -2  -5  -2   58.24    3.40
   2   5   2   58.27    3.71
   2   5   2   57.95    3.37
   2   5   2   54.79    3.56
   2   5   2   52.49    3.78
   2   5   2   60.94    3.88
   2   5   2   55.24    3.45
  -3  -5  -2  150.32    8.76
  -3  -5  -2  141.65    9.18
   3   5   2  167.31    9.04
   3   5   2  143.91    9.10
   3   5   2  148.30    8.61
   3   5   2  157.49    8.70
   3   5   2  147.86    8.85
  -4  -5  -2   34.11    3.02
   4   5   2   26.38    2.20
   4   5   2   28.50    2.58
   9  -6  -2   26.16    2.22
  -9   6   2   22.91    2.39
  -9   6   2   23.34    2.31
   8  -6  -2  150.68    8.43
   8  -6  -2  133.30    8.34
  -8   6   2  155.72    8.34
  -8   6   2  127.64    8.41
  -8   6   2  133.07    8.45
   7  -6  -2   24.39    1.84
   7  -6  -2   22.82    1.88
  -7   6   2   23.19    2.04
  -7   6   2   22.51    1.90
  -7   6   2   22.99    1.94
  -7   6   2   25.10    1.85
   6  -6  -2  153.39    8.39
   6  -6  -2  128.31    8.88
  -6   6   2  133.76    8.55
  -6   6   2  154.29    8.45
  -6   6   2  152.24    8.61
  -6   6   2  137.41    8.42
   5  -6  -2   41.25    2.81
   5  -6  -2   46.25    2.66
  -5   6   2   47.91    2.81
  -5   6   2   42.81    2.93
  -5   6   2   40.65    2.69
  -5   6   2   37.92    2.93
   4  -6  -2  143.39    8.76
   4  -6  -2  163.03    8.89
  -4   6   2  154.21    8.74
  -4   6   2  144.27    8.86
  -4   6   2  148.16    8.56
  -4   6   2  144.68    8.58
  -4   6   2  137.17    8.79
  -4   6   2  160.92    8.90
   3  -6  -2   53.45    3.20
   3  -6  -2   47.39    3.10
   3  -6  -2   46.74    3.07
  -3   6   2   50.29    3.09
  -3   6   2   43.38    3.16
  -3   6   2   51.85    2.99
  -3   6   2   45.07    3.14
   2  -6  -2  207.38   11.09
   2  -6  -2  180.52   11.06
  -2   6   2  177.84   11.08
  -2   6   2  177.75   11.13
  -2   6   2  206.43   11.06
   1  -6  -2   73.97    4.19
   1  -6  -2   63.40    4.28
  -1   6   2   71.18    4.22
  -1   6   2   62.37    4.20
  -1   6   2   72.56    4.25
  -1   6   2   63.11    4.27
   0  -6  -2  215.61   13.39
   0   6   2  215.45   13.21
   0   6   2  245.00   13.38
   0   6   2  249.55   13.32
   0   6   2  219.80   13.39
  -1  -6  -2   25.93    1.76
  -1  -6  -2   25.10    2.18
   1   6   2   23.81    2.11
   1   6   2   27.00    2.23
   1   6   2   22.09    2.05
   1   6   2   24.99    1.77
  -2  -6  -2   92.60    6.23
   2   6   2   94.77    6.11
   2   6   2  102.63    5.66
   2   6   2   95.08    5.83
  -3  -6  -2   21.40    2.73
   3   6   2   16.18    1.69
   3   6   2   15.85    2.13
   8  -7  -2   14.49    1.63
   8  -7  -2   11.80    1.60
  -8   7   2   13.85    1.58
  -8   7   2   10.44    1.74
   7  -7  -2   98.92    6.16
   7  -7  -2  109.74    6.08
  -7   7   2   99.54    6.13
  -7   7   2  100.80    6.12
  -7   7   2   93.26    6.27
   6  -7  -2   75.71    4.80
  -6   7   2   68.99    4.88
  -6   7   2   79.40    4.76
  -6   7   2   83.39    5.02
  -6   7   2   75.86    4.67
   5  -7  -2  139.33    8.56
  -5   7   2  132.58    8.60
  -5   7   2  138.87    8.37
  -5   7   2  143.60    8.70
  -5   7   2  147.60    8.25
  -5   7   2  156.92    8.76
  -5   7   2  153.27    8.56
   4  -7  -2   61.73    3.90
  -4   7   2   56.34    3.91
  -4   7   2   63.89    3.52
  -4   7   2   56.82    3.56
  -4   7   2   56.38    3.98
  -4   7   2   64.52    3.87
  -4   7   2   62.39    3.67
  -4   7   2   64.92    4.09
   3  -7  -2  101.64    5.96
   3  -7  -2   95.11    5.90
  -3   7   2  101.68    5.79
  -3   7   2   91.96    5.95
  -3   7   2  102.90    5.91
  -3   7   2   88.16    5.96
   2  -7  -2   14.87    1.59
   2  -7  -2   15.43    1.45
  -2   7   2   16.06    1.52
  -2   7   2   13.24    1.47
  -2   7   2   17.22    1.57
  -2   7   2   14.80    1.43
   1  -7  -2   89.45    5.90
   1  -7  -2  101.12    5.74
  -1   7   2   96.94    5.84
  -1   7   2   90.82    5.89
  -1   7   2   89.76    5.75
  -1   7   2   98.28    5.86
   0  -7  -2   27.52    2.44
   0   7   2   27.36    2.37
   0   7   2   26.13    2.27
   0   7   2   25.87    2.00
  -1  -7  -2  109.07    6.97
   1   7   2  104.83    6.54
   1   7   2  114.07    6.43
   1   7   2  105.84    6.82
   8  -8  -2   41.43    3.20
  -8   8   2   40.02    3.65
  -8   8   2   42.25    3.08
   7  -8  -2   67.01    4.37
  -7   8   2   64.11    4.47
  -7   8   2   65.86    4.19
   6  -8  -2   93.46    5.82
  -6   8   2   88.31    5.87
  -6   8   2   91.38    5.95
  -6   8   2   98.37    5.59
   5  -8  -2   36.82    2.71
  -5   8   2   37.45    2.25
  -5   8   2   37.19    2.16
  -5   8   2   30.52    2.68
  -5   8   2   34.98    2.24
  -5   8   2   35.86    2.85
  -4   8   2  106.21    7.00
  -4   8   2  120.58    6.69
  -4   8   2  111.44    6.97
   3  -8  -2   34.37    2.74
  -3   8   2   37.32    2.49
  -3   8   2   33.25    2.66
  -3   8   2   33.24    2.67
   2  -8  -2   87.38    5.87
  -2   8   2   95.81    5.76
  -2   8   2   89.87    5.75
  -2   8   2   95.44    5.89
   1  -8  -2   44.36    3.64
  -1   8   2   50.60    3.33
  -1   8   2   46.58    3.48
  -5   9   2   53.72    3.93
  -5   9   2   50.57    3.84
  -4   9   2   39.35    3.12
  -4   9   2   35.61    3.20
  -1   9  -3   12.40    1.68
  -1   9  -3   11.88    1.42
  -1   9  -3   14.43    1.53
  -2   9  -3   63.46    4.28
  -2   9  -3   65.34    4.19
  -2   9  -3   67.03    4.03
  -2   9  -3   68.85    4.24
  -2   9  -3   67.76    4.42
  -2   9  -3   70.98    4.58
  -2   9  -3   65.67    4.24
  -3   9  -3   22.26    2.06
  -3   9  -3   21.84    2.10
  -3   9  -3   25.97    1.85
  -3   9  -3   23.37    1.67
  -3   9  -3   22.73    2.06
  -4   9  -3  116.76    7.30
  -4   9  -3  111.15    7.07
  -4   9  -3  112.89    7.32
  -4   9  -3  123.40    7.18
  -4   9  -3  129.04    7.08
  -4   9  -3  116.11    7.03
  -4   9  -3  128.45    7.32
  -5   9  -3   27.07    1.90
  -5   9  -3   23.46    2.26
  -5   9  -3   26.25    2.41
  -5   9  -3   27.25    2.05
  -5   9  -3   30.26    2.06
  -5   9  -3   32.13    2.34
  -5   9  -3   27.67    2.00
  -6   9  -3   91.56    5.65
  -6   9  -3   93.44    5.59
  -6   9  -3   87.42    5.86
  -7   9  -3   36.90    2.83
  -7   9  -3   44.46    2.88
  -7   9  -3   35.68    3.17
   1   8  -3   85.00    5.38
   1   8  -3   82.54    5.19
   0   8  -3   29.76    2.15
   0   8  -3   32.04    2.49
   0   8  -3   33.84    2.12
   0   8  -3   36.25    2.34
   0   8  -3   30.64    2.34
  -1   8  -3  146.18    9.15
  -1   8  -3  157.90    8.97
  -1   8  -3  143.47    8.96
  -1   8  -3  152.55    9.13
  -1   8  -3  156.97    8.94
  -1   8  -3  148.85    8.86
  -1   8  -3  171.49    9.33
  -1   8  -3  152.76    9.01
  -2   8  -3  103.63    5.68
  -2   8  -3   90.57    5.76
  -2   8  -3   98.00    5.85
  -2   8  -3   96.74    5.89
  -2   8  -3   90.48    5.57
  -2   8  -3   92.03    5.98
  -2   8  -3   93.32    5.82
  -3   8  -3  142.49    8.68
  -3   8  -3  143.13    8.53
  -3   8  -3  149.63    8.54
  -3   8  -3  140.69    8.35
  -3   8  -3  134.52    8.54
  -3   8  -3  153.52    8.40
  -4   8  -3   25.37    1.89
  -4   8  -3   31.03    2.08
  -4   8  -3   29.09    1.89
  -4   8  -3   25.61    1.87
  -4   8  -3   29.00    2.30
  -4   8  -3   27.31    2.20
  -4   8  -3   28.74    1.99
  -4   8  -3   25.80    2.07
  -5   8  -3  110.05    6.27
  -5   8  -3  103.87    6.37
  -5   8  -3  110.27    6.41
  -5   8  -3  104.47    6.22
  -5   8  -3  110.86    6.70
  -5   8  -3  102.75    6.59
  -6   8  -3   44.42    2.78
  -6   8  -3   39.86    3.03
  -6   8  -3   39.78    2.79
  -7   8  -3  126.09    8.09
  -7   8  -3  130.04    7.92
  -7   8  -3  139.39    7.79
  -8   8  -3   25.85    1.91
  -8   8  -3   22.77    2.22
  -8   8  -3   20.83    2.33
   3   7  -3   28.22    2.54
   3   7  -3   28.97    2.45
   2   7  -3   99.29    6.33
   2   7  -3  113.55    6.37
   2   7  -3  102.72    6.48
   1   7  -3   48.55    3.30
   1   7  -3   46.87    3.38
   1   7  -3   42.35    2.55
   1   7  -3   40.17    2.94
   1   7  -3   41.74    2.84
   1   7  -3   42.68    2.88
   1   7  -3   42.68    2.58
   0   7  -3   72.92    4.41
   0   7  -3   74.91    4.52
   0   7  -3   74.36    4.57
   0   7  -3   66.98    4.29
   0   7  -3   64.32    4.35
   0   7  -3   72.55    4.25
   0   7  -3   79.44    4.77
  -1   7  -3   21.45    1.44
  -1   7  -3   19.42    1.55
  -1   7  -3   20.19    1.57
  -1   7  -3   21.00    1.70
  -1   7  -3   23.09    1.88
  -1   7  -3   21.61    1.71
  -2   7  -3  168.90    9.60
  -2   7  -3  180.69    9.73
  -2   7  -3  152.50    9.69
  -2   7  -3  163.08    9.82
  -2   7  -3  164.31    9.73
  -2   7  -3  178.24    9.80
  -2   7  -3  156.47    9.56
  -3   7  -3  135.43    8.15
  -3   7  -3  132.32    8.05
  -3   7  -3  142.51    7.92
  -3   7  -3  130.22    7.91
  -3   7  -3  141.56    8.04
  -3   7  -3  131.99    8.09
  -3   7  -3  140.54    8.01
  -4   7  -3   81.08    5.31
  -4   7  -3   93.98    5.19
  -4   7  -3   87.78    5.14
  -4   7  -3   82.75    5.13
  -4   7  -3   81.22    5.07
  -4   7  -3   91.79    5.40
  -5   7  -3   34.50    2.19
  -5   7  -3   32.27    2.03
  -5   7  -3   30.67    2.22
  -5   7  -3   31.76    2.42
  -5   7  -3   32.78    2.07
  -5   7  -3   36.98    2.51
  -6   7  -3  146.67    8.86
  -6   7  -3  155.89    8.60
  -6   7  -3  129.53    8.90
  -6   7  -3  157.95    8.93
  -7   7  -3   67.95    4.78
  -7   7  -3   77.14    4.47
  -7   7  -3   74.65    5.00
  -7   7  -3   71.49    4.68
  -7   7  -3   80.29    4.97
  -8   7  -3   83.50    4.77
  -8   7  -3   76.09    5.06
  -8   7  -3   74.04    5.14
   8  -7   3   81.54    4.77
  -9   7  -3   33.88    2.95
  -9   7  -3   36.11    3.02
   9  -7   3   36.51    4.25
   4   6  -3   19.13    1.95
   4   6  -3   20.02    2.13
   4   6  -3   15.89    1.74
  -4  -6   3   19.97    1.99
   3   6  -3  104.27    6.42
   3   6  -3  100.14    6.53
   3   6  -3  108.19    6.50
  -3  -6   3  104.11    6.49
  -3  -6   3  119.12    6.80
   2   6  -3   26.54    2.33
   2   6  -3   27.10    1.94
   2   6  -3   23.64    1.94
   2   6  -3   23.42    1.79
  -2  -6   3   24.78    1.86
   1   6  -3   66.50    4.50
   1   6  -3   77.16    4.49
   1   6  -3   73.49    4.22
   1   6  -3   80.03    4.77
   1   6  -3   69.12    4.24
   1   6  -3   73.12    4.42
   1   6  -3   73.46    4.56
   0   6  -3   82.59    4.84
   0   6  -3   86.06    5.07
   0   6  -3   75.72    4.74
   0   6  -3   75.35    4.85
   0   6  -3   80.68    4.70
   0   6  -3   77.40    4.78
   0   6  -3   85.83    4.92
  -1   6  -3  139.77    7.86
  -1   6  -3  123.40    7.90
  -1   6  -3  140.76    7.94
  -1   6  -3  148.78    8.08
  -1   6  -3  124.79    7.87
  -2   6  -3   83.50    5.24
  -2   6  -3   83.57    5.23
  -2   6  -3   83.76    5.12
  -2   6  -3   88.42    5.23
  -2   6  -3   90.62    5.33
  -2   6  -3   90.03    5.14
  -2   6  -3   93.11    5.30
  -3   6  -3  192.90   11.96
  -3   6  -3  223.63   12.18
  -3   6  -3  196.49   11.97
  -3   6  -3  217.91   12.01
  -3   6  -3  205.70   12.11
  -3   6  -3  218.18   12.05
  -4   6  -3   18.80    1.40
  -4   6  -3   20.04    1.60
  -4   6  -3   17.65    1.29
  -4   6  -3   22.39    1.41
  -4   6  -3   18.34    1.56
  -4   6  -3   21.63    1.39
  -5   6  -3  166.59    9.59
  -5   6  -3  161.50    9.74
  -5   6  -3  181.11    9.94
  -5   6  -3  176.25    9.67
  -5   6  -3  161.03    9.86
  -5   6  -3  160.78    9.56
  -6   6  -3   37.26    2.49
  -6   6  -3   30.71    2.28
  -6   6  -3   33.43    2.43
  -6   6  -3   31.14    2.40
  -6   6  -3   36.15    2.13
   6  -6   3   31.09    2.46
   6  -6   3   30.29    2.10
   6  -6   3   35.37    2.29
  -7   6  -3  131.11    8.00
  -7   6  -3  135.67    8.11
  -7   6  -3  142.42    8.11
  -7   6  -3  133.64    7.70
  -7   6  -3  124.77    7.93
   7  -6   3  131.43    7.70
   7  -6   3  121.31    8.08
   7  -6   3  142.95    7.94
  -8   6  -3   55.88    3.18
  -8   6  -3   46.35    3.53
  -8   6  -3   51.95    3.55
   8  -6   3   52.09    3.78
   8  -6   3   49.72    3.16
  -9   6  -3   46.68    3.33
  -9   6  -3   43.49    3.37
   9  -6   3   42.24    3.68
   5   5  -3   24.87    2.41
   5   5  -3   22.57    2.11
   5   5  -3   22.89    2.00
  -5  -5   3   20.84    2.21
   4   5  -3   71.80    4.83
   4   5  -3   69.58    4.71
   4   5  -3   84.32    4.90
  -4  -5   3   75.84    4.90
  -4  -5   3   84.53    5.07
   3   5  -3   43.93    2.87
   3   5  -3   42.61    3.17
   3   5  -3   39.38    2.73
  -3  -5   3   39.64    2.85
  -3  -5   3   46.53    3.03
   2   5  -3  175.06    9.80
   2   5  -3  172.47    9.60
   2   5  -3  137.65    9.50
   2   5  -3  171.67    9.60
  -2  -5   3  177.58    9.71
  -2  -5   3  149.12    9.54
   1   5  -3   70.74    3.88
   1   5  -3   62.65    3.60
   1   5  -3   57.68    3.74
   1   5  -3   58.20    3.62
   1   5  -3   69.57    4.05
   1   5  -3   60.79    3.83
  -1  -5   3   58.27    3.77
   0   5  -3  333.52   18.99
   0   5  -3  361.25   19.13
   0   5  -3  370.33   19.28
   0   5  -3  315.08   19.10
   0   5  -3  316.54   19.04
   0   5  -3  314.52   19.03
  -1   5  -3   45.68    3.02
  -1   5  -3   46.60    3.02
  -1   5  -3   51.25    3.05
  -1   5  -3   51.09    3.00
  -1   5  -3   53.66    3.16
  -2   5  -3  246.75   14.54
  -2   5  -3  254.23   14.47
  -2   5  -3  264.92   14.59
  -2   5  -3  264.52   14.56
  -2   5  -3  237.98   14.45
  -3   5  -3   11.17    1.08
  -3   5  -3   13.29    1.03
  -3   5  -3   13.19    0.98
  -3   5  -3   13.39    0.93
  -3   5  -3   13.12    1.11
  -3   5  -3   13.81    0.96
  -4   5  -3  373.89   21.33
  -4   5  -3  377.01   21.27
  -4   5  -3  366.92   21.06
  -4   5  -3  357.18   21.17
  -4   5  -3  384.58   21.10
  -5   5  -3  179.50    9.35
  -5   5  -3  153.63    9.28
  -5   5  -3  168.24    9.57
  -5   5  -3  177.91    9.63
  -5   5  -3  153.47    9.46
  -5   5  -3  150.34    9.53
   5  -5   3  169.37    9.47
   5  -5   3  157.98    9.33
   5  -5   3  156.96    9.59
  -6   5  -3  121.15    6.96
  -6   5  -3  128.66    7.27
  -6   5  -3  118.32    7.16
  -6   5  -3  116.93    7.20
  -6   5  -3  115.47    6.89
  -6   5  -3  127.66    7.32
   6  -5   3  111.21    7.27
   6  -5   3  129.67    7.17
   6  -5   3  117.53    6.95
  -7   5  -3   23.01    1.86
  -7   5  -3   24.20    1.87
  -7   5  -3   23.88    2.05
  -7   5  -3   21.99    1.96
  -7   5  -3   22.72    1.55
   7  -5   3   25.48    1.88
   7  -5   3   23.12    1.53
   7  -5   3   21.38    1.99
  -8   5  -3  133.74    7.31
  -8   5  -3  120.04    7.59
  -8   5  -3  129.24    7.78
  -8   5  -3  122.86    7.66
   8  -5   3  120.23    7.83
   8  -5   3  128.14    7.29
  -9   5  -3   28.78    2.56
  -9   5  -3   31.28    2.72
   9  -5   3   32.15    2.98
   6   4  -3   27.67    2.38
   6   4  -3   29.33    2.29
  -6  -4   3   26.88    2.66
   5   4  -3   83.20    5.48
   5   4  -3   85.41    5.41
   5   4  -3   98.60    5.64
  -5  -4   3   78.46    5.55
  -5  -4   3   98.77    5.69
   4   4  -3   45.47    3.09
   4   4  -3   54.09    3.51
   4   4  -3   43.83    3.16
   4   4  -3   51.17    3.29
  -4  -4   3   46.74    3.29
  -4  -4   3   51.99    3.31
   3   4  -3  151.72    9.39
   3   4  -3  181.07    9.64
   3   4  -3  147.99    9.31
   3   4  -3  165.22    9.48
  -3  -4   3  174.21    9.51
  -3  -4   3  146.31    9.43
   2   4  -3   80.30    4.99
   2   4  -3   89.67    5.12
   2   4  -3   80.39    5.05
   2   4  -3   86.58    5.24
  -2  -4   3   77.63    5.08
  -2  -4   3   93.70    5.16
   1   4  -3  219.29   12.70
   1   4  -3  212.19   12.53
   1   4  -3  209.46   12.55
   1   4  -3  238.19   12.85
   1   4  -3  226.01   12.73
   1   4  -3  213.96   12.64
  -1  -4   3  244.53   12.77
  -1  -4   3  208.06   12.69
   0   4  -3  104.97    6.17
   0   4  -3  111.49    6.34
   0   4  -3   98.29    6.20
   0   4  -3  103.77    6.16
   0   4  -3  112.59    6.23
   0   4  -3  110.15    6.14
  -1   4  -3  291.90   16.09
  -1   4  -3  259.75   16.09
  -1   4  -3  295.35   16.19
  -1   4  -3  278.48   16.07
  -1   4  -3  289.43   16.10
  -2   4  -3   20.94    1.40
  -2   4  -3   21.12    1.30
  -2   4  -3   19.81    1.31
  -2   4  -3   19.09    1.31
  -3   4  -3  203.55   12.08
  -3   4  -3  224.43   12.08
  -3   4  -3  221.05   12.23
  -3   4  -3  203.07   12.14
   3  -4   3  210.04   12.22
  -4   4  -3  172.22   10.32
  -4   4  -3  189.33   10.51
  -4   4  -3  200.42   10.57
  -4   4  -3  182.30   10.33
  -4   4  -3  177.16   10.44
   4  -4   3  165.09   10.51
   4  -4   3  189.43   10.44
   4  -4   3  175.58   10.31
  -5   4  -3  267.92   14.91
  -5   4  -3  247.65   14.83
  -5   4  -3  249.88   14.67
  -5   4  -3  267.15   14.94
  -5   4  -3  257.77   14.66
   5  -4   3  267.65   14.67
   5  -4   3  245.64   14.92
   5  -4   3  265.76   14.82
   5  -4   3  255.66   14.65
  -6   4  -3   68.34    4.08
  -6   4  -3   64.45    3.76
  -6   4  -3   59.76    3.77
  -6   4  -3   59.23    3.99
  -6   4  -3   59.83    3.97
  -6   4  -3   74.03    4.17
   6  -4   3   61.11    3.74
   6  -4   3   60.76    4.11
   6  -4   3   64.58    3.77
   6  -4   3   70.27    4.01
  -7   4  -3  151.34    9.13
  -7   4  -3  166.37    9.47
  -7   4  -3  170.47    9.54
  -7   4  -3  153.62    9.10
  -7   4  -3  149.78    9.38
   7  -4   3  153.65    9.08
   7  -4   3  148.74    9.52
   7  -4   3  167.76    9.39
   7  -4   3  167.20    9.13
  -8   4  -3   47.24    3.41
  -8   4  -3   47.02    3.03
  -8   4  -3   51.06    3.48
  -8   4  -3   48.25    2.98
  -8   4  -3   48.75    3.26
   8  -4   3   51.75    3.05
   8  -4   3   47.85    3.59
   8  -4   3   48.82    2.96
  -9   4  -3   75.55    5.19
  -9   4  -3   79.03    5.00
  -9   4  -3   81.30    4.77
   9  -4   3   74.71    5.40
   6   3  -3   89.96    5.37
   6   3  -3   81.76    5.04
   6   3  -3   78.82    5.13
  -6  -3   3   82.27    5.29
  -6  -3   3   76.51    5.25
   5   3  -3   34.27    2.51
   5   3  -3   38.22    2.73
   5   3  -3   29.35    2.52
   5   3  -3   31.45    2.29
  -5  -3   3   31.56    2.55
  -5  -3   3   38.12    2.52
   4   3  -3   82.07    5.01
   4   3  -3   92.71    5.20
   4   3  -3   95.02    5.31
   4   3  -3   76.01    5.04
  -4  -3   3   84.89    5.14
  -4  -3   3   73.24    5.13
   3   3  -3   34.43    2.40
   3   3  -3   41.53    2.54
   3   3  -3   42.06    2.62
   3   3  -3   35.11    2.37
  -3  -3   3   34.02    2.50
  -3  -3   3   39.77    2.50
   2   3  -3  137.73    7.68
   2   3  -3  127.18    7.58
   2   3  -3  124.22    7.55
   2   3  -3  138.11    7.74
  -2  -3   3  116.55    7.64
  -2  -3   3  141.20    7.64
   1   3  -3  101.48    5.85
   1   3  -3   95.72    5.93
   1   3  -3  104.88    6.09
   1   3  -3  100.84    5.97
   1   3  -3  109.64    6.04
  -1  -3   3  105.38    5.99
  -1  -3   3  101.93    6.01
   0   3  -3  520.53   28.28
   0   3  -3  508.75   28.36
   0   3  -3  469.29   28.22
  -1   3  -3  192.31   10.92
  -1   3  -3  190.54   10.93
  -2   3  -3   98.54    5.72
  -2   3  -3   98.52    5.82
  -2   3  -3  106.56    5.83
  -2   3  -3   97.56    5.76
  -2   3  -3   97.41    5.79
   2  -3   3  102.67    5.82
  -3   3  -3   94.61    5.61
  -3   3  -3   94.37    5.49
  -3   3  -3   95.25    5.64
  -3   3  -3  104.19    5.68
  -3   3  -3   92.93    5.55
   3  -3   3   96.12    5.66
   3  -3   3   94.05    5.49
   3  -3   3   94.90    5.59
   3  -3   3  100.44    5.55
  -4   3  -3  178.17   10.74
  -4   3  -3  196.58   10.89
  -4   3  -3  218.29   10.98
  -4   3  -3  173.39   10.82
  -4   3  -3  191.09   10.68
   4  -3   3  190.37   10.83
   4  -3   3  189.51   10.74
   4  -3   3  182.49   10.67
   4  -3   3  176.86   10.90
  -5   3  -3   85.12    4.86
  -5   3  -3   76.18    4.53
  -5   3  -3   84.66    4.80
  -5   3  -3   75.62    4.73
  -5   3  -3   77.12    4.61
   5  -3   3   79.70    4.61
   5  -3   3   82.77    4.73
   5  -3   3   71.37    4.81
   5  -3   3   75.91    4.52
  -6   3  -3  110.47    6.79
  -6   3  -3  122.49    6.99
  -6   3  -3  108.89    6.94
  -6   3  -3  108.77    6.70
  -6   3  -3  127.86    7.11
   6  -3   3  120.91    6.80
   6  -3   3  109.28    7.06
   6  -3   3  128.71    6.96
   6  -3   3  114.64    6.69
  -7   3  -3   20.40    1.39
  -7   3  -3   25.54    1.98
  -7   3  -3   19.92    1.52
  -7   3  -3   19.89    1.77
  -7   3  -3   19.91    1.65
  -7   3  -3   21.61    1.81
   7  -3   3   22.11    1.79
   7  -3   3   19.16    1.37
   7  -3   3   22.52    1.57
   7  -3   3   17.96    1.86
  -8   3  -3   60.95    4.08
  -8   3  -3   64.69    4.18
  -8   3  -3   67.10    4.36
  -8   3  -3   63.50    4.37
   8  -3   3   75.48    4.17
   8  -3   3   63.93    4.54
   8  -3   3   66.89    3.95
  -9   3  -3   24.71    2.09
  -9   3  -3   25.51    2.59
  -9   3  -3   22.52    2.07
  -9   3  -3   25.78    2.65
   9  -3   3   23.01    2.72
   7   2  -3   82.31    5.46
   7   2  -3   89.77    5.60
   7   2  -3  105.58    6.62
  -7  -2   3   83.40    5.78
   6   2  -3   59.69    3.66
   6   2  -3   60.62    3.95
   6   2  -3   53.55    3.73
   6   2  -3   56.88    3.90
  -6  -2   3   61.24    3.86
  -6  -2   3   53.76    3.88
   5   2  -3  140.53    8.66
   5   2  -3  160.54    8.84
   5   2  -3  154.77    8.79
   5   2  -3  143.76    8.60
  -5  -2   3  153.43    8.67
  -5  -2   3  146.91    8.74
  -5  -2   3  132.45    8.75
   4   2  -3   76.52    4.67
   4   2  -3   75.77    4.69
   4   2  -3   72.97    4.52
   4   2  -3   74.94    4.49
  -4  -2   3   80.35    4.56
  -4  -2   3   66.80    4.61
  -4  -2   3   77.88    4.61
   3   2  -3  316.56   16.92
   3   2  -3  273.21   16.75
   3   2  -3  314.51   16.91
   3   2  -3  264.72   16.76
  -3  -2   3  302.70   16.80
  -3  -2   3  269.50   16.86
  -3  -2   3  318.58   16.84
   2   2  -3  110.49    6.86
   2   2  -3  125.94    6.99
   2   2  -3  122.41    6.99
   2   2  -3  117.78    6.87
  -2  -2   3  103.03    6.94
  -2  -2   3  124.12    6.90
  -2  -2   3  129.76    6.90
   1   2  -3  446.62   27.41
   1   2  -3  554.35   27.53
   1   2  -3  518.96   27.55
   1   2  -3  458.91   27.42
  -1  -2   3  453.05   27.49
  -1  -2   3  469.48   27.38
  -1  -2   3  495.78   27.44
   0   2  -3   15.31    0.93
   0   2  -3   14.32    0.90
   0   2  -3   14.05    0.92
   0   2  -3   14.69    0.96
   0  -2   3   15.25    0.93
   0  -2   3   14.45    0.94
  -1   2  -3  236.18   13.91
  -1   2  -3  256.74   13.97
  -1   2  -3  260.36   14.00
  -1   2  -3  236.10   13.97
   1  -2   3  248.01   13.97
   1  -2   3  253.44   13.96
   1  -2   3  233.03   13.99
  -2   2  -3  191.11   10.48
  -2   2  -3  189.49   10.63
  -2   2  -3  179.76   10.62
  -2   2  -3  180.65   10.57
   2  -2   3  187.35   10.58
   2  -2   3  178.75   10.61
   2  -2   3  192.64   10.57
  -3   2  -3  442.17   24.35
  -3   2  -3  420.01   24.23
  -3   2  -3  441.71   24.31
  -3   2  -3  413.14   24.27
   3  -2   3  411.37   24.32
   3  -2   3  433.46   24.24
   3  -2   3  435.10   24.27
  -4   2  -3   39.36    2.57
  -4   2  -3   41.80    2.52
  -4   2  -3   39.52    2.42
  -4   2  -3   41.10    2.30
  -4   2  -3   33.89    2.45
   4  -2   3   38.70    2.42
   4  -2   3   40.38    2.30
   4  -2   3   38.23    2.57
   4  -2   3   42.94    2.48
  -5   2  -3  219.52   12.45
  -5   2  -3  211.22   12.25
  -5   2  -3  202.66   12.32
  -5   2  -3  230.95   12.36
  -5   2  -3  201.18   12.11
   5  -2   3  227.13   12.33
   5  -2   3  208.29   12.11
   5  -2   3  219.88   12.24
   5  -2   3  200.92   12.42
  -6   2  -3  108.42    6.19
  -6   2  -3  101.84    6.20
  -6   2  -3  105.68    6.34
  -6   2  -3   97.90    6.08
   6  -2   3   94.87    6.29
   6  -2   3  100.10    5.94
   6  -2   3  108.71    6.19
   6  -2   3  105.71    6.09
  -7   2  -3  177.82   11.04
  -7   2  -3  181.89   11.01
  -7   2  -3  218.60   11.43
  -7   2  -3  174.29   11.16
  -7   2  -3  198.98   11.15
   7  -2   3  171.94   11.26
   7  -2   3  185.38   10.88
   7  -2   3  198.10   11.06
   7  -2   3  204.04   11.20
  -8   2  -3   45.49    3.48
  -8   2  -3   49.38    3.46
  -8   2  -3   59.69    3.62
  -8   2  -3   47.66    3.65
   8  -2   3   47.10    3.73
   8  -2   3   53.89    3.22
   8  -2   3   56.35    3.52
   8   1  -3   82.74    5.24
   8   1  -3   78.58    5.06
  -8  -1   3   79.94    5.45
   7   1  -3   17.32    2.05
   7   1  -3   20.68    1.67
   7   1  -3   20.45    2.02
   7   1  -3   20.76    1.80
  -7  -1   3   17.81    1.91
  -7  -1   3   16.79    1.95
  -7  -1   3   20.99    1.86
   6   1  -3   84.22    5.57
   6   1  -3   98.01    5.74
   6   1  -3   92.55    5.68
  -6  -1   3   96.21    5.67
  -6  -1   3   95.11    5.58
  -6  -1   3   84.75    5.69
   5   1  -3   59.03    3.75
   5   1  -3   62.84    3.73
   5   1  -3   60.76    3.87
  -5  -1   3   56.04    3.49
  -5  -1   3   57.12    3.86
  -5  -1   3   68.01    3.98
  -5  -1   3   62.70    3.75
  -5  -1   3   59.16    3.50
   4   1  -3  461.00   23.91
   4   1  -3  459.73   23.94
   4   1  -3  389.66   23.77
   4   1  -3  399.68   23.81
  -4  -1   3  446.33   23.82
  -4  -1   3  373.16   23.63
  -4  -1   3  426.35   23.85
  -4  -1   3  394.14   23.90
   3   1  -3    8.31    0.57
   3   1  -3   10.27    0.88
   3   1  -3    8.31    0.69
   3   1  -3    7.29    0.69
   3   1  -3    8.13    0.80
  -3  -1   3    7.60    0.58
  -3  -1   3    9.16    0.73
  -3  -1   3    7.44    0.82
  -3  -1   3    9.42    0.74
   2   1  -3  480.90   24.98
   2   1  -3  444.39   24.87
   2   1  -3  463.09   24.81
   2   1  -3  426.60   24.83
   2   1  -3  468.15   24.95
  -2  -1   3  421.87   24.81
  -2  -1   3  390.24   24.83
  -2  -1   3  445.14   24.88
  -2  -1   3  413.51   24.94
   1   1  -3  129.03    7.37
   1   1  -3  135.67    7.37
  -1  -1   3  130.04    7.37
  -1  -1   3  125.63    7.36
  -1  -1   3  124.15    7.42
   0   1  -3  242.11   14.41
   0   1  -3  246.82   14.38
   0   1  -3  265.25   14.41
   0   1  -3  258.34   14.42
   0  -1   3  253.77   14.41
   0  -1   3  250.43   14.43
   0  -1   3  263.11   14.38
  -1   1  -3  408.05   21.69
  -1   1  -3  369.70   21.69
   1  -1   3  364.58   21.67
   1  -1   3  412.74   21.68
   1  -1   3  361.00   21.69
  -2   1  -3  805.27   44.88
   2  -1   3  782.81   44.88
  -3   1  -3  169.16    9.90
  -3   1  -3  164.91    9.90
  -3   1  -3  184.60    9.94
  -3   1  -3  173.00   10.00
   3  -1   3  184.32    9.91
   3  -1   3  173.91    9.78
   3  -1   3  163.16    9.99
   3  -1   3  164.80    9.89
   3  -1   3  176.51    9.90
  -4   1  -3  181.92   10.84
  -4   1  -3  189.28   10.96
  -4   1  -3  177.08   10.81
  -4   1  -3  197.03   10.85
   4  -1   3  198.66   10.83
   4  -1   3  179.53   10.94
   4  -1   3  191.57   10.69
   4  -1   3  189.28   10.81
  -5   1  -3    4.65    0.72
  -5   1  -3    5.39    0.84
  -5   1  -3    6.00    0.79
  -5   1  -3    6.59    0.80
   5  -1   3    5.94    0.76
   5  -1   3    5.53    0.73
   5  -1   3    5.26    0.54
  -6   1  -3  272.41   15.62
  -6   1  -3  253.23   15.39
  -6   1  -3  288.57   15.43
  -6   1  -3  250.83   15.48
   6  -1   3  277.47   15.44
   6  -1   3  251.11   15.23
   6  -1   3  283.65   15.42
   6  -1   3  260.87   15.59
  -7   1  -3   37.20    3.13
  -7   1  -3   40.36    3.00
  -7   1  -3   43.83    2.91
  -7   1  -3   47.05    3.28
  -7   1  -3   40.89    2.73
   7  -1   3   41.00    3.16
   7  -1   3   40.74    2.68
   7  -1   3   43.51    3.01
   7  -1   3   46.78    3.00
  -8   1  -3   65.42    4.29
  -8   1  -3   63.52    3.99
  -8   1  -3   60.83    4.41
  -8   1  -3   58.79    4.19
   8  -1   3   69.10    4.39
   8  -1   3   67.85    3.96
   8  -1   3   59.91    4.47
   8   0  -3   30.16    2.37
   8   0  -3   33.86    2.66
   8   0  -3   29.85    2.50
  -8   0   3   39.07    2.62
  -8   0   3   28.90    2.72
  -8   0   3   33.09    2.31
  -8   0   3   29.11    1.99
   7   0  -3  103.15    6.57
   7   0  -3  110.19    6.47
   7   0  -3  102.80    6.35
   7   0  -3  100.23    6.43
  -7   0   3  111.01    6.52
  -7   0   3  110.34    6.18
  -7   0   3  102.49    6.56
  -7   0   3  110.48    6.39
  -7   0   3  101.60    6.14
   6   0  -3   41.03    2.84
   6   0  -3   43.31    2.75
   6   0  -3   37.70    2.70
   6   0  -3   37.51    2.62
  -6   0   3   44.84    2.78
  -6   0   3   42.45    2.68
  -6   0   3   39.46    2.48
  -6   0   3   38.81    2.84
   5   0  -3  222.28   11.92
   5   0  -3  192.29   11.75
   5   0  -3  214.19   11.82
   5   0  -3  199.88   11.80
  -5   0   3  190.47   11.88
  -5   0   3  195.09   11.65
  -5   0   3  215.80   11.84
   4   0  -3  123.50    7.98
   4   0  -3  143.31    8.04
   4   0  -3  135.86    7.93
   4   0  -3  146.33    8.13
   4   0  -3  129.53    8.01
  -4   0   3  129.07    8.10
  -4   0   3  139.56    7.93
  -4   0   3  149.30    8.02
  -4   0   3  147.23    8.04
   3   0  -3  246.79   15.04
   3   0  -3  268.15   15.08
   3   0  -3  280.23   15.17
   3   0  -3  271.19   15.02
  -3   0   3  245.48   15.13
  -3   0   3  253.50   15.01
  -3   0   3  286.36   15.07
  -3   0   3  263.79   15.05
   2   0  -3  241.68   13.47
   2   0  -3  246.90   13.49
   2   0  -3  231.05   13.49
   2   0  -3  228.86   13.44
   2   0  -3  254.16   13.58
  -2   0   3  225.95   13.48
  -2   0   3  237.75   13.45
  -2   0   3  231.84   13.55
  -2   0   3  237.24   13.48
   1   0  -3  123.68    6.72
   1   0  -3  119.17    6.72
   1   0  -3  115.59    6.67
   1   0  -3  112.02    6.67
  -1   0   3  116.93    6.67
  -1   0   3  113.10    6.70
  -1   0   3  117.31    6.67
  -1   0   3  117.51    6.61
  -1   0   3  115.98    6.72
   0   0  -3   52.61    3.19
   0   0  -3   54.28    3.23
   0   0  -3   54.43    3.14
   0   0  -3   56.25    3.16
   0   0  -3   55.44    3.15
   0   0   3   50.16    3.22
   0   0   3   57.25    3.19
   0   0   3   56.88    3.14
  -1   0  -3  259.96   14.37
  -1   0  -3  254.18   14.29
  -1   0  -3  249.08   14.35
  -1   0  -3  257.18   14.26
  -1   0  -3  248.83   14.34
   1   0   3  260.17   14.26
   1   0   3  243.20   14.35
   1   0   3  234.26   14.35
   1   0   3  264.24   14.34
  -2   0  -3   14.37    0.89
  -2   0  -3   12.48    0.93
  -2   0  -3   13.58    0.98
  -2   0  -3   11.95    0.92
   2   0   3   12.79    0.86
   2   0   3   11.60    0.90
   2   0   3   12.86    0.80
   2   0   3   12.97    0.81
   2   0   3   12.74    0.98
   2   0   3   13.21    0.91
  -3   0  -3  239.69   13.85
  -3   0  -3  251.43   13.87
  -3   0  -3  231.72   13.88
  -3   0  -3  248.57   13.97
   3   0   3  250.25   13.83
   3   0   3  224.86   13.94
   3   0   3  254.55   13.89
   3   0   3  243.40   13.75
   3   0   3  237.58   13.82
  -4   0  -3   64.06    3.98
  -4   0  -3   61.19    4.00
  -4   0  -3   66.97    3.98
  -4   0  -3   64.49    4.14
   4   0   3   65.26    3.85
   4   0   3   64.33    4.11
   4   0   3   69.30    4.02
   4   0   3   70.28    3.97
  -5   0  -3   95.85    5.94
  -5   0  -3   96.60    5.93
  -5   0  -3  106.55    5.90
  -5   0  -3   99.69    6.09
   5   0   3  101.12    5.89
   5   0   3   90.33    6.04
   5   0   3  106.49    5.97
   5   0   3   94.11    5.76
  -6   0  -3   48.45    3.47
  -6   0  -3   48.62    3.66
  -6   0  -3   54.40    3.70
  -6   0  -3   56.61    3.40
   6   0   3   47.40    3.61
   6   0   3   56.74    3.53
   6   0   3   57.28    3.45
   6   0   3   52.69    3.26
  -7   0  -3   60.65    3.65
  -7   0  -3   56.36    4.03
  -7   0  -3   61.49    4.01
   7   0   3   65.80    4.13
   7   0   3   54.72    4.12
   7   0   3   61.83    3.98
   7   0   3   56.14    3.68
   9  -1  -3   40.90    3.20
   9  -1  -3   43.25    3.16
  -9   1   3   41.00    3.52
   8  -1  -3   98.97    6.13
   8  -1  -3  103.01    6.15
   8  -1  -3   95.79    6.23
  -8   1   3   97.83    5.95
  -8   1   3  107.98    6.03
  -8   1   3   93.57    6.37
  -8   1   3   99.32    6.12
  -8   1   3  108.23    6.35
   7  -1  -3   35.88    2.64
   7  -1  -3   34.82    2.49
   7  -1  -3   35.51    2.40
   7  -1  -3   34.55    2.45
  -7   1   3   33.37    2.24
  -7   1   3   30.61    2.56
  -7   1   3   35.05    2.51
  -7   1   3   37.01    2.40
   6  -1  -3  153.65    8.58
   6  -1  -3  137.37    8.40
   6  -1  -3  147.95    8.38
   6  -1  -3  138.93    8.46
  -6   1   3  153.91    8.41
  -6   1   3  138.33    8.31
  -6   1   3  135.81    8.52
   5  -1  -3   30.65    2.09
   5  -1  -3   32.23    2.06
   5  -1  -3   29.92    2.12
  -5   1   3   31.09    2.03
  -5   1   3   28.06    2.17
  -5   1   3   37.07    2.16
  -5   1   3   34.32    2.09
   4  -1  -3  221.90   12.11
   4  -1  -3  205.15   12.16
   4  -1  -3  226.69   12.24
   4  -1  -3  203.59   12.13
   4  -1  -3  214.32   12.13
  -4   1   3  221.92   12.13
  -4   1   3  206.20   12.11
  -4   1   3  210.38   12.14
  -4   1   3  196.00   12.20
   3  -1  -3  213.93   11.82
   3  -1  -3  200.27   11.79
   3  -1  -3  206.71   11.72
   3  -1  -3  199.27   11.79
   3  -1  -3  219.79   11.86
  -3   1   3  204.94   11.85
  -3   1   3  205.43   11.78
  -3   1   3  208.30   11.78
  -3   1   3  199.58   11.80
   2  -1  -3  230.44   12.24
   2  -1  -3  211.13   12.19
   2  -1  -3  211.81   12.15
   2  -1  -3  221.36   12.24
  -2   1   3  216.02   12.14
  -2   1   3  205.55   12.22
  -2   1   3  210.57   12.17
  -2   1   3  216.80   12.17
  -2   1   3  204.13   12.22
   1  -1  -3   61.42    3.54
   1  -1  -3   60.26    3.54
   1  -1  -3   61.98    3.61
   1  -1  -3   61.78    3.54
  -1   1   3   60.38    3.53
  -1   1   3   57.88    3.53
  -1   1   3   61.79    3.53
  -1   1   3   61.51    3.52
   0  -1  -3  336.26   19.11
   0  -1  -3  341.32   19.08
   0  -1  -3  344.00   19.03
   0  -1  -3  338.34   19.13
   0  -1  -3  342.11   19.16
   0   1   3  299.78   19.11
   0   1   3  313.17   19.15
   0   1   3  356.03   19.07
   0   1   3  363.50   19.12
  -1  -1  -3  194.07   11.06
  -1  -1  -3  195.79   11.18
  -1  -1  -3  194.73   11.17
  -1  -1  -3  194.76   11.18
   1   1   3  193.23   11.08
   1   1   3  193.53   11.05
   1   1   3  195.08   11.20
   1   1   3  203.37   11.16
   1   1   3  190.62   11.15
  -2  -1  -3  279.64   17.27
  -2  -1  -3  301.11   17.25
  -2  -1  -3  306.43   17.33
  -2  -1  -3  328.94   17.20
   2   1   3  315.00   17.27
   2   1   3  302.14   17.16
   2   1   3  293.68   17.32
   2   1   3  296.79   17.20
   2   1   3  300.01   17.16
  -3  -1  -3   71.40    4.66
  -3  -1  -3   82.79    4.78
  -3  -1  -3   78.63    4.61
  -3  -1  -3   72.98    4.58
   3   1   3   81.22    4.54
   3   1   3   83.59    4.69
   3   1   3   79.74    4.56
   3   1   3   76.12    4.51
   3   1   3   76.14    4.54
   3   1   3   72.70    4.73
  -4  -1  -3  211.82   12.09
  -4  -1  -3  211.62   11.86
  -4  -1  -3  199.92   11.97
  -4  -1  -3  205.39   11.89
   4   1   3  198.89   11.77
   4   1   3  215.50   11.97
   4   1   3  193.26   12.02
   4   1   3  196.29   11.76
   4   1   3  221.06   11.86
  -5  -1  -3   87.12    5.39
  -5  -1  -3   93.10    5.64
  -5  -1  -3   80.20    5.61
  -5  -1  -3   89.31    5.28
   5   1   3   85.89    5.22
   5   1   3   83.70    5.52
   5   1   3   90.04    5.33
   5   1   3   98.40    5.50
  -6  -1  -3   99.80    6.43
  -6  -1  -3  109.81    6.22
  -6  -1  -3   99.47    6.47
  -6  -1  -3  120.86    6.95
   6   1   3  102.91    6.34
   6   1   3   96.98    6.54
   6   1   3  113.58    6.57
   6   1   3  103.14    6.23
   6   1   3   99.39    6.19
  -7  -1  -3   31.06    2.96
  -7  -1  -3   34.56    2.95
   7   1   3   37.76    2.59
   7   1   3   38.06    3.02
   7   1   3   34.64    2.49
   9  -2  -3   57.36    4.04
   9  -2  -3   62.62    4.19
   9  -2  -3   59.35    3.64
  -9   2   3   62.16    4.01
  -9   2   3   53.99    4.30
  -9   2   3   61.04    3.82
   8  -2  -3   32.99    2.80
   8  -2  -3   30.74    2.43
   8  -2  -3   29.87    2.31
   8  -2  -3   30.87    2.17
  -8   2   3   31.77    2.26
  -8   2   3   35.20    2.50
  -8   2   3   29.10    2.13
  -8   2   3   28.18    2.51
   7  -2  -3  242.96   13.70
   7  -2  -3  220.66   13.61
   7  -2  -3  226.03   13.54
   7  -2  -3  234.74   13.39
   7  -2  -3  231.23   13.33
  -7   2   3  223.02   13.66
  -7   2   3  227.49   13.46
  -7   2   3  251.89   13.52
  -7   2   3  246.63   13.63
   6  -2  -3   96.77    5.62
   6  -2  -3   90.40    5.49
   6  -2  -3   91.11    5.34
   6  -2  -3   86.24    5.55
   6  -2  -3   93.07    5.30
  -6   2   3   95.00    5.45
  -6   2   3   97.94    5.55
  -6   2   3   86.68    5.57
  -6   2   3   86.86    5.43
   5  -2  -3  234.08   14.15
   5  -2  -3  254.91   14.13
   5  -2  -3  241.98   13.94
   5  -2  -3  254.94   13.98
   5  -2  -3  231.38   14.09
   5  -2  -3  258.39   14.19
  -5   2   3  228.35   14.08
  -5   2   3  256.96   14.08
  -5   2   3  237.40   14.17
  -5   2   3  260.11   14.15
   4  -2  -3   76.37    4.35
   4  -2  -3   72.48    4.18
   4  -2  -3   73.55    4.16
   4  -2  -3   79.64    4.37
   4  -2  -3   69.15    4.32
   4  -2  -3   66.85    4.28
  -4   2   3   76.87    4.28
  -4   2   3   67.64    4.30
  -4   2   3   74.16    4.30
  -4   2   3   66.02    4.32
   3  -2  -3  353.39   20.95
   3  -2  -3  389.48   20.96
   3  -2  -3  388.54   21.02
   3  -2  -3  344.53   20.85
  -3   2   3  361.15   20.93
  -3   2   3  380.48   20.95
  -3   2   3  362.02   20.99
  -3   2   3  365.32   20.97
  -3   2   3  376.35   20.84
   2  -2  -3   28.17    1.88
   2  -2  -3   32.29    1.97
   2  -2  -3   30.55    1.83
   2  -2  -3   31.36    1.84
  -2   2   3   32.74    1.88
  -2   2   3   29.43    1.86
  -2   2   3   28.10    1.94
  -2   2   3   31.26    1.82
   1  -2  -3  763.35   41.81
   1  -2  -3  776.05   41.89
  -1   2   3  681.02   41.86
   0  -2  -3  250.99   14.22
   0  -2  -3  244.40   14.04
   0  -2  -3  242.79   14.21
   0  -2  -3  243.09   14.04
   0  -2  -3  249.41   14.23
   0  -2  -3  250.09   14.16
   0   2   3  272.02   14.16
   0   2   3  254.85   14.19
   0   2   3  238.18   14.22
   0   2   3  242.79   14.22
  -1  -2  -3  385.32   21.17
  -1  -2  -3  346.58   21.12
  -1  -2  -3  378.89   21.11
  -1  -2  -3  367.12   20.97
   1   2   3  365.90   21.09
   1   2   3  378.22   21.04
   1   2   3  356.30   21.15
   1   2   3  383.85   21.12
   1   2   3  376.42   20.95
  -2  -2  -3   12.83    0.94
  -2  -2  -3   12.56    1.11
  -2  -2  -3   13.36    1.14
  -2  -2  -3   13.93    1.04
   2   2   3   13.73    0.98
   2   2   3   12.36    1.13
   2   2   3   13.80    1.11
   2   2   3   13.17    0.97
   2   2   3   12.91    0.90
  -3  -2  -3  171.80   10.88
  -3  -2  -3  180.24   11.04
  -3  -2  -3  186.43   10.89
  -3  -2  -3  196.77   11.12
   3   2   3  178.35   10.83
   3   2   3  188.76   10.84
   3   2   3  195.17   11.10
   3   2   3  198.26   10.86
   3   2   3  201.74   11.05
   3   2   3  195.83   10.88
  -4  -2  -3  105.65    6.74
  -4  -2  -3  115.36    6.66
  -4  -2  -3  119.12    6.99
   4   2   3  108.17    6.63
   4   2   3  111.21    6.58
   4   2   3  118.99    6.69
   4   2   3  118.93    6.89
   4   2   3  119.45    6.69
   4   2   3  108.14    6.93
  -5  -2  -3  151.28    9.52
  -5  -2  -3  170.91    9.81
  -5  -2  -3  164.50    9.31
  -5  -2  -3  153.81    9.63
   5   2   3  148.65    9.64
   5   2   3  170.06    9.42
   5   2   3  171.30    9.44
   5   2   3  172.69    9.68
   5   2   3  148.35    9.33
  -6  -2  -3   12.15    1.85
  -6  -2  -3   12.73    1.78
   6   2   3   15.35    1.57
   6   2   3   12.61    1.50
   6   2   3   13.47    1.80
   6   2   3   12.60    1.32
   9  -3  -3    6.29    1.16
  -9   3   3    7.26    1.10
  -9   3   3    6.34    0.96
  -9   3   3    7.03    1.42
   8  -3  -3  127.84    8.16
   8  -3  -3  139.49    8.24
   8  -3  -3  126.37    8.05
  -8   3   3  145.23    8.18
  -8   3   3  139.69    7.99
  -8   3   3  129.49    8.18
   7  -3  -3   78.36    5.07
   7  -3  -3   91.39    5.12
   7  -3  -3   74.50    4.95
  -7   3   3   70.69    5.04
  -7   3   3   83.83    5.04
  -7   3   3   87.23    4.92
  -7   3   3   80.29    4.94
   6  -3  -3  191.75   11.64
   6  -3  -3  190.40   11.55
   6  -3  -3  224.79   11.66
  -6   3   3  207.53   11.62
  -6   3   3  189.81   11.61
  -6   3   3  200.84   11.51
  -6   3   3  192.05   11.56
   5  -3  -3   44.35    2.73
   5  -3  -3   44.37    2.79
   5  -3  -3   41.73    2.71
   5  -3  -3   39.71    2.77
  -5   3   3   45.85    2.67
  -5   3   3   47.08    2.75
  -5   3   3   39.32    2.73
  -5   3   3   39.72    2.72
   4  -3  -3  160.25    9.36
   4  -3  -3  164.32    9.21
   4  -3  -3  151.07    9.38
   4  -3  -3  176.11    9.49
  -4   3   3  157.03    9.39
  -4   3   3  152.94    9.43
  -4   3   3  173.56    9.37
  -4   3   3  165.45    9.42
   3  -3  -3  120.91    6.94
   3  -3  -3  114.14    6.91
   3  -3  -3  127.77    7.12
   3  -3  -3  115.69    7.01
  -3   3   3  125.60    7.10
  -3   3   3  120.46    6.98
  -3   3   3  120.41    7.04
  -3   3   3  118.39    6.89
  -3   3   3  124.78    7.00
   2  -3  -3  293.28   16.47
   2  -3  -3  289.33   16.57
   2  -3  -3  311.65   16.70
   2  -3  -3  287.89   16.60
  -2   3   3  296.61   16.54
  -2   3   3  272.20   16.62
  -2   3   3  279.49   16.67
  -2   3   3  286.14   16.50
  -2   3   3  306.89   16.59
   1  -3  -3   39.39    2.52
   1  -3  -3   40.23    2.46
   1  -3  -3   40.36    2.47
  -1   3   3   38.61    2.49
  -1   3   3   37.71    2.51
  -1   3   3   41.43    2.44
  -1   3   3   40.95    2.44
   0  -3  -3  225.28   12.63
   0  -3  -3  233.44   12.59
   0  -3  -3  208.29   12.59
   0   3   3  204.54   12.57
   0   3   3  226.98   12.53
   0   3   3  230.20   12.58
   0   3   3  204.19   12.60
  -1  -3  -3   14.60    1.22
  -1  -3  -3   15.90    1.26
  -1  -3  -3   13.10    0.98
  -1  -3  -3   15.22    1.14
   1   3   3   16.48    1.12
   1   3   3   13.35    1.10
   1   3   3   15.18    0.92
   1   3   3   16.35    1.23
   1   3   3   15.35    1.24
  -2  -3  -3  106.34    6.07
  -2  -3  -3   96.14    6.02
  -2  -3  -3  109.56    6.31
  -2  -3  -3   97.56    6.23
   2   3   3  114.28    6.26
   2   3   3  116.41    5.97
   2   3   3   97.11    6.23
   2   3   3   89.53    6.33
   2   3   3  103.06    6.05
  -3  -3  -3   31.05    1.95
  -3  -3  -3   30.29    2.29
  -3  -3  -3   28.53    2.03
  -3  -3  -3   25.87    2.45
   3   3   3   24.05    2.36
   3   3   3   33.88    2.27
   3   3   3   30.72    1.91
   3   3   3   29.54    1.95
   3   3   3   30.64    1.91
   3   3   3   31.91    2.06
  -4  -3  -3  126.62    7.19
  -4  -3  -3  136.44    7.71
  -4  -3  -3  113.15    7.54
  -4  -3  -3  111.10    7.35
   4   3   3  121.41    7.14
   4   3   3  129.30    7.35
   4   3   3  120.78    7.27
   4   3   3  121.01    7.57
   4   3   3  138.27    7.62
  -5  -3  -3   33.61    2.55
  -5  -3  -3   33.83    2.80
  -5  -3  -3   32.05    2.04
   5   3   3   32.92    2.70
   5   3   3   31.72    2.29
   5   3   3   33.45    2.34
   5   3   3   34.06    2.47
   9  -4  -3   79.71    5.31
   9  -4  -3   78.17    5.15
  -9   4   3   82.59    5.05
  -9   4   3   76.50    5.30
  -9   4   3   82.54    5.08
   8  -4  -3   60.56    3.96
   8  -4  -3   55.40    3.92
   8  -4  -3   55.22    3.74
  -8   4   3   57.00    3.67
  -8   4   3   64.38    3.93
  -8   4   3   55.96    3.88
  -8   4   3   53.92    3.73
   7  -4  -3   51.85    3.45
   7  -4  -3   45.70    3.36
  -7   4   3   58.45    3.36
  -7   4   3   54.23    3.50
   6  -4  -3   97.78    6.34
   6  -4  -3  110.92    6.37
  -6   4   3  116.57    6.45
  -6   4   3  100.18    6.38
  -6   4   3  102.36    6.40
  -6   4   3  113.13    6.33
   5  -4  -3  209.14   12.11
   5  -4  -3  218.26   12.28
   5  -4  -3  193.91   12.14
  -5   4   3  217.52   12.21
  -5   4   3  200.78   12.14
  -5   4   3  209.29   12.22
  -5   4   3  226.14   12.14
   4  -4  -3   16.68    1.33
   4  -4  -3   18.38    1.24
   4  -4  -3   18.55    1.15
   4  -4  -3   19.77    1.60
  -4   4   3   16.36    1.40
  -4   4   3   18.66    1.38
  -4   4   3   17.79    1.40
  -4   4   3   18.38    1.29
  -4   4   3   18.64    1.11
   3  -4  -3  136.52    8.44
   3  -4  -3  151.91    8.55
   3  -4  -3  141.42    8.36
   3  -4  -3  150.04    8.30
  -3   4   3  150.66    8.51
  -3   4   3  138.28    8.34
  -3   4   3  150.37    8.33
  -3   4   3  133.29    8.51
  -3   4   3  158.01    8.45
   2  -4  -3   65.04    4.06
   2  -4  -3   71.13    4.18
   2  -4  -3   65.85    4.09
  -2   4   3   71.60    4.08
  -2   4   3   63.74    4.12
  -2   4   3   75.54    4.04
  -2   4   3   63.30    4.15
   1  -4  -3  250.73   15.15
   1  -4  -3  257.44   15.12
   1  -4  -3  281.33   15.19
  -1   4   3  285.19   15.14
  -1   4   3  279.91   15.12
  -1   4   3  244.28   15.17
  -1   4   3  250.35   15.18
   0  -4  -3  113.69    6.55
   0  -4  -3  116.74    6.67
   0  -4  -3  109.72    6.62
   0   4   3  100.28    6.60
   0   4   3  119.74    6.53
   0   4   3  106.68    6.55
  -1  -4  -3  145.18    9.06
  -1  -4  -3  150.73    8.90
  -1  -4  -3  166.41    9.15
   1   4   3  143.50    9.05
   1   4   3  144.18    8.90
   1   4   3  165.47    9.07
   1   4   3  160.23    8.94
  -2  -4  -3  194.93   10.62
  -2  -4  -3  170.40   10.53
  -2  -4  -3  162.88   10.19
  -2  -4  -3  178.44   10.26
   2   4   3  171.61   10.25
   2   4   3  195.08   10.54
   2   4   3  191.38   10.37
   2   4   3  163.70   10.48
   2   4   3  176.17   10.14
  -3  -4  -3  102.23    6.51
  -3  -4  -3  116.18    6.64
  -3  -4  -3   94.66    6.17
  -3  -4  -3  103.11    6.10
   3   4   3  108.74    6.09
   3   4   3  105.33    6.09
   3   4   3  112.18    6.53
   3   4   3   99.10    6.19
   3   4   3   98.89    6.45
   3   4   3  107.53    6.29
  -4  -4  -3   23.55    2.41
  -4  -4  -3   25.13    1.60
  -4  -4  -3   24.43    1.99
   4   4   3   22.28    2.13
   4   4   3   26.78    2.13
   4   4   3   24.03    1.84
   4   4   3   23.98    2.24
   9  -5  -3   43.75    3.28
  -9   5   3   46.42    3.50
  -9   5   3   46.21    3.29
   8  -5  -3  142.03    8.30
   8  -5  -3  128.28    8.20
  -8   5   3  152.13    8.43
  -8   5   3  137.62    8.27
  -8   5   3  141.39    8.17
  -8   5   3  123.36    8.28
   7  -5  -3   25.98    2.10
   7  -5  -3   30.07    2.13
  -7   5   3   26.84    2.16
  -7   5   3   27.68    2.18
  -7   5   3   30.90    2.08
  -7   5   3   30.52    2.25
   6  -5  -3  204.55   12.37
   6  -5  -3  221.71   12.32
  -6   5   3  206.09   12.35
  -6   5   3  228.46   12.34
  -6   5   3  229.22   12.46
  -6   5   3  188.90   12.44
   5  -5  -3   99.90    6.41
   5  -5  -3  116.97    6.59
   5  -5  -3  110.92    6.32
  -5   5   3   99.44    6.34
  -5   5   3  120.84    6.54
  -5   5   3   95.52    6.47
  -5   5   3  113.24    6.40
   4  -5  -3  333.50   17.47
   4  -5  -3  292.67   17.17
   4  -5  -3  280.06   17.31
   4  -5  -3  310.05   17.15
  -4   5   3  298.64   17.41
  -4   5   3  288.96   17.20
  -4   5   3  299.89   17.12
  -4   5   3  314.22   17.40
   3  -5  -3  117.58    6.15
   3  -5  -3  103.82    6.02
   3  -5  -3  101.12    5.95
  -3   5   3   95.07    5.77
  -3   5   3   98.35    5.87
  -3   5   3   93.39    6.02
  -3   5   3   89.21    6.05
  -3   5   3  110.62    5.99
   2  -5  -3  239.42   14.55
   2  -5  -3  268.12   14.63
   2  -5  -3  253.62   14.57
  -2   5   3  272.15   14.55
  -2   5   3  262.35   14.51
  -2   5   3  239.61   14.60
  -2   5   3  236.84   14.62
   1  -5  -3  100.55    6.33
  -1   5   3  100.76    6.31
  -1   5   3  111.03    6.29
  -1   5   3  101.50    6.35
  -1   5   3  114.93    6.29
   0  -5  -3   93.29    6.07
   0  -5  -3  103.58    5.95
   0   5   3   90.85    6.26
   0   5   3   94.21    5.96
   0   5   3  109.55    6.07
   0   5   3  107.16    5.98
  -1  -5  -3   22.16    1.99
  -1  -5  -3   25.39    2.08
  -1  -5  -3   25.32    1.73
   1   5   3   26.73    1.87
   1   5   3   21.09    1.91
   1   5   3   23.07    1.72
   1   5   3   24.76    1.96
  -2  -5  -3  177.07   10.10
  -2  -5  -3  168.13   10.46
  -2  -5  -3  188.37   10.59
   2   5   3  189.10   10.31
   2   5   3  184.42   10.47
   2   5   3  162.41   10.14
   2   5   3  159.48   10.38
   2   5   3  172.15   10.09
  -3  -5  -3   26.53    1.83
  -3  -5  -3   24.50    2.53
  -3  -5  -3   26.92    1.80
   3   5   3   25.53    1.71
   3   5   3   27.11    1.73
   3   5   3   24.38    2.33
   3   5   3   29.02    2.02
   9  -6  -3  140.47    8.55
  -9   6   3  144.19    8.61
  -9   6   3  137.03    8.63
   8  -6  -3   33.03    2.53
   8  -6  -3   32.01    2.50
  -8   6   3   34.01    2.47
  -8   6   3   30.85    2.57
  -8   6   3   31.63    2.54
   7  -6  -3  118.68    6.58
   7  -6  -3   98.56    6.59
  -7   6   3  112.83    6.63
  -7   6   3  113.83    6.58
  -7   6   3  104.82    6.70
  -7   6   3  106.50    6.73
   6  -6  -3    9.86    1.24
  -6   6   3   11.16    1.33
  -6   6   3   11.05    1.15
  -6   6   3   12.62    1.38
  -6   6   3   13.08    1.21
   5  -6  -3  163.76    9.13
   5  -6  -3  154.64    8.76
   5  -6  -3  143.31    8.95
  -5   6   3  146.50    8.82
  -5   6   3  158.49    8.93
  -5   6   3  143.41    9.04
  -5   6   3  155.04    9.06
   4  -6  -3   46.47    3.14
   4  -6  -3   47.52    3.00
   4  -6  -3   51.63    3.28
  -4   6   3   49.68    2.90
  -4   6   3   40.34    3.62
  -4   6   3   53.97    3.28
  -4   6   3   49.10    3.09
  -4   6   3   44.71    2.88
   3  -6  -3  140.60    8.85
   3  -6  -3  146.25    8.82
   3  -6  -3  164.47    8.97
  -3   6   3  138.64    8.93
  -3   6   3  152.11    8.73
  -3   6   3  161.87    8.85
   2  -6  -3   24.92    1.80
   2  -6  -3   22.36    1.77
  -2   6   3   22.85    1.72
  -2   6   3   20.42    1.78
  -2   6   3   22.84    1.66
  -2   6   3   20.83    1.78
   1  -6  -3   80.22    4.71
   1  -6  -3   71.88    4.81
  -1   6   3   72.97    4.81
  -1   6   3   81.12    4.75
  -1   6   3   71.65    4.72
  -1   6   3   80.62    4.74
   0  -6  -3   30.92    2.06
   0  -6  -3   27.78    2.29
   0   6   3   29.14    2.17
   0   6   3   28.07    2.05
   0   6   3   25.48    2.21
   0   6   3   28.08    2.22
  -1  -6  -3  163.85   10.62
  -1  -6  -3  189.67   10.32
   1   6   3  177.56   10.77
   1   6   3  181.63   10.33
   1   6   3  164.56   10.59
   1   6   3  187.54   10.71
  -2  -6  -3   31.11    2.87
   2   6   3   30.48    2.34
   2   6   3   33.98    2.13
   2   6   3   30.74    2.66
   8  -7  -3   60.15    4.18
   8  -7  -3   65.76    4.10
  -8   7   3   57.98    4.22
  -8   7   3   63.32    4.16
   7  -7  -3   43.77    2.74
   7  -7  -3   40.98    2.94
  -7   7   3   40.76    2.81
  -7   7   3   34.57    2.95
   6  -7  -3   99.36    5.58
   6  -7  -3   90.19    5.82
  -6   7   3   89.99    5.93
  -6   7   3   88.61    5.64
  -6   7   3   99.83    5.79
  -6   7   3   97.42    5.98
   5  -7  -3   62.17    4.14
   5  -7  -3   60.89    3.94
  -5   7   3   56.18    3.96
  -5   7   3   59.51    4.05
  -5   7   3   60.34    4.08
  -5   7   3   59.79    3.66
  -5   7   3   60.79    3.57
  -5   7   3   66.39    3.94
   4  -7  -3  124.54    7.71
   4  -7  -3  120.28    7.60
   4  -7  -3  138.40    7.85
  -4   7   3  140.93    7.93
  -4   7   3  117.72    7.80
  -4   7   3  132.36    7.49
  -4   7   3  135.10    7.69
  -4   7   3  120.72    7.75
   3  -7  -3   65.09    4.09
   3  -7  -3   61.41    4.03
  -3   7   3   57.28    4.08
  -3   7   3   62.67    3.87
  -3   7   3   61.61    4.08
  -3   7   3   66.57    4.05
   2  -7  -3  124.78    7.38
  -2   7   3  129.60    7.34
  -2   7   3  127.57    7.40
  -2   7   3  115.18    7.44
  -2   7   3  115.81    7.41
   1  -7  -3   32.62    2.36
   1  -7  -3   31.64    2.54
  -1   7   3   35.97    2.51
  -1   7   3   31.59    2.51
  -1   7   3   26.96    2.55
   0  -7  -3  108.00    6.33
   0  -7  -3   99.09    6.65
   0   7   3  105.67    6.61
   0   7   3  105.35    6.36
  -1  -7  -3   28.72    2.94
   1   7   3   30.16    2.11
   1   7   3   27.37    2.26
   1   7   3   27.42    2.71
   7  -8  -3  136.90    8.52
  -7   8   3  138.03    8.66
  -7   8   3  145.18    8.33
   6  -8  -3   29.94    2.49
  -6   8   3   27.30    2.57
  -6   8   3   30.82    2.06
  -6   8   3   28.51    2.51
   5  -8  -3   64.44    4.53
  -5   8   3   72.33    4.13
  -5   8   3   71.89    4.62
  -5   8   3   66.52    4.67
  -4   8   3   72.77    4.86
  -4   8   3   78.16    4.54
  -4   8   3   70.96    4.90
   3  -8  -3  112.74    6.52
   3  -8  -3   97.98    6.27
  -3   8   3   87.15    6.21
  -3   8   3   98.42    6.28
  -3   8   3  102.30    6.06
   2  -8  -3   36.39    3.08
  -2   8   3   45.12    2.98
  -2   8   3   35.00    2.86
  -2   8   3   36.93    2.96
   1  -8  -3   78.07    5.40
  -1   8   3   81.57    5.12
  -1   8   3   79.03    5.52
  -1   9  -4   78.23    4.58
  -1   9  -4   69.68    4.87
  -1   9  -4   77.79    4.67
  -1   9  -4   76.31    4.76
  -2   9  -4    9.25    1.42
  -2   9  -4    6.49    0.96
  -2   9  -4    8.61    1.16
  -2   9  -4    9.14    1.49
  -2   9  -4    7.10    1.05
  -2   9  -4    7.26    0.97
  -2   9  -4    7.61    1.22
  -3   9  -4  102.87    6.02
  -3   9  -4   84.75    5.90
  -3   9  -4  103.07    5.81
  -3   9  -4   93.54    5.94
  -3   9  -4   93.48    5.71
  -3   9  -4   96.55    5.88
  -4   9  -4   31.96    2.44
  -4   9  -4   27.48    2.43
  -4   9  -4   28.25    2.37
  -4   9  -4   34.07    2.25
  -4   9  -4   25.43    2.12
  -4   9  -4   32.75    2.45
  -4   9  -4   31.94    2.38
  -4   9  -4   29.53    2.14
  -5   9  -4   85.82    5.77
  -5   9  -4   86.81    5.38
  -5   9  -4   87.78    5.52
  -5   9  -4   94.03    5.62
  -5   9  -4   96.18    5.51
  -5   9  -4   94.71    5.59
  -5   9  -4   87.91    5.69
  -6   9  -4   29.04    2.35
  -6   9  -4   31.88    2.00
  -6   9  -4   31.53    2.70
  -6   9  -4   31.46    2.41
  -7   9  -4   91.68    5.23
  -7   9  -4   79.77    5.58
  -7   9  -4   80.68    5.33
   1   8  -4   37.59    2.82
   1   8  -4   36.97    2.65
   1   8  -4   38.55    2.80
   0   8  -4   74.05    4.72
   0   8  -4   76.62    4.57
   0   8  -4   81.01    4.54
   0   8  -4   70.53    4.81
   0   8  -4   78.90    4.76
  -1   8  -4   20.21    2.17
  -1   8  -4   23.09    2.03
  -1   8  -4   20.40    1.80
  -1   8  -4   20.87    1.69
  -1   8  -4   21.18    1.61
  -1   8  -4   25.27    1.82
  -1   8  -4   24.08    1.65
  -1   8  -4   23.35    1.72
  -2   8  -4  163.02   10.43
  -2   8  -4  179.58   10.39
  -2   8  -4  177.43   10.49
  -2   8  -4  164.51   10.31
  -2   8  -4  191.90   10.52
  -2   8  -4  185.05   10.65
  -2   8  -4  174.84   10.37
  -2   8  -4  187.17   10.62
  -2   8  -4  185.93   10.40
  -3   8  -4   81.27    5.44
  -3   8  -4   95.51    5.37
  -3   8  -4   86.06    5.32
  -3   8  -4   88.68    5.61
  -3   8  -4   90.83    5.44
  -3   8  -4   91.00    5.52
  -3   8  -4   91.51    5.46
  -4   8  -4  137.24    8.44
  -4   8  -4  150.37    8.31
  -4   8  -4  127.63    8.33
  -4   8  -4  145.78    8.46
  -4   8  -4  135.59    8.23
  -4   8  -4  150.79    8.24
  -4   8  -4  143.24    8.51
  -4   8  -4  130.54    8.18
  -4   8  -4  144.68    8.37
  -5   8  -4   93.79    5.55
  -5   8  -4   88.79    5.41
  -5   8  -4   94.26    5.49
  -5   8  -4   86.83    5.76
  -5   8  -4   95.54    5.87
  -5   8  -4   89.89    5.58
  -5   8  -4   95.98    5.75
  -6   8  -4  109.52    6.86
  -6   8  -4  108.09    6.56
  -6   8  -4  111.85    6.59
  -6   8  -4  126.49    7.22
  -6   8  -4  119.73    6.78
  -6   8  -4  110.81    7.05
  -7   8  -4   21.61    1.70
  -7   8  -4   21.61    2.14
  -7   8  -4   19.19    1.85
  -8   8  -4   69.80    4.89
  -8   8  -4   72.93    4.74
   3   7  -4   68.70    4.53
   3   7  -4   72.81    4.65
   2   7  -4   36.53    2.58
   2   7  -4   32.01    2.45
   2   7  -4   35.90    2.64
   1   7  -4  129.62    8.04
   1   7  -4  132.39    7.71
   1   7  -4  135.21    7.69
   1   7  -4  125.03    7.92
   1   7  -4  142.31    8.02
   1   7  -4  137.15    8.15
   1   7  -4  143.59    8.36
   0   7  -4   28.56    1.95
   0   7  -4   29.40    2.04
   0   7  -4   30.37    2.26
   0   7  -4   33.72    2.51
   0   7  -4   28.56    1.89
  -1   7  -4   82.70    4.74
  -1   7  -4   80.35    4.64
  -1   7  -4   73.90    4.69
  -1   7  -4   69.07    4.67
  -1   7  -4   86.23    5.00
  -1   7  -4   74.43    4.75
  -1   7  -4   78.75    4.80
  -2   7  -4  126.63    7.04
  -2   7  -4  115.08    6.98
  -2   7  -4  128.49    7.03
  -2   7  -4  112.49    7.07
  -2   7  -4  124.25    7.21
  -2   7  -4  119.42    7.19
  -2   7  -4  119.97    7.08
  -2   7  -4  109.92    7.07
  -3   7  -4   80.47    4.82
  -3   7  -4   74.03    4.72
  -3   7  -4   85.69    4.87
  -3   7  -4   75.35    4.74
  -3   7  -4   74.96    4.81
  -3   7  -4   81.66    4.94
  -3   7  -4   84.17    4.80
  -3   7  -4   77.44    4.89
  -4   7  -4   22.86    1.89
  -4   7  -4   23.42    1.79
  -4   7  -4   22.75    1.64
  -4   7  -4   23.93    1.91
  -4   7  -4   23.94    1.68
  -4   7  -4   24.13    1.73
  -4   7  -4   22.61    1.59
  -5   7  -4  103.38    5.91
  -5   7  -4  103.27    6.13
  -5   7  -4   96.07    5.83
  -5   7  -4  102.86    6.20
  -5   7  -4   99.09    6.01
  -5   7  -4   97.83    6.17
  -6   7  -4   58.77    3.81
  -6   7  -4   59.71    3.41
  -6   7  -4   53.38    3.26
  -6   7  -4   50.91    3.57
  -6   7  -4   54.28    3.30
  -6   7  -4   59.86    3.77
  -6   7  -4   53.56    3.72
  -7   7  -4  132.38    8.26
  -7   7  -4  130.47    8.14
  -7   7  -4  144.46    7.90
  -8   7  -4   18.21    1.92
  -8   7  -4   17.57    1.37
  -8   7  -4   17.52    2.02
   8  -7   4   14.78    2.20
   4   6  -4   70.57    4.50
   4   6  -4   74.00    4.61
   4   6  -4   62.47    4.38
  -4  -6   4   69.06    4.57
   3   6  -4   19.69    1.86
   3   6  -4   20.45    1.75
   3   6  -4   17.86    1.66
  -3  -6   4   23.10    2.05
   2   6  -4   76.80    4.50
   2   6  -4   78.71    4.78
   2   6  -4   61.72    4.30
  -2  -6   4   67.73    4.41
   1   6  -4   32.92    2.20
   1   6  -4   32.44    2.29
   1   6  -4   33.29    2.00
   1   6  -4   31.91    2.02
   1   6  -4   37.37    2.60
   0   6  -4  192.65   10.76
   0   6  -4  179.29   10.79
   0   6  -4  178.29   10.88
   0   6  -4  196.25   11.10
   0   6  -4  188.10   10.94
   0   6  -4  185.99   10.84
   0   6  -4  196.40   10.92
  -1   6  -4   59.49    3.91
  -1   6  -4   66.00    3.98
  -1   6  -4   70.85    4.13
  -1   6  -4   64.10    3.88
  -1   6  -4   68.60    3.95
  -1   6  -4   65.18    3.88
  -1   6  -4   60.45    3.93
  -2   6  -4  154.46    9.61
  -2   6  -4  168.30    9.57
  -2   6  -4  164.28    9.62
  -2   6  -4  170.84    9.60
  -2   6  -4  178.41    9.74
  -2   6  -4  163.53    9.66
  -2   6  -4  161.94    9.57
  -3   6  -4   14.61    1.24
  -3   6  -4   16.37    1.30
  -3   6  -4   15.59    1.12
  -3   6  -4   14.11    1.18
  -3   6  -4   13.04    1.10
  -3   6  -4   14.10    1.10
  -3   6  -4   14.06    1.25
  -4   6  -4  247.07   13.70
  -4   6  -4  233.15   13.82
  -4   6  -4  226.41   13.60
  -4   6  -4  247.58   13.85
  -4   6  -4  248.39   13.79
  -4   6  -4  230.37   13.70
  -4   6  -4  236.71   13.62
  -5   6  -4   46.05    3.04
  -5   6  -4   45.61    2.79
  -5   6  -4   42.50    2.87
  -5   6  -4   42.70    2.70
  -5   6  -4   46.02    2.99
  -5   6  -4   46.64    3.04
  -5   6  -4   45.11    2.74
  -6   6  -4  151.67    9.34
  -6   6  -4  151.58    8.99
  -6   6  -4  150.79    9.30
  -6   6  -4  161.01    9.41
  -6   6  -4  165.11    9.04
  -6   6  -4  160.92    9.36
   6  -6   4  160.91    9.43
  -7   6  -4   69.51    4.76
  -7   6  -4   69.71    4.63
  -7   6  -4   74.59    4.28
  -7   6  -4   76.91    4.77
  -7   6  -4   69.39    4.58
   7  -6   4   68.66    4.74
   7  -6   4   77.45    4.58
  -8   6  -4   92.98    6.04
  -8   6  -4   97.24    6.06
  -8   6  -4  101.55    5.61
   8  -6   4   91.16    6.21
  -9   6  -4   23.23    2.61
  -9   6  -4   27.20    2.50
   9  -6   4   26.81    2.94
   5   5  -4   86.58    5.54
   5   5  -4   82.68    5.22
   5   5  -4   82.66    5.15
  -5  -5   4   78.18    5.35
   4   5  -4   40.60    2.86
   4   5  -4   36.63    2.62
   4   5  -4   37.77    2.70
  -4  -5   4   36.01    2.80
  -4  -5   4   42.06    2.93
   3   5  -4  199.26   11.07
   3   5  -4  179.24   10.77
   3   5  -4  168.33   10.69
   3   5  -4  202.23   10.87
  -3  -5   4  187.80   10.87
  -3  -5   4  171.50   10.81
   2   5  -4   21.25    1.64
   2   5  -4   24.38    2.00
   2   5  -4   21.84    1.68
   2   5  -4   26.72    1.83
  -2  -5   4   21.21    1.73
  -2  -5   4   24.43    1.80
   1   5  -4  146.01    7.90
   1   5  -4  131.68    7.83
   1   5  -4  127.77    7.76
   1   5  -4  141.97    8.03
   1   5  -4  129.95    7.66
   1   5  -4  135.99    7.64
  -1  -5   4  124.52    7.82
   0   5  -4  111.78    6.88
   0   5  -4  111.73    6.93
   0   5  -4  135.11    7.01
   0   5  -4  122.67    6.86
   0   5  -4  121.19    7.19
   0   5  -4  112.39    6.90
  -1   5  -4  342.00   20.98
  -1   5  -4  385.77   21.13
  -1   5  -4  393.46   21.02
  -1   5  -4  372.99   20.97
  -1   5  -4  362.16   21.00
  -1   5  -4  346.24   20.93
  -1   5  -4  381.58   20.99
  -2   5  -4  105.13    6.28
  -2   5  -4  100.66    6.29
  -2   5  -4  110.24    6.31
  -2   5  -4  109.40    6.28
  -2   5  -4  109.96    6.38
  -2   5  -4  109.20    6.27
  -2   5  -4  110.58    6.39
  -3   5  -4  284.90   16.30
  -3   5  -4  302.87   16.43
  -3   5  -4  264.62   16.31
  -3   5  -4  267.71   16.36
  -3   5  -4  314.40   16.49
  -4   5  -4   84.43    4.64
  -4   5  -4   75.28    4.74
  -4   5  -4   76.03    4.45
  -4   5  -4   68.50    4.53
  -4   5  -4   76.01    4.42
   4  -5   4   75.18    4.63
  -5   5  -4  231.92   12.79
  -5   5  -4  223.51   12.51
  -5   5  -4  206.73   12.69
  -5   5  -4  233.59   12.83
  -5   5  -4  210.95   12.54
   5  -5   4  213.75   12.80
  -6   5  -4   46.70    2.75
  -6   5  -4   45.68    2.78
  -6   5  -4   44.60    3.32
  -6   5  -4   46.66    3.17
  -6   5  -4   48.23    3.14
   6  -5   4   46.59    2.74
   6  -5   4   41.83    3.27
   6  -5   4   48.31    3.01
  -7   5  -4  189.37   11.27
  -7   5  -4  179.72   11.58
  -7   5  -4  197.46   11.63
  -7   5  -4  187.13   11.31
  -7   5  -4  212.46   11.74
  -7   5  -4  210.94   11.78
   7  -5   4  212.99   11.32
   7  -5   4  218.38   11.63
   7  -5   4  180.53   11.72
   7  -5   4  192.07   11.26
  -8   5  -4   42.65    3.10
  -8   5  -4   42.91    3.19
  -8   5  -4   39.94    2.63
  -8   5  -4   46.93    3.38
  -8   5  -4   42.72    2.72
   8  -5   4   48.73    2.73
   8  -5   4   45.86    2.62
   8  -5   4   41.01    3.37
  -9   5  -4   65.49    4.27
  -9   5  -4   58.84    4.40
   9  -5   4   61.31    4.66
   6   4  -4   59.49    4.05
   6   4  -4   62.91    3.99
  -6  -4   4   59.42    4.34
   5   4  -4   41.64    2.98
   5   4  -4   44.03    3.23
   5   4  -4   45.64    3.04
  -5  -4   4   47.24    3.18
  -5  -4   4   44.96    3.22
   4   4  -4  166.53    9.38
   4   4  -4  147.72    9.26
   4   4  -4  168.56    9.56
   4   4  -4  149.76    9.22
  -4  -4   4  169.26    9.38
  -4  -4   4  147.26    9.37
   3   4  -4   65.20    4.18
   3   4  -4   76.07    4.50
   3   4  -4   66.08    4.21
   3   4  -4   75.79    4.37
  -3  -4   4   66.22    4.32
  -3  -4   4   66.77    4.44
   2   4  -4   78.53    4.87
   2   4  -4   77.66    4.84
   2   4  -4   84.94    4.99
   2   4  -4   84.42    5.07
  -2  -4   4   72.39    4.94
  -2  -4   4   93.04    4.96
   1   4  -4  104.49    6.31
   1   4  -4  113.77    6.41
   1   4  -4  111.28    6.20
   1   4  -4  103.97    6.21
   1   4  -4  100.93    6.28
   1   4  -4  117.78    6.51
  -1  -4   4  106.66    6.37
   0   4  -4  317.88   19.17
   0   4  -4  322.24   19.18
   0   4  -4  327.27   19.15
   0   4  -4  361.05   19.26
   0   4  -4  362.21   19.36
  -1   4  -4   71.99    4.27
  -1   4  -4   71.46    4.31
  -1   4  -4   77.00    4.32
  -1   4  -4   73.16    4.35
  -2   4  -4  116.74    7.01
  -2   4  -4  124.70    7.07
  -2   4  -4  118.91    7.02
  -2   4  -4  123.80    6.97
  -2   4  -4  122.90    7.05
  -3   4  -4   25.18    1.74
  -3   4  -4   27.70    1.62
  -3   4  -4   28.07    1.82
  -3   4  -4   25.63    1.67
  -3   4  -4   28.38    1.80
   3  -4   4   25.71    1.78
  -4   4  -4  166.47    9.71
  -4   4  -4  156.22    9.86
  -4   4  -4  180.40    9.95
  -4   4  -4  178.66    9.97
  -4   4  -4  166.12    9.79
   4  -4   4  180.53    9.80
   4  -4   4  168.65    9.95
  -5   4  -4   65.29    3.81
  -5   4  -4   56.38    3.57
  -5   4  -4   59.12    3.48
  -5   4  -4   55.37    3.70
  -5   4  -4   67.17    3.87
   5  -4   4   62.62    3.71
   5  -4   4   55.34    3.78
   5  -4   4   62.23    3.58
   5  -4   4   58.80    3.47
  -6   4  -4  102.92    6.07
  -6   4  -4   94.80    5.75
  -6   4  -4   91.38    5.63
  -6   4  -4   94.64    5.95
  -6   4  -4  104.86    6.03
   6  -4   4  102.98    5.75
   6  -4   4   93.91    6.04
   6  -4   4   98.01    5.62
   6  -4   4  102.59    5.93
  -7   4  -4   67.37    4.32
  -7   4  -4   73.55    4.67
  -7   4  -4   79.84    4.82
  -7   4  -4   72.31    4.48
  -7   4  -4   71.35    4.73
  -7   4  -4   86.20    4.94
   7  -4   4   75.59    4.48
   7  -4   4   81.08    4.74
   7  -4   4   69.66    4.85
   7  -4   4   75.17    4.32
  -8   4  -4   90.96    5.59
  -8   4  -4   83.39    5.33
  -8   4  -4   80.65    5.46
  -8   4  -4   84.02    5.15
   8  -4   4   94.34    5.18
   8  -4   4   77.35    5.61
   8  -4   4   88.05    4.94
  -9   4  -4   26.31    2.78
  -9   4  -4   32.81    2.54
  -9   4  -4   30.24    2.52
   9  -4   4   25.79    3.01
   7   3  -4   99.59    6.36
   7   3  -4  104.48    6.44
  -7  -3   4  106.29    6.71
   6   3  -4   22.14    1.96
   6   3  -4   24.00    2.55
   6   3  -4   22.77    2.31
   6   3  -4   24.41    1.95
  -6  -3   4   25.63    2.30
  -6  -3   4   25.77    2.13
   5   3  -4   68.40    4.34
   5   3  -4   69.10    4.24
   5   3  -4   64.07    4.00
   5   3  -4   62.42    4.03
  -5  -3   4   63.64    4.09
  -5  -3   4   58.80    4.17
   4   3  -4   34.31    2.47
   4   3  -4   31.37    2.20
   4   3  -4   31.83    2.19
   4   3  -4   36.76    2.42
  -4  -3   4   33.63    2.38
  -4  -3   4   30.93    2.41
   3   3  -4  104.24    6.56
   3   3  -4  120.21    6.78
   3   3  -4  109.81    6.57
   3   3  -4  123.32    6.74
  -3  -3   4  104.44    6.70
  -3  -3   4  112.74    6.62
   2   3  -4   99.10    6.10
   2   3  -4  114.58    6.27
   2   3  -4   97.25    6.11
   2   3  -4  111.38    6.30
   2   3  -4  104.22    5.96
  -2  -3   4  111.59    6.15
  -2  -3   4   97.72    6.22
   1   3  -4  186.28   10.10
   1   3  -4  189.56   10.15
   1   3  -4  168.00    9.96
   1   3  -4  176.31    9.92
   1   3  -4  160.83    9.97
  -1  -3   4  165.82   10.06
  -1  -3   4  174.82    9.98
   0   3  -4   11.24    0.79
   0   3  -4   11.81    0.79
   0   3  -4   12.15    0.86
   0   3  -4   10.77    0.76
  -1   3  -4  222.26   12.93
  -1   3  -4  223.36   13.01
  -1   3  -4  231.98   12.99
  -1   3  -4  234.75   13.01
  -2   3  -4   94.74    5.37
  -2   3  -4   88.18    5.34
  -2   3  -4   88.89    5.23
  -2   3  -4   89.02    5.37
  -2   3  -4   94.47    5.24
  -2   3  -4   92.98    5.33
   2  -3   4   87.22    5.34
   2  -3   4   98.99    5.33
  -3   3  -4  451.72   25.48
  -3   3  -4  460.75   25.57
  -3   3  -4  430.35   25.54
  -3   3  -4  452.59   25.52
  -3   3  -4  447.06   25.35
   3  -3   4  432.11   25.54
   3  -3   4  472.98   25.47
  -4   3  -4  220.04   11.98
  -4   3  -4  189.52   11.90
  -4   3  -4  201.33   11.84
  -4   3  -4  213.39   12.01
   4  -3   4  212.31   11.90
   4  -3   4  196.47   11.97
   4  -3   4  217.01   11.85
  -5   3  -4  202.71   11.08
  -5   3  -4  198.36   11.13
  -5   3  -4  175.93   10.74
  -5   3  -4  185.64   10.91
  -5   3  -4  174.90   10.99
   5  -3   4  187.18   10.73
   5  -3   4  196.37   10.91
   5  -3   4  203.55   11.01
   5  -3   4  185.97   11.10
  -6   3  -4   47.54    2.97
  -6   3  -4   43.12    2.85
  -6   3  -4   38.24    2.62
  -6   3  -4   37.75    2.78
   6  -3   4   39.13    2.42
   6  -3   4   44.06    2.65
   6  -3   4   43.81    2.78
   6  -3   4   40.04    2.91
  -7   3  -4   90.75    5.34
  -7   3  -4   80.49    5.10
  -7   3  -4   92.46    5.50
  -7   3  -4   82.65    5.29
   7  -3   4   82.90    4.88
   7  -3   4   88.04    5.29
   7  -3   4   76.93    5.39
  -8   3  -4   42.74    2.94
  -8   3  -4   40.18    3.20
  -8   3  -4   46.30    3.26
  -8   3  -4   42.98    3.01
   8  -3   4   42.48    2.62
   8  -3   4   48.97    3.05
   8  -3   4   42.75    3.40
   7   2  -4   20.71    1.95
   7   2  -4   20.58    1.95
   7   2  -4   27.33    2.60
  -7  -2   4   23.31    2.27
  -7  -2   4   26.51    2.44
   6   2  -4  106.17    6.16
   6   2  -4   90.53    5.86
   6   2  -4  104.89    6.16
   6   2  -4   87.77    6.09
  -6  -2   4  101.35    5.99
  -6  -2   4   93.65    6.09
  -6  -2   4   99.30    6.00
   5   2  -4   78.49    4.58
   5   2  -4   73.91    4.56
   5   2  -4   66.60    4.33
   5   2  -4   64.67    4.34
  -5  -2   4   69.73    4.53
  -5  -2   4   72.58    4.42
  -5  -2   4   73.62    4.43
   4   2  -4  169.94   10.03
   4   2  -4  158.98   10.00
   4   2  -4  181.32   10.19
   4   2  -4  184.30   10.21
  -4  -2   4  172.02   10.07
  -4  -2   4  188.99   10.09
  -4  -2   4  158.57   10.15
   3   2  -4   87.81    5.22
   3   2  -4   83.35    5.08
   3   2  -4   89.44    5.06
   3   2  -4   90.35    5.22
   3   2  -4   82.26    4.90
  -3  -2   4   75.13    5.17
  -3  -2   4   92.15    5.13
  -3  -2   4   88.65    5.09
   2   2  -4 1000.00   51.72
   2   2  -4  840.68   51.57
   2   2  -4  973.62   51.71
  -2  -2   4  830.28   51.68
  -2  -2   4  923.14   51.61
   1   2  -4   93.00    5.34
   1   2  -4   87.62    5.24
   1   2  -4   87.22    5.18
   1   2  -4   96.68    5.23
  -1  -2   4   98.31    5.27
  -1  -2   4   83.50    5.18
  -1  -2   4   89.00    5.32
  -1  -2   4   90.50    5.23
   0   2  -4  403.17   22.19
   0   2  -4  380.25   22.21
   0   2  -4  395.10   22.20
   0   2  -4  390.45   22.15
   0  -2   4  386.20   22.19
   0  -2   4  395.48   22.15
  -1   2  -4   73.79    4.30
  -1   2  -4   75.73    4.35
  -1   2  -4   73.46    4.33
  -1   2  -4   71.46    4.24
   1  -2   4   72.74    4.29
   1  -2   4   79.46    4.33
   1  -2   4   73.60    4.36
  -2   2  -4  479.55   27.27
  -2   2  -4  471.20   27.30
  -2   2  -4  488.79   27.30
  -2   2  -4  489.41   27.28
   2  -2   4  468.04   27.30
   2  -2   4  478.13   27.28
   2  -2   4  496.64   27.26
  -3   2  -4  106.68    6.30
  -3   2  -4  116.31    6.38
  -3   2  -4  110.96    6.40
  -3   2  -4  102.02    6.31
   3  -2   4  110.11    6.31
   3  -2   4  105.05    6.37
   3  -2   4  109.98    6.30
  -4   2  -4  149.23    8.26
  -4   2  -4  129.89    8.16
  -4   2  -4  142.67    8.32
  -4   2  -4  132.31    8.20
   4  -2   4  147.69    8.18
   4  -2   4  147.29    8.20
   4  -2   4  140.04    8.31
  -5   2  -4   74.11    4.26
  -5   2  -4   65.08    4.14
  -5   2  -4   67.99    4.33
  -5   2  -4   66.30    4.19
   5  -2   4   64.97    3.93
   5  -2   4   69.88    4.18
   5  -2   4   66.98    4.32
   5  -2   4   73.86    4.16
  -6   2  -4  280.71   15.34
  -6   2  -4  243.65   15.06
  -6   2  -4  265.29   15.16
   6  -2   4  275.16   15.13
   6  -2   4  267.11   14.85
   6  -2   4  270.16   15.08
   6  -2   4  231.19   15.25
  -7   2  -4   12.29    1.47
  -7   2  -4   11.90    1.32
  -7   2  -4   11.16    1.77
  -7   2  -4   13.09    1.48
   7  -2   4   11.52    1.45
   7  -2   4   11.88    0.95
   7  -2   4   13.45    1.38
   7  -2   4   13.77    1.63
  -8   2  -4  126.89    7.80
  -8   2  -4  126.13    7.90
  -8   2  -4  142.96    8.03
  -8   2  -4  131.59    8.08
   8  -2   4  116.19    8.16
   8  -2   4  134.16    7.58
   8  -2   4  140.04    7.97
   8   1  -4   45.91    3.25
   8   1  -4   49.81    3.78
   8   1  -4   45.57    3.34
  -8  -1   4   47.76    3.73
   7   1  -4  142.81    8.45
   7   1  -4  154.88    8.73
   7   1  -4  129.85    8.24
   7   1  -4  131.35    8.30
  -7  -1   4  149.00    8.37
  -7  -1   4  130.26    8.49
  -7  -1   4  139.33    8.40
   6   1  -4   66.66    4.18
   6   1  -4   66.42    4.39
   6   1  -4   69.75    4.37
   6   1  -4   62.27    4.18
  -6  -1   4   66.77    3.90
  -6  -1   4   72.48    4.25
  -6  -1   4   64.16    4.38
  -6  -1   4   71.81    4.29
   5   1  -4  183.63   11.23
   5   1  -4  211.92   11.43
   5   1  -4  208.41   11.26
  -5  -1   4  181.12   11.37
  -5  -1   4  197.47   11.26
  -5  -1   4  184.01   11.04
   4   1  -4   12.32    0.95
   4   1  -4   11.64    0.98
   4   1  -4   11.18    0.80
   4   1  -4   11.06    1.08
   4   1  -4   12.59    1.14
  -4  -1   4   12.87    1.15
  -4  -1   4   13.22    1.01
  -4  -1   4   10.78    0.82
  -4  -1   4   11.36    0.97
   3   1  -4  179.77   10.03
   3   1  -4  177.38    9.87
   3   1  -4  171.06    9.91
   3   1  -4  184.86   10.09
   3   1  -4  170.52    9.95
  -3  -1   4  158.07   10.04
  -3  -1   4  151.17    9.86
  -3  -1   4  179.10    9.93
  -3  -1   4  186.34    9.97
   2   1  -4  154.42    8.82
   2   1  -4  168.93    8.79
   2   1  -4  145.03    8.74
   2   1  -4  158.25    8.92
  -2  -1   4  141.95    8.89
  -2  -1   4  155.50    8.82
  -2  -1   4  147.94    8.79
  -2  -1   4  156.91    8.75
   1   1  -4  392.45   20.67
   1   1  -4  356.80   20.59
   1   1  -4  354.95   20.61
   1   1  -4  374.58   20.62
  -1  -1   4  351.64   20.64
  -1  -1   4  344.57   20.61
  -1  -1   4  370.48   20.59
   0   1  -4   39.37    2.32
   0   1  -4   38.34    2.38
   0   1  -4   39.44    2.29
   0   1  -4   38.35    2.40
   0   1  -4   40.97    2.37
   0  -1   4   39.22    2.41
   0  -1   4   40.23    2.28
   0  -1   4   42.28    2.33
  -1   1  -4   91.03    5.29
  -1   1  -4   93.56    5.25
  -1   1  -4   89.75    5.25
  -1   1  -4   95.46    5.31
  -1   1  -4   88.46    5.17
   1  -1   4   89.68    5.25
   1  -1   4   84.99    5.29
   1  -1   4   93.33    5.27
   1  -1   4   93.25    5.17
  -2   1  -4  121.67    7.14
  -2   1  -4  113.89    7.08
  -2   1  -4  118.01    7.11
  -2   1  -4  130.03    7.15
   2  -1   4  129.00    7.12
   2  -1   4  124.55    7.13
   2  -1   4  122.73    7.15
   2  -1   4  125.57    7.08
  -3   1  -4  414.73   23.55
  -3   1  -4  414.69   23.60
  -3   1  -4  417.11   23.53
  -3   1  -4  403.36   23.50
   3  -1   4  424.70   23.52
   3  -1   4  410.61   23.34
   3  -1   4  388.96   23.59
   3  -1   4  434.50   23.50
   3  -1   4  422.53   23.35
   3  -1   4  409.02   23.52
  -4   1  -4   47.23    2.83
  -4   1  -4   46.32    2.93
  -4   1  -4   43.48    2.78
  -4   1  -4   43.31    2.79
   4  -1   4   45.33    2.76
   4  -1   4   44.03    2.60
   4  -1   4   38.56    2.88
   4  -1   4   45.49    2.59
   4  -1   4   45.51    2.78
  -5   1  -4  249.38   13.44
  -5   1  -4  238.94   13.57
  -5   1  -4  220.28   13.39
  -5   1  -4  230.31   13.41
   5  -1   4  226.37   13.19
   5  -1   4  210.20   13.52
   5  -1   4  240.54   13.38
   5  -1   4  240.48   13.39
  -6   1  -4   42.39    2.93
  -6   1  -4   42.31    2.89
  -6   1  -4   45.03    3.13
  -6   1  -4   45.40    2.91
   6  -1   4   41.97    2.61
   6  -1   4   38.97    3.05
   6  -1   4   45.37    2.90
   6  -1   4   42.45    2.85
  -7   1  -4   74.27    4.48
  -7   1  -4   65.87    4.45
  -7   1  -4   61.02    4.46
   7  -1   4   70.66    4.13
   7  -1   4   69.43    4.47
   7  -1   4   67.41    4.13
   7  -1   4   79.84    4.53
   7  -1   4   65.69    4.66
  -8   1  -4   29.85    2.59
  -8   1  -4   31.03    2.26
  -8   1  -4   28.92    2.69
   8  -1   4   26.23    2.86
   8   0  -4   47.16    3.41
   8   0  -4   48.93    3.36
   8   0  -4   49.08    3.54
  -8   0   4   49.19    3.02
  -8   0   4   47.74    3.67
  -8   0   4   56.21    3.61
   7   0  -4   38.84    2.98
   7   0  -4   39.29    2.67
   7   0  -4   42.95    2.82
  -7   0   4   41.71    2.78
  -7   0   4   38.41    2.68
  -7   0   4   39.48    2.47
  -7   0   4   36.84    2.43
  -7   0   4   35.10    2.86
   6   0  -4   68.40    4.54
   6   0  -4   79.38    4.63
   6   0  -4   73.87    4.55
   6   0  -4   74.77    4.74
  -6   0   4   71.82    4.39
  -6   0   4   75.29    4.61
  -6   0   4   78.35    4.57
   5   0  -4   43.03    2.86
   5   0  -4   46.38    2.93
   5   0  -4   47.41    3.07
   5   0  -4   42.05    2.86
  -5   0   4   47.47    2.90
  -5   0   4   48.71    2.90
  -5   0   4   44.23    3.02
  -5   0   4   46.01    2.77
   4   0  -4  290.77   15.20
   4   0  -4  247.04   15.04
   4   0  -4  269.89   15.08
   4   0  -4  268.35   14.99
   4   0  -4  254.76   15.03
  -4   0   4  244.99   15.14
  -4   0   4  245.12   15.02
  -4   0   4  263.46   14.99
  -4   0   4  284.58   15.07
   3   0  -4  127.10    7.07
   3   0  -4  121.63    6.92
   3   0  -4  119.62    6.91
   3   0  -4  120.01    6.96
   3   0  -4  128.32    6.95
  -3   0   4  123.38    6.90
  -3   0   4  113.96    6.92
  -3   0   4  105.92    7.02
   2   0  -4  183.19   10.68
   2   0  -4  201.67   10.73
   2   0  -4  180.25   10.62
   2   0  -4  202.18   10.79
  -2   0   4  184.87   10.68
  -2   0   4  173.55   10.70
  -2   0   4  185.71   10.76
  -2   0   4  186.84   10.62
   1   0  -4   63.84    3.75
   1   0  -4   67.30    3.81
   1   0  -4   65.86    3.74
   1   0  -4   68.45    3.79
  -1   0   4   67.23    3.74
  -1   0   4   61.65    3.80
  -1   0   4   60.69    3.75
  -1   0   4   59.49    3.67
  -1   0   4   63.21    3.72
   0   0  -4  320.74   17.74
   0   0  -4  315.47   17.73
   0   0  -4  303.96   17.73
   0   0  -4  319.55   17.84
   0   0  -4  317.91   17.80
   0   0   4  298.92   17.83
   0   0   4  327.81   17.79
   0   0   4  298.13   17.75
   0   0   4  318.62   17.72
  -1   0  -4  298.80   16.62
  -1   0  -4  282.07   16.73
  -1   0  -4  291.33   16.66
  -1   0  -4  308.82   16.77
  -1   0  -4  290.98   16.72
   1   0   4  307.41   16.62
   1   0   4  275.38   16.74
   1   0   4  284.66   16.73
   1   0   4  306.67   16.73
  -2   0  -4  187.62   10.63
  -2   0  -4  193.83   10.72
  -2   0  -4  178.54   10.70
  -2   0  -4  182.32   10.73
   2   0   4  189.10   10.69
   2   0   4  192.26   10.62
   2   0   4  180.42   10.67
   2   0   4  181.99   10.74
   2   0   4  188.78   10.55
  -3   0  -4   62.84    3.95
  -3   0  -4   66.19    4.01
  -3   0  -4   67.90    3.95
  -3   0  -4   64.47    3.88
   3   0   4   66.55    3.86
   3   0   4   63.22    4.02
   3   0   4   69.50    3.95
   3   0   4   67.07    3.77
   3   0   4   60.35    3.75
   3   0   4   62.33    3.87
  -4   0  -4  132.09    8.27
  -4   0  -4  150.59    8.41
  -4   0  -4  132.22    8.21
  -4   0  -4  151.15    8.28
   4   0   4  128.59    8.35
   4   0   4  146.76    8.19
   4   0   4  135.96    8.16
   4   0   4  135.65    8.07
   4   0   4  145.65    8.08
   4   0   4  151.68    8.29
  -5   0  -4   56.25    3.59
  -5   0  -4   55.41    3.38
  -5   0  -4   46.87    3.38
  -5   0  -4   48.10    3.35
   5   0   4   52.03    3.16
   5   0   4   57.82    3.34
   5   0   4   55.79    3.44
   5   0   4   50.26    3.16
  -6   0  -4  105.05    6.57
  -6   0  -4   97.63    6.35
  -6   0  -4   98.65    6.32
  -6   0  -4  111.51    6.28
   6   0   4  113.01    6.40
   6   0   4  106.82    6.08
   6   0   4  101.70    6.08
   6   0   4   91.38    6.46
   6   0   4  107.10    6.27
  -7   0  -4   65.91    3.93
  -7   0  -4   53.31    4.04
  -7   0  -4   58.60    4.08
   7   0   4   63.90    3.70
   7   0   4   58.60    3.67
   7   0   4   55.10    4.22
   9  -1  -4   71.05    4.53
   9  -1  -4   62.49    4.46
  -9   1   4   64.25    4.90
   8  -1  -4   26.16    2.27
   8  -1  -4   28.68    2.26
   8  -1  -4   28.62    2.25
  -8   1   4   30.26    2.37
  -8   1   4   26.46    1.94
  -8   1   4   29.98    2.27
  -8   1   4   27.68    2.50
   7  -1  -4  146.68    8.55
   7  -1  -4  126.95    8.31
   7  -1  -4  132.74    8.36
   7  -1  -4  147.47    8.30
  -7   1   4  155.52    8.42
  -7   1   4  137.42    8.20
  -7   1   4  148.81    8.33
  -7   1   4  130.73    8.47
   6  -1  -4   69.75    4.12
   6  -1  -4   59.64    3.92
   6  -1  -4   61.98    3.95
   6  -1  -4   63.96    3.89
  -6   1   4   68.24    3.93
  -6   1   4   65.19    3.97
  -6   1   4   58.20    4.05
  -6   1   4   60.39    3.83
   5  -1  -4  370.87   20.84
   5  -1  -4  378.88   20.83
   5  -1  -4  388.82   21.00
   5  -1  -4  370.27   20.77
   5  -1  -4  354.88   20.87
   5  -1  -4  361.31   20.87
  -5   1   4  373.09   20.85
  -5   1   4  348.69   20.81
  -5   1   4  344.35   20.95
   4  -1  -4  133.26    8.19
   4  -1  -4  147.25    8.18
   4  -1  -4  150.32    8.23
   4  -1  -4  140.35    8.12
   4  -1  -4  136.50    8.21
   4  -1  -4  148.15    8.31
  -4   1   4  145.50    8.19
  -4   1   4  128.88    8.27
  -4   1   4  144.59    8.19
  -4   1   4  140.48    8.20
   3  -1  -4  259.65   14.82
   3  -1  -4  267.77   14.92
   3  -1  -4  265.00   14.78
   3  -1  -4  270.99   14.89
   3  -1  -4  253.18   14.84
  -3   1   4  250.89   14.86
  -3   1   4  267.55   14.82
  -3   1   4  239.73   14.89
  -3   1   4  267.08   14.80
   2  -1  -4   31.79    1.92
   2  -1  -4   29.86    1.82
   2  -1  -4   28.29    1.84
   2  -1  -4   32.59    1.91
  -2   1   4   25.84    1.88
  -2   1   4   30.09    1.83
  -2   1   4   30.66    1.80
  -2   1   4   28.60    1.87
  -2   1   4   30.31    1.80
   1  -1  -4  367.72   20.85
   1  -1  -4  369.32   20.95
   1  -1  -4  381.66   20.86
   1  -1  -4  364.19   20.87
  -1   1   4  380.52   20.84
  -1   1   4  385.28   20.86
  -1   1   4  361.89   20.82
  -1   1   4  350.78   20.93
  -1   1   4  351.61   20.84
   0  -1  -4  331.00   18.26
   0  -1  -4  326.99   18.26
   0  -1  -4  303.66   18.35
   0  -1  -4  319.42   18.41
   0  -1  -4  314.95   18.33
   0  -1  -4  328.81   18.30
   0   1   4  327.22   18.35
   0   1   4  337.21   18.29
   0   1   4  312.70   18.41
   0   1   4  327.63   18.37
  -1  -1  -4  505.68   29.00
  -1  -1  -4  508.18   29.12
  -1  -1  -4  515.13   28.98
  -1  -1  -4  532.77   29.12
  -1  -1  -4  493.01   29.10
   1   1   4  482.22   29.11
   1   1   4  501.45   29.10
   1   1   4  535.74   29.10
   1   1   4  543.65   29.00
  -2  -1  -4   17.78    1.28
  -2  -1  -4   17.82    1.31
  -2  -1  -4   16.06    1.14
  -2  -1  -4   15.27    1.26
   2   1   4   19.11    1.28
   2   1   4   16.06    1.30
   2   1   4   17.00    1.12
   2   1   4   17.19    1.21
   2   1   4   17.19    1.11
  -3  -1  -4  196.68   11.84
  -3  -1  -4  214.72   11.81
  -3  -1  -4  179.10   11.70
  -3  -1  -4  219.08   11.94
   3   1   4  220.88   11.85
   3   1   4  212.35   11.70
   3   1   4  198.25   11.64
   3   1   4  205.42   11.72
   3   1   4  210.14   11.67
   3   1   4  187.03   11.88
  -4  -1  -4   54.69    3.72
  -4  -1  -4   61.55    3.65
  -4  -1  -4   54.87    3.60
  -4  -1  -4   62.44    3.87
   4   1   4   57.26    3.50
   4   1   4   63.16    3.74
   4   1   4   56.96    3.47
   4   1   4   57.25    3.80
   4   1   4   56.61    3.51
   4   1   4   59.57    3.56
  -5  -1  -4  154.20    9.06
  -5  -1  -4  144.03    9.10
  -5  -1  -4  161.01    9.39
  -5  -1  -4  150.92    9.23
   5   1   4  155.55    9.05
   5   1   4  168.69    9.25
   5   1   4  160.14    8.96
   5   1   4  156.15    8.94
   5   1   4  142.74    9.27
  -6  -1  -4   54.06    3.85
  -6  -1  -4   62.35    3.67
  -6  -1  -4   55.69    3.93
   6   1   4   53.70    3.54
   6   1   4   58.19    3.72
   6   1   4   58.86    3.60
   6   1   4   52.65    3.98
   6   1   4   63.66    4.04
  -7  -1  -4   86.57    5.73
  -7  -1  -4   86.31    5.76
   7   1   4   89.30    5.34
   7   1   4   85.34    6.04
   9  -2  -4   25.53    2.46
   9  -2  -4   26.76    2.43
  -9   2   4   24.46    2.64
  -9   2   4   28.73    2.70
   8  -2  -4  167.44    9.35
   8  -2  -4  156.32    9.59
   8  -2  -4  163.65    9.26
   8  -2  -4  153.55    9.53
  -8   2   4  150.85    9.68
  -8   2   4  169.63    9.61
  -8   2   4  167.99    9.48
  -8   2   4  154.91    9.40
   7  -2  -4   29.17    1.90
   7  -2  -4   29.52    2.23
   7  -2  -4   29.62    1.99
   7  -2  -4   29.89    2.37
  -7   2   4   31.82    2.14
  -7   2   4   32.28    2.22
  -7   2   4   28.29    2.32
  -7   2   4   27.60    2.04
   6  -2  -4  184.58   10.84
   6  -2  -4  199.32   10.90
   6  -2  -4  181.43   11.06
   6  -2  -4  200.57   11.17
   6  -2  -4  178.06   11.03
   6  -2  -4  193.87   11.06
  -6   2   4  185.87   10.99
  -6   2   4  185.31   11.13
  -6   2   4  189.51   10.99
  -6   2   4  200.55   11.06
   5  -2  -4   49.58    2.97
   5  -2  -4   44.41    2.86
   5  -2  -4   41.43    2.86
   5  -2  -4   46.09    2.89
   5  -2  -4   46.26    2.74
   5  -2  -4   45.22    2.70
  -5   2   4   48.35    2.87
  -5   2   4   43.36    2.94
  -5   2   4   43.33    2.85
   4  -2  -4  424.42   22.26
   4  -2  -4  386.73   22.06
   4  -2  -4  421.12   22.24
   4  -2  -4  358.16   22.17
  -4   2   4  401.73   22.15
  -4   2   4  393.35   22.16
  -4   2   4  365.90   22.19
  -4   2   4  367.17   22.22
   3  -2  -4   95.01    5.27
   3  -2  -4   85.21    5.18
   3  -2  -4   89.82    5.10
   3  -2  -4   87.80    5.18
  -3   2   4   89.87    5.07
  -3   2   4   90.77    5.15
  -3   2   4   82.27    5.22
  -3   2   4   90.14    5.15
  -3   2   4   82.32    5.18
   2  -2  -4  110.63    6.36
   2  -2  -4  107.61    6.27
   2  -2  -4  108.90    6.23
   2  -2  -4  106.50    6.23
  -2   2   4  102.25    6.25
  -2   2   4  103.00    6.33
  -2   2   4  112.17    6.22
  -2   2   4  103.97    6.22
  -2   2   4  116.66    6.26
   1  -2  -4   50.14    3.04
   1  -2  -4   49.28    3.06
   1  -2  -4   48.87    2.96
  -1   2   4   49.34    3.07
  -1   2   4   53.41    3.04
  -1   2   4   54.03    3.03
   0  -2  -4  414.10   23.81
   0  -2  -4  410.83   23.87
   0  -2  -4  415.98   23.89
   0  -2  -4  437.25   23.93
   0  -2  -4  421.32   23.71
   0  -2  -4  419.08   23.70
   0   2   4  406.23   23.91
   0   2   4  396.85   23.89
   0   2   4  443.56   23.81
   0   2   4  435.82   23.86
  -1  -2  -4   37.78    2.46
  -1  -2  -4   36.98    2.27
  -1  -2  -4   42.12    2.51
  -1  -2  -4   35.80    2.46
   1   2   4   39.43    2.35
   1   2   4   37.93    2.49
   1   2   4   36.96    2.43
   1   2   4   40.47    2.46
  -2  -2  -4  260.99   15.28
  -2  -2  -4  254.79   15.46
  -2  -2  -4  278.16   15.53
  -2  -2  -4  266.59   15.41
   2   2   4  283.01   15.25
   2   2   4  254.15   15.48
   2   2   4  272.73   15.31
   2   2   4  262.87   15.35
   2   2   4  283.03   15.45
  -3  -2  -4   55.20    3.65
  -3  -2  -4   62.13    3.74
  -3  -2  -4   55.88    3.84
  -3  -2  -4   64.14    3.93
   3   2   4   62.67    3.62
   3   2   4   64.64    3.66
   3   2   4   57.65    3.60
   3   2   4   58.61    3.89
   3   2   4   60.18    3.65
   3   2   4   63.92    3.84
  -4  -2  -4  192.12   10.83
  -4  -2  -4  173.83   10.72
  -4  -2  -4  170.01   10.55
  -4  -2  -4  183.38   10.52
   4   2   4  199.30   10.75
   4   2   4  183.81   10.59
   4   2   4  176.78   10.44
   4   2   4  193.98   10.50
   4   2   4  164.87   10.72
   4   2   4  177.03   10.43
  -5  -2  -4   23.93    1.74
  -5  -2  -4   22.26    1.94
  -5  -2  -4   19.49    2.09
   5   2   4   24.52    2.22
   5   2   4   21.94    1.68
   5   2   4   22.68    1.76
   5   2   4   23.50    1.77
   5   2   4   24.44    2.13
  -6  -2  -4   77.86    5.16
  -6  -2  -4   76.46    5.32
   6   2   4   79.30    5.34
   6   2   4   84.52    4.96
   6   2   4   77.80    4.85
   6   2   4   80.68    5.00
   9  -3  -4   73.57    4.94
   9  -3  -4   73.58    4.94
  -9   3   4   74.87    5.07
  -9   3   4   75.34    4.71
   8  -3  -4   15.49    1.67
   8  -3  -4   16.44    1.67
   8  -3  -4   16.90    1.95
  -8   3   4   16.89    1.57
  -8   3   4   15.81    1.51
  -8   3   4   14.82    1.65
  -8   3   4   13.10    1.74
   7  -3  -4   77.89    5.02
   7  -3  -4   83.31    5.07
  -7   3   4   75.66    5.05
  -7   3   4   84.05    4.90
  -7   3   4   73.56    4.90
  -7   3   4   86.70    5.01
   6  -3  -4   86.39    5.00
   6  -3  -4   72.23    4.91
   6  -3  -4   75.55    4.97
   6  -3  -4   86.35    5.02
  -6   3   4   86.26    4.89
  -6   3   4   75.50    4.97
  -6   3   4   81.51    4.93
  -6   3   4   83.81    4.95
   5  -3  -4  100.46    5.71
   5  -3  -4   92.03    5.68
   5  -3  -4  106.68    6.02
   5  -3  -4   93.71    5.91
   5  -3  -4  105.50    5.95
  -5   3   4   94.70    5.94
  -5   3   4   92.92    5.94
  -5   3   4  103.91    5.88
  -5   3   4  107.09    5.93
   4  -3  -4  112.81    6.55
   4  -3  -4  115.15    6.67
   4  -3  -4  119.49    6.81
   4  -3  -4  108.62    6.70
  -4   3   4  119.34    6.67
  -4   3   4  120.48    6.71
  -4   3   4  108.18    6.69
  -4   3   4  109.85    6.75
   3  -3  -4  235.38   13.93
   3  -3  -4  248.03   13.93
   3  -3  -4  272.17   14.15
   3  -3  -4  243.05   14.02
  -3   3   4  244.03   13.99
  -3   3   4  236.92   14.09
  -3   3   4  242.76   13.90
  -3   3   4  233.59   13.97
  -3   3   4  248.11   14.03
   2  -3  -4   67.72    4.18
   2  -3  -4   70.36    4.29
   2  -3  -4   72.48    4.17
   2  -3  -4   72.97    4.04
  -2   3   4   70.37    4.04
  -2   3   4   72.00    4.17
  -2   3   4   67.39    4.21
  -2   3   4   64.48    4.26
  -2   3   4   74.16    4.14
   1  -3  -4  309.49   17.73
   1  -3  -4  305.36   17.69
   1  -3  -4  320.21   17.80
  -1   3   4  290.06   17.77
  -1   3   4  332.14   17.69
  -1   3   4  324.34   17.69
  -1   3   4  291.30   17.73
   0  -3  -4   47.12    2.85
   0  -3  -4   40.76    2.81
   0  -3  -4   43.38    2.74
   0  -3  -4   46.90    2.84
   0   3   4   46.55    2.73
   0   3   4   41.19    2.82
   0   3   4   46.49    2.80
   0   3   4   42.44    2.82
  -1  -3  -4  229.44   12.45
  -1  -3  -4  205.83   12.48
  -1  -3  -4  223.39   12.52
  -1  -3  -4  198.79   12.22
   1   3   4  206.06   12.39
   1   3   4  236.87   12.48
   1   3   4  228.54   12.36
   1   3   4  194.75   12.47
  -2  -3  -4   66.10    4.08
  -2  -3  -4   64.99    3.90
  -2  -3  -4   58.19    4.02
  -2  -3  -4   57.55    3.77
   2   3   4   61.94    4.04
   2   3   4   64.94    3.70
   2   3   4   68.85    3.87
   2   3   4   60.62    3.84
   2   3   4   68.70    4.03
  -3  -3  -4   46.50    3.33
  -3  -3  -4   50.33    3.09
  -3  -3  -4   56.11    3.45
  -3  -3  -4   42.92    3.05
   3   3   4   51.23    3.11
   3   3   4   52.77    3.34
   3   3   4   45.57    3.30
   3   3   4   45.78    3.01
   3   3   4   48.45    3.01
   3   3   4   50.58    2.96
  -4  -3  -4   53.03    3.63
  -4  -3  -4   46.24    3.19
  -4  -3  -4   48.05    3.06
  -4  -3  -4   49.50    3.51
   4   3   4   50.95    3.18
   4   3   4   42.97    3.38
   4   3   4   47.99    2.98
   4   3   4   52.49    3.52
  -5  -3  -4   60.89    4.10
  -5  -3  -4   65.50    4.44
   5   3   4   62.77    3.90
   5   3   4   59.56    3.87
   5   3   4   61.46    4.01
   5   3   4   61.26    4.30
   9  -4  -4   59.18    4.20
   9  -4  -4   58.02    4.11
  -9   4   4   61.09    3.97
  -9   4   4   57.77    4.23
   8  -4  -4  111.22    7.36
   8  -4  -4  131.57    7.55
   8  -4  -4  118.66    7.51
  -8   4   4  119.27    7.49
  -8   4   4  134.52    7.50
  -8   4   4  114.65    7.34
  -8   4   4  124.79    7.32
   7  -4  -4   86.48    5.54
   7  -4  -4   94.54    5.60
  -7   4   4   84.59    5.53
  -7   4   4   94.17    5.49
  -7   4   4   92.72    5.60
   6  -4  -4  266.19   14.34
   6  -4  -4  257.39   14.20
   6  -4  -4  225.53   14.19
  -6   4   4  224.43   14.19
  -6   4   4  251.13   14.15
  -6   4   4  259.93   14.24
  -6   4   4  235.89   14.23
   5  -4  -4   58.71    3.60
   5  -4  -4   58.86    3.79
   5  -4  -4   54.79    3.65
  -5   4   4   55.12    3.71
  -5   4   4   63.66    3.65
  -5   4   4   58.66    3.66
  -5   4   4   62.58    3.70
   4  -4  -4  115.26    6.39
   4  -4  -4   99.57    6.07
   4  -4  -4  100.39    6.23
   4  -4  -4  106.14    6.11
  -4   4   4  104.55    6.18
  -4   4   4  100.44    6.30
  -4   4   4  102.65    6.04
  -4   4   4  113.47    6.21
  -4   4   4  106.49    6.28
   3  -4  -4   65.21    3.63
   3  -4  -4   67.26    3.95
   3  -4  -4   60.42    3.73
   3  -4  -4   58.30    3.80
  -3   4   4   60.95    3.84
  -3   4   4   63.42    3.69
  -3   4   4   60.34    3.67
  -3   4   4   64.72    3.79
  -3   4   4   61.91    3.91
   2  -4  -4  388.81   21.26
   2  -4  -4  365.16   21.08
   2  -4  -4  373.22   21.10
  -2   4   4  378.70   21.04
  -2   4   4  350.06   21.17
  -2   4   4  382.81   21.07
  -2   4   4  350.95   21.13
   1  -4  -4   98.93    6.34
   1  -4  -4  118.37    6.42
   1  -4  -4  100.01    6.30
  -1   4   4  101.08    6.38
  -1   4   4  104.78    6.38
  -1   4   4  113.77    6.30
  -1   4   4  112.35    6.32
   0  -4  -4   47.04    2.88
   0  -4  -4   43.43    2.90
   0  -4  -4   45.70    2.96
   0   4   4   45.86    2.81
   0   4   4   40.76    2.91
   0   4   4   47.29    2.88
   0   4   4   40.40    2.85
  -1  -4  -4   62.72    3.96
  -1  -4  -4   67.59    4.16
  -1  -4  -4   60.28    4.09
   1   4   4   58.68    4.07
   1   4   4   70.63    3.97
   1   4   4   61.25    3.94
   1   4   4   68.96    4.08
  -2  -4  -4  200.49   11.51
  -2  -4  -4  183.84   11.34
  -2  -4  -4  187.69   11.75
  -2  -4  -4  218.86   11.85
   2   4   4  191.33   11.48
   2   4   4  218.09   11.74
   2   4   4  181.48   11.69
   2   4   4  213.12   11.57
  -3  -4  -4   73.33    4.76
  -3  -4  -4   76.79    5.17
  -3  -4  -4   85.64    4.80
   3   4   4   77.03    4.78
   3   4   4   83.75    4.93
   3   4   4   81.73    4.74
   3   4   4   83.01    4.65
   3   4   4   72.40    5.07
  -4  -4  -4  127.18    7.91
  -4  -4  -4  121.31    7.47
   4   4   4  120.38    7.42
   4   4   4  122.18    7.78
   4   4   4  125.57    7.26
   4   4   4  129.80    7.53
   4   4   4  132.62    7.61
   9  -5  -4  103.81    6.71
  -9   5   4  107.55    6.84
  -9   5   4  109.73    6.71
   8  -5  -4   44.17    3.10
   8  -5  -4   40.14    3.02
  -8   5   4   40.42    3.09
  -8   5   4   44.54    3.22
  -8   5   4   36.52    3.01
  -8   5   4   49.53    3.03
   7  -5  -4   97.45    6.13
   7  -5  -4  109.46    6.13
  -7   5   4  108.04    6.22
  -7   5   4  101.63    6.07
  -7   5   4   95.24    6.14
  -7   5   4   91.13    6.15
   6  -5  -4   32.55    2.44
   6  -5  -4   34.24    2.18
   6  -5  -4   30.54    2.27
  -6   5   4   32.85    2.22
  -6   5   4   31.55    2.33
  -6   5   4   30.56    2.24
  -6   5   4   31.38    2.34
   5  -5  -4  181.41   10.21
   5  -5  -4  161.10   10.33
   5  -5  -4  174.13   10.48
  -5   5   4  197.94   10.33
  -5   5   4  186.41   10.41
  -5   5   4  162.70   10.25
   4  -5  -4   36.05    2.55
   4  -5  -4   44.55    2.75
   4  -5  -4   38.97    2.42
   4  -5  -4   40.37    2.33
  -4   5   4   44.42    2.55
  -4   5   4   34.93    2.66
  -4   5   4   38.15    2.60
  -4   5   4   38.94    2.34
  -4   5   4   35.55    2.38
  -4   5   4   33.83    2.54
   3  -5  -4  292.10   17.27
   3  -5  -4  292.18   17.20
   3  -5  -4  328.35   17.41
  -3   5   4  326.36   17.25
  -3   5   4  286.29   17.30
  -3   5   4  271.56   17.33
  -3   5   4  308.68   17.15
   2  -5  -4   86.16    5.30
   2  -5  -4   92.96    5.40
   2  -5  -4   86.15    5.30
  -2   5   4   91.52    5.27
  -2   5   4   83.73    5.35
  -2   5   4   81.97    5.37
  -2   5   4   91.88    5.24
   1  -5  -4  235.02   12.99
   1  -5  -4  211.41   12.98
  -1   5   4  236.25   12.92
  -1   5   4  237.02   12.95
  -1   5   4  206.21   12.97
  -1   5   4  215.34   13.02
   0  -5  -4   31.87    2.78
   0  -5  -4   35.68    2.42
   0   5   4   32.40    2.52
   0   5   4   38.92    2.43
   0   5   4   37.15    2.48
   0   5   4   34.83    2.43
  -1  -5  -4  135.03    7.77
  -1  -5  -4  120.70    7.99
  -1  -5  -4  140.78    8.09
   1   5   4  119.46    7.94
   1   5   4  139.30    7.97
   1   5   4  131.02    7.78
   1   5   4  136.62    7.84
  -2  -5  -4   34.05    2.86
  -2  -5  -4   38.09    2.44
   2   5   4   32.87    2.76
   2   5   4   34.23    2.43
   2   5   4   36.37    2.38
   2   5   4   39.67    2.70
  -3  -5  -4   84.26    5.73
   3   5   4   82.81    5.59
   3   5   4   86.31    5.26
   3   5   4   88.50    5.08
   9  -6  -4   23.88    2.45
  -9   6   4   23.61    2.49
  -9   6   4   25.34    2.47
   8  -6  -4   90.19    6.07
   8  -6  -4  103.18    6.06
  -8   6   4   99.77    6.10
  -8   6   4   95.54    6.14
   7  -6  -4   56.97    3.94
   7  -6  -4   61.34    3.83
  -7   6   4   57.85    3.89
  -7   6   4   65.86    3.94
  -7   6   4   57.66    4.01
  -7   6   4   60.63    4.06
   6  -6  -4  170.85    9.96
   6  -6  -4  155.45    9.76
   6  -6  -4  173.91    9.63
  -6   6   4  176.30    9.87
  -6   6   4  155.80    9.83
  -6   6   4  172.75    9.72
  -6   6   4  152.48    9.64
   5  -6  -4   28.01    2.17
   5  -6  -4   31.58    1.89
   5  -6  -4   29.23    1.88
   5  -6  -4   31.95    2.40
  -5   6   4   27.26    2.18
  -5   6   4   28.85    1.98
  -5   6   4   29.13    2.13
  -5   6   4   28.27    1.80
  -5   6   4   28.82    2.30
  -5   6   4   32.80    2.30
   4  -6  -4  116.07    6.99
   4  -6  -4  131.06    7.30
   4  -6  -4  111.38    7.11
  -4   6   4  119.47    6.90
  -4   6   4  123.54    7.22
  -4   6   4  114.28    7.22
  -4   6   4  123.41    7.09
  -4   6   4  112.18    7.14
   3  -6  -4   32.36    2.36
   3  -6  -4   34.18    2.42
   3  -6  -4   37.20    2.57
  -3   6   4   36.52    2.27
  -3   6   4   35.72    2.38
  -3   6   4   30.56    2.50
  -3   6   4   33.71    2.46
   2  -6  -4   89.60    5.83
   2  -6  -4  107.48    5.93
  -2   6   4  101.45    5.77
  -2   6   4   86.95    5.91
  -2   6   4   90.92    5.89
  -2   6   4   97.99    5.80
   1  -6  -4   33.83    2.42
   1  -6  -4   29.63    2.51
  -1   6   4   32.61    2.47
  -1   6   4   38.17    2.46
  -1   6   4   36.95    2.46
  -1   6   4   31.48    2.47
   0  -6  -4  113.28    6.72
   0  -6  -4  104.79    6.91
   0   6   4  119.70    6.82
   0   6   4  120.53    6.89
   0   6   4  107.40    6.92
   0   6   4  106.17    6.74
  -1  -6  -4   21.63    2.38
  -1  -6  -4   24.42    1.90
   1   6   4   25.03    1.88
   1   6   4   24.17    2.24
  -2  -6  -4   57.07    4.60
   2   6   4   63.19    4.05
   2   6   4   61.96    4.48
   2   6   4   68.05    3.93
   8  -7  -4   44.03    3.06
   8  -7  -4   43.08    3.23
  -8   7   4   38.97    3.24
  -8   7   4   40.99    3.08
   7  -7  -4   76.79    5.12
   7  -7  -4   87.92    4.90
  -7   7   4   75.27    5.18
  -7   7   4   77.11    4.94
   6  -7  -4   20.35    1.41
   6  -7  -4   17.18    1.83
  -6   7   4   16.33    1.91
  -6   7   4   19.72    1.58
  -6   7   4   16.84    1.81
   5  -7  -4  164.97    9.34
   5  -7  -4  136.15    8.55
  -5   7   4  147.77    8.69
  -5   7   4  140.74    8.20
  -5   7   4  137.13    8.59
  -5   7   4  134.06    8.67
   4  -7  -4   84.98    5.24
   4  -7  -4   94.74    5.56
   4  -7  -4   79.50    5.33
  -4   7   4   81.96    5.37
  -4   7   4   80.47    5.43
  -4   7   4   91.21    5.54
  -4   7   4   85.14    5.10
   3  -7  -4   99.76    5.80
   3  -7  -4   87.36    5.66
  -3   7   4   89.12    5.75
  -3   7   4   85.98    5.75
  -3   7   4   95.18    5.54
   2  -7  -4   44.23    3.13
   2  -7  -4   44.00    3.07
  -2   7   4   43.07    2.95
  -2   7   4   43.27    3.12
  -2   7   4   39.91    3.04
   1  -7  -4   79.02    5.38
   1  -7  -4   85.84    5.21
  -1   7   4   78.15    5.36
  -1   7   4   81.91    5.26
  -1   7   4   89.14    5.32
   0  -7  -4   69.77    4.35
   0  -7  -4   64.01    4.71
   0   7   4   69.93    4.38
   0   7   4   65.30    4.61
   7  -8  -4   31.29    2.90
  -7   8   4   32.58    2.86
  -7   8   4   35.82    4.23
   6  -8  -4   72.14    4.75
  -6   8   4   69.10    4.87
  -6   8   4   71.63    4.80
   5  -8  -4   78.40    5.06
  -5   8   4   80.75    5.10
  -5   8   4   71.48    5.13
   4  -8  -4  110.73    6.54
  -4   8   4  110.73    6.31
  -4   8   4   95.82    6.67
  -4   8   4  102.78    6.64
   3  -8  -4   33.59    2.71
  -3   8   4   31.79    2.67
  -3   8   4   30.36    2.70
  -3   8   4   30.99    2.45
   2  -8  -4   49.09    3.98
  -2   8   4   56.56    3.84
  -1   9  -5   33.26    2.49
  -1   9  -5   33.76    2.66
  -1   9  -5   34.11    2.41
  -1   9  -5   34.60    2.61
  -1   9  -5   32.63    2.39
  -2   9  -5  105.78    6.08
  -2   9  -5  100.49    6.14
  -2   9  -5   93.84    5.99
  -2   9  -5  101.16    6.45
  -2   9  -5  107.20    6.21
  -2   9  -5   98.77    6.04
  -2   9  -5   94.03    6.11
  -3   9  -5   20.09    1.80
  -3   9  -5   21.19    2.08
  -3   9  -5   18.82    1.74
  -3   9  -5   19.47    1.95
  -3   9  -5   16.70    1.83
  -3   9  -5   19.19    1.62
  -3   9  -5   21.00    2.60
  -3   9  -5   19.03    1.79
  -3   9  -5   18.13    1.76
  -3   9  -5   19.24    1.63
  -4   9  -5  122.74    6.98
  -4   9  -5  112.88    6.96
  -4   9  -5  115.17    6.91
  -4   9  -5  107.77    6.80
  -4   9  -5  120.83    6.97
  -4   9  -5  103.65    6.77
  -4   9  -5  124.04    6.86
  -4   9  -5  103.84    6.99
  -5   9  -5   44.03    2.98
  -5   9  -5   41.10    2.91
  -5   9  -5   41.58    2.91
  -5   9  -5   47.03    2.95
  -5   9  -5   40.21    2.76
  -5   9  -5   41.25    3.22
  -6   9  -5   76.23    4.59
  -6   9  -5   81.48    4.82
  -6   9  -5   76.59    5.16
  -6   9  -5   74.36    4.89
  -7   9  -5   20.45    2.42
  -7   9  -5   18.60    1.99
   1   8  -5   49.61    3.66
   1   8  -5   55.85    3.61
   1   8  -5   61.48    3.80
   0   8  -5    8.31    0.98
   0   8  -5    9.90    1.50
   0   8  -5   10.05    0.93
   0   8  -5   10.37    1.16
   0   8  -5    8.38    1.24
  -1   8  -5  134.06    7.56
  -1   8  -5  133.45    7.83
  -1   8  -5  127.13    7.39
  -1   8  -5  130.58    7.66
  -1   8  -5  124.56    7.43
  -1   8  -5  124.62    7.46
  -1   8  -5  117.93    7.51
  -1   8  -5  119.16    7.43
  -2   8  -5   79.80    5.10
  -2   8  -5   75.94    4.93
  -2   8  -5   77.57    4.94
  -2   8  -5   77.29    4.83
  -2   8  -5   78.62    4.84
  -2   8  -5   85.57    5.17
  -2   8  -5   80.64    4.98
  -2   8  -5   82.71    4.88
  -2   8  -5   83.10    4.93
  -3   8  -5   82.42    5.00
  -3   8  -5   85.77    5.19
  -3   8  -5   78.07    4.92
  -3   8  -5   76.11    5.11
  -3   8  -5   87.10    4.97
  -3   8  -5   82.71    5.03
  -3   8  -5   75.75    4.95
  -3   8  -5   78.91    4.88
  -3   8  -5   81.54    5.13
  -3   8  -5   86.56    5.03
  -4   8  -5   48.44    3.17
  -4   8  -5   48.83    3.04
  -4   8  -5   49.88    3.08
  -4   8  -5   43.15    2.98
  -4   8  -5   43.83    3.05
  -4   8  -5   49.39    3.14
  -4   8  -5   45.97    3.26
  -4   8  -5   48.21    3.34
  -5   8  -5  106.08    6.20
  -5   8  -5  107.67    6.52
  -5   8  -5   99.83    6.43
  -5   8  -5  108.45    6.41
  -5   8  -5  108.28    6.19
  -5   8  -5   99.86    6.26
  -5   8  -5   97.08    6.09
  -6   8  -5   77.55    4.74
  -6   8  -5   77.47    4.96
  -6   8  -5   77.08    5.15
  -6   8  -5   84.11    4.80
  -6   8  -5   76.38    4.67
  -6   8  -5   84.18    5.31
  -7   8  -5   79.48    4.66
  -7   8  -5   78.50    5.14
  -7   8  -5   74.08    4.94
  -8   8  -5   28.83    2.90
  -8   8  -5   33.19    2.70
   3   7  -5   23.07    2.11
   3   7  -5   23.66    2.40
   3   7  -5   24.52    2.07
   2   7  -5   80.26    5.28
   2   7  -5   90.34    5.42
   2   7  -5   86.10    5.25
   1   7  -5   44.01    3.05
   1   7  -5   46.96    3.45
   1   7  -5   45.03    2.61
   1   7  -5   44.56    3.19
   1   7  -5   44.60    2.89
   1   7  -5   41.94    2.95
   1   7  -5   42.58    2.63
   0   7  -5   80.56    4.92
   0   7  -5   74.40    4.66
   0   7  -5   76.69    4.74
   0   7  -5   83.66    4.88
   0   7  -5   81.81    4.64
   0   7  -5   81.44    5.09
   0   7  -5   71.64    4.78
  -1   7  -5   36.72    2.62
  -1   7  -5   39.85    2.46
  -1   7  -5   37.07    2.55
  -1   7  -5   37.39    2.51
  -1   7  -5   41.39    2.81
  -1   7  -5   39.68    2.59
  -2   7  -5  135.97    8.61
  -2   7  -5  151.39    8.58
  -2   7  -5  151.94    8.58
  -2   7  -5  142.06    8.60
  -2   7  -5  142.81    8.56
  -2   7  -5  151.74    8.76
  -2   7  -5  153.99    8.72
  -2   7  -5  142.08    8.50
  -2   7  -5  149.89    8.62
  -3   7  -5   64.29    4.06
  -3   7  -5   65.87    4.10
  -3   7  -5   65.69    3.97
  -3   7  -5   67.49    3.91
  -3   7  -5   60.34    3.91
  -3   7  -5   59.31    3.90
  -3   7  -5   64.36    3.92
  -4   7  -5  129.26    7.50
  -4   7  -5  130.66    7.60
  -4   7  -5  120.27    7.42
  -4   7  -5  114.83    7.33
  -4   7  -5  135.19    7.49
  -5   7  -5   21.76    1.57
  -5   7  -5   22.35    1.90
  -5   7  -5   24.10    1.97
  -5   7  -5   22.64    1.69
  -5   7  -5   21.18    1.54
  -5   7  -5   24.40    1.87
  -6   7  -5  109.64    6.71
  -6   7  -5  103.84    6.80
  -6   7  -5  106.31    6.44
  -6   7  -5  113.15    6.90
  -6   7  -5  117.25    6.47
  -6   7  -5  117.31    6.85
  -6   7  -5  109.96    6.51
  -7   7  -5   33.37    2.04
  -7   7  -5   31.63    2.05
  -7   7  -5   31.93    1.98
  -7   7  -5   31.12    2.58
  -7   7  -5   30.82    2.42
  -8   7  -5   79.94    5.18
  -8   7  -5   80.49    5.23
   8  -7   5   76.73    5.37
   4   6  -5   36.28    2.66
   4   6  -5   32.73    2.62
   4   6  -5   37.33    2.99
  -4  -6   5   37.61    2.87
   3   6  -5  160.76    8.69
   3   6  -5  139.80    8.50
   3   6  -5  135.89    8.53
  -3  -6   5  140.70    8.63
   2   6  -5   20.49    1.83
   2   6  -5   21.91    1.65
   2   6  -5   21.58    2.10
   2   6  -5   19.40    1.57
  -2  -6   5   18.89    1.71
   1   6  -5  147.78    8.75
   1   6  -5  151.48    8.95
   1   6  -5  162.16    9.22
   1   6  -5  156.67    9.03
   1   6  -5  148.18    8.90
   1   6  -5  152.56    8.73
   0   6  -5   24.30    1.58
   0   6  -5   23.23    1.46
   0   6  -5   20.81    1.49
   0   6  -5   22.38    1.83
   0   6  -5   20.66    1.52
   0   6  -5   15.87    2.10
  -1   6  -5  214.43   11.81
  -1   6  -5  210.43   11.74
  -1   6  -5  190.43   11.70
  -1   6  -5  207.23   11.89
  -1   6  -5  209.64   11.68
  -1   6  -5  192.83   11.65
  -1   6  -5  194.38   11.71
  -1   6  -5  207.69   11.75
  -2   6  -5   70.71    4.61
  -2   6  -5   81.95    4.65
  -2   6  -5   81.46    4.74
  -2   6  -5   72.56    4.55
  -2   6  -5   77.25    4.64
  -2   6  -5   79.77    4.78
  -2   6  -5   81.39    4.66
  -2   6  -5   81.13    4.62
  -2   6  -5   73.96    4.66
  -2   6  -5   74.44    4.69
  -3   6  -5  230.62   14.30
  -3   6  -5  250.13   14.53
  -3   6  -5  262.02   14.43
  -3   6  -5  237.02   14.33
  -3   6  -5  261.20   14.39
  -3   6  -5  258.05   14.29
  -4   6  -5   76.08    4.56
  -4   6  -5   84.97    4.84
  -4   6  -5   73.63    4.68
  -4   6  -5   74.65    4.59
  -4   6  -5   79.13    4.76
  -5   6  -5  117.33    6.41
  -5   6  -5  103.24    6.30
  -5   6  -5   96.34    6.06
  -5   6  -5   98.24    6.22
  -5   6  -5  106.19    6.03
  -6   6  -5   18.79    1.60
  -6   6  -5   17.04    1.67
  -6   6  -5   17.48    1.29
  -6   6  -5   18.82    1.70
  -6   6  -5   18.27    1.75
  -6   6  -5   19.29    1.24
   6  -6   5   19.76    1.74
  -7   6  -5  215.61   11.93
  -7   6  -5  200.03   11.32
  -7   6  -5  216.58   11.88
  -7   6  -5  180.49   11.72
  -7   6  -5  198.93   11.39
  -7   6  -5  185.28   11.68
   7  -6   5  197.19   11.85
  -8   6  -5   47.04    2.88
  -8   6  -5   42.01    3.36
  -8   6  -5   48.72    3.43
   8  -6   5   50.57    3.66
   5   5  -5   29.59    2.47
   5   5  -5   33.02    2.48
  -5  -5   5   36.75    2.85
  -5  -5   5   32.53    2.74
   4   5  -5  145.65    8.38
   4   5  -5  133.55    8.20
   4   5  -5  130.21    8.18
  -4  -5   5  155.83    8.37
  -4  -5   5  127.22    8.33
   3   5  -5   31.29    2.55
   3   5  -5   28.65    2.13
   3   5  -5   31.38    2.37
   3   5  -5   29.49    2.13
  -3  -5   5   35.14    2.33
  -3  -5   5   30.26    2.34
   2   5  -5  107.06    6.56
   2   5  -5  101.33    6.65
   2   5  -5  119.20    6.71
   2   5  -5  118.42    6.83
  -2  -5   5  110.27    6.67
   1   5  -5   75.48    4.65
   1   5  -5   74.85    4.75
   1   5  -5   81.32    5.00
   1   5  -5   87.28    4.80
   1   5  -5   80.19    4.64
   1   5  -5   85.81    4.94
  -1  -5   5   76.02    4.84
   0   5  -5  181.30   11.40
   0   5  -5  212.66   11.67
   0   5  -5  189.67   11.42
   0   5  -5  211.57   11.53
   0   5  -5  201.93   11.39
  -1   5  -5   87.60    5.02
  -1   5  -5   86.36    4.90
  -1   5  -5   72.60    4.80
  -1   5  -5   85.92    4.84
  -1   5  -5   75.67    4.78
  -1   5  -5   84.64    4.87
  -2   5  -5  139.78    8.42
  -2   5  -5  149.83    8.48
  -2   5  -5  142.47    8.52
  -2   5  -5  152.56    8.51
  -2   5  -5  135.48    8.51
  -2   5  -5  152.76    8.58
  -2   5  -5  157.18    8.56
  -3   5  -5   63.68    4.02
  -3   5  -5   72.37    4.16
  -3   5  -5   68.65    3.97
  -3   5  -5   64.78    4.07
  -3   5  -5   69.05    4.45
  -4   5  -5  297.43   17.62
  -4   5  -5  306.08   17.54
  -4   5  -5  306.35   17.72
  -4   5  -5  334.88   17.80
   4  -5   5  303.36   17.77
  -5   5  -5   63.51    4.01
  -5   5  -5   68.46    4.14
  -5   5  -5   62.27    3.87
  -5   5  -5   63.28    3.75
  -5   5  -5   67.89    4.11
   5  -5   5   64.11    4.09
  -6   5  -5  230.93   13.02
  -6   5  -5  211.07   12.92
  -6   5  -5  213.79   12.73
  -6   5  -5  204.47   12.59
  -6   5  -5  238.76   13.09
   6  -5   5  242.47   12.76
   6  -5   5  238.48   12.92
   6  -5   5  200.90   13.05
  -7   5  -5   65.19    4.44
  -7   5  -5   65.99    4.17
  -7   5  -5   63.59    4.42
  -7   5  -5   74.15    4.63
  -7   5  -5   73.75    4.62
   7  -5   5   76.67    4.20
   7  -5   5   74.06    4.47
   7  -5   5   63.96    4.57
  -8   5  -5   64.02    3.93
  -8   5  -5   60.50    4.30
  -8   5  -5   61.91    4.25
   8  -5   5   59.57    4.48
   8  -5   5   72.04    3.96
   6   4  -5   14.48    1.68
   6   4  -5   14.28    1.67
  -6  -4   5   15.62    2.13
  -6  -4   5   16.04    2.23
   5   4  -5   83.15    5.19
   5   4  -5   81.99    4.94
   5   4  -5   77.77    4.93
  -5  -4   5   78.18    5.02
  -5  -4   5   77.88    5.13
   4   4  -5   27.94    2.38
   4   4  -5   33.44    2.28
   4   4  -5   25.16    1.98
   4   4  -5   27.53    1.99
  -4  -4   5   30.84    2.11
  -4  -4   5   23.88    2.40
   3   4  -5   76.18    4.96
   3   4  -5   91.87    5.00
   3   4  -5   86.49    5.16
   3   4  -5   82.60    5.21
  -3  -4   5   73.62    5.09
  -3  -4   5   86.91    5.04
   2   4  -5   73.74    4.07
   2   4  -5   65.62    4.22
   2   4  -5   75.93    4.49
   2   4  -5   68.28    4.06
   2   4  -5   68.55    4.25
   2   4  -5   75.15    4.88
  -2  -4   5   76.86    4.30
  -2  -4   5   64.99    4.36
   1   4  -5  243.31   12.83
   1   4  -5  230.08   12.54
   1   4  -5  206.26   12.59
   1   4  -5  215.75   12.61
  -1  -4   5  207.61   12.69
   0   4  -5  236.15   13.12
   0   4  -5  217.75   12.92
   0   4  -5  237.62   13.03
   0   4  -5  229.03   12.94
   0   4  -5  214.80   12.94
  -1   4  -5  146.97    7.88
  -1   4  -5  140.09    7.87
  -1   4  -5  128.69    7.79
  -1   4  -5  135.23    7.86
  -1   4  -5  129.67    7.89
  -2   4  -5   27.67    1.89
  -2   4  -5   31.13    1.95
  -2   4  -5   28.49    1.79
  -2   4  -5   32.51    1.94
  -2   4  -5   31.36    1.82
  -2   4  -5   27.78    1.90
  -3   4  -5  230.75   12.76
  -3   4  -5  215.06   12.66
  -3   4  -5  235.36   12.77
  -3   4  -5  211.23   12.53
  -3   4  -5  223.84   12.55
  -3   4  -5  218.25   12.70
   3  -4   5  215.90   12.72
  -4   4  -5   55.06    3.32
  -4   4  -5   60.26    3.33
  -4   4  -5   55.97    3.58
  -4   4  -5   62.90    3.65
  -4   4  -5   54.24    3.49
  -4   4  -5   60.99    3.67
   4  -4   5   57.46    3.63
   4  -4   5   60.08    3.50
  -5   4  -5  113.19    6.61
  -5   4  -5  100.68    6.47
  -5   4  -5  114.29    6.57
  -5   4  -5  100.68    6.36
   5  -4   5  104.82    6.56
   5  -4   5  114.57    6.38
   5  -4   5  115.83    6.48
  -6   4  -5   40.45    2.90
  -6   4  -5   40.15    2.73
  -6   4  -5   45.08    3.01
  -6   4  -5   46.46    3.07
   6  -4   5   46.06    2.89
   6  -4   5   44.06    2.75
  -7   4  -5   60.91    3.92
  -7   4  -5   69.29    4.37
  -7   4  -5   66.30    4.25
  -7   4  -5   58.27    4.12
   7  -4   5   65.57    3.92
   7  -4   5   60.88    4.30
   7  -4   5   66.50    4.15
  -8   4  -5   25.48    2.26
  -8   4  -5   27.79    2.08
  -8   4  -5   29.21    2.45
  -8   4  -5   29.17    2.64
   8  -4   5   26.56    2.65
   8  -4   5   29.70    2.14
   7   3  -5   21.62    2.04
   7   3  -5   20.49    2.01
  -7  -3   5   20.37    2.48
   6   3  -5  157.61    9.19
   6   3  -5  129.77    7.96
   6   3  -5  135.94    8.38
   6   3  -5  124.31    7.92
  -6  -3   5  126.42    8.15
  -6  -3   5  133.14    8.02
   5   3  -5   76.63    4.58
   5   3  -5   62.59    4.20
   5   3  -5   63.64    4.22
   5   3  -5   74.55    4.49
  -5  -3   5   70.50    4.30
  -5  -3   5   64.39    4.43
   4   3  -5  120.59    7.66
   4   3  -5  123.52    7.70
   4   3  -5  136.16    7.89
   4   3  -5  139.12    7.95
  -4  -3   5  143.05    7.81
  -4  -3   5  120.70    7.86
  -4  -3   5  137.89    7.75
   3   3  -5   53.11    3.56
   3   3  -5   58.01    3.54
   3   3  -5   62.41    3.79
   3   3  -5   60.88    3.75
  -3  -3   5   60.15    3.58
  -3  -3   5   63.66    3.66
  -3  -3   5   53.23    3.70
   2   3  -5  152.81    9.70
   2   3  -5  155.97    9.66
   2   3  -5  177.04    9.89
   2   3  -5  176.91    9.87
   2   3  -5  170.86    9.61
  -2  -3   5  181.32    9.77
  -2  -3   5  152.06    9.81
  -2  -3   5  184.00    9.71
   1   3  -5   28.02    1.84
   1   3  -5   30.79    1.81
   1   3  -5   28.57    1.78
   1   3  -5   30.01    1.96
  -1  -3   5   30.17    1.82
  -1  -3   5   31.54    1.88
  -1  -3   5   26.33    1.92
   0   3  -5  402.62   21.37
   0   3  -5  349.75   21.32
   0   3  -5  361.85   21.37
   0   3  -5  394.27   21.45
   0   3  -5  387.16   21.41
   0  -3   5  368.59   21.42
  -1   3  -5   52.28    3.04
  -1   3  -5   51.36    3.06
  -1   3  -5   57.59    3.03
  -1   3  -5   49.31    2.97
  -1   3  -5   46.49    3.05
   1  -3   5   47.56    3.07
  -2   3  -5  313.14   17.55
  -2   3  -5  295.54   17.68
  -2   3  -5  326.64   17.73
  -2   3  -5  298.12   17.68
  -2   3  -5  322.09   17.70
  -2   3  -5  288.91   17.55
   2  -3   5  322.15   17.68
   2  -3   5  301.53   17.73
   2  -3   5  328.81   17.68
  -3   3  -5   12.21    0.97
  -3   3  -5   13.69    1.08
  -3   3  -5   14.41    1.08
  -3   3  -5   13.05    1.01
   3  -3   5   12.02    1.01
   3  -3   5   13.67    0.98
  -4   3  -5  225.61   12.86
  -4   3  -5  215.50   12.73
  -4   3  -5  206.43   12.77
  -4   3  -5  246.61   12.88
   4  -3   5  205.66   12.82
   4  -3   5  233.64   12.74
  -5   3  -5  235.19   12.94
  -5   3  -5  229.39   12.85
  -5   3  -5  212.17   12.78
  -5   3  -5  206.08   12.70
   5  -3   5  231.19   12.71
   5  -3   5  203.80   12.86
   5  -3   5  230.72   12.77
  -6   3  -5  204.91   12.56
  -6   3  -5  233.44   12.76
  -6   3  -5  212.40   12.67
  -6   3  -5  233.96   12.85
   6  -3   5  226.78   12.65
   6  -3   5  199.54   12.78
   6  -3   5  213.32   12.68
  -7   3  -5   44.25    3.10
  -7   3  -5   49.90    3.31
  -7   3  -5   49.26    3.53
  -7   3  -5   48.79    3.32
   7  -3   5   49.56    3.14
   7  -3   5   47.40    3.25
   7  -3   5   43.39    3.40
  -8   3  -5  111.25    7.27
  -8   3  -5  124.44    7.40
  -8   3  -5  112.95    7.10
  -8   3  -5  110.54    7.28
   8  -3   5  113.08    7.47
   8  -3   5  131.57    7.15
   7   2  -5   96.12    5.99
   7   2  -5   87.23    5.59
   7   2  -5   85.24    5.59
  -7  -2   5   85.99    5.89
  -7  -2   5   98.29    5.73
   6   2  -5   48.94    3.50
   6   2  -5   58.92    3.83
   6   2  -5   57.00    3.85
   6   2  -5   54.14    3.53
  -6  -2   5   54.33    3.68
  -6  -2   5   62.28    3.63
  -6  -2   5   50.89    3.75
   5   2  -5  176.33    9.96
   5   2  -5  156.74   10.03
   5   2  -5  172.34    9.96
   5   2  -5  157.61    9.74
  -5  -2   5  178.12    9.85
  -5  -2   5  165.23    9.94
   4   2  -5    7.48    1.00
   4   2  -5    7.43    0.74
   4   2  -5    9.25    1.09
   4   2  -5    6.40    0.80
  -4  -2   5    6.04    0.95
  -4  -2   5    7.87    0.88
  -4  -2   5    7.14    0.78
   3   2  -5  254.47   13.50
   3   2  -5  253.04   13.51
   3   2  -5  215.89   13.33
   3   2  -5  231.77   13.22
   3   2  -5  224.00   13.27
  -3  -2   5  238.96   13.30
  -3  -2   5  223.05   13.22
  -3  -2   5  249.46   13.38
  -3  -2   5  206.40   13.45
   2   2  -5  188.69   10.99
   2   2  -5  192.43   10.90
   2   2  -5  194.81   10.93
   2   2  -5  199.05   11.11
  -2  -2   5  170.44   11.07
  -2  -2   5  194.77   11.01
  -2  -2   5  188.89   10.93
  -2  -2   5  203.67   10.91
   1   2  -5  518.73   27.57
   1   2  -5  455.41   27.55
   1   2  -5  477.83   27.61
   1   2  -5  524.91   27.66
  -1  -2   5  506.97   27.58
  -1  -2   5  461.99   27.56
  -1  -2   5  462.50   27.62
   0   2  -5   76.40    4.49
   0   2  -5   76.44    4.43
   0   2  -5   80.28    4.55
   0   2  -5   77.64    4.56
   0  -2   5   79.08    4.49
   0  -2   5   75.63    4.56
  -1   2  -5  533.54   29.42
  -1   2  -5  512.56   29.40
   1  -2   5  542.67   29.39
   1  -2   5  487.67   29.42
  -2   2  -5  201.73   11.41
  -2   2  -5  192.29   11.39
  -2   2  -5  208.33   11.45
  -2   2  -5  192.42   11.40
   2  -2   5  209.17   11.40
   2  -2   5  199.81   11.45
   2  -2   5  189.68   11.38
  -3   2  -5  216.50   12.85
  -3   2  -5  218.98   12.85
  -3   2  -5  230.24   12.93
  -3   2  -5  230.93   12.92
   3  -2   5  209.94   12.89
   3  -2   5  233.44   12.85
   3  -2   5  230.36   12.90
  -4   2  -5   45.87    3.03
  -4   2  -5   45.91    3.03
  -4   2  -5   52.79    3.13
  -4   2  -5   50.85    3.17
   4  -2   5   50.54    3.03
   4  -2   5   48.49    3.16
   4  -2   5   48.36    3.07
  -5   2  -5  281.08   17.04
  -5   2  -5  299.86   17.23
  -5   2  -5  283.85   17.07
  -5   2  -5  320.78   17.16
   5  -2   5  308.18   17.06
   5  -2   5  282.42   17.20
   5  -2   5  305.61   17.07
  -6   2  -5   20.56    1.66
  -6   2  -5   18.72    1.70
  -6   2  -5   22.34    1.81
  -6   2  -5   22.70    1.96
   6  -2   5   20.36    1.66
   6  -2   5   21.61    1.68
   6  -2   5   19.02    1.85
  -7   2  -5   75.00    5.53
  -7   2  -5   95.29    5.56
  -7   2  -5   83.79    5.50
   7  -2   5   95.85    5.45
   7  -2   5   79.26    5.62
   7  -2   5   94.11    5.49
  -8   2  -5   24.89    1.99
  -8   2  -5   21.66    2.29
  -8   2  -5   20.28    2.35
  -8   2  -5   23.63    2.20
   8  -2   5   24.17    2.62
   8  -2   5   21.12    2.38
   8   1  -5   83.84    5.46
   8   1  -5   83.93    5.48
   8   1  -5   92.83    5.80
  -8  -1   5   88.42    5.83
   7   1  -5   37.17    2.58
   7   1  -5   37.86    2.86
   7   1  -5   33.57    2.54
  -7  -1   5   36.11    2.66
  -7  -1   5   36.01    2.90
  -7  -1   5   36.59    2.73
   6   1  -5   92.40    5.21
   6   1  -5   80.82    5.04
   6   1  -5   73.92    4.88
   6   1  -5   78.23    4.87
  -6  -1   5   84.87    4.95
  -6  -1   5   84.14    4.93
  -6  -1   5   75.78    4.64
  -6  -1   5   71.68    5.05
   5   1  -5   92.22    5.60
   5   1  -5  100.46    5.72
   5   1  -5   94.22    5.56
   5   1  -5   99.69    5.79
  -5  -1   5   88.57    5.42
  -5  -1   5  103.53    5.65
  -5  -1   5   84.54    5.54
  -5  -1   5   86.41    5.73
   4   1  -5  180.38   10.33
   4   1  -5  192.23   10.50
   4   1  -5  166.91   10.25
   4   1  -5  180.94   10.20
   4   1  -5  188.76   10.42
  -4  -1   5  190.83   10.36
  -4  -1   5  165.33   10.43
  -4  -1   5  163.99   10.20
  -4  -1   5  178.28   10.27
   3   1  -5  180.28    9.86
   3   1  -5  166.48    9.82
   3   1  -5  178.37    9.98
   3   1  -5  164.68    9.91
   3   1  -5  192.36   10.07
  -3  -1   5  157.53    9.82
  -3  -1   5  157.12    9.85
  -3  -1   5  181.38    9.93
   2   1  -5  298.86   15.70
   2   1  -5  290.44   15.59
   2   1  -5  267.17   15.46
   2   1  -5  257.46   15.58
   2   1  -5  275.49   15.59
  -2  -1   5  275.33   15.46
  -2  -1   5  250.60   15.57
  -2  -1   5  259.17   15.66
  -2  -1   5  287.88   15.59
   1   1  -5    3.99    0.43
   1   1  -5    5.07    0.52
   1   1  -5    4.72    0.48
   1   1  -5    4.39    0.48
  -1  -1   5    4.66    0.48
  -1  -1   5    3.93    0.48
  -1  -1   5    3.89    0.42
   0   1  -5  128.10    7.61
   0   1  -5  139.25    7.77
   0   1  -5  134.46    7.71
   0   1  -5  134.25    7.66
   0  -1   5  127.04    7.76
   0  -1   5  133.14    7.61
   0  -1   5  140.49    7.72
   0  -1   5  137.10    7.66
  -1   1  -5   55.92    3.13
  -1   1  -5   54.87    3.21
  -1   1  -5   54.27    3.27
  -1   1  -5   51.86    3.21
   1  -1   5   55.51    3.13
   1  -1   5   54.40    3.29
   1  -1   5   56.53    3.25
   1  -1   5   51.61    3.21
  -2   1  -5  283.96   16.12
  -2   1  -5  273.96   16.16
  -2   1  -5  278.92   16.16
  -2   1  -5  299.72   16.20
   2  -1   5  294.28   16.15
   2  -1   5  281.23   15.97
   2  -1   5  270.61   16.17
   2  -1   5  282.40   16.18
  -3   1  -5  122.89    7.20
  -3   1  -5  131.82    7.29
  -3   1  -5  124.56    7.30
  -3   1  -5  120.65    7.24
   3  -1   5  112.56    7.28
   3  -1   5  121.78    7.23
   3  -1   5  124.47    7.01
   3  -1   5  126.36    7.18
   3  -1   5  129.57    7.24
  -4   1  -5   90.73    5.34
  -4   1  -5   84.00    5.18
  -4   1  -5   94.09    5.28
  -4   1  -5   83.07    5.22
   4  -1   5   83.56    5.17
   4  -1   5   86.02    4.97
   4  -1   5   88.24    4.96
   4  -1   5   91.01    5.22
   4  -1   5   82.63    5.33
   4  -1   5   86.44    5.17
  -5   1  -5   35.42    2.30
  -5   1  -5   29.53    2.21
  -5   1  -5   33.21    2.40
  -5   1  -5   31.01    2.22
   5  -1   5   30.09    2.38
   5  -1   5   33.51    2.24
   5  -1   5   32.16    1.92
   5  -1   5   32.99    2.18
   5  -1   5   31.64    1.93
  -6   1  -5   95.68    6.18
  -6   1  -5  104.26    6.02
  -6   1  -5   92.59    5.96
   6  -1   5   99.48    5.96
   6  -1   5   98.14    5.92
   6  -1   5   98.10    5.62
   6  -1   5   92.26    6.14
   6  -1   5   98.89    5.64
  -7   1  -5   58.03    4.26
  -7   1  -5   71.58    4.31
  -7   1  -5   63.49    4.26
   7  -1   5   78.12    5.08
   7  -1   5   64.37    3.80
   7  -1   5   55.40    4.42
   7  -1   5   62.39    4.31
   7  -1   5   65.13    3.82
   8   0  -5   40.89    3.11
   8   0  -5   39.63    2.94
   8   0  -5   37.88    2.90
  -8   0   5   46.38    3.08
  -8   0   5   40.18    2.58
  -8   0   5   41.71    3.32
   7   0  -5   69.72    4.67
   7   0  -5   72.39    4.68
   7   0  -5   78.75    4.80
   7   0  -5   73.01    4.97
  -7   0   5   81.16    4.74
  -7   0   5   71.44    4.89
  -7   0   5   82.86    4.76
  -7   0   5   73.08    4.48
   6   0  -5   29.62    2.15
   6   0  -5   33.57    2.45
   6   0  -5   33.09    2.46
   6   0  -5   28.98    2.32
  -6   0   5   34.16    2.21
  -6   0   5   30.28    2.37
  -6   0   5   29.32    2.19
  -6   0   5   32.34    2.03
   5   0  -5  144.29    7.73
   5   0  -5  122.70    7.54
   5   0  -5  136.08    7.58
   5   0  -5  128.41    7.45
   5   0  -5  121.58    7.49
  -5   0   5  122.92    7.66
  -5   0   5  139.54    7.56
  -5   0   5  118.88    7.43
  -5   0   5  122.66    7.49
   4   0  -5   80.01    4.65
   4   0  -5   73.05    4.43
   4   0  -5   70.49    4.50
   4   0  -5   72.55    4.44
   4   0  -5   77.25    4.46
   4   0  -5   76.37    4.53
  -4   0   5   67.68    4.58
  -4   0   5   70.71    4.44
  -4   0   5   79.04    4.44
  -4   0   5   83.62    4.52
   3   0  -5  319.68   19.57
   3   0  -5  328.53   19.49
   3   0  -5  379.79   19.72
   3   0  -5  376.46   19.59
   3   0  -5  358.58   19.56
  -3   0   5  347.83   19.56
  -3   0   5  312.06   19.56
  -3   0   5  313.36   19.64
  -3   0   5  359.36   19.48
   2   0  -5   45.51    2.71
   2   0  -5   40.58    2.64
   2   0  -5   44.78    2.65
   2   0  -5   46.13    2.75
  -2   0   5   45.59    2.54
  -2   0   5   39.86    2.68
  -2   0   5   44.72    2.62
  -2   0   5   45.97    2.64
  -2   0   5   40.48    2.70
   1   0  -5  217.54   12.12
   1   0  -5  198.68   12.01
   1   0  -5  207.83   12.06
   1   0  -5  221.56   12.08
  -1   0   5  193.73   12.10
  -1   0   5  228.01   11.96
  -1   0   5  208.68   12.00
  -1   0   5  217.75   12.04
  -1   0   5  205.33   12.03
   0   0  -5  233.82   13.42
   0   0  -5  237.67   13.35
   0   0  -5  244.01   13.34
   0   0  -5  233.92   13.33
   0   0  -5  246.22   13.48
   0   0   5  219.95   13.45
   0   0   5  236.94   13.32
   0   0   5  221.45   13.35
   0   0   5  239.67   13.40
  -1   0  -5  187.48   10.98
  -1   0  -5  194.01   10.95
  -1   0  -5  182.56   10.89
  -1   0  -5  187.90   10.85
  -1   0  -5  201.74   11.03
   1   0   5  182.05   11.00
   1   0   5  203.59   10.97
   1   0   5  189.29   10.97
   1   0   5  190.89   10.84
  -2   0  -5  130.96    7.72
  -2   0  -5  138.74    7.84
  -2   0  -5  130.04    7.82
  -2   0  -5  137.91    7.84
   2   0   5  139.61    7.80
   2   0   5  135.75    7.63
   2   0   5  132.00    7.80
   2   0   5  127.35    7.83
  -3   0  -5  267.85   16.72
  -3   0  -5  287.89   16.83
  -3   0  -5  308.63   16.86
  -3   0  -5  309.99   16.90
   3   0   5  307.95   16.81
   3   0   5  303.94   16.71
   3   0   5  300.48   16.62
   3   0   5  285.43   16.89
   3   0   5  283.46   16.77
   3   0   5  278.59   16.60
  -4   0  -5   75.51    4.80
  -4   0  -5   73.51    4.70
  -4   0  -5   84.31    4.82
  -4   0  -5   84.26    4.93
   4   0   5   85.85    4.81
   4   0   5   80.69    4.54
   4   0   5   71.53    4.95
   4   0   5   77.25    4.54
   4   0   5   74.99    4.68
   4   0   5   73.93    4.88
  -5   0  -5  161.90    9.00
  -5   0  -5  140.35    8.93
  -5   0  -5  161.24    9.20
   5   0   5  155.85    9.01
   5   0   5  157.25    8.90
   5   0   5  135.95    9.10
   5   0   5  155.99    8.73
   5   0   5  148.05    8.73
  -6   0  -5   37.76    2.60
  -6   0  -5   44.67    3.62
  -6   0  -5   32.05    2.62
  -6   0  -5   33.75    2.54
   6   0   5   35.20    2.67
   6   0   5   35.57    2.22
   6   0   5   31.12    2.76
   6   0   5   32.76    2.22
   6   0   5   33.74    2.47
  -7   0  -5  108.12    6.84
  -7   0  -5  100.91    6.76
   7   0   5  114.65    6.36
   7   0   5  106.79    6.98
   8  -1  -5  137.73    7.93
   8  -1  -5  135.56    8.16
   8  -1  -5  128.72    8.15
   8  -1  -5  146.65    8.12
  -8   1   5  131.46    8.35
  -8   1   5  133.26    7.95
   7  -1  -5   41.24    2.71
   7  -1  -5   44.88    3.17
   7  -1  -5   46.40    2.90
   7  -1  -5   42.17    2.92
   7  -1  -5   43.48    2.92
  -7   1   5   45.75    2.94
  -7   1   5   41.11    2.76
  -7   1   5   43.62    2.89
  -7   1   5   39.55    3.06
   6  -1  -5  137.20    8.55
   6  -1  -5  161.87    8.74
   6  -1  -5  151.53    8.52
   6  -1  -5  140.26    8.41
   6  -1  -5  138.46    8.53
   6  -1  -5  147.37    8.49
  -6   1   5  137.37    8.67
  -6   1   5  138.62    8.46
  -6   1   5  149.17    8.56
  -6   1   5  153.35    8.54
   5  -1  -5   33.95    2.13
   5  -1  -5   31.08    2.11
   5  -1  -5   35.26    2.33
   5  -1  -5   30.93    2.03
   5  -1  -5   30.56    2.15
   5  -1  -5   33.77    2.11
  -5   1   5   29.91    2.24
  -5   1   5   31.75    2.08
  -5   1   5   33.72    2.13
  -5   1   5   29.21    2.08
   4  -1  -5  435.67   26.64
   4  -1  -5  509.73   26.76
   4  -1  -5  503.34   26.68
   4  -1  -5  447.68   26.59
   4  -1  -5  461.89   26.57
  -4   1   5  466.24   26.58
  -4   1   5  450.76   26.72
  -4   1   5  467.36   26.65
  -4   1   5  476.71   26.62
   3  -1  -5  100.14    5.64
   3  -1  -5   92.51    5.53
   3  -1  -5   98.10    5.66
   3  -1  -5   92.95    5.58
  -3   1   5   97.25    5.56
  -3   1   5   90.29    5.62
  -3   1   5   90.40    5.61
  -3   1   5   98.80    5.51
   2  -1  -5  363.72   22.05
   2  -1  -5  421.96   22.12
   2  -1  -5  393.20   22.06
   2  -1  -5  405.98   22.15
  -2   1   5  393.60   22.02
  -2   1   5  391.62   21.99
  -2   1   5  370.61   22.12
  -2   1   5  398.13   22.03
  -2   1   5  368.72   22.00
  -2   1   5  378.62   22.06
   1  -1  -5  181.93   10.54
   1  -1  -5  192.81   10.66
   1  -1  -5  176.26   10.56
   1  -1  -5  176.27   10.53
  -1   1   5  186.84   10.54
  -1   1   5  167.47   10.62
  -1   1   5  192.67   10.52
  -1   1   5  199.26   10.54
   0  -1  -5  327.52   18.77
   0  -1  -5  309.60   18.84
   0  -1  -5  318.30   18.79
   0  -1  -5  338.13   18.73
   0  -1  -5  342.58   18.74
   0  -1  -5  336.42   18.91
   0   1   5  347.22   18.84
   0   1   5  307.73   18.89
   0   1   5  353.64   18.76
   0   1   5  327.07   18.84
  -1  -1  -5   57.24    3.36
  -1  -1  -5   53.22    3.31
  -1  -1  -5   55.12    3.18
  -1  -1  -5   48.59    3.15
  -1  -1  -5   52.58    3.28
   1   1   5   54.12    3.31
   1   1   5   54.41    3.32
   1   1   5   54.26    3.28
   1   1   5   54.54    3.16
  -2  -1  -5  375.46   21.15
  -2  -1  -5  384.56   21.30
  -2  -1  -5  347.84   21.29
  -2  -1  -5  394.39   21.33
   2   1   5  356.57   21.24
   2   1   5  391.20   21.28
   2   1   5  344.74   21.31
   2   1   5  386.25   21.12
  -3  -1  -5   86.17    5.35
  -3  -1  -5   93.11    5.41
  -3  -1  -5   80.58    5.18
  -3  -1  -5   92.51    5.33
   3   1   5   84.22    5.22
   3   1   5   91.46    5.13
   3   1   5   83.72    5.10
   3   1   5   82.40    5.38
   3   1   5   91.27    5.16
   3   1   5   93.91    5.34
  -4  -1  -5  171.87   10.94
  -4  -1  -5  202.66   11.22
  -4  -1  -5  203.15   11.04
   4   1   5  155.98   11.63
   4   1   5  180.20   10.82
   4   1   5  208.11   11.12
   4   1   5  200.29   10.85
   4   1   5  188.04   10.92
  -5  -1  -5   10.32    1.70
  -5  -1  -5   11.07    1.44
  -5  -1  -5   11.22    1.31
  -5  -1  -5   15.71    1.38
   5   1   5   12.07    1.55
   5   1   5    9.98    1.46
   5   1   5   11.27    1.02
   5   1   5   12.77    1.07
   5   1   5   11.24    1.17
  -6  -1  -5   96.10    5.43
  -6  -1  -5   81.42    5.49
  -6  -1  -5   85.28    5.67
   6   1   5   86.39    5.38
   6   1   5   79.90    5.71
   6   1   5   95.15    5.27
   6   1   5   86.08    5.23
   9  -2  -5   73.30    4.85
   9  -2  -5   72.09    4.90
  -9   2   5   68.30    5.06
  -9   2   5   79.08    4.66
   8  -2  -5   28.18    2.00
   8  -2  -5   26.28    1.85
   8  -2  -5   26.98    2.19
   8  -2  -5   26.62    2.27
  -8   2   5   30.63    2.23
  -8   2   5   27.31    2.23
  -8   2   5   23.75    2.36
  -8   2   5   27.99    2.06
   7  -2  -5  134.04    9.03
   7  -2  -5  161.66    9.23
   7  -2  -5  147.72    9.05
   7  -2  -5  152.57    8.87
   7  -2  -5  157.67    8.82
  -7   2   5  145.77    9.15
  -7   2   5  161.03    9.05
  -7   2   5  147.09    8.96
  -7   2   5  168.81    9.02
   6  -2  -5   30.75    2.24
   6  -2  -5   32.33    2.29
   6  -2  -5   33.43    2.12
   6  -2  -5   33.51    2.06
   6  -2  -5   32.68    2.24
   6  -2  -5   34.51    2.40
  -6   2   5   32.72    2.22
  -6   2   5   32.05    2.21
  -6   2   5   31.24    2.36
   5  -2  -5  261.75   15.12
   5  -2  -5  250.71   15.25
   5  -2  -5  271.27   15.16
   5  -2  -5  288.98   15.33
   5  -2  -5  245.26   15.26
  -5   2   5  281.46   15.24
  -5   2   5  259.82   15.27
  -5   2   5  284.31   15.24
  -5   2   5  247.14   15.32
   4  -2  -5  137.49    8.25
   4  -2  -5  151.83    8.33
   4  -2  -5  148.91    8.30
   4  -2  -5  140.64    8.14
  -4   2   5  130.60    8.26
  -4   2   5  144.82    8.20
  -4   2   5  133.78    8.27
  -4   2   5  144.37    8.21
   3  -2  -5   90.05    5.31
   3  -2  -5  101.66    5.50
   3  -2  -5   88.77    5.37
   3  -2  -5   92.75    5.38
  -3   2   5   82.69    5.36
  -3   2   5   98.19    5.35
  -3   2   5   79.02    5.41
  -3   2   5   94.44    5.33
  -3   2   5   92.60    5.27
   2  -2  -5   23.95    1.56
   2  -2  -5   25.77    1.72
   2  -2  -5   24.06    1.58
   2  -2  -5   23.74    1.56
  -2   2   5   21.94    1.66
  -2   2   5   24.25    1.51
  -2   2   5   23.80    1.52
  -2   2   5   22.57    1.55
  -2   2   5   24.76    1.55
   1  -2  -5  248.26   14.22
   1  -2  -5  241.56   14.32
   1  -2  -5  240.62   14.28
   1  -2  -5  261.41   14.42
  -1   2   5  253.70   14.29
  -1   2   5  257.30   14.32
  -1   2   5  263.53   14.27
  -1   2   5  235.64   14.39
   0  -2  -5   64.08    3.80
   0  -2  -5   64.99    3.94
   0  -2  -5   65.08    3.67
   0  -2  -5   64.38    3.69
   0  -2  -5   60.83    3.88
   0  -2  -5   64.29    3.86
   0   2   5   65.65    3.84
   0   2   5   59.54    3.90
   0   2   5   59.88    3.88
   0   2   5   68.37    3.78
  -1  -2  -5  191.78   11.94
  -1  -2  -5  200.90   11.74
  -1  -2  -5  210.41   11.97
  -1  -2  -5  217.26   11.96
   1   2   5  196.06   11.96
   1   2   5  215.04   11.81
   1   2   5  192.54   11.91
   1   2   5  227.95   12.02
  -2  -2  -5    5.18    0.82
  -2  -2  -5    5.66    0.84
  -2  -2  -5    4.43    0.56
  -2  -2  -5    5.73    0.83
   2   2   5    4.29    0.61
   2   2   5    4.71    0.67
   2   2   5    4.24    0.75
   2   2   5    5.19    0.79
  -3  -2  -5  146.04    8.40
  -3  -2  -5  143.37    8.25
  -3  -2  -5  137.35    8.13
   3   2   5  141.51    8.07
   3   2   5  133.87    8.42
   3   2   5  128.74    8.14
   3   2   5  147.36    8.13
   3   2   5  150.54    8.34
   3   2   5  131.41    8.07
  -4  -2  -5   50.01    3.41
  -4  -2  -5   53.72    3.72
  -4  -2  -5   49.97    3.62
   4   2   5   52.46    3.32
   4   2   5   60.44    3.69
   4   2   5   51.85    3.28
   4   2   5   54.79    3.33
   4   2   5   57.41    3.36
   4   2   5   54.28    3.68
  -5  -2  -5   94.67    6.26
  -5  -2  -5  106.72    5.95
  -5  -2  -5   92.90    6.02
   5   2   5  106.56    5.90
   5   2   5   94.62    5.82
   5   2   5  100.93    5.89
   5   2   5   88.44    6.21
   9  -3  -5   25.05    2.30
   9  -3  -5   21.04    2.40
  -9   3   5   22.31    2.47
  -9   3   5   25.72    2.07
   8  -3  -5   53.23    3.67
   8  -3  -5   50.76    3.67
   8  -3  -5   55.42    3.86
  -8   3   5   58.33    3.65
  -8   3   5   50.34    3.75
  -8   3   5   54.28    3.56
  -8   3   5   54.64    3.61
   7  -3  -5   70.02    4.63
   7  -3  -5   77.18    4.76
   7  -3  -5   72.55    4.67
  -7   3   5   82.04    4.65
  -7   3   5   67.04    4.68
  -7   3   5   70.68    4.60
  -7   3   5   75.53    4.56
   6  -3  -5  185.42   10.41
   6  -3  -5  173.86   10.09
   6  -3  -5  171.08   10.35
   6  -3  -5  170.40   10.07
   6  -3  -5  188.39   10.43
  -6   3   5  184.46   10.33
  -6   3   5  172.05   10.34
  -6   3   5  189.50   10.31
  -6   3   5  157.26   10.35
   5  -3  -5   30.37    2.28
   5  -3  -5   38.34    2.44
   5  -3  -5   34.13    2.32
   5  -3  -5   34.15    2.09
  -5   3   5   36.92    2.29
  -5   3   5   34.79    2.26
  -5   3   5   33.92    2.35
  -5   3   5   32.13    2.33
   4  -3  -5   64.27    3.71
   4  -3  -5   57.80    3.73
   4  -3  -5   65.04    3.86
   4  -3  -5   58.09    3.59
  -4   3   5   59.89    3.55
  -4   3   5   63.90    3.70
  -4   3   5   62.09    3.81
  -4   3   5   53.86    3.70
  -4   3   5   62.82    3.71
   3  -3  -5   59.62    3.66
   3  -3  -5   58.26    3.59
   3  -3  -5   60.98    3.56
   3  -3  -5   61.89    3.82
  -3   3   5   56.58    3.73
  -3   3   5   55.98    3.64
  -3   3   5   62.73    3.55
  -3   3   5   62.98    3.65
  -3   3   5   62.19    3.63
  -3   3   5   58.70    3.58
   2  -3  -5  305.90   17.69
   2  -3  -5  306.96   17.54
   2  -3  -5  334.78   17.84
   2  -3  -5  297.49   17.69
  -2   3   5  290.77   17.71
  -2   3   5  329.89   17.68
  -2   3   5  298.28   17.79
  -2   3   5  315.44   17.64
   1  -3  -5  144.65    8.00
   1  -3  -5  127.28    7.89
   1  -3  -5  128.99    7.85
  -1   3   5  142.67    7.86
  -1   3   5  142.22    7.83
  -1   3   5  128.23    7.90
  -1   3   5  131.04    7.96
   0  -3  -5  229.86   13.20
   0  -3  -5  234.01   13.32
   0  -3  -5  225.38   13.29
   0   3   5  223.64   13.29
   0   3   5  222.63   13.30
   0   3   5  243.85   13.18
  -1  -3  -5  157.15    8.45
  -1  -3  -5  150.76    8.38
  -1  -3  -5  135.23    8.40
  -1  -3  -5  132.98    8.08
   1   3   5  133.49    8.39
   1   3   5  135.01    8.31
   1   3   5  156.07    8.39
   1   3   5  135.29    8.32
  -2  -3  -5  115.87    6.70
  -2  -3  -5  104.89    6.50
  -2  -3  -5  102.16    6.83
  -2  -3  -5  117.23    6.85
   2   3   5  104.92    6.61
   2   3   5  116.82    6.61
   2   3   5  123.99    6.80
  -3  -3  -5   47.77    3.57
  -3  -3  -5   46.83    3.27
  -3  -3  -5   56.81    3.69
   3   3   5   51.21    3.28
   3   3   5   51.57    3.25
   3   3   5   58.64    3.37
   3   3   5   55.52    3.59
   3   3   5   54.74    3.62
  -4  -3  -5  115.43    6.42
  -4  -3  -5  103.20    6.78
  -4  -3  -5   98.75    6.43
   4   3   5  104.36    6.34
   4   3   5  106.45    6.30
   4   3   5  110.69    6.43
   4   3   5  103.25    6.72
   4   3   5  113.67    6.43
  -5  -3  -5   48.92    3.84
  -5  -3  -5   53.55    4.04
   5   3   5   51.05    3.91
   5   3   5   49.83    3.34
   5   3   5   53.29    3.55
   9  -4  -5   97.24    6.65
  -9   4   5  107.57    6.58
  -9   4   5  112.02    6.79
   8  -4  -5   14.08    1.70
   8  -4  -5   17.10    2.00
  -8   4   5   14.49    1.61
  -8   4   5   13.84    1.75
  -8   4   5   16.76    1.73
  -8   4   5   14.19    1.58
   7  -4  -5  147.78    9.56
   7  -4  -5  166.95    9.68
   7  -4  -5  173.94    9.65
  -7   4   5  176.03    9.62
  -7   4   5  156.05    9.58
  -7   4   5  144.24    9.61
  -7   4   5  168.03    9.53
   6  -4  -5  167.18    9.35
   6  -4  -5  135.75    9.19
   6  -4  -5  161.33    9.20
  -6   4   5  160.49    9.16
  -6   4   5  164.82    9.22
  -6   4   5  149.19    9.21
   5  -4  -5  249.31   14.03
   5  -4  -5  266.40   14.27
   5  -4  -5  227.65   14.10
   5  -4  -5  231.65   13.88
  -5   4   5  257.55   14.07
  -5   4   5  260.17   14.13
  -5   4   5  234.73   14.17
  -5   4   5  227.63   14.07
   4  -4  -5   98.55    5.50
   4  -4  -5   89.72    5.17
   4  -4  -5   83.08    5.30
   4  -4  -5   84.84    5.16
  -4   4   5   92.74    5.32
  -4   4   5   78.00    5.36
  -4   4   5   88.02    5.12
  -4   4   5   84.56    5.21
  -4   4   5   95.01    5.28
   3  -4  -5  221.01   13.21
   3  -4  -5  259.56   13.46
   3  -4  -5  222.06   13.27
   3  -4  -5  232.35   13.06
  -3   4   5  234.89   13.16
  -3   4   5  217.30   13.29
  -3   4   5  229.37   13.08
  -3   4   5  212.27   13.35
  -3   4   5  244.46   13.25
   2  -4  -5   99.12    5.78
   2  -4  -5  106.35    5.93
   2  -4  -5   94.75    5.76
  -2   4   5  102.13    5.74
  -2   4   5   88.99    5.85
  -2   4   5   98.25    5.70
  -2   4   5   88.44    5.79
   1  -4  -5  195.31   11.58
   1  -4  -5  212.05   11.70
   1  -4  -5  186.03   11.61
  -1   4   5  187.79   11.66
  -1   4   5  219.90   11.60
  -1   4   5  189.22   11.64
  -1   4   5  210.59   11.55
   0  -4  -5   24.22    1.80
   0  -4  -5   19.53    1.73
   0  -4  -5   24.40    1.77
   0   4   5   23.99    1.72
   0   4   5   23.67    1.65
   0   4   5   20.50    1.71
   0   4   5   21.00    1.77
  -1  -4  -5  184.06   11.85
  -1  -4  -5  218.59   11.93
  -1  -4  -5  208.85   11.77
   1   4   5  210.92   11.84
   1   4   5  215.17   11.71
   1   4   5  189.69   11.72
   1   4   5  187.24   11.84
  -2  -4  -5   48.59    3.08
  -2  -4  -5   52.38    3.43
  -2  -4  -5   44.10    3.29
   2   4   5   42.36    3.23
   2   4   5   42.82    2.98
   2   4   5   49.47    3.09
   2   4   5   49.75    3.31
  -3  -4  -5   70.96    4.22
  -3  -4  -5   65.77    4.07
  -3  -4  -5   64.87    4.63
   3   4   5   70.47    4.29
   3   4   5   68.48    4.14
   3   4   5   66.42    4.53
   3   4   5   64.73    4.14
  -4  -4  -5   22.32    2.87
   4   4   5   26.95    2.07
   4   4   5   28.79    2.08
   4   4   5   25.60    2.60
   9  -5  -5   24.93    2.44
  -9   5   5   24.97    2.39
  -9   5   5   24.03    2.50
   8  -5  -5  101.67    5.91
   8  -5  -5   90.63    5.81
  -8   5   5   83.10    5.78
  -8   5   5  100.75    5.92
  -8   5   5   85.76    5.79
   7  -5  -5   41.65    3.03
   7  -5  -5   45.23    3.01
   7  -5  -5   45.28    3.26
  -7   5   5   39.90    3.04
  -7   5   5   45.78    2.99
  -7   5   5   42.14    3.06
  -7   5   5   45.36    3.06
   6  -5  -5  106.71    7.33
   6  -5  -5  129.39    7.55
   6  -5  -5  127.62    7.25
  -6   5   5  119.92    7.43
  -6   5   5  127.09    7.30
  -6   5   5  133.59    7.41
  -6   5   5  115.00    7.29
   5  -5  -5   18.59    1.33
   5  -5  -5   19.25    1.39
   5  -5  -5   20.07    1.82
   5  -5  -5   18.10    1.59
  -5   5   5   18.96    1.24
  -5   5   5   20.14    1.73
  -5   5   5   17.27    1.45
  -5   5   5   21.24    1.63
  -5   5   5   20.98    1.55
   4  -5  -5  145.55    8.00
   4  -5  -5  160.33    8.47
   4  -5  -5  138.04    8.13
   4  -5  -5  124.17    8.38
  -4   5   5  150.70    8.23
  -4   5   5  121.98    8.82
  -4   5   5  139.73    8.06
  -4   5   5  136.63    8.05
  -4   5   5  132.64    8.27
  -4   5   5  145.79    8.31
   3  -5  -5   18.06    2.09
   3  -5  -5   19.61    1.54
   3  -5  -5   22.93    1.81
  -3   5   5   21.00    1.57
  -3   5   5   20.94    1.74
  -3   5   5   20.68    1.47
  -3   5   5   19.89    1.65
   2  -5  -5  201.84   10.69
   2  -5  -5  162.55   10.51
  -2   5   5  190.01   10.50
  -2   5   5  167.70   10.62
  -2   5   5  175.33   10.60
  -2   5   5  185.66   10.47
   1  -5  -5   33.35    2.58
   1  -5  -5   41.91    2.66
  -1   5   5   39.98    2.54
  -1   5   5   33.51    2.58
  -1   5   5   35.70    2.61
  -1   5   5   37.83    2.50
   0  -5  -5  137.18    8.69
   0  -5  -5  152.41    8.61
   0   5   5  137.15    8.69
   0   5   5  154.99    8.65
   0   5   5  136.26    8.58
   0   5   5  151.24    8.55
  -1  -5  -5   47.32    3.09
  -1  -5  -5   48.17    3.40
  -1  -5  -5   43.94    3.30
   1   5   5   47.05    3.10
   1   5   5   47.21    3.27
   1   5   5   44.88    3.02
   1   5   5   41.16    3.23
  -2  -5  -5   87.00    6.00
  -2  -5  -5   94.18    5.64
   2   5   5  109.73    6.22
   2   5   5   90.18    5.57
   2   5   5   84.64    5.90
  -3  -5  -5   34.37    4.83
   8  -6  -5   58.91    3.84
   8  -6  -5   52.25    3.92
  -8   6   5   55.35    3.82
  -8   6   5   57.05    3.97
   7  -6  -5   75.57    4.42
   7  -6  -5   66.41    4.58
  -7   6   5   67.11    4.63
  -7   6   5   76.10    4.67
  -7   6   5   65.85    4.45
   6  -6  -5   24.26    2.11
   6  -6  -5   30.95    2.45
   6  -6  -5   26.59    1.84
  -6   6   5   27.18    2.19
  -6   6   5   23.26    2.17
  -6   6   5   27.30    2.09
  -6   6   5   23.30    1.92
   5  -6  -5  127.18    7.62
   5  -6  -5  125.43    7.86
   5  -6  -5  137.83    7.55
   5  -6  -5  140.76    8.09
  -5   6   5  130.88    7.54
  -5   6   5  129.64    7.90
  -5   6   5  137.06    7.93
  -5   6   5  138.59    7.81
  -5   6   5  121.17    7.94
  -5   6   5  123.08    7.60
   4  -6  -5   68.84    4.49
   4  -6  -5   79.31    4.71
   4  -6  -5   68.46    4.36
  -4   6   5   74.48    4.44
  -4   6   5   64.54    4.50
  -4   6   5   73.59    4.57
  -4   6   5   73.91    4.25
  -4   6   5   64.57    4.57
   3  -6  -5  192.07   11.62
   3  -6  -5  213.73   11.78
   3  -6  -5  187.17   11.58
  -3   6   5  214.08   11.50
  -3   6   5  184.19   11.71
  -3   6   5  193.02   11.68
  -3   6   5  205.57   11.59
   2  -6  -5   42.05    3.00
   2  -6  -5   44.99    3.05
  -2   6   5   38.98    3.00
  -2   6   5   43.84    2.91
  -2   6   5   45.03    2.87
  -2   6   5   41.48    3.02
   1  -6  -5   69.44    4.40
   1  -6  -5   60.23    4.42
  -1   6   5   68.30    4.49
  -1   6   5   64.64    4.40
  -1   6   5   72.59    4.38
  -1   6   5   73.10    4.39
   0  -6  -5   33.41    2.97
   0  -6  -5   38.14    2.77
   0   6   5   38.55    2.78
   0   6   5   39.07    2.98
   0   6   5   45.92    3.46
  -1  -6  -5   68.28    5.02
  -1  -6  -5   77.53    4.66
   1   6   5   75.11    4.96
   1   6   5   71.50    4.61
   7  -7  -5   17.64    2.05
  -7   7   5   16.58    1.68
  -7   7   5   14.90    1.93
  -7   7   5   16.47    2.04
   6  -7  -5   89.40    5.58
  -6   7   5   88.71    5.20
  -6   7   5   84.14    5.57
  -6   7   5   85.22    5.63
   5  -7  -5   71.73    4.47
   5  -7  -5   67.86    4.73
  -5   7   5   74.30    4.78
  -5   7   5   78.37    4.35
  -5   7   5   70.97    4.84
   4  -7  -5  128.71    7.57
   4  -7  -5  118.99    7.65
  -4   7   5  124.42    7.77
  -4   7   5  132.33    7.41
  -4   7   5  124.13    7.72
   3  -7  -5   67.98    4.43
  -3   7   5   56.57    4.11
  -3   7   5   57.25    4.13
  -3   7   5   63.13    3.88
   2  -7  -5   59.66    3.94
   2  -7  -5   56.23    3.89
  -2   7   5   54.74    3.73
  -2   7   5   56.48    3.89
  -2   7   5   52.11    3.87
   1  -7  -5   72.53    4.47
   1  -7  -5   58.88    4.59
  -1   7   5   65.34    4.41
  -1   7   5   66.95    4.57
   5  -8  -5   59.27    4.31
  -5   8   5   63.12    4.34
  -5   8   5   60.23    4.40
   4  -8  -5   24.46    2.50
  -4   8   5   25.29    2.54
  -4   8   5   26.71    2.53
  -1   9  -6  110.74    6.48
  -1   9  -6  105.34    6.50
  -1   9  -6  107.66    6.53
  -1   9  -6  108.92    6.69
  -1   9  -6  107.08    6.61
  -2   9  -6   41.64    2.85
  -2   9  -6   34.84    2.79
  -2   9  -6   42.42    2.96
  -2   9  -6   37.20    2.75
  -2   9  -6   41.64    3.17
  -2   9  -6   36.56    2.87
  -2   9  -6   44.18    3.35
  -2   9  -6   40.02    2.75
  -2   9  -6   42.14    2.74
  -3   9  -6  108.31    6.31
  -3   9  -6  103.38    6.34
  -3   9  -6  109.15    6.39
  -3   9  -6  106.84    6.20
  -3   9  -6  109.80    6.55
  -3   9  -6  106.80    6.58
  -3   9  -6  104.43    6.31
  -3   9  -6   98.43    6.25
  -3   9  -6   97.12    6.36
  -3   9  -6   91.49    6.27
  -4   9  -6   50.95    3.30
  -4   9  -6   52.48    3.51
  -4   9  -6   53.33    3.48
  -4   9  -6   53.91    4.13
  -4   9  -6   53.28    3.69
  -4   9  -6   56.85    3.70
  -4   9  -6   48.89    3.52
  -4   9  -6   50.48    3.65
  -4   9  -6   50.02    3.43
  -5   9  -6  136.08    7.84
  -5   9  -6  124.00    7.61
  -5   9  -6  142.45    7.78
  -5   9  -6  125.56    8.03
  -5   9  -6  123.04    7.66
  -5   9  -6  135.43    7.80
  -5   9  -6  123.43    7.79
  -6   9  -6   32.67    2.56
  -6   9  -6   35.56    2.89
  -6   9  -6   32.62    2.41
  -6   9  -6   31.54    2.23
   1   8  -6   47.28    3.30
   1   8  -6   51.87    3.55
   1   8  -6   48.23    3.26
   0   8  -6   55.30    3.31
   0   8  -6   52.28    3.53
   0   8  -6   52.27    3.46
   0   8  -6   52.89    3.33
   0   8  -6   57.41    3.68
  -1   8  -6   32.40    2.38
  -1   8  -6   37.54    2.70
  -1   8  -6   37.88    2.93
  -1   8  -6   36.21    2.60
  -1   8  -6   35.00    2.66
  -1   8  -6   36.64    2.36
  -1   8  -6   33.67    2.44
  -1   8  -6   33.41    2.36
  -2   8  -6   63.85    4.04
  -2   8  -6   66.29    4.10
  -2   8  -6   61.56    4.09
  -2   8  -6   66.68    4.00
  -2   8  -6   63.90    4.28
  -2   8  -6   62.34    4.01
  -2   8  -6   59.84    4.05
  -2   8  -6   63.83    3.94
  -2   8  -6   63.20    4.18
  -2   8  -6   69.36    4.09
  -3   8  -6   26.46    2.16
  -3   8  -6   25.99    1.93
  -3   8  -6   27.02    1.94
  -3   8  -6   24.76    2.06
  -3   8  -6   23.86    1.89
  -3   8  -6   25.18    2.09
  -3   8  -6   21.76    1.91
  -3   8  -6   25.08    1.89
  -3   8  -6   24.13    1.88
  -4   8  -6  117.70    6.90
  -4   8  -6  118.34    6.85
  -4   8  -6  114.14    6.83
  -4   8  -6  116.85    6.95
  -4   8  -6  106.76    6.81
  -4   8  -6  108.21    7.01
  -4   8  -6  120.96    7.08
  -4   8  -6  119.37    6.98
  -4   8  -6  112.37    6.72
  -5   8  -6   77.98    4.83
  -5   8  -6   73.85    4.96
  -5   8  -6   83.25    5.23
  -5   8  -6   74.19    5.13
  -5   8  -6   85.47    4.85
  -5   8  -6   86.43    5.13
  -6   8  -6   72.12    4.39
  -6   8  -6   69.37    4.81
  -6   8  -6   68.19    4.64
  -6   8  -6   80.30    5.09
  -6   8  -6   76.11    4.51
  -7   8  -6   10.10    0.97
  -7   8  -6    8.33    1.37
  -7   8  -6   11.44    1.79
   3   7  -6   41.03    2.87
   3   7  -6   39.38    2.91
   3   7  -6   39.44    3.25
   2   7  -6   42.06    2.95
   2   7  -6   35.87    2.64
   2   7  -6   37.51    2.66
   1   7  -6  118.35    6.97
   1   7  -6  109.16    6.57
   1   7  -6  121.23    6.89
   1   7  -6  117.18    7.19
   1   7  -6  111.95    6.56
   1   7  -6  108.29    6.77
   0   7  -6   14.17    1.52
   0   7  -6   13.46    1.20
   0   7  -6   14.42    1.15
   0   7  -6   12.12    1.22
   0   7  -6   14.14    1.10
   0   7  -6   14.58    1.51
   0   7  -6   14.81    1.66
  -1   7  -6  138.50    8.09
  -1   7  -6  126.21    7.99
  -1   7  -6  132.97    8.00
  -1   7  -6  139.85    8.13
  -1   7  -6  141.74    8.26
  -1   7  -6  131.69    8.01
  -1   7  -6  145.51    8.10
  -2   7  -6   20.36    1.63
  -2   7  -6   20.32    1.64
  -2   7  -6   22.94    1.73
  -2   7  -6   20.43    1.59
  -2   7  -6   20.02    1.59
  -2   7  -6   21.82    1.87
  -2   7  -6   21.75    1.58
  -2   7  -6   21.54    1.48
  -2   7  -6   19.15    1.54
  -2   7  -6   20.51    1.67
  -3   7  -6  199.35   11.24
  -3   7  -6  188.88   11.21
  -3   7  -6  181.36   10.97
  -3   7  -6  194.72   11.08
  -3   7  -6  201.96   11.07
  -3   7  -6  197.38   11.23
  -3   7  -6  184.50   11.11
  -3   7  -6  201.95   11.16
  -3   7  -6  172.33   11.07
  -4   7  -6   48.46    3.32
  -4   7  -6   53.67    3.20
  -4   7  -6   55.92    3.49
  -4   7  -6   53.12    3.55
  -4   7  -6   47.99    3.22
  -4   7  -6   53.68    3.40
  -4   7  -6   50.88    3.12
  -4   7  -6   51.98    3.48
  -5   7  -6   85.03    5.33
  -5   7  -6   88.12    5.23
  -5   7  -6   80.22    5.24
  -5   7  -6   81.67    5.36
  -5   7  -6   93.88    5.05
  -5   7  -6   91.33    5.43
  -5   7  -6   78.57    5.08
  -6   7  -6   56.41    3.82
  -6   7  -6   52.49    3.59
  -6   7  -6   58.08    3.27
  -6   7  -6   50.55    3.69
  -6   7  -6   57.69    3.76
  -6   7  -6   51.54    3.33
  -7   7  -6  121.80    6.76
  -7   7  -6  114.23    6.85
  -7   7  -6  122.57    7.24
  -7   7  -6  117.32    7.32
   7  -7   6  112.95    7.34
  -8   7  -6   33.77    2.96
  -8   7  -6   36.55    2.90
   8  -7   6   34.46    3.09
   4   6  -6   82.10    5.46
   4   6  -6   91.42    5.47
  -4  -6   6   90.66    5.70
   3   6  -6   19.74    1.67
   3   6  -6   18.04    1.68
   3   6  -6   21.64    2.06
  -3  -6   6   19.09    1.85
   2   6  -6  105.80    6.57
   2   6  -6  115.07    6.76
   2   6  -6  115.27    6.95
   2   6  -6  106.87    6.56
   1   6  -6   35.42    2.44
   1   6  -6   32.54    2.20
   1   6  -6   34.48    2.04
   1   6  -6   36.81    2.59
   1   6  -6   29.51    2.18
   1   6  -6   30.93    2.04
   0   6  -6  249.67   13.85
   0   6  -6  225.04   13.81
   0   6  -6  238.07   13.78
   0   6  -6  255.60   13.99
   0   6  -6  257.32   14.11
   0   6  -6  223.51   13.83
  -1   6  -6   81.58    5.34
  -1   6  -6   96.28    5.36
  -1   6  -6   80.47    5.24
  -1   6  -6   94.81    5.51
  -1   6  -6   94.53    5.28
  -1   6  -6   85.08    5.22
  -1   6  -6   90.65    5.35
  -2   6  -6  178.99   10.23
  -2   6  -6  180.15   10.21
  -2   6  -6  186.72   10.31
  -2   6  -6  168.48   10.13
  -2   6  -6  166.56   10.25
  -2   6  -6  186.96   10.26
  -2   6  -6  186.24   10.40
  -2   6  -6  160.29   10.25
  -3   6  -6  114.28    6.27
  -3   6  -6   96.60    6.18
  -3   6  -6  103.04    6.23
  -3   6  -6  111.49    6.13
  -3   6  -6   99.20    6.06
  -4   6  -6  166.17   10.22
  -4   6  -6  191.85   10.35
  -4   6  -6  170.40   10.02
  -4   6  -6  168.95   10.15
  -4   6  -6  178.37   10.05
  -4   6  -6  178.38   10.28
  -5   6  -6   31.87    2.43
  -5   6  -6   34.38    2.44
  -5   6  -6   35.50    2.39
  -5   6  -6   31.68    2.14
  -5   6  -6   33.34    2.00
  -5   6  -6   31.36    1.97
   5  -6   6   33.19    2.39
  -6   6  -6  219.52   12.20
  -6   6  -6  239.60   12.72
  -6   6  -6  202.02   12.18
  -6   6  -6  204.74   12.36
  -6   6  -6  238.43   12.77
  -6   6  -6  203.90   12.56
   6  -6   6  202.09   12.65
  -7   6  -6   37.70    2.75
  -7   6  -6   41.15    2.98
  -7   6  -6   36.70    2.39
  -7   6  -6   34.94    2.77
   7  -6   6   33.44    2.86
  -8   6  -6   94.51    5.86
  -8   6  -6   89.34    5.85
  -8   6  -6   93.16    5.42
   8  -6   6   85.73    6.00
   5   5  -6   74.09    4.72
   5   5  -6   69.88    4.76
  -5  -5   6   68.87    5.01
  -5  -5   6   87.87    4.95
   4   5  -6   58.02    3.77
   4   5  -6   50.92    3.42
   4   5  -6   51.46    3.46
  -4  -5   6   47.03    3.62
  -4  -5   6   59.88    3.60
   3   5  -6  117.07    7.18
   3   5  -6  131.15    7.02
   3   5  -6  105.52    6.99
   3   5  -6  121.47    7.33
  -3  -5   6  106.61    7.16
  -3  -5   6  127.14    7.08
   2   5  -6   43.79    2.85
   2   5  -6   49.18    3.20
   2   5  -6   44.03    2.65
   2   5  -6   48.94    3.12
  -2  -5   6   43.99    3.03
   1   5  -6  169.32    9.43
   1   5  -6  149.71    9.26
   1   5  -6  164.14    9.18
   1   5  -6  146.86    9.23
   1   5  -6  172.16    9.54
   0   5  -6   54.39    3.48
   0   5  -6   62.89    3.77
   0   5  -6   59.84    3.50
   0   5  -6   57.29    3.51
  -1   5  -6   98.46    5.71
  -1   5  -6   90.29    5.72
  -1   5  -6   94.24    5.61
  -1   5  -6   92.58    5.62
  -1   5  -6  103.49    5.68
  -1   5  -6   99.29    5.69
  -2   5  -6   90.70    5.82
  -2   5  -6   92.91    5.70
  -2   5  -6   99.21    5.75
  -2   5  -6  109.18    5.87
  -2   5  -6   94.20    5.90
  -2   5  -6   96.88    5.84
  -2   5  -6  108.08    5.87
  -3   5  -6  153.77    9.32
  -3   5  -6  151.08    9.18
  -3   5  -6  174.46    9.42
  -3   5  -6  155.47    9.37
  -3   5  -6  172.18    9.42
  -3   5  -6  160.93    9.21
  -4   5  -6   19.49    1.49
  -4   5  -6   17.77    1.32
  -4   5  -6   18.54    1.13
  -4   5  -6   16.18    1.38
  -4   5  -6   17.42    1.10
  -4   5  -6   16.85    1.63
   4  -5   6   18.55    1.44
  -5   5  -6   86.70    5.64
  -5   5  -6   98.59    5.75
  -5   5  -6  100.20    5.79
  -5   5  -6   86.64    5.53
   5  -5   6  100.35    5.55
   5  -5   6   89.57    5.70
  -6   5  -6   68.73    4.39
  -6   5  -6   67.35    4.55
  -6   5  -6   76.31    4.71
  -6   5  -6   77.02    4.72
   6  -5   6   70.19    4.65
   6  -5   6   77.40    4.41
  -7   5  -6  135.70    8.77
  -7   5  -6  154.25    8.97
  -7   5  -6  153.47    8.96
  -7   5  -6  138.97    8.55
   7  -5   6  157.76    8.59
   7  -5   6  139.09    8.89
  -8   5  -6   47.53    3.64
  -8   5  -6   51.87    3.34
  -8   5  -6   55.16    3.75
   8  -5   6   56.40    3.49
   8  -5   6   47.38    3.87
   6   4  -6   38.91    2.98
   6   4  -6   41.22    2.95
  -6  -4   6   43.72    3.13
  -6  -4   6   42.56    3.31
   5   4  -6   32.78    2.44
   5   4  -6   38.80    2.85
   5   4  -6   34.09    2.51
  -5  -4   6   34.06    2.74
  -5  -4   6   38.16    2.56
   4   4  -6  123.19    7.78
   4   4  -6  125.51    7.73
   4   4  -6  145.19    8.03
   4   4  -6  137.62    8.10
  -4  -4   6  135.20    7.81
  -4  -4   6  126.93    7.97
   3   4  -6   27.09    2.09
   3   4  -6   24.74    1.73
   3   4  -6   23.47    1.95
   3   4  -6   29.80    2.08
  -3  -4   6   26.35    1.81
  -3  -4   6   23.70    1.98
   2   4  -6   47.96    3.09
   2   4  -6   45.89    3.02
   2   4  -6   53.37    3.36
   2   4  -6   52.37    2.96
   2   4  -6   54.31    3.29
  -2  -4   6   47.71    3.23
   1   4  -6   45.28    2.62
   1   4  -6   37.57    2.43
   1   4  -6   38.50    2.38
   1   4  -6   38.30    2.38
   1   4  -6   38.56    2.63
  -1  -4   6   37.14    2.54
   0   4  -6  229.56   11.90
   0   4  -6  197.51   11.77
   0   4  -6  219.84   11.81
   0   4  -6  198.24   11.73
   0   4  -6  195.49   11.88
   0   4  -6  196.40   11.77
  -1   4  -6  147.07    9.21
  -1   4  -6  162.73    9.30
  -1   4  -6  173.72    9.32
  -1   4  -6  168.66    9.27
  -1   4  -6  153.70    9.33
  -2   4  -6  325.46   17.56
  -2   4  -6  293.38   17.39
  -2   4  -6  295.75   17.52
  -2   4  -6  296.83   17.53
  -2   4  -6  324.08   17.53
  -3   4  -6   54.16    3.44
  -3   4  -6   54.66    3.27
  -3   4  -6   50.85    3.94
  -3   4  -6   58.90    3.52
  -3   4  -6   58.31    3.27
   3  -4   6   58.22    3.48
   3  -4   6   61.04    3.46
  -4   4  -6  175.73   11.03
  -4   4  -6  205.95   11.19
  -4   4  -6  207.49   11.19
  -4   4  -6  178.10   11.08
   4  -4   6  203.96   11.05
   4  -4   6  179.27   11.11
  -5   4  -6   51.23    3.31
  -5   4  -6   49.16    3.39
  -5   4  -6   56.84    3.51
  -5   4  -6   56.34    3.53
   5  -4   6   56.70    3.32
   5  -4   6   51.14    3.46
  -6   4  -6  143.43    8.26
  -6   4  -6  148.66    8.33
  -6   4  -6  128.30    8.01
  -6   4  -6  127.02    8.13
   6  -4   6  128.90    8.24
   6  -4   6  145.85    8.14
  -7   4  -6   67.69    4.39
  -7   4  -6   59.01    4.13
  -7   4  -6   69.86    4.29
  -7   4  -6   57.55    3.91
   7  -4   6   57.69    4.26
   7  -4   6   67.00    4.15
   7  -4   6   62.15    3.92
  -8   4  -6   55.21    3.66
  -8   4  -6   51.89    3.90
   8  -4   6   60.61    3.67
   8  -4   6   52.04    4.12
   6   3  -6   36.78    2.96
   6   3  -6   38.39    2.86
  -6  -3   6   43.17    3.24
  -6  -3   6   47.21    2.93
   5   3  -6  136.53    8.22
   5   3  -6  139.27    8.27
   5   3  -6  135.82    8.02
   5   3  -6  126.80    7.95
  -5  -3   6  148.46    8.16
  -5  -3   6  118.64    8.18
  -5  -3   6  144.76    8.03
   4   3  -6   33.32    2.33
   4   3  -6   30.34    2.30
   4   3  -6   27.37    1.97
  -4  -3   6   29.78    2.17
  -4  -3   6   28.63    2.26
  -4  -3   6   32.01    2.05
   3   3  -6  380.78   19.86
   3   3  -6  376.13   19.87
   3   3  -6  306.92   19.57
   3   3  -6  343.20   19.50
   3   3  -6  323.20   19.66
  -3  -3   6  325.71   19.50
  -3  -3   6  370.81   19.74
  -3  -3   6  323.13   19.80
  -3  -3   6  354.65   19.62
   2   3  -6  112.18    6.99
   2   3  -6  132.56    7.18
   2   3  -6  122.00    7.25
   2   3  -6  113.22    6.89
   2   3  -6  124.98    6.92
  -2  -3   6  130.21    7.05
  -2  -3   6  106.63    7.10
  -2  -3   6  119.65    6.93
   1   3  -6  275.24   16.31
   1   3  -6  298.79   16.22
   1   3  -6  304.11   16.36
   1   3  -6  277.66   16.12
   1   3  -6  277.11   16.22
  -1  -3   6  299.13   16.25
  -1  -3   6  284.78   16.24
  -1  -3   6  262.20   16.30
   0   3  -6   83.16    4.84
   0   3  -6   78.50    4.85
   0   3  -6   78.19    4.68
   0   3  -6   79.04    4.76
   0   3  -6   84.79    4.81
   0   3  -6   84.92    4.71
   0  -3   6   79.58    4.83
   0  -3   6   85.64    4.77
  -1   3  -6  342.76   19.96
  -1   3  -6  341.09   20.07
  -1   3  -6  353.78   19.99
  -1   3  -6  377.34   20.06
  -1   3  -6  359.44   20.09
   1  -3   6  341.66   20.10
  -2   3  -6   22.94    1.51
  -2   3  -6   19.36    1.43
  -2   3  -6   21.05    1.43
  -2   3  -6   19.16    1.43
  -2   3  -6   21.92    1.27
   2  -3   6   20.09    1.39
   2  -3   6   21.93    1.51
   2  -3   6   22.74    1.44
  -3   3  -6  191.15   11.01
  -3   3  -6  199.04   11.04
  -3   3  -6  182.25   10.97
  -3   3  -6  189.18   10.98
   3  -3   6  201.82   10.96
   3  -3   6  187.63   11.03
   3  -3   6  182.18   10.97
  -4   3  -6  100.99    6.28
  -4   3  -6  110.78    6.41
  -4   3  -6  101.85    6.31
  -4   3  -6  112.24    6.39
   4  -3   6   99.91    6.35
   4  -3   6  114.54    6.29
  -5   3  -6  280.45   16.93
  -5   3  -6  317.46   17.03
  -5   3  -6  305.04   17.07
  -5   3  -6  282.03   16.88
   5  -3   6  310.23   16.91
   5  -3   6  289.68   16.98
   5  -3   6  276.35   17.01
  -6   3  -6   24.23    1.95
  -6   3  -6   20.83    1.72
  -6   3  -6   18.69    1.78
  -6   3  -6   23.51    2.00
   6  -3   6   23.65    1.78
   6  -3   6   20.30    1.94
   6  -3   6   25.75    1.76
  -7   3  -6  117.13    6.81
  -7   3  -6  103.35    6.68
  -7   3  -6  101.97    6.58
   7  -3   6  111.42    6.96
   7  -3   6  103.08    6.85
   7  -3   6  114.89    6.58
  -8   3  -6   53.39    3.75
  -8   3  -6   47.77    3.52
   8  -3   6   45.39    3.89
   8  -3   6   53.95    3.56
   7   2  -6   25.07    2.14
   7   2  -6   34.53    3.25
   7   2  -6   26.08    2.07
  -7  -2   6   25.80    2.20
  -7  -2   6   22.97    2.52
   6   2  -6  161.28    9.34
   6   2  -6  147.08    9.02
   6   2  -6  144.20    9.06
   6   2  -6  160.61    9.29
  -6  -2   6  138.01    9.25
  -6  -2   6  164.98    9.19
  -6  -2   6  161.88    9.08
   5   2  -6   23.11    1.96
   5   2  -6   23.41    1.92
   5   2  -6   20.82    1.59
   5   2  -6   23.10    1.70
  -5  -2   6   22.70    1.93
  -5  -2   6   21.34    1.64
  -5  -2   6   24.56    1.81
   4   2  -6   69.74    4.07
   4   2  -6   77.36    4.42
   4   2  -6   66.78    4.25
   4   2  -6   74.24    4.45
   4   2  -6   67.27    4.15
  -4  -2   6   76.25    4.31
  -4  -2   6   64.66    4.40
  -4  -2   6   67.36    4.07
  -4  -2   6   67.02    4.16
   3   2  -6  125.72    7.00
   3   2  -6  121.02    7.11
   3   2  -6  115.19    7.52
   3   2  -6  132.16    7.25
   3   2  -6  120.84    6.99
  -3  -2   6  115.87    7.01
  -3  -2   6  126.56    7.48
  -3  -2   6  125.30    7.00
  -3  -2   6  110.53    7.21
   2   2  -6  221.32   12.94
   2   2  -6  245.05   13.24
   2   2  -6  223.98   13.09
   2   2  -6  213.04   13.12
   2   2  -6  235.18   13.06
  -2  -2   6  230.75   12.94
  -2  -2   6  215.10   13.19
  -2  -2   6  228.12   13.07
  -2  -2   6  245.92   13.12
   1   2  -6   46.33    3.11
   1   2  -6   54.73    3.18
   1   2  -6   49.95    3.07
   1   2  -6   54.00    3.11
  -1  -2   6   55.00    3.09
  -1  -2   6   48.35    3.13
  -1  -2   6   50.40    3.11
   0   2  -6  206.73   12.46
   0   2  -6  232.41   12.49
   0   2  -6  213.31   12.38
   0   2  -6  225.64   12.46
   0   2  -6  199.37   12.29
   0  -2   6  228.86   12.39
   0  -2   6  231.61   12.46
   0  -2   6  203.26   12.47
  -1   2  -6   44.99    2.90
  -1   2  -6   47.34    2.81
  -1   2  -6   46.92    2.76
  -1   2  -6   49.71    2.94
   1  -2   6   44.63    2.93
   1  -2   6   49.93    2.77
   1  -2   6   48.16    2.80
   1  -2   6   48.02    2.89
  -2   2  -6  415.40   23.57
  -2   2  -6  399.20   23.56
  -2   2  -6  415.31   23.60
  -2   2  -6  435.42   23.64
   2  -2   6  411.67   23.55
   2  -2   6  392.25   23.62
   2  -2   6  434.76   23.58
  -3   2  -6   46.08    3.02
  -3   2  -6   50.50    3.08
  -3   2  -6   45.67    3.00
  -3   2  -6   54.44    3.12
   3  -2   6   50.23    3.01
   3  -2   6   46.34    3.04
   3  -2   6   47.97    3.05
  -4   2  -6  258.12   13.68
  -4   2  -6  227.21   13.58
  -4   2  -6  233.79   13.72
  -4   2  -6  226.26   13.57
   4  -2   6  247.74   13.57
   4  -2   6  229.84   13.59
   4  -2   6  227.27   13.66
  -5   2  -6   93.82    5.49
  -5   2  -6   89.84    5.56
  -5   2  -6   84.23    5.38
  -5   2  -6   82.31    5.37
   5  -2   6   85.85    5.54
   5  -2   6   94.00    5.36
   5  -2   6   91.82    5.37
  -6   2  -6   83.88    5.04
  -6   2  -6   76.88    5.11
  -6   2  -6   76.10    4.95
  -6   2  -6   73.43    4.89
   6  -2   6   76.09    5.10
   6  -2   6   84.14    4.90
   6  -2   6   82.05    4.89
  -7   2  -6   29.02    2.35
  -7   2  -6   22.10    2.19
  -7   2  -6   23.81    2.13
   7  -2   6   22.63    2.42
   7  -2   6   26.67    2.19
   8   1  -6   19.66    2.06
   8   1  -6   21.90    2.00
   8   1  -6   25.82    3.07
  -8  -1   6   20.41    2.62
  -8  -1   6   24.99    2.38
   7   1  -6   71.78    4.82
   7   1  -6   83.44    5.04
   7   1  -6   68.15    4.80
  -7  -1   6   76.49    5.11
  -7  -1   6   86.23    4.88
   6   1  -6   65.15    4.09
   6   1  -6   69.93    4.31
   6   1  -6   70.18    4.44
   6   1  -6   61.09    4.13
  -6  -1   6   68.75    4.12
  -6  -1   6   58.52    4.32
  -6  -1   6   72.50    4.22
  -6  -1   6   65.10    3.92
   5   1  -6   79.58    5.11
   5   1  -6   83.63    4.96
   5   1  -6   91.92    5.33
   5   1  -6   81.57    5.03
   5   1  -6   87.93    5.23
  -5  -1   6   78.11    4.96
  -5  -1   6   82.40    5.29
  -5  -1   6   91.98    5.16
  -5  -1   6   87.34    5.06
   4   1  -6   63.57    3.68
   4   1  -6   60.44    3.47
   4   1  -6   56.90    3.54
   4   1  -6   54.79    3.45
   4   1  -6   66.87    3.78
   4   1  -6   53.24    3.55
  -4  -1   6   52.47    3.68
  -4  -1   6   62.58    3.59
  -4  -1   6   57.64    3.48
  -4  -1   6   52.27    3.44
   3   1  -6  146.54    8.82
   3   1  -6  161.16    8.80
   3   1  -6  162.93    8.99
   3   1  -6  148.67    8.69
   3   1  -6  141.55    8.82
  -3  -1   6  137.59    8.93
  -3  -1   6  167.46    8.85
  -3  -1   6  146.08    8.80
  -3  -1   6  160.03    8.70
   2   1  -6   96.75    5.57
   2   1  -6   93.64    5.57
   2   1  -6   93.67    5.54
   2   1  -6   98.91    5.66
  -2  -1   6   90.99    5.57
  -2  -1   6  100.08    5.55
  -2  -1   6   88.94    5.61
   1   1  -6  442.89   25.90
   1   1  -6  496.38   26.00
   1   1  -6  472.95   25.98
   1   1  -6  445.67   25.96
  -1  -1   6  412.26   25.97
  -1  -1   6  433.34   25.94
  -1  -1   6  477.90   25.90
  -1  -1   6  477.01   25.94
   0   1  -6   96.66    5.84
   0   1  -6  106.93    5.90
   0   1  -6  104.53    5.81
   0   1  -6   96.81    5.74
   0   1  -6  100.50    5.70
   0  -1   6   94.76    5.89
   0  -1   6   92.04    5.70
   0  -1   6  104.27    5.83
   0  -1   6  102.83    5.75
  -1   1  -6   79.17    4.95
  -1   1  -6   87.07    4.80
  -1   1  -6   80.10    4.89
  -1   1  -6   90.75    5.02
  -1   1  -6   83.22    4.87
   1  -1   6   74.99    4.97
   1  -1   6   81.98    4.88
   1  -1   6   87.27    4.80
   1  -1   6   88.17    4.94
  -2   1  -6   76.71    4.55
  -2   1  -6   73.27    4.50
  -2   1  -6   77.50    4.59
  -2   1  -6   82.28    4.64
   2  -1   6   73.50    4.56
   2  -1   6   71.61    4.59
   2  -1   6   78.61    4.56
   2  -1   6   77.48    4.35
  -3   1  -6  130.04    8.05
  -3   1  -6  146.62    8.18
  -3   1  -6  133.68    8.12
  -3   1  -6  145.62    8.17
   3  -1   6  133.53    8.11
   3  -1   6  137.24    8.18
   3  -1   6  144.39    8.11
  -4   1  -6  136.96    7.78
  -4   1  -6  123.65    7.66
  -4   1  -6  134.31    7.83
  -4   1  -6  120.39    7.71
   4  -1   6  138.74    7.72
   4  -1   6  124.86    7.82
   4  -1   6  142.29    7.65
   4  -1   6  124.25    7.67
  -5   1  -6  108.58    6.99
  -5   1  -6  111.44    6.95
  -5   1  -6  114.24    7.12
  -5   1  -6  127.42    7.08
   5  -1   6  117.61    6.63
   5  -1   6  123.80    7.00
   5  -1   6  122.40    6.91
   5  -1   6  116.53    6.62
   5  -1   6  105.39    7.11
  -6   1  -6   35.44    2.49
  -6   1  -6   32.69    2.53
  -6   1  -6   33.74    2.78
  -6   1  -6   36.38    2.62
   6  -1   6   32.27    2.38
   6  -1   6   33.96    1.99
   6  -1   6   33.39    1.98
   6  -1   6   32.33    2.52
   6  -1   6   29.93    2.66
  -7   1  -6   95.55    5.95
  -7   1  -6  104.52    5.98
  -7   1  -6   88.08    5.91
   7  -1   6   83.18    6.06
   8   0  -6  103.96    6.61
   8   0  -6  104.54    6.69
   8   0  -6  107.13    6.52
   8   0  -6  109.57    6.76
  -8   0   6  103.77    6.37
  -8   0   6  109.67    6.93
  -8   0   6  122.42    6.72
   7   0  -6   58.40    3.91
   7   0  -6   61.52    3.80
   7   0  -6   63.79    4.01
   7   0  -6   62.98    4.23
   7   0  -6   60.04    3.86
  -7   0   6   63.39    3.96
  -7   0   6   56.45    4.13
  -7   0   6   59.19    3.71
  -7   0   6   62.45    3.92
   6   0  -6  116.05    6.72
   6   0  -6  107.51    6.73
   6   0  -6  104.51    6.78
   6   0  -6  119.92    6.84
   6   0  -6  124.36    7.06
   6   0  -6  113.97    6.67
  -6   0   6  122.66    6.83
  -6   0   6  107.07    6.67
  -6   0   6  116.77    6.76
  -6   0   6  107.95    6.96
   5   0  -6   56.32    3.41
   5   0  -6   56.07    3.43
   5   0  -6   55.10    3.31
   5   0  -6   52.33    3.30
   5   0  -6   57.24    3.58
   5   0  -6   51.54    3.30
  -5   0   6   60.56    3.41
  -5   0   6   47.72    3.48
  -5   0   6   51.77    3.29
  -5   0   6   50.64    3.29
   4   0  -6  248.22   14.57
   4   0  -6  262.15   14.64
   4   0  -6  277.99   14.67
   4   0  -6  250.02   14.68
  -4   0   6  239.95   14.63
  -4   0   6  254.47   14.57
  -4   0   6  276.08   14.68
  -4   0   6  236.70   14.77
   3   0  -6   62.50    3.79
   3   0  -6   68.67    3.95
   3   0  -6   58.29    3.79
   3   0  -6   65.86    3.82
  -3   0   6   60.62    3.82
  -3   0   6   65.39    3.79
  -3   0   6   64.17    3.66
  -3   0   6   58.33    3.87
   2   0  -6  380.60   22.69
   2   0  -6  419.99   22.79
   2   0  -6  402.11   22.71
   2   0  -6  429.98   22.78
  -2   0   6  395.28   22.67
  -2   0   6  379.15   22.56
  -2   0   6  414.64   22.68
  -2   0   6  404.08   22.55
  -2   0   6  394.34   22.74
  -2   0   6  375.67   22.75
   1   0  -6  112.49    6.70
   1   0  -6  121.48    6.77
   1   0  -6  125.11    6.84
   1   0  -6  114.10    6.76
  -1   0   6  118.99    6.73
  -1   0   6  115.33    6.68
  -1   0   6  112.97    6.71
  -1   0   6  107.47    6.81
  -1   0   6  116.71    6.64
   0   0  -6  265.50   15.48
   0   0  -6  270.94   15.38
   0   0  -6  288.46   15.56
   0   0  -6  278.14   15.41
   0   0  -6  262.42   15.38
   0   0   6  277.13   15.37
   0   0   6  281.66   15.46
   0   0   6  256.44   15.41
   0   0   6  257.74   15.54
  -1   0  -6   52.06    3.45
  -1   0  -6   60.00    3.53
  -1   0  -6   55.37    3.36
  -1   0  -6   61.25    3.42
  -1   0  -6   54.87    3.31
   1   0   6   60.01    3.45
   1   0   6   56.91    3.29
   1   0   6   53.65    3.49
   1   0   6   55.28    3.43
  -2   0  -6  287.84   15.91
  -2   0  -6  275.67   15.85
  -2   0  -6  263.01   15.86
  -2   0  -6  294.28   15.76
   2   0   6  265.21   15.87
   2   0   6  292.91   15.85
   2   0   6  254.74   15.84
   2   0   6  276.15   15.65
  -3   0  -6  124.58    6.99
  -3   0  -6  112.70    6.95
  -3   0  -6  120.31    6.99
  -3   0  -6  114.04    6.83
   3   0   6  112.91    6.88
   3   0   6  119.02    6.69
   3   0   6  112.66    6.99
   3   0   6  124.42    6.93
   3   0   6  110.81    6.67
  -4   0  -6  193.54   10.67
  -4   0  -6  168.38   10.43
  -4   0  -6  190.97   10.58
  -4   0  -6  167.82   10.54
   4   0   6  181.95   10.39
   4   0   6  177.07   10.44
   4   0   6  192.42   10.54
   4   0   6  173.26   10.24
   4   0   6  183.49   10.24
   4   0   6  168.84   10.61
  -5   0  -6   27.04    2.08
  -5   0  -6   25.23    1.94
  -5   0  -6   22.27    2.04
  -5   0  -6   26.04    2.24
   5   0   6   23.94    1.63
   5   0   6   25.82    1.62
   5   0   6   24.27    2.16
   5   0   6   24.22    1.82
   5   0   6   26.44    1.85
   5   0   6   26.59    2.08
  -6   0  -6  128.28    8.25
  -6   0  -6  130.22    8.15
  -6   0  -6  146.86    8.22
   6   0   6  135.45    8.07
   6   0   6  123.30    8.37
   6   0   6  138.25    7.83
   6   0   6  143.81    7.82
   8  -1  -6   30.73    2.46
   8  -1  -6   34.48    2.59
   8  -1  -6   26.35    2.57
   8  -1  -6   34.27    2.28
  -8   1   6   32.10    2.83
  -8   1   6   33.72    2.30
  -8   1   6   38.64    2.60
   7  -1  -6   88.72    5.23
   7  -1  -6   93.18    5.37
   7  -1  -6   84.63    5.36
   7  -1  -6   87.46    5.64
   7  -1  -6   80.65    5.42
  -7   1   6   88.50    5.28
  -7   1   6   89.29    5.37
  -7   1   6   83.10    5.56
  -7   1   6   93.21    5.41
   6  -1  -6   28.42    2.25
   6  -1  -6   28.03    1.96
   6  -1  -6   28.00    1.86
   6  -1  -6   26.91    2.06
   6  -1  -6   23.99    1.91
  -6   1   6   29.80    2.00
  -6   1   6   25.23    1.89
  -6   1   6   29.32    1.92
   5  -1  -6  402.47   21.29
   5  -1  -6  342.48   21.07
   5  -1  -6  362.69   21.05
   5  -1  -6  393.80   21.12
   5  -1  -6  404.66   21.17
   5  -1  -6  313.39   21.13
  -5   1   6  377.95   21.07
  -5   1   6  350.99   21.11
  -5   1   6  402.82   21.14
  -5   1   6  348.93   21.24
   4  -1  -6   72.08    4.12
   4  -1  -6   61.93    4.06
   4  -1  -6   67.32    4.00
   4  -1  -6   72.00    4.19
  -4   1   6   58.62    4.11
  -4   1   6   65.41    4.08
  -4   1   6   69.36    3.97
  -4   1   6   68.17    4.06
   3  -1  -6  178.30    9.64
   3  -1  -6  160.63    9.55
   3  -1  -6  173.10    9.64
   3  -1  -6  166.57    9.52
  -3   1   6  169.04    9.45
  -3   1   6  164.81    9.47
  -3   1   6  151.73    9.58
  -3   1   6  155.98    9.59
  -3   1   6  166.62    9.52
   2  -1  -6   17.70    1.21
   2  -1  -6   13.80    1.10
   2  -1  -6   16.14    1.14
   2  -1  -6   16.86    1.26
  -2   1   6   15.57    1.08
  -2   1   6   16.15    1.03
  -2   1   6   13.11    1.19
  -2   1   6   14.84    1.10
  -2   1   6   15.25    1.04
  -2   1   6   15.89    1.09
   1  -1  -6  297.53   17.15
   1  -1  -6  320.26   17.18
   1  -1  -6  309.20   17.31
   1  -1  -6  290.72   17.21
  -1   1   6  281.11   17.28
  -1   1   6  301.22   17.13
  -1   1   6  309.56   17.16
  -1   1   6  302.20   17.17
   0  -1  -6  126.12    7.42
   0  -1  -6  125.49    7.40
   0  -1  -6  133.89    7.58
   0  -1  -6  135.10    7.38
   0  -1  -6  126.31    7.35
   0  -1  -6  114.58    7.48
   0   1   6  120.83    7.54
   0   1   6  135.99    7.48
   0   1   6  131.94    7.48
   0   1   6  133.07    7.38
  -1  -1  -6  323.15   17.21
  -1  -1  -6  286.55   16.99
  -1  -1  -6  284.99   17.14
  -1  -1  -6  297.81   17.10
  -1  -1  -6  297.95   16.98
   1   1   6  321.53   17.13
   1   1   6  296.17   17.14
   1   1   6  306.17   16.98
   1   1   6  277.41   17.14
  -2  -1  -6   85.90    5.44
  -2  -1  -6   93.55    5.46
  -2  -1  -6   86.87    5.25
   2   1   6   92.58    5.22
   2   1   6   93.54    5.41
   2   1   6   90.44    5.46
   2   1   6   85.49    5.38
  -3  -1  -6  246.39   13.86
  -3  -1  -6  229.27   13.66
  -3  -1  -6  226.67   13.84
  -3  -1  -6  251.15   13.89
   3   1   6  250.08   13.59
   3   1   6  225.67   13.72
   3   1   6  253.10   13.81
   3   1   6  228.95   13.56
   3   1   6  232.77   13.88
  -4  -1  -6    8.37    1.35
  -4  -1  -6    9.19    1.27
  -4  -1  -6    9.27    1.03
  -4  -1  -6    8.72    1.23
   4   1   6    8.13    0.79
   4   1   6    9.48    1.25
   4   1   6    9.03    0.99
   4   1   6    9.77    0.87
   4   1   6    9.25    1.31
   4   1   6    8.96    0.91
  -5  -1  -6  115.33    7.83
  -5  -1  -6  140.13    7.78
  -5  -1  -6  114.27    7.82
   5   1   6  126.87    7.48
   5   1   6  135.34    7.49
   5   1   6  128.12    7.58
   5   1   6  139.29    7.62
   5   1   6  120.00    7.91
   5   1   6  137.38    7.90
  -6  -1  -6   47.78    3.73
  -6  -1  -6   42.20    3.44
   6   1   6   55.03    3.15
   6   1   6   50.69    3.37
   6   1   6   49.89    3.83
   9  -2  -6   26.49    2.33
   9  -2  -6   25.59    2.54
  -9   2   6   21.07    2.74
  -9   2   6   23.98    2.06
   8  -2  -6   54.11    3.70
   8  -2  -6   54.00    3.81
   8  -2  -6   55.48    3.53
   8  -2  -6   58.40    3.44
  -8   2   6   55.98    3.71
  -8   2   6   52.94    3.82
  -8   2   6   57.58    3.95
   7  -2  -6   36.19    2.80
   7  -2  -6   35.08    2.56
   7  -2  -6   38.33    2.57
   7  -2  -6   34.57    2.64
   7  -2  -6   38.09    2.43
   7  -2  -6   36.94    2.34
  -7   2   6   38.16    2.58
  -7   2   6   33.27    2.70
  -7   2   6   38.00    2.55
  -7   2   6   34.80    2.50
   6  -2  -6  101.48    5.62
   6  -2  -6   86.45    5.52
   6  -2  -6   92.22    5.39
   6  -2  -6   96.09    5.44
   6  -2  -6   95.25    5.70
  -6   2   6   88.32    5.53
  -6   2   6   96.79    5.54
  -6   2   6   84.27    5.60
  -6   2   6   84.08    5.64
   5  -2  -6   78.45    4.78
   5  -2  -6   76.90    4.54
   5  -2  -6   84.15    4.75
   5  -2  -6   67.01    4.66
  -5   2   6   76.67    4.69
  -5   2   6   80.71    4.60
  -5   2   6   81.49    4.65
  -5   2   6   67.43    4.70
   4  -2  -6  236.60   15.10
   4  -2  -6  272.35   15.03
   4  -2  -6  281.85   15.17
  -4   2   6  246.37   15.13
  -4   2   6  278.09   15.08
  -4   2   6  271.25   15.04
  -4   2   6  255.24   15.16
   3  -2  -6   81.70    5.09
   3  -2  -6   95.97    5.25
   3  -2  -6   84.60    5.05
   3  -2  -6   88.97    5.13
  -3   2   6   90.87    5.06
  -3   2   6   76.18    5.15
  -3   2   6   83.29    5.08
  -3   2   6   86.05    5.01
  -3   2   6   86.14    5.03
  -3   2   6   83.61    5.04
   2  -2  -6  201.10   10.75
   2  -2  -6  174.70   10.58
   2  -2  -6  188.22   10.58
   2  -2  -6  174.38   10.59
  -2   2   6  171.76   10.56
  -2   2   6  175.54   10.49
  -2   2   6  171.46   10.69
  -2   2   6  207.94   10.58
  -2   2   6  190.14   10.55
   1  -2  -6   62.41    3.85
   1  -2  -6   60.79    3.63
   1  -2  -6   58.47    3.67
   1  -2  -6   56.35    3.72
  -1   2   6   64.69    3.66
  -1   2   6   66.27    3.70
  -1   2   6   61.14    3.72
  -1   2   6   58.77    3.82
   0  -2  -6  224.61   12.50
   0  -2  -6  202.25   12.53
   0  -2  -6  210.43   12.44
   0  -2  -6  212.04   12.32
   0  -2  -6  223.20   12.62
   0  -2  -6  227.46   12.35
   0   2   6  231.93   12.51
   0   2   6  228.97   12.42
   0   2   6  209.09   12.53
   0   2   6  199.93   12.56
  -1  -2  -6   63.77    4.07
  -1  -2  -6   60.74    3.92
  -1  -2  -6   58.91    3.66
  -1  -2  -6   65.20    3.96
   1   2   6   61.89    3.92
   1   2   6   64.56    3.74
   1   2   6   68.18    3.89
   1   2   6   57.68    3.87
  -2  -2  -6   97.65    6.16
  -2  -2  -6  102.74    6.16
  -2  -2  -6  108.82    6.16
  -2  -2  -6   91.97    5.89
   2   2   6  108.31    5.94
   2   2   6   97.01    6.04
   2   2   6   98.82    6.16
   2   2   6  105.24    6.12
  -3  -2  -6   35.06    2.36
  -3  -2  -6   33.37    2.44
  -3  -2  -6   28.50    2.38
  -3  -2  -6   29.35    2.10
   3   2   6   35.91    2.41
   3   2   6   32.86    2.45
   3   2   6   31.66    2.04
   3   2   6   30.24    2.18
  -4  -2  -6   68.89    4.76
  -4  -2  -6   77.27    4.86
  -4  -2  -6   65.11    4.47
  -4  -2  -6   77.44    4.63
   4   2   6   78.39    4.43
   4   2   6   70.37    4.78
   4   2   6   76.33    4.78
   4   2   6   70.89    4.36
   4   2   6   71.53    4.45
  -5  -2  -6   31.75    2.73
  -5  -2  -6   32.17    2.42
   5   2   6   25.53    2.10
   5   2   6   30.89    2.14
   5   2   6   31.81    2.21
   5   2   6   30.80    2.68
   9  -3  -6   80.67    5.51
   9  -3  -6   83.23    5.41
  -9   3   6   84.85    5.29
  -9   3   6   84.20    5.63
   8  -3  -6   28.87    2.51
  -8   3   6   29.44    2.27
  -8   3   6   31.09    2.34
  -8   3   6   27.94    2.54
   7  -3  -6  186.84   10.26
   7  -3  -6  169.97    9.80
   7  -3  -6  153.60   10.11
   7  -3  -6  180.97   10.16
   7  -3  -6  169.18    9.78
  -7   3   6  183.72   10.09
  -7   3   6  176.35   10.06
  -7   3   6  165.29   10.08
  -7   3   6  155.26   10.15
   6  -3  -6   52.87    3.14
   6  -3  -6   48.72    3.38
   6  -3  -6   51.14    3.10
   6  -3  -6   51.00    3.44
   6  -3  -6   54.90    3.48
  -6   3   6   46.98    3.39
  -6   3   6   50.23    3.37
  -6   3   6   55.10    3.34
  -6   3   6   54.65    3.32
   5  -3  -6  137.51    9.00
   5  -3  -6  168.52    9.16
   5  -3  -6  160.59    9.05
   5  -3  -6  151.40    8.84
  -5   3   6  147.66    9.05
  -5   3   6  165.29    8.98
  -5   3   6  165.02    8.98
  -5   3   6  133.57    8.99
   4  -3  -6   90.75    5.07
   4  -3  -6   78.21    4.78
   4  -3  -6   82.44    4.86
   4  -3  -6   76.64    4.90
  -4   3   6   73.34    4.84
  -4   3   6   86.02    4.86
  -4   3   6   76.09    4.96
  -4   3   6   81.87    4.73
  -4   3   6   84.12    4.85
   3  -3  -6  168.75   10.62
   3  -3  -6  208.12   10.88
   3  -3  -6  174.48   10.68
   3  -3  -6  187.97   10.60
  -3   3   6  189.20   10.59
  -3   3   6  168.72   10.76
  -3   3   6  179.16   10.57
  -3   3   6  202.57   10.66
  -3   3   6  172.85   10.67
  -3   3   6  194.45   10.67
   2  -3  -6   99.43    5.60
   2  -3  -6   91.64    5.25
   2  -3  -6   85.84    5.41
   2  -3  -6   87.87    5.41
  -2   3   6   89.38    5.43
  -2   3   6   97.86    5.38
  -2   3   6   79.92    5.50
  -2   3   6   95.62    5.38
   1  -3  -6   49.63    3.28
   1  -3  -6   58.08    3.42
   1  -3  -6   50.50    3.22
  -1   3   6   55.31    3.25
  -1   3   6   55.26    3.21
  -1   3   6   44.64    3.24
  -1   3   6   50.88    3.37
   0  -3  -6  104.16    5.91
   0  -3  -6   91.98    5.80
   0  -3  -6  100.86    5.98
   0  -3  -6   92.98    5.92
   0   3   6  109.13    5.89
   0   3   6   99.67    5.77
   0   3   6   96.06    5.93
   0   3   6   89.11    5.90
  -1  -3  -6  361.03   19.90
  -1  -3  -6  323.26   19.89
  -1  -3  -6  358.78   19.54
  -1  -3  -6  314.97   19.54
  -1  -3  -6  364.97   19.89
   1   3   6  368.40   19.72
   1   3   6  372.00   19.86
   1   3   6  320.10   19.80
   1   3   6  326.26   19.88
  -2  -3  -6   68.23    4.18
  -2  -3  -6   60.40    3.88
  -2  -3  -6   68.70    4.28
  -2  -3  -6   60.50    4.24
   2   3   6   69.60    4.02
   2   3   6   64.54    4.25
   2   3   6   67.95    4.22
   2   3   6   63.53    4.06
  -3  -3  -6  135.12    7.70
  -3  -3  -6  112.33    7.24
  -3  -3  -6  123.21    7.42
  -3  -3  -6  117.48    7.61
   3   3   6  118.66    7.24
   3   3   6  122.88    7.32
   3   3   6  137.51    7.35
   3   3   6  117.39    7.59
   3   3   6  131.10    7.69
  -4  -3  -6   49.87    3.56
  -4  -3  -6   55.62    3.64
  -4  -3  -6   55.13    4.01
   4   3   6   56.30    3.47
   4   3   6   55.32    3.94
   4   3   6   59.71    3.58
   4   3   6   50.68    3.43
   9  -4  -6    9.92    1.52
  -9   4   6   11.45    1.72
  -9   4   6    9.52    1.37
   8  -4  -6   96.56    5.79
   8  -4  -6   80.83    5.64
  -8   4   6   85.73    5.66
  -8   4   6   87.77    5.57
  -8   4   6   92.19    5.61
   7  -4  -6   51.71    3.33
   7  -4  -6   49.26    3.37
   7  -4  -6   43.59    3.26
  -7   4   6   45.72    3.28
  -7   4   6   47.18    3.21
  -7   4   6   51.58    3.24
  -7   4   6   43.40    3.21
   6  -4  -6  184.30   10.31
   6  -4  -6  167.83   10.61
   6  -4  -6  189.32   10.60
   6  -4  -6  190.07   10.76
  -6   4   6  166.21   10.59
  -6   4   6  187.82   10.59
  -6   4   6  186.05   10.55
  -6   4   6  174.48   10.66
   5  -4  -6   52.34    3.31
   5  -4  -6   50.27    3.53
   5  -4  -6   57.36    3.45
   5  -4  -6   60.47    3.71
  -5   4   6   53.55    3.68
  -5   4   6   59.12    3.48
  -5   4   6   57.49    3.51
  -5   4   6   50.98    3.46
   4  -4  -6  161.97    8.66
   4  -4  -6  135.58    8.45
   4  -4  -6  145.60    8.29
   4  -4  -6  134.13    8.32
  -4   4   6  145.68    8.43
  -4   4   6  138.11    8.31
  -4   4   6  146.35    8.27
  -4   4   6  133.15    8.53
  -4   4   6  158.73    8.42
  -4   4   6  136.81    8.44
   3  -4  -6   79.82    5.07
   3  -4  -6   87.90    5.16
   3  -4  -6   93.63    5.33
   3  -4  -6   83.70    4.88
  -3   4   6   89.70    5.02
  -3   4   6   88.32    5.09
  -3   4   6   82.76    4.87
  -3   4   6   79.20    5.13
  -3   4   6   78.04    5.22
   2  -4  -6  361.43   20.14
   2  -4  -6  389.63   20.32
   2  -4  -6  330.75   20.12
  -2   4   6  378.10   20.09
  -2   4   6  330.42   20.15
  -2   4   6  319.22   20.21
   1  -4  -6   48.11    3.17
   1  -4  -6   45.44    3.22
   1  -4  -6   51.70    3.34
  -1   4   6   51.13    3.13
  -1   4   6   47.35    3.30
  -1   4   6   54.39    3.19
  -1   4   6   49.37    3.26
   0  -4  -6  216.38   12.06
   0  -4  -6  204.67   12.02
   0   4   6  214.12   11.89
   0   4   6  212.66   11.98
   0   4   6  179.72   11.96
  -1  -4  -6   23.26    1.89
  -1  -4  -6   22.44    1.97
  -1  -4  -6   22.50    1.98
   1   4   6   23.63    1.74
   1   4   6   21.78    1.89
   1   4   6   21.74    1.90
   1   4   6   20.55    1.76
  -2  -4  -6   75.62    5.28
  -2  -4  -6   87.55    5.14
   2   4   6   89.95    5.06
   2   4   6   80.91    5.02
   2   4   6   74.77    5.25
  -3  -4  -6   34.89    2.53
  -3  -4  -6   33.85    3.00
   3   4   6   34.60    2.40
   3   4   6   29.72    2.30
   3   4   6   34.30    2.58
   3   4   6   34.41    2.86
   8  -5  -6   58.20    4.08
   8  -5  -6   51.07    3.97
  -8   5   6   60.51    3.98
  -8   5   6   57.06    3.98
  -8   5   6   62.43    4.64
   7  -5  -6  143.78    8.20
   7  -5  -6  128.24    8.26
  -7   5   6  131.35    8.29
  -7   5   6  143.82    8.25
   6  -5  -6   40.83    2.94
   6  -5  -6   33.16    2.64
   6  -5  -6   37.26    2.49
  -6   5   6   38.72    2.62
  -6   5   6   36.15    2.63
  -6   5   6   35.81    2.72
  -6   5   6   37.82    2.57
   5  -5  -6   73.38    4.31
   5  -5  -6   79.75    4.79
   5  -5  -6   68.57    4.54
   5  -5  -6   69.04    4.31
  -5   5   6   68.13    4.62
  -5   5   6   65.71    4.34
  -5   5   6   71.06    4.23
  -5   5   6   77.36    4.49
  -5   5   6   77.78    4.56
   4  -5  -6   24.68    1.95
   4  -5  -6   28.69    1.74
   4  -5  -6   33.32    2.38
   4  -5  -6   26.70    2.09
  -4   5   6   30.92    2.06
  -4   5   6   28.29    2.13
  -4   5   6   25.87    2.21
  -4   5   6   27.22    1.75
  -4   5   6   29.92    2.13
  -4   5   6   29.56    1.87
   3  -5  -6  173.61    9.41
   3  -5  -6  149.97    9.20
   3  -5  -6  144.55    9.13
  -3   5   6  150.36    9.31
  -3   5   6  161.53    9.09
  -3   5   6  140.75    9.30
  -3   5   6  171.55    9.17
   2  -5  -6   26.81    2.13
   2  -5  -6   33.19    2.37
   2  -5  -6   26.01    2.13
  -2   5   6   28.64    2.22
  -2   5   6   26.79    2.27
  -2   5   6   31.29    2.07
  -2   5   6   32.22    2.11
   1  -5  -6  125.96    8.33
   1  -5  -6  152.10    8.43
  -1   5   6  129.53    8.37
  -1   5   6  132.24    8.38
  -1   5   6  153.07    8.26
  -1   5   6  144.13    8.28
   0  -5  -6   24.03    1.95
   0  -5  -6   19.74    1.94
   0   5   6   20.13    1.84
   0   5   6   21.11    1.89
   0   5   6   20.97    1.92
   0   5   6   22.00    1.79
  -1  -5  -6   61.63    4.39
  -1  -5  -6   67.61    4.18
   1   5   6   62.73    4.09
   1   5   6   60.03    4.31
   1   5   6   65.72    4.14
  -2  -5  -6   33.92    2.73
  -2  -5  -6   28.29    2.99
   2   5   6   30.25    2.78
   2   5   6   33.65    2.38
   8  -6  -6   68.83    4.20
   8  -6  -6   56.95    4.27
  -8   6   6   60.86    4.13
  -8   6   6   56.75    4.26
   7  -6  -6   42.63    2.73
   7  -6  -6   34.24    2.94
  -7   6   6   36.14    2.99
  -7   6   6   39.83    2.80
   6  -6  -6  103.68    6.92
   6  -6  -6  122.07    6.67
  -6   6   6  115.45    6.95
  -6   6   6  121.34    6.99
  -6   6   6  106.84    7.00
  -6   6   6  107.58    6.71
   5  -6  -6   51.27    3.35
   5  -6  -6   55.63    3.17
   5  -6  -6   50.10    3.61
  -5   6   6   54.95    3.23
  -5   6   6   52.44    3.62
  -5   6   6   53.73    3.75
  -5   6   6   52.13    3.60
  -5   6   6   55.42    3.20
   4  -6  -6  131.46    7.45
   4  -6  -6  118.42    7.20
   4  -6  -6  112.98    7.08
  -4   6   6  128.20    7.29
  -4   6   6  119.05    7.22
  -4   6   6  111.53    7.02
  -4   6   6  119.84    7.12
  -4   6   6  107.30    7.26
   3  -6  -6   35.96    2.90
   3  -6  -6   34.30    2.63
   3  -6  -6   36.96    2.66
  -3   6   6   37.10    2.48
  -3   6   6   40.43    2.66
  -3   6   6   34.93    2.68
  -3   6   6   35.02    2.74
   2  -6  -6  112.48    7.49
   2  -6  -6  131.57    7.63
  -2   6   6  124.98    7.38
  -2   6   6  139.76    7.80
  -2   6   6  114.56    7.54
  -2   6   6  119.22    7.55
   1  -6  -6  109.21    6.26
   1  -6  -6   92.48    6.23
  -1   6   6  101.60    6.15
  -1   6   6   99.63    6.29
  -1   6   6   92.28    6.17
   0  -6  -6   59.24    4.62
   0  -6  -6   70.05    4.44
   0   6   6   68.49    4.37
   0   6   6   66.97    4.56
   7  -7  -6   60.34    4.29
  -7   7   6   57.57    4.19
  -7   7   6   63.97    4.48
  -7   7   6   56.89    4.44
   6  -7  -6   40.36    3.17
  -6   7   6   40.55    3.22
  -6   7   6   40.88    3.15
   5  -7  -6  125.72    7.44
   5  -7  -6  117.39    7.65
  -5   7   6  131.82    7.29
  -5   7   6  116.84    7.77
  -5   7   6  130.14    7.74
   4  -7  -6   46.60    3.54
   4  -7  -6   49.76    3.50
  -4   7   6   45.16    3.66
  -4   7   6   51.76    3.64
  -4   7   6   55.66    3.27
   3  -7  -6   81.46    5.40
  -3   7   6   89.17    5.25
  -3   7   6   80.75    5.53
  -3   7   6   84.43    5.49
   2  -7  -6   34.64    3.15
  -2   7   6   43.57    3.35
  -2   7   6   39.49    3.10
  -2   7   6   38.40    3.14
  -1   9  -7   64.10    4.32
  -1   9  -7   61.69    4.01
  -1   9  -7   57.27    4.14
  -1   9  -7   61.14    3.95
  -1   9  -7   62.37    4.29
  -1   9  -7   65.01    4.04
  -1   9  -7   59.75    3.91
  -2   9  -7   42.90    2.91
  -2   9  -7   41.78    3.05
  -2   9  -7   42.05    3.17
  -2   9  -7   42.70    2.95
  -2   9  -7   48.49    3.35
  -2   9  -7   40.79    2.97
  -2   9  -7   38.65    2.80
  -2   9  -7   41.05    2.91
  -3   9  -7   20.06    1.85
  -3   9  -7   20.63    1.83
  -3   9  -7   23.74    2.04
  -3   9  -7   17.09    2.28
  -3   9  -7   23.86    1.98
  -3   9  -7   17.71    1.94
  -3   9  -7   19.68    1.82
  -3   9  -7   22.42    2.06
  -3   9  -7   22.41    1.69
  -3   9  -7   23.19    2.32
  -4   9  -7  116.66    7.10
  -4   9  -7  116.11    7.09
  -4   9  -7  123.59    7.26
  -4   9  -7  121.53    7.06
  -4   9  -7  107.00    7.01
  -4   9  -7  122.56    7.11
  -4   9  -7  113.22    6.88
  -4   9  -7  120.83    7.33
  -4   9  -7  110.08    7.21
  -5   9  -7   71.31    4.67
  -5   9  -7   75.18    4.55
  -5   9  -7   75.57    4.75
  -5   9  -7   72.19    4.91
  -5   9  -7   67.61    4.51
  -6   9  -7   68.72    4.55
  -6   9  -7   68.03    4.22
  -6   9  -7   68.48    4.11
  -6   9  -7   66.03    4.74
   1   8  -7   40.82    2.82
   1   8  -7   36.69    2.80
   1   8  -7   45.44    3.27
   0   8  -7   36.43    2.42
   0   8  -7   37.37    2.60
   0   8  -7   36.33    2.87
   0   8  -7   37.52    2.40
   0   8  -7   36.24    2.79
   0   8  -7   38.22    2.58
  -1   8  -7   94.54    5.78
  -1   8  -7   93.20    5.81
  -1   8  -7   98.35    5.99
  -1   8  -7   97.41    5.97
  -1   8  -7  103.46    6.00
  -1   8  -7   91.91    5.79
  -1   8  -7   97.95    5.76
  -1   8  -7  102.74    6.22
  -1   8  -7   89.30    5.92
  -2   8  -7   25.25    2.12
  -2   8  -7   24.63    2.08
  -2   8  -7   29.04    2.14
  -2   8  -7   29.05    2.25
  -2   8  -7   28.79    2.05
  -2   8  -7   24.96    2.23
  -2   8  -7   26.07    1.91
  -2   8  -7   30.65    2.20
  -2   8  -7   30.49    2.44
  -3   8  -7  109.12    6.83
  -3   8  -7  118.84    7.02
  -3   8  -7  107.65    6.92
  -3   8  -7  106.03    6.66
  -3   8  -7  116.43    6.96
  -3   8  -7  114.60    6.81
  -3   8  -7  116.08    6.84
  -3   8  -7  118.81    6.84
  -3   8  -7  115.47    6.80
  -4   8  -7   18.59    1.66
  -4   8  -7   18.02    1.73
  -4   8  -7   16.61    1.86
  -4   8  -7   17.23    1.36
  -4   8  -7   18.17    1.83
  -4   8  -7   17.82    1.58
  -4   8  -7   22.90    1.59
  -4   8  -7   17.62    1.81
  -4   8  -7   18.34    1.58
  -5   8  -7  100.26    6.09
  -5   8  -7   89.09    5.94
  -5   8  -7   95.29    5.77
  -5   8  -7  110.06    6.33
  -5   8  -7   94.48    6.22
  -5   8  -7   96.10    5.92
  -5   8  -7  107.93    6.12
  -6   8  -7   36.22    2.22
  -6   8  -7   37.93    2.57
  -6   8  -7   33.44    2.64
  -6   8  -7   32.61    2.14
  -6   8  -7   32.63    2.30
  -6   8  -7   31.53    2.80
  -7   8  -7   50.59    3.21
  -7   8  -7   51.03    3.67
  -7   8  -7   51.77    3.85
   3   7  -7   18.30    1.95
   3   7  -7   18.82    1.75
   2   7  -7   80.94    5.00
   2   7  -7   76.59    5.02
   2   7  -7   87.55    5.33
   1   7  -7   28.37    2.07
   1   7  -7   31.35    2.41
   1   7  -7   29.80    1.85
   1   7  -7   32.25    2.71
   1   7  -7   26.91    1.84
   1   7  -7   26.97    2.03
   0   7  -7  141.44    9.15
   0   7  -7  162.80    9.34
   0   7  -7  154.41    9.52
   0   7  -7  147.10    9.21
   0   7  -7  167.80    9.24
   0   7  -7  172.18    9.44
   0   7  -7  162.43    9.15
  -1   7  -7   18.67    1.85
  -1   7  -7   18.89    1.61
  -1   7  -7   18.16    1.62
  -1   7  -7   20.89    1.59
  -1   7  -7   18.75    1.42
  -1   7  -7   15.45    1.45
  -1   7  -7   17.83    1.39
  -1   7  -7   17.64    1.41
  -1   7  -7   19.55    1.60
  -2   7  -7  172.90    9.61
  -2   7  -7  157.86    9.48
  -2   7  -7  167.05    9.62
  -2   7  -7  171.47    9.80
  -2   7  -7  157.59    9.63
  -2   7  -7  167.06    9.59
  -2   7  -7  184.05    9.71
  -2   7  -7  157.34    9.54
  -2   7  -7  151.38    9.63
  -2   7  -7  157.28    9.65
  -3   7  -7   69.11    4.48
  -3   7  -7   75.27    4.47
  -3   7  -7   76.68    4.54
  -3   7  -7   67.64    4.25
  -3   7  -7   69.59    4.75
  -3   7  -7   67.22    4.42
  -3   7  -7   76.36    4.61
  -3   7  -7   72.57    4.40
  -4   7  -7   97.58    6.24
  -4   7  -7  102.25    6.34
  -4   7  -7  100.58    6.09
  -4   7  -7  114.24    6.46
  -4   7  -7  110.47    6.16
  -4   7  -7  105.62    6.37
  -5   7  -7   30.34    2.35
  -5   7  -7   33.76    2.05
  -5   7  -7   31.47    2.19
  -5   7  -7   33.60    2.49
  -5   7  -7   31.10    1.99
  -5   7  -7   34.05    2.52
  -6   7  -7  123.96    7.39
  -6   7  -7  113.02    6.98
  -6   7  -7  116.81    6.77
  -6   7  -7  124.36    6.79
  -6   7  -7  115.02    7.21
  -7   7  -7   34.20    2.88
  -7   7  -7   38.54    2.44
  -7   7  -7   34.85    2.83
   7  -7   7   36.40    3.01
  -8   7  -7  104.11    6.98
  -8   7  -7  114.11    7.17
   8  -7   7  110.84    7.14
   4   6  -7   26.51    2.16
   4   6  -7   28.53    2.32
  -4  -6   7   30.98    2.66
   3   6  -7   92.78    5.59
   3   6  -7   98.95    5.86
   3   6  -7   86.69    5.50
  -3  -6   7   87.44    5.74
   2   6  -7   61.69    4.00
   2   6  -7   67.65    4.48
   2   6  -7   71.75    4.35
   2   6  -7   63.04    4.07
   1   6  -7  133.93    7.32
   1   6  -7  114.92    7.09
   1   6  -7  127.24    6.98
   1   6  -7  102.54    7.02
   1   6  -7  130.72    7.41
   1   6  -7  116.13    6.97
   0   6  -7   15.01    1.44
   0   6  -7   14.95    1.19
   0   6  -7   16.82    1.22
   0   6  -7   15.67    1.60
   0   6  -7   14.50    1.23
   0   6  -7   17.66    1.48
   0   6  -7   17.87    1.34
  -1   6  -7   98.92    6.47
  -1   6  -7  114.42    6.64
  -1   6  -7   99.03    6.33
  -1   6  -7  118.98    6.46
  -1   6  -7  107.96    6.50
  -1   6  -7  104.24    6.34
  -1   6  -7  117.92    6.50
  -2   6  -7   95.85    5.50
  -2   6  -7   90.23    5.54
  -2   6  -7   97.63    5.55
  -2   6  -7   86.00    5.36
  -2   6  -7   91.31    5.44
  -2   6  -7   85.68    5.52
  -2   6  -7   96.63    5.52
  -3   6  -7  267.25   16.02
  -3   6  -7  296.75   15.92
  -3   6  -7  272.45   16.06
  -3   6  -7  309.51   16.11
  -3   6  -7  259.33   16.27
  -3   6  -7  268.39   15.86
  -4   6  -7   70.33    4.50
  -4   6  -7   68.63    4.71
  -4   6  -7   78.02    4.66
  -4   6  -7   80.96    4.67
  -4   6  -7   71.96    4.31
  -4   6  -7   76.42    4.34
  -5   6  -7  123.55    7.00
  -5   6  -7  131.58    7.48
  -5   6  -7  117.41    7.22
  -5   6  -7  131.18    7.46
  -5   6  -7  111.77    6.99
  -5   6  -7  122.06    7.36
   5  -6   7  125.04    7.41
  -6   6  -7   46.41    3.19
  -6   6  -7   42.27    2.79
  -6   6  -7   40.30    2.99
  -6   6  -7   48.30    3.22
   6  -6   7   41.12    3.05
  -7   6  -7  105.82    6.66
  -7   6  -7  107.97    6.37
   7  -6   7  107.51    6.76
  -8   6  -7   40.21    3.12
  -8   6  -7   30.95    3.05
  -8   6  -7   40.35    2.65
   8  -6   7   38.69    3.22
   5   5  -7   29.33    2.26
   5   5  -7   28.13    2.38
  -5  -5   7   32.75    2.66
  -5  -5   7   30.18    2.75
   4   5  -7   65.35    4.27
   4   5  -7   73.78    4.69
   4   5  -7   67.79    4.38
  -4  -5   7   74.46    4.41
  -4  -5   7   67.64    4.61
   3   5  -7   43.92    3.07
   3   5  -7   39.78    2.67
   3   5  -7   43.07    2.94
   3   5  -7   39.22    2.56
  -3  -5   7   34.95    2.84
   2   5  -7  137.51    8.60
   2   5  -7  161.26    8.82
   2   5  -7  153.47    8.43
   2   5  -7  157.01    8.87
   2   5  -7  141.40    8.52
  -2  -5   7  133.58    8.72
   1   5  -7   70.90    4.30
   1   5  -7   65.01    4.02
   1   5  -7   61.15    3.94
   1   5  -7   71.84    4.23
   1   5  -7   65.40    3.95
   0   5  -7  124.63    7.24
   0   5  -7  130.65    7.18
   0   5  -7  116.57    6.95
   0   5  -7  124.92    7.02
   0   5  -7  110.88    6.99
   0   5  -7  124.74    7.02
   0   5  -7  110.96    7.12
  -1   5  -7   74.37    4.27
  -1   5  -7   79.22    4.31
  -1   5  -7   66.68    4.35
  -1   5  -7   66.28    4.18
  -1   5  -7   66.44    4.20
  -1   5  -7   74.62    4.33
  -2   5  -7  163.56    9.19
  -2   5  -7  149.06    9.06
  -2   5  -7  162.42    9.19
  -2   5  -7  171.32    9.24
  -2   5  -7  150.49    9.23
  -2   5  -7  148.56    9.21
  -2   5  -7  162.64    9.10
  -3   5  -7   63.07    3.80
  -3   5  -7   72.16    4.05
  -3   5  -7   65.62    3.81
  -3   5  -7   61.16    4.02
  -3   5  -7   63.75    3.99
  -3   5  -7   66.92    4.06
  -4   5  -7   57.74    3.42
  -4   5  -7   51.32    3.27
  -4   5  -7   53.47    3.39
  -4   5  -7   48.14    3.32
   4  -5   7   51.01    3.32
  -5   5  -7   27.39    2.04
  -5   5  -7   28.44    2.04
  -5   5  -7   22.00    1.88
  -5   5  -7   24.02    1.79
   5  -5   7   24.91    1.94
  -6   5  -7  120.95    7.23
  -6   5  -7  130.35    7.26
  -6   5  -7  110.40    6.94
  -6   5  -7  107.02    7.06
   6  -5   7  126.36    6.95
   6  -5   7  109.65    7.14
  -7   5  -7   39.34    3.44
  -7   5  -7   28.55    2.24
  -7   5  -7   31.71    2.54
   7  -5   7   34.46    2.31
   7  -5   7   28.35    2.59
  -8   5  -7   58.18    3.62
  -8   5  -7   53.14    3.95
   8  -5   7   49.14    4.03
   6   4  -7   39.32    2.73
   6   4  -7   37.40    2.88
  -6  -4   7   38.34    3.18
   5   4  -7   75.31    5.04
   5   4  -7   80.57    4.96
  -5  -4   7   78.61    5.26
  -5  -4   7   90.52    5.06
   4   4  -7   32.71    2.62
   4   4  -7   34.98    2.58
   4   4  -7   29.86    2.26
   4   4  -7   31.39    2.14
  -4  -4   7   35.46    2.24
  -4  -4   7   30.74    2.48
   3   4  -7  117.69    7.23
   3   4  -7  131.44    7.43
   3   4  -7  129.27    7.45
   3   4  -7  128.24    6.98
   3   4  -7  116.73    7.09
  -3  -4   7  110.42    7.38
   2   4  -7   12.51    1.11
   2   4  -7   14.10    1.38
   2   4  -7   14.48    1.39
   2   4  -7   12.72    0.95
   2   4  -7   14.15    0.99
  -2  -4   7   12.59    1.27
   1   4  -7  185.91   11.39
   1   4  -7  210.23   11.28
   1   4  -7  216.93   11.47
   1   4  -7  185.08   11.18
   1   4  -7  184.84   11.29
   0   4  -7   63.35    3.97
   0   4  -7   70.59    3.93
   0   4  -7   64.75    4.10
   0   4  -7   64.86    3.89
   0   4  -7   72.98    4.03
   0  -4   7   65.41    4.05
  -1   4  -7  170.06   10.35
  -1   4  -7  183.89   10.34
  -1   4  -7  184.46   10.24
  -1   4  -7  179.16   10.34
  -1   4  -7  173.85   10.22
   1  -4   7  181.06   10.38
  -2   4  -7   31.15    2.20
  -2   4  -7   34.55    2.24
  -2   4  -7   34.50    2.22
  -2   4  -7   34.95    2.17
  -2   4  -7   34.13    2.04
  -3   4  -7  195.48   11.75
  -3   4  -7  209.62   11.81
  -3   4  -7  186.64   11.72
  -3   4  -7  207.69   11.77
   3  -4   7  225.71   11.75
   3  -4   7  195.67   11.71
  -4   4  -7  128.97    7.59
  -4   4  -7  133.10    7.70
  -4   4  -7  119.55    7.61
   4  -4   7  125.76    7.63
   4  -4   7  138.89    7.58
  -5   4  -7  296.70   15.90
  -5   4  -7  281.75   15.90
  -5   4  -7  268.67   15.80
  -5   4  -7  248.14   15.70
   5  -4   7  259.37   15.82
   5  -4   7  286.61   15.71
  -6   4  -7   51.85    3.52
  -6   4  -7   52.20    3.58
  -6   4  -7   46.89    3.27
  -6   4  -7   50.52    3.40
   6  -4   7   47.73    3.48
   6  -4   7   57.00    3.31
  -7   4  -7  119.85    7.68
  -7   4  -7  118.76    7.54
  -7   4  -7  140.43    7.91
   7  -4   7  117.36    7.83
   7  -4   7  134.42    7.54
  -8   4  -7   35.57    2.72
  -8   4  -7   32.93    2.97
   8  -4   7   35.44    3.26
   6   3  -7  104.93    6.70
   6   3  -7  109.44    6.62
  -6  -3   7  118.89    6.68
  -6  -3   7  109.07    6.97
   5   3  -7   10.46    1.19
   5   3  -7   11.18    1.58
   5   3  -7   12.06    1.64
   5   3  -7   10.15    1.02
  -5  -3   7   12.67    1.16
  -5  -3   7    8.97    1.42
  -5  -3   7   10.72    1.34
   4   3  -7  195.43   11.72
   4   3  -7  189.31   11.95
   4   3  -7  216.76   12.17
   4   3  -7  220.28   11.87
   4   3  -7  217.78   12.18
  -4  -3   7  188.89   12.12
  -4  -3   7  217.00   12.04
  -4  -3   7  208.60   11.88
   3   3  -7   71.05    4.62
   3   3  -7   80.78    4.86
   3   3  -7   78.33    4.50
   3   3  -7   77.92    4.50
   3   3  -7   81.72    4.84
  -3  -3   7   76.81    4.51
  -3  -3   7   71.36    4.78
  -3  -3   7   71.83    4.50
  -3  -3   7   84.13    4.72
   2   3  -7  172.25   10.38
   2   3  -7  180.21   10.48
   2   3  -7  174.41   10.22
   2   3  -7  196.88   10.58
   2   3  -7  191.34   10.35
  -2  -3   7  180.29   10.35
  -2  -3   7  170.53   10.51
  -2  -3   7  174.72   10.55
   1   3  -7  105.47    5.85
   1   3  -7   97.56    5.55
   1   3  -7   92.29    5.71
   1   3  -7  102.40    5.74
   1   3  -7   88.93    5.78
  -1  -3   7   94.05    5.74
  -1  -3   7  106.76    5.75
  -1  -3   7   94.03    5.81
   0   3  -7  397.84   21.04
   0   3  -7  358.63   21.06
   0   3  -7  393.40   21.06
   0   3  -7  359.04   20.85
   0   3  -7  341.04   20.83
   0   3  -7  352.64   20.95
   0  -3   7  392.93   20.96
   0  -3   7  359.03   21.05
  -1   3  -7  234.29   14.39
  -1   3  -7  248.66   14.40
  -1   3  -7  270.79   14.56
  -1   3  -7  240.78   14.53
  -1   3  -7  264.27   14.50
   1  -3   7  257.59   14.38
   1  -3   7  269.37   14.53
   1  -3   7  242.33   14.56
  -2   3  -7  238.59   13.74
  -2   3  -7  256.93   14.00
  -2   3  -7  224.35   13.92
  -2   3  -7  247.10   13.90
  -2   3  -7  237.02   13.95
   2  -3   7  262.20   13.95
   2  -3   7  236.66   14.00
   2  -3   7  240.91   13.87
  -3   3  -7    4.52    0.65
  -3   3  -7    3.25    0.55
  -3   3  -7    4.63    0.69
  -3   3  -7    5.24    0.69
   3  -3   7    5.03    0.66
   3  -3   7    4.67    0.72
   3  -3   7    4.65    0.63
  -4   3  -7  293.29   17.30
  -4   3  -7  297.88   17.41
  -4   3  -7  291.21   17.29
  -4   3  -7  324.74   17.41
   4  -3   7  292.92   17.33
   4  -3   7  308.57   17.29
  -5   3  -7   39.32    3.38
  -5   3  -7   44.90    3.04
  -5   3  -7   46.52    3.05
  -5   3  -7   41.09    2.88
   5  -3   7   43.19    3.01
   5  -3   7   47.34    2.88
  -6   3  -7  132.37    7.50
  -6   3  -7  117.54    7.35
  -6   3  -7  110.72    7.28
  -6   3  -7  126.87    7.56
   6  -3   7  113.68    7.47
   6  -3   7  130.57    7.29
  -7   3  -7   33.58    2.88
  -7   3  -7   31.24    2.69
  -7   3  -7   33.45    2.56
   7  -3   7   29.45    2.88
   7  -3   7   39.49    2.62
   7   2  -7   74.48    5.02
   7   2  -7   78.59    4.96
  -7  -2   7   86.69    5.03
  -7  -2   7   78.90    5.37
   6   2  -7   77.13    5.05
   6   2  -7   79.19    4.99
   6   2  -7   73.83    4.61
   6   2  -7   68.67    4.72
  -6  -2   7   75.24    4.99
  -6  -2   7   76.84    4.66
  -6  -2   7   83.15    4.92
   5   2  -7  141.71    8.19
   5   2  -7  150.07    8.26
   5   2  -7  126.94    7.89
   5   2  -7  130.67    8.03
   5   2  -7  129.34    7.79
  -5  -2   7  126.34    8.20
  -5  -2   7  148.87    8.11
  -5  -2   7  134.85    7.92
  -5  -2   7  137.86    7.81
   4   2  -7   63.07    4.01
   4   2  -7   65.19    3.68
   4   2  -7   59.99    3.83
   4   2  -7   58.65    3.66
   4   2  -7   66.08    3.99
   4   2  -7   62.72    3.84
  -4  -2   7   68.43    3.89
  -4  -2   7   58.34    3.98
  -4  -2   7   56.10    3.68
   3   2  -7   76.82    4.55
   3   2  -7   78.96    4.66
   3   2  -7   73.67    4.72
   3   2  -7   89.66    4.95
   3   2  -7   76.52    4.76
  -3  -2   7   79.47    4.55
  -3  -2   7   78.57    4.88
  -3  -2   7   75.47    4.67
  -3  -2   7   82.80    4.76
   2   2  -7   39.24    2.66
   2   2  -7   43.97    2.62
   2   2  -7   40.65    2.61
   2   2  -7   45.00    2.78
  -2  -2   7   39.73    2.72
  -2  -2   7   40.00    2.62
  -2  -2   7   45.00    2.64
   1   2  -7  188.51   10.95
   1   2  -7  204.35   11.02
   1   2  -7  201.41   11.07
   1   2  -7  188.37   11.03
  -1  -2   7  174.25   11.01
  -1  -2   7  199.89   10.96
  -1  -2   7  180.42   11.02
   0   2  -7   77.94    4.54
   0   2  -7   72.42    4.52
   0   2  -7   73.30    4.41
   0   2  -7   78.12    4.50
   0  -2   7   81.84    4.51
   0  -2   7   67.37    4.52
   0  -2   7   77.33    4.41
  -1   2  -7  268.93   14.41
  -1   2  -7  237.33   14.19
  -1   2  -7  254.41   14.31
  -1   2  -7  251.41   14.23
  -1   2  -7  244.28   14.37
   1  -2   7  261.68   14.34
   1  -2   7  260.21   14.20
   1  -2   7  242.86   14.22
   1  -2   7  232.68   14.39
  -2   2  -7   11.87    1.00
  -2   2  -7   11.04    0.97
  -2   2  -7   12.94    1.08
  -2   2  -7   15.05    1.14
   2  -2   7   12.04    1.10
   2  -2   7   14.41    1.05
   2  -2   7   13.16    0.99
  -3   2  -7  103.04    5.97
  -3   2  -7   96.17    5.90
  -3   2  -7  110.61    5.95
  -3   2  -7   93.88    5.85
   3  -2   7   95.48    5.93
   3  -2   7   94.63    5.89
  -4   2  -7   87.45    5.49
  -4   2  -7   98.56    5.58
  -4   2  -7   92.27    5.56
  -4   2  -7   93.12    5.46
   4  -2   7   83.67    5.52
   4  -2   7   86.47    5.48
   4  -2   7   93.10    5.46
  -5   2  -7  130.72    7.43
  -5   2  -7  119.13    7.43
  -5   2  -7  113.77    7.31
   5  -2   7  125.60    7.28
  -6   2  -7   74.55    4.87
  -6   2  -7   70.56    4.64
  -6   2  -7   72.94    4.77
  -6   2  -7   67.20    4.62
   6  -2   7   76.54    4.62
   6  -2   7   74.41    4.84
  -7   2  -7   65.17    4.37
  -7   2  -7   59.86    4.10
  -7   2  -7   57.87    4.13
   7  -2   7   63.61    4.14
   7  -2   7   54.20    4.32
   7   1  -7   26.14    2.38
   7   1  -7   27.85    2.06
   7   1  -7   25.35    2.14
   7   1  -7   26.93    2.01
  -7  -1   7   26.80    1.74
  -7  -1   7   22.25    2.42
  -7  -1   7   27.93    2.10
   6   1  -7   73.78    4.72
   6   1  -7   86.22    5.00
   6   1  -7   74.44    4.85
   6   1  -7   79.92    4.81
   6   1  -7   83.96    5.14
  -6  -1   7   74.18    4.65
  -6  -1   7   85.66    4.92
  -6  -1   7   73.32    5.04
  -6  -1   7   77.41    4.75
   5   1  -7   34.14    2.94
   5   1  -7   39.66    2.63
   5   1  -7   37.83    2.35
   5   1  -7   35.02    2.44
   5   1  -7   35.61    2.34
   5   1  -7   40.35    2.72
  -5  -1   7   41.76    2.54
  -5  -1   7   32.17    3.01
  -5  -1   7   34.84    2.35
  -5  -1   7   37.94    2.35
   4   1  -7  148.02    8.20
   4   1  -7  146.25    7.96
   4   1  -7  142.47    8.04
   4   1  -7  138.12    8.01
   4   1  -7  135.26    7.86
  -4  -1   7  145.01    8.03
  -4  -1   7  120.54    8.12
  -4  -1   7  126.18    7.94
  -4  -1   7  130.11    7.85
   3   1  -7   83.20    5.09
   3   1  -7   91.76    5.08
   3   1  -7   83.15    5.09
  -3  -1   7   80.39    4.87
  -3  -1   7   81.46    5.18
  -3  -1   7   90.15    5.10
  -3  -1   7   87.73    5.20
   2   1  -7  244.27   12.94
   2   1  -7  240.32   13.00
   2   1  -7  209.45   12.86
   2   1  -7  215.51   12.90
  -2  -1   7  206.93   12.90
  -2  -1   7  212.52   12.94
  -2  -1   7  242.94   12.87
   1   1  -7   97.76    6.06
   1   1  -7  115.93    6.19
   1   1  -7   99.10    6.14
   1   1  -7  115.62    6.19
  -1  -1   7  103.96    6.10
  -1  -1   7  110.31    6.06
  -1  -1   7   88.29    6.14
   0   1  -7  170.83   10.41
   0   1  -7  172.51   10.23
   0   1  -7  189.19   10.37
   0   1  -7  176.99   10.29
   0   1  -7  191.18   10.47
   0  -1   7  184.38   10.28
   0  -1   7  170.49   10.46
   0  -1   7  172.61   10.24
   0  -1   7  194.32   10.39
  -1   1  -7   51.78    3.23
  -1   1  -7   54.42    3.13
  -1   1  -7   54.24    3.21
  -1   1  -7   56.98    3.38
  -1   1  -7   53.45    3.33
   1  -1   7   49.93    3.21
   1  -1   7   60.56    3.31
   1  -1   7   53.66    3.13
   1  -1   7   47.87    3.34
  -2   1  -7  287.28   17.07
  -2   1  -7  302.00   17.00
  -2   1  -7  301.48   17.03
  -2   1  -7  318.08   17.15
   2  -1   7  272.68   17.08
   2  -1   7  292.62   17.04
   2  -1   7  315.93   17.06
   2  -1   7  292.02   16.82
  -3   1  -7  161.33   10.00
  -3   1  -7  178.29   10.02
  -3   1  -7  165.75    9.91
  -3   1  -7  186.97   10.08
   3  -1   7  166.82   10.02
   3  -1   7  180.73    9.98
   3  -1   7  158.68    9.97
  -4   1  -7  137.72    8.72
  -4   1  -7  143.21    8.65
  -4   1  -7  148.61    8.79
  -4   1  -7  158.22    8.82
   4  -1   7  159.44    8.72
   4  -1   7  143.28    8.81
   4  -1   7  142.87    8.67
  -5   1  -7   36.05    2.56
  -5   1  -7   27.68    2.50
  -5   1  -7   32.71    2.44
  -5   1  -7   33.53    2.54
   5  -1   7   34.81    2.42
   5  -1   7   30.53    2.28
   5  -1   7   30.96    2.52
  -6   1  -7  113.06    7.18
  -6   1  -7  127.05    7.34
  -6   1  -7  108.29    7.24
   6  -1   7  123.21    7.13
   6  -1   7  113.73    7.41
   6  -1   7  123.36    7.27
  -7   1  -7   53.86    3.98
  -7   1  -7   51.81    3.81
  -7   1  -7   50.58    3.78
   7  -1   7   47.90    4.01
   8   0  -7   27.58    2.39
   8   0  -7   28.76    2.12
   8   0  -7   25.38    2.17
   8   0  -7   27.03    2.54
  -8   0   7   27.69    2.26
  -8   0   7   27.40    2.03
  -8   0   7   26.53    2.69
   7   0  -7   87.13    5.97
   7   0  -7   97.12    5.86
   7   0  -7  102.93    6.04
   7   0  -7   93.49    5.87
  -7   0   7   94.22    6.18
  -7   0   7   94.47    5.79
  -7   0   7  109.59    6.34
  -7   0   7  102.34    5.91
   6   0  -7   46.33    3.09
   6   0  -7   42.69    2.81
   6   0  -7   40.29    2.64
   6   0  -7   37.34    2.75
   6   0  -7   37.49    2.61
   6   0  -7   40.00    2.62
  -6   0   7   43.50    2.76
  -6   0   7   37.75    2.91
  -6   0   7   43.90    2.65
  -6   0   7   37.92    2.62
   5   0  -7  185.65   11.60
   5   0  -7  197.81   11.68
   5   0  -7  206.93   11.69
   5   0  -7  189.06   11.75
   5   0  -7  213.97   11.77
   5   0  -7  222.61   11.94
  -5   0   7  203.57   11.61
  -5   0   7  189.90   11.67
  -5   0   7  216.66   11.74
  -5   0   7  198.37   11.87
   4   0  -7   81.31    4.74
   4   0  -7   68.43    4.56
   4   0  -7   77.06    4.56
   4   0  -7   76.32    4.55
  -4   0   7   82.79    4.57
  -4   0   7   68.83    4.54
  -4   0   7   81.11    4.42
  -4   0   7   66.98    4.64
   3   0  -7  364.55   18.59
   3   0  -7  312.67   18.42
   3   0  -7  300.06   18.42
   3   0  -7  345.89   18.48
  -3   0   7  322.36   18.25
  -3   0   7  300.46   18.45
  -3   0   7  299.60   18.48
  -3   0   7  335.75   18.41
   2   0  -7  112.15    6.39
   2   0  -7  101.84    6.31
   2   0  -7   98.80    6.28
   2   0  -7  118.61    6.40
  -2   0   7  100.30    6.31
  -2   0   7  122.90    6.15
  -2   0   7  105.64    6.26
  -2   0   7  109.70    6.27
  -2   0   7   97.51    6.35
  -2   0   7  106.56    6.12
   1   0  -7  420.55   24.51
   1   0  -7  421.95   24.59
   1   0  -7  445.17   24.57
   1   0  -7  470.88   24.67
  -1   0   7  429.92   24.48
  -1   0   7  405.48   24.64
  -1   0   7  429.21   24.43
  -1   0   7  433.53   24.54
   0   0  -7   35.32    2.20
   0   0  -7   30.48    1.97
   0   0  -7   28.53    2.09
   0   0  -7   33.34    2.02
   0   0  -7   31.32    1.96
   0   0   7   28.98    2.15
   0   0   7   33.28    2.01
   0   0   7   32.80    1.95
   0   0   7   33.38    2.07
  -1   0  -7  282.42   17.10
  -1   0  -7  291.07   16.99
  -1   0  -7  291.95   17.01
  -1   0  -7  290.43   16.93
  -1   0  -7  328.99   17.20
   1   0   7  298.59   16.91
   1   0   7  299.36   17.07
   1   0   7  316.48   17.08
   1   0   7  286.63   17.14
  -2   0  -7  145.43    8.31
  -2   0  -7  149.30    8.45
  -2   0  -7  133.29    8.35
  -2   0  -7  136.62    8.21
   2   0   7  128.30    8.33
   2   0   7  143.11    8.36
   2   0   7  148.77    8.11
   2   0   7  149.97    8.33
  -3   0  -7  229.03   11.98
  -3   0  -7  190.39   11.89
  -3   0  -7  210.43   11.92
  -3   0  -7  195.57   11.75
   3   0   7  191.22   11.83
   3   0   7  194.77   11.91
   3   0   7  197.29   11.59
   3   0   7  218.14   11.88
   3   0   7  209.51   11.60
  -4   0  -7   19.86    1.81
  -4   0  -7   24.45    1.92
  -4   0  -7   23.82    1.88
  -4   0  -7   20.38    1.65
   4   0   7   23.46    1.82
   4   0   7   18.91    1.87
   4   0   7   21.29    1.37
   4   0   7   21.23    1.37
   4   0   7   20.26    1.65
  -5   0  -7  113.68    6.83
  -5   0  -7  103.18    6.83
  -5   0  -7  122.83    7.05
  -5   0  -7   99.68    6.68
   5   0   7  113.10    6.39
   5   0   7  113.34    6.40
   5   0   7  116.38    6.85
   5   0   7  105.33    6.92
  -6   0  -7   25.11    2.50
  -6   0  -7   27.88    2.48
  -6   0  -7   28.46    2.36
   6   0   7   26.97    2.62
   6   0   7   25.76    2.08
   8  -1  -7  124.61    6.95
   8  -1  -7  119.58    7.10
   8  -1  -7  116.94    7.07
   8  -1  -7  110.53    7.21
  -8   1   7  113.10    7.34
  -8   1   7  115.67    7.08
  -8   1   7  116.40    6.97
   7  -1  -7   39.23    2.99
   7  -1  -7   45.98    2.91
   7  -1  -7   40.09    3.22
   7  -1  -7   44.33    2.77
   7  -1  -7   40.82    2.83
   7  -1  -7   39.73    2.82
  -7   1   7   39.78    3.09
  -7   1   7   46.53    2.87
  -7   1   7   42.11    2.81
  -7   1   7   45.20    2.99
   6  -1  -7  106.26    6.27
   6  -1  -7   96.74    6.34
   6  -1  -7   98.42    6.21
   6  -1  -7  103.13    6.19
   6  -1  -7  112.72    6.53
   6  -1  -7  111.93    6.29
  -6   1   7  111.72    6.31
  -6   1   7  107.63    6.20
  -6   1   7   97.27    6.42
  -6   1   7  101.40    6.24
   5  -1  -7   69.33    4.18
   5  -1  -7   73.51    4.42
   5  -1  -7   74.19    4.28
   5  -1  -7   64.84    4.28
  -5   1   7   65.53    4.23
  -5   1   7   65.31    4.34
  -5   1   7   69.89    4.23
  -5   1   7   68.99    4.12
   4  -1  -7  170.24    9.33
   4  -1  -7  159.49    9.19
   4  -1  -7  157.91    9.25
   4  -1  -7  165.89    9.56
  -4   1   7  148.40    9.24
  -4   1   7  140.52    9.26
  -4   1   7  156.92    9.09
  -4   1   7  167.57    9.21
   3  -1  -7   39.26    2.53
   3  -1  -7   33.97    2.39
   3  -1  -7   39.95    2.52
   3  -1  -7   36.36    2.42
  -3   1   7   34.36    2.47
  -3   1   7   39.35    2.29
  -3   1   7   39.29    2.35
  -3   1   7   37.73    2.27
  -3   1   7   41.12    2.40
  -3   1   7   33.54    2.42
   2  -1  -7  311.50   18.10
   2  -1  -7  351.99   18.24
   2  -1  -7  340.51   18.15
   2  -1  -7  307.46   18.07
  -2   1   7  291.25   18.03
  -2   1   7  291.75   18.17
  -2   1   7  309.98   17.99
  -2   1   7  321.93   18.05
  -2   1   7  309.69   17.97
  -2   1   7  332.37   18.04
   1  -1  -7   32.69    2.19
   1  -1  -7   30.06    1.99
   1  -1  -7   32.10    2.02
   1  -1  -7   28.85    2.07
  -1   1   7   27.16    2.12
  -1   1   7   34.26    1.98
  -1   1   7   32.47    2.01
  -1   1   7   32.42    2.03
   0  -1  -7   85.21    4.85
   0  -1  -7   79.89    4.82
   0  -1  -7   78.70    4.86
   0  -1  -7   92.24    5.11
   0  -1  -7   82.11    4.89
   0  -1  -7   79.83    4.98
   0   1   7   72.48    5.01
   0   1   7   84.82    4.84
   0   1   7   84.01    4.94
   0   1   7   88.89    4.96
  -1  -1  -7   11.13    0.88
  -1  -1  -7   12.72    1.19
  -1  -1  -7   11.74    0.90
  -1  -1  -7   12.86    1.03
  -1  -1  -7    9.59    1.09
   1   1   7   10.44    1.09
   1   1   7   11.68    0.87
   1   1   7   12.03    1.08
   1   1   7   11.29    1.05
  -2  -1  -7  221.16   12.39
  -2  -1  -7  197.65   12.42
  -2  -1  -7  221.57   12.45
  -2  -1  -7  204.60   12.21
   2   1   7  226.29   12.40
   2   1   7  219.32   12.17
   2   1   7  205.65   12.37
   2   1   7  209.17   12.42
  -3  -1  -7   77.52    4.93
  -3  -1  -7   87.06    5.17
  -3  -1  -7   77.76    5.16
  -3  -1  -7   87.83    5.18
   3   1   7   83.67    5.20
   3   1   7   80.73    5.05
   3   1   7   86.52    5.12
   3   1   7   84.93    4.84
   3   1   7   77.27    4.81
  -4  -1  -7  120.22    7.49
  -4  -1  -7  124.93    7.54
  -4  -1  -7  111.66    7.24
  -4  -1  -7  131.22    7.45
   4   1   7  129.84    7.11
   4   1   7  115.70    7.49
   4   1   7  122.59    7.29
   4   1   7  130.55    7.47
   4   1   7  115.18    7.07
  -5  -1  -7   29.12    2.34
  -5  -1  -7   32.53    2.52
  -5  -1  -7   28.86    2.65
   5   1   7   31.72    2.69
   5   1   7   30.09    2.23
   5   1   7   29.91    2.03
   5   1   7   32.11    2.06
   8  -2  -7   55.47    3.68
   8  -2  -7   60.06    3.48
   8  -2  -7   50.88    3.84
   8  -2  -7   56.66    3.56
  -8   2   7   54.10    3.67
  -8   2   7   55.89    3.64
  -8   2   7   50.28    3.93
   7  -2  -7   58.96    4.20
   7  -2  -7   65.24    4.13
   7  -2  -7   63.76    3.93
   7  -2  -7   66.47    3.99
   7  -2  -7   63.19    4.34
  -7   2   7   61.57    4.25
  -7   2   7   68.77    4.16
  -7   2   7   66.25    4.07
   6  -2  -7   13.89    1.16
   6  -2  -7   15.32    1.60
   6  -2  -7   13.15    1.41
   6  -2  -7   13.70    1.41
   6  -2  -7   14.90    1.24
  -6   2   7   13.25    1.51
  -6   2   7   14.08    1.32
  -6   2   7   12.35    1.30
  -6   2   7   14.63    1.22
   5  -2  -7  120.85    8.05
   5  -2  -7  133.33    7.93
   5  -2  -7  146.82    8.16
   5  -2  -7  147.78    8.14
  -5   2   7  121.71    8.04
  -5   2   7  143.15    7.95
  -5   2   7  131.87    8.09
  -5   2   7  144.85    8.02
   4  -2  -7   57.76    3.63
   4  -2  -7   55.05    3.71
   4  -2  -7   69.67    3.88
   4  -2  -7   61.42    3.78
  -4   2   7   64.92    3.68
  -4   2   7   55.19    3.72
  -4   2   7   53.76    3.75
  -4   2   7   60.57    3.60
   3  -2  -7  250.82   15.24
   3  -2  -7  286.36   15.43
   3  -2  -7  244.03   15.26
   3  -2  -7  278.39   15.31
  -3   2   7  266.15   15.19
  -3   2   7  248.23   15.36
  -3   2   7  293.55   15.24
  -3   2   7  274.03   15.22
  -3   2   7  257.96   15.23
  -3   2   7  261.93   15.18
   2  -2  -7   82.14    4.60
   2  -2  -7   69.81    4.37
   2  -2  -7   72.23    4.42
   2  -2  -7   67.88    4.38
  -2   2   7   78.39    4.36
  -2   2   7   63.76    4.49
  -2   2   7   75.40    4.36
  -2   2   7   73.97    4.37
   1  -2  -7  126.81    7.39
   1  -2  -7  119.98    7.50
   1  -2  -7  117.73    7.41
   1  -2  -7  139.19    7.66
  -1   2   7  135.83    7.40
  -1   2   7  138.11    7.51
  -1   2   7  115.74    7.57
  -1   2   7  125.74    7.44
   0  -2  -7  247.41   14.25
   0  -2  -7  238.21   14.20
   0  -2  -7  260.60   14.13
   0  -2  -7  251.22   14.08
   0  -2  -7  230.14   14.32
   0  -2  -7  263.62   14.42
   0   2   7  234.36   14.29
   0   2   7  259.98   14.29
   0   2   7  232.10   14.35
   0   2   7  260.58   14.18
  -1  -2  -7  171.38   10.18
  -1  -2  -7  165.00   10.45
  -1  -2  -7  178.47   10.40
  -1  -2  -7  182.19   10.18
  -1  -2  -7  192.40   10.52
   1   2   7  165.73   10.41
   1   2   7  190.53   10.42
   1   2   7  182.17   10.25
   1   2   7  175.12   10.44
  -2  -2  -7   69.40    4.08
  -2  -2  -7   59.33    3.77
  -2  -2  -7   58.65    4.08
  -2  -2  -7   67.10    4.11
   2   2   7   60.84    3.96
   2   2   7   64.34    3.82
   2   2   7   60.26    4.07
   2   2   7   64.60    4.03
  -3  -2  -7  122.20    6.95
  -3  -2  -7  104.64    6.58
  -3  -2  -7  122.56    6.87
  -3  -2  -7  101.36    6.87
   3   2   7  107.77    6.89
   3   2   7  109.16    6.52
   3   2   7  109.08    6.70
   3   2   7  113.65    6.85
   3   2   7  116.64    6.57
  -4  -2  -7   27.05    2.63
  -4  -2  -7   31.41    2.27
  -4  -2  -7   33.77    2.51
   4   2   7   37.39    2.22
   4   2   7   31.08    2.09
   4   2   7   30.08    2.62
   4   2   7   23.50    2.86
  -5  -2  -7   67.99    5.20
  -5  -2  -7   80.64    4.93
   5   2   7   74.85    5.19
   5   2   7   76.64    4.73
   5   2   7   75.40    4.68
   8  -3  -7   87.76    5.87
  -8   3   7   95.34    5.75
  -8   3   7   95.74    5.71
  -8   3   7   87.19    5.88
   7  -3  -7   86.22    5.24
   7  -3  -7   83.48    4.86
   7  -3  -7   73.00    5.21
   7  -3  -7   86.81    5.36
   7  -3  -7   85.51    4.89
  -7   3   7   79.24    5.11
  -7   3   7   75.49    5.21
  -7   3   7   88.89    5.13
  -7   3   7   82.46    5.17
   6  -3  -7  244.60   15.85
   6  -3  -7  301.16   15.98
   6  -3  -7  261.93   15.64
   6  -3  -7  295.07   15.95
  -6   3   7  283.64   15.82
  -6   3   7  253.81   15.87
  -6   3   7  289.30   15.80
  -6   3   7  263.31   15.88
   5  -3  -7   71.71    4.52
   5  -3  -7   77.58    4.70
   5  -3  -7   86.77    4.87
   5  -3  -7   68.67    4.71
  -5   3   7   72.21    4.76
  -5   3   7   84.49    4.66
  -5   3   7   67.70    4.65
  -5   3   7   78.56    4.63
   4  -3  -7  170.36    9.56
   4  -3  -7  156.09    9.48
   4  -3  -7  182.95    9.77
   4  -3  -7  154.81    9.58
  -4   3   7  154.27    9.53
  -4   3   7  163.94    9.43
  -4   3   7  159.31    9.51
  -4   3   7  171.24    9.53
  -4   3   7  155.84    9.67
  -4   3   7  170.25    9.52
   3  -3  -7  104.45    6.06
   3  -3  -7   97.51    6.12
   3  -3  -7  113.51    6.36
   3  -3  -7   98.80    6.15
  -3   3   7  111.11    6.07
  -3   3   7  108.74    6.12
  -3   3   7   98.28    6.12
  -3   3   7  107.51    6.11
  -3   3   7   94.20    6.25
  -3   3   7   99.00    6.00
   2  -3  -7  148.30    8.01
   2  -3  -7  134.42    7.79
   2  -3  -7  130.67    7.81
   2  -3  -7  139.20    7.64
  -2   3   7  132.36    7.75
  -2   3   7  119.92    7.77
  -2   3   7  136.33    7.74
  -2   3   7  118.97    7.89
   1  -3  -7   53.72    3.40
   1  -3  -7   49.38    2.91
   1  -3  -7   49.34    2.96
   1  -3  -7   48.50    3.17
   1  -3  -7   46.93    3.25
  -1   3   7   48.68    3.33
  -1   3   7   52.57    3.14
  -1   3   7   55.62    3.20
  -1   3   7   48.92    3.25
   0  -3  -7  286.81   15.94
   0  -3  -7  260.62   15.72
   0  -3  -7  281.96   15.81
   0  -3  -7  255.41   15.85
   0   3   7  291.75   15.81
   0   3   7  286.27   15.69
   0   3   7  259.10   15.85
   0   3   7  268.64   15.85
  -1  -3  -7   42.94    2.40
  -1  -3  -7   38.08    2.39
  -1  -3  -7   41.06    2.86
  -1  -3  -7   36.94    2.82
  -1  -3  -7   43.80    2.84
   1   3   7   40.72    2.78
   1   3   7   37.88    2.73
   1   3   7   34.93    3.18
   1   3   7   42.78    2.61
  -2  -3  -7   94.53    5.75
  -2  -3  -7   95.22    5.34
  -2  -3  -7   86.21    5.39
  -2  -3  -7   98.40    5.83
  -2  -3  -7   83.44    5.80
   2   3   7   93.08    5.52
   2   3   7   97.21    5.78
   2   3   7   90.13    5.80
   2   3   7   91.34    5.63
  -3  -3  -7   20.36    1.94
  -3  -3  -7   17.97    1.59
  -3  -3  -7   19.94    2.11
   3   3   7   18.63    1.51
   3   3   7   19.13    1.73
   3   3   7   19.68    2.05
   3   3   7   21.78    1.65
  -4  -3  -7  113.22    7.64
   4   3   7  123.32    7.15
   4   3   7  122.29    7.07
   4   3   7  117.17    7.57
   8  -4  -7   16.82    2.05
  -8   4   7   18.31    2.02
  -8   4   7   16.28    1.86
  -8   4   7   15.63    1.87
   7  -4  -7  122.08    7.31
   7  -4  -7  108.06    7.27
   7  -4  -7  126.09    7.40
  -7   4   7  125.52    7.21
  -7   4   7  114.06    7.25
  -7   4   7  118.64    7.28
   6  -4  -7   22.97    2.07
   6  -4  -7   21.18    1.48
   6  -4  -7   19.87    1.81
   6  -4  -7   23.14    1.85
  -6   4   7   22.70    1.75
  -6   4   7   21.56    1.76
  -6   4   7   19.48    1.75
  -6   4   7   19.43    1.84
   5  -4  -7  125.21    7.84
   5  -4  -7  123.11    8.02
   5  -4  -7  142.97    7.94
   5  -4  -7  143.29    8.22
  -5   4   7  140.34    7.99
  -5   4   7  126.28    7.93
  -5   4   7  128.00    8.10
  -5   4   7  130.28    7.77
  -5   4   7  133.44    8.00
  -5   4   7  156.94    8.00
   4  -4  -7   30.79    2.39
   4  -4  -7   33.46    2.18
   4  -4  -7   31.76    2.27
   4  -4  -7   37.24    2.61
  -4   4   7   36.33    2.34
  -4   4   7   33.60    2.17
  -4   4   7   35.80    2.18
  -4   4   7   35.22    2.32
  -4   4   7   31.31    2.48
  -4   4   7   34.27    2.36
   3  -4  -7  124.14    7.70
   3  -4  -7  133.68    7.47
  -3   4   7  119.66    7.86
  -3   4   7  134.41    7.78
  -3   4   7  140.62    7.70
   2  -4  -7   32.08    2.37
   2  -4  -7   32.79    2.42
   2  -4  -7   37.23    2.56
  -2   4   7   35.07    2.28
  -2   4   7   30.16    2.35
  -2   4   7   34.80    2.26
   1  -4  -7  195.26   11.14
   1  -4  -7  166.80   11.00
  -1   4   7  201.07   10.98
  -1   4   7  177.60   11.04
  -1   4   7  198.17   10.91
   0  -4  -7   50.05    3.31
   0  -4  -7   44.74    3.25
   0   4   7   47.22    3.24
   0   4   7   48.02    3.04
   0   4   7   43.58    3.27
   0   4   7   48.02    3.16
  -1  -4  -7  153.59    8.74
  -1  -4  -7  150.18    8.79
  -1  -4  -7  130.41    8.75
   1   4   7  153.65    8.55
   1   4   7  137.14    8.61
   1   4   7  150.76    8.72
   1   4   7  137.68    8.73
  -2  -4  -7   25.42    2.28
  -2  -4  -7   23.85    2.42
   2   4   7   25.13    2.05
   2   4   7   25.48    2.04
   2   4   7   27.05    2.38
  -3  -4  -7   69.04    5.32
   3   4   7   67.99    4.93
   3   4   7   76.99    4.52
   3   4   7   68.07    4.38
   8  -5  -7   59.95    4.40
   8  -5  -7   72.42    4.49
  -8   5   7   60.23    4.37
  -8   5   7   63.45    4.32
   7  -5  -7   43.38    2.93
   7  -5  -7   39.04    3.05
  -7   5   7   36.81    3.05
  -7   5   7   41.23    2.97
  -7   5   7   42.76    2.96
   6  -5  -7  121.89    6.91
   6  -5  -7  111.37    7.11
   6  -5  -7  115.38    6.74
  -6   5   7  110.98    7.15
  -6   5   7  125.56    7.07
  -6   5   7  112.15    7.04
  -6   5   7  115.34    6.94
   5  -5  -7   80.25    4.65
   5  -5  -7   74.32    4.71
   5  -5  -7   83.02    5.17
   5  -5  -7   74.02    4.92
  -5   5   7   84.86    4.87
  -5   5   7   74.11    4.89
  -5   5   7   73.06    4.99
  -5   5   7   77.63    4.67
  -5   5   7   81.97    4.90
  -5   5   7   77.31    4.61
   4  -5  -7  111.71    7.11
   4  -5  -7  124.05    6.86
   4  -5  -7  131.91    7.49
   4  -5  -7  112.72    7.22
  -4   5   7  115.43    7.16
  -4   5   7  124.21    7.24
  -4   5   7  111.23    7.32
  -4   5   7  129.40    7.18
  -4   5   7  119.38    7.25
   3  -5  -7   27.72    2.18
   3  -5  -7   25.06    2.18
   3  -5  -7   32.17    2.50
  -3   5   7   29.35    2.05
  -3   5   7   31.63    2.17
  -3   5   7   30.42    2.26
  -3   5   7   31.10    2.39
   2  -5  -7  113.46    7.19
   2  -5  -7  128.85    7.43
  -2   5   7  108.27    7.32
  -2   5   7  128.36    7.16
  -2   5   7  113.02    7.26
  -2   5   7  125.83    7.16
   1  -5  -7   48.18    3.41
   1  -5  -7   45.98    3.31
  -1   5   7   47.47    3.19
  -1   5   7   47.38    3.34
  -1   5   7   49.56    3.17
  -1   5   7   44.39    3.31
   0  -5  -7  118.28    6.88
   0  -5  -7  104.51    6.90
   0   5   7  106.49    6.78
   0   5   7  104.20    6.85
   0   5   7  118.04    6.70
  -1  -5  -7   33.16    3.06
  -1  -5  -7   36.95    2.90
   1   5   7   37.35    2.69
   1   5   7   36.61    2.97
   7  -6  -7   70.41    4.82
  -7   6   7   69.70    4.53
  -7   6   7   73.53    4.75
  -7   6   7   70.04    4.80
   6  -6  -7   62.58    4.39
   6  -6  -7   62.08    3.92
   6  -6  -7   70.55    4.03
  -6   6   7   57.78    4.42
  -6   6   7   70.48    4.54
  -6   6   7   67.12    4.38
  -6   6   7   66.70    4.04
   5  -6  -7   87.72    5.48
   5  -6  -7   90.39    5.72
  -5   6   7   91.32    5.68
  -5   6   7   80.85    5.74
  -5   6   7   93.10    5.69
  -5   6   7   93.95    5.31
   4  -6  -7   49.93    3.42
   4  -6  -7   51.42    3.55
  -4   6   7   45.14    3.60
  -4   6   7   50.00    3.55
  -4   6   7   53.22    3.25
  -4   6   7   57.02    3.65
   3  -6  -7  100.27    6.63
   3  -6  -7  105.39    6.66
  -3   6   7  111.26    6.76
  -3   6   7  109.87    6.82
  -3   6   7  113.35    6.50
   2  -6  -7   80.48    5.31
  -2   6   7   80.21    5.35
  -2   6   7   81.10    5.40
  -2   6   7   88.33    5.22
   1  -6  -7   82.11    5.72
  -1   6   7   91.97    5.74
  -1   6   7   87.17    5.61
   0  -6  -7   14.58    1.94
   0   6   7   11.83    1.80
   0   6   7   12.26    2.08
   5  -7  -7   23.00    2.42
  -5   7   7   20.75    2.38
  -5   7   7   20.43    2.24
   4  -7  -7  130.43    7.88
   4  -7  -7  129.04    7.96
  -4   7   7  137.43    8.02
  -4   7   7  116.56    8.02
   3  -7  -7   14.03    2.02
  -3   7   7   14.41    2.17
  -3   7   7   16.00    1.83
  -1   9  -8   50.64    3.21
  -1   9  -8   47.21    3.44
  -1   9  -8   43.58    3.32
  -1   9  -8   43.46    3.17
  -1   9  -8   46.27    3.48
  -1   9  -8   52.19    3.58
  -2   9  -8   30.82    2.47
  -2   9  -8   31.13    2.24
  -2   9  -8   27.18    2.27
  -2   9  -8   31.35    2.71
  -2   9  -8   33.04    2.72
  -2   9  -8   31.41    2.54
  -2   9  -8   32.55    2.38
  -2   9  -8   29.43    2.43
  -3   9  -8   53.11    3.85
  -3   9  -8   61.96    3.88
  -3   9  -8   58.07    3.93
  -3   9  -8   55.98    3.87
  -3   9  -8   49.23    3.91
  -3   9  -8   63.14    4.38
  -3   9  -8   65.03    4.14
  -3   9  -8   55.11    3.64
  -3   9  -8   61.34    4.26
  -3   9  -8   61.25    3.81
  -4   9  -8   43.91    3.01
  -4   9  -8   40.33    3.26
  -4   9  -8   40.85    2.77
  -4   9  -8   47.96    3.43
  -4   9  -8   42.69    3.08
  -4   9  -8   38.79    3.00
  -4   9  -8   43.88    3.37
  -4   9  -8   43.97    3.01
  -5   9  -8   81.30    4.89
  -5   9  -8   77.62    5.41
  -5   9  -8   87.54    5.39
  -5   9  -8   80.26    5.10
  -5   9  -8   82.22    5.29
   1   8  -8   28.51    2.22
   1   8  -8   31.21    2.29
   0   8  -8   91.75    5.86
   0   8  -8   98.80    5.76
   0   8  -8   88.55    6.03
   0   8  -8   98.28    6.17
   0   8  -8   93.92    5.77
   0   8  -8  100.92    6.02
   0   8  -8  107.00    6.08
  -1   8  -8   18.39    1.91
  -1   8  -8   20.81    2.20
  -1   8  -8   16.44    1.57
  -1   8  -8   19.80    1.79
  -1   8  -8   15.31    1.91
  -1   8  -8   15.38    1.45
  -1   8  -8   19.16    1.54
  -1   8  -8   17.19    1.74
  -1   8  -8   18.66    1.50
  -2   8  -8   86.26    5.42
  -2   8  -8   83.62    5.42
  -2   8  -8   83.10    5.21
  -2   8  -8   89.49    5.43
  -2   8  -8   86.46    5.27
  -2   8  -8   92.47    5.35
  -2   8  -8   87.06    5.65
  -2   8  -8   84.39    5.39
  -2   8  -8   83.55    5.39
  -2   8  -8   93.96    5.47
  -3   8  -8   15.87    1.62
  -3   8  -8   17.48    1.66
  -3   8  -8   16.33    1.33
  -3   8  -8   19.04    1.95
  -3   8  -8   17.52    1.64
  -3   8  -8   14.96    1.74
  -3   8  -8   17.52    1.52
  -3   8  -8   15.17    1.73
  -3   8  -8   16.86    1.62
  -3   8  -8   18.22    1.76
  -4   8  -8  107.37    7.07
  -4   8  -8  121.10    7.04
  -4   8  -8  118.74    7.08
  -4   8  -8  105.70    6.68
  -4   8  -8  121.07    7.11
  -4   8  -8  121.46    6.81
  -4   8  -8  107.98    6.97
  -4   8  -8  116.04    6.93
  -5   8  -8   58.96    3.92
  -5   8  -8   59.31    4.22
  -5   8  -8   59.36    3.69
  -5   8  -8   65.98    3.76
  -5   8  -8   65.91    4.19
  -5   8  -8   58.87    4.08
  -5   8  -8   63.98    4.26
  -6   8  -8   89.04    5.45
  -6   8  -8   91.40    5.74
  -6   8  -8   90.08    5.84
  -6   8  -8   89.12    5.20
  -7   8  -8   25.74    3.01
  -7   8  -8   23.43    2.49
   2   7  -8   36.39    2.56
   2   7  -8   38.36    2.70
   2   7  -8   39.39    3.24
   1   7  -8  132.61    7.83
   1   7  -8  127.70    7.88
   1   7  -8  128.47    8.03
   1   7  -8  138.88    7.73
   1   7  -8  128.37    7.72
   1   7  -8  145.66    8.20
   0   7  -8   56.02    3.28
   0   7  -8   46.39    3.13
   0   7  -8   48.58    3.18
   0   7  -8   48.85    3.37
   0   7  -8   52.60    3.63
   0   7  -8   44.68    3.10
   0   7  -8   54.03    3.46
  -1   7  -8   93.08    5.64
  -1   7  -8   85.73    5.46
  -1   7  -8   84.97    5.51
  -1   7  -8   85.44    5.66
  -1   7  -8   98.40    5.87
  -1   7  -8   95.64    5.54
  -1   7  -8   98.94    5.72
  -1   7  -8   97.64    5.61
  -2   7  -8   53.55    3.19
  -2   7  -8   46.07    3.01
  -2   7  -8   49.77    3.14
  -2   7  -8   48.14    3.11
  -2   7  -8   45.47    3.33
  -2   7  -8   44.94    2.98
  -2   7  -8   49.53    3.38
  -2   7  -8   47.93    3.21
  -2   7  -8   48.19    3.15
  -3   7  -8  205.49   11.87
  -3   7  -8  191.70   11.66
  -3   7  -8  198.65   11.90
  -3   7  -8  188.41   11.84
  -3   7  -8  212.85   11.77
  -3   7  -8  205.98   11.84
  -3   7  -8  222.51   11.93
  -4   7  -8   47.10    2.99
  -4   7  -8   44.81    3.00
  -4   7  -8   40.03    2.57
  -4   7  -8   44.55    2.64
  -4   7  -8   38.35    2.81
  -4   7  -8   39.43    2.88
  -5   7  -8  135.98    8.22
  -5   7  -8  150.13    8.71
  -5   7  -8  140.72    8.49
  -5   7  -8  140.08    8.61
  -5   7  -8  148.88    8.70
  -5   7  -8  148.91    8.24
  -6   7  -8   28.55    2.42
  -6   7  -8   30.07    2.17
  -6   7  -8   31.33    2.65
  -7   7  -8   76.59    5.08
  -7   7  -8   77.79    4.75
   7  -7   8   75.70    5.16
   4   6  -8   49.61    3.13
   4   6  -8   44.75    3.31
  -4  -6   8   46.02    3.56
   3   6  -8   48.02    3.17
   3   6  -8   49.36    3.89
   3   6  -8   46.06    2.99
  -3  -6   8   44.54    3.37
   2   6  -8   87.66    5.79
   2   6  -8   83.36    5.45
   2   6  -8  104.05    5.40
   2   6  -8   87.22    5.21
   2   6  -8   97.80    5.76
   2   6  -8   82.62    5.20
   1   6  -8   42.20    3.05
   1   6  -8   38.21    2.77
   1   6  -8   38.16    2.64
   1   6  -8   41.72    2.55
   1   6  -8   42.60    2.94
   1   6  -8   40.67    2.55
   0   6  -8   97.99    5.64
   0   6  -8   98.29    5.62
   0   6  -8  101.90    5.83
   0   6  -8   97.72    5.93
   0   6  -8   90.55    5.61
   0   6  -8   88.65    5.76
   0   6  -8   88.94    5.54
  -1   6  -8   29.64    2.05
  -1   6  -8   36.22    2.22
  -1   6  -8   33.17    2.18
  -1   6  -8   37.54    2.31
  -1   6  -8   30.61    2.10
  -1   6  -8   29.12    2.29
  -2   6  -8  142.96    8.87
  -2   6  -8  142.67    9.05
  -2   6  -8  157.78    9.01
  -2   6  -8  167.15    9.06
  -2   6  -8  158.33    8.95
  -2   6  -8  151.41    9.09
  -2   6  -8  159.07    9.03
  -3   6  -8   28.57    2.02
  -3   6  -8   29.88    2.21
  -3   6  -8   29.46    1.86
  -3   6  -8   27.43    2.04
  -3   6  -8   30.45    2.12
  -3   6  -8   27.76    1.81
  -4   6  -8   58.23    3.59
  -4   6  -8   67.33    4.00
  -4   6  -8   62.63    3.96
  -4   6  -8   59.92    3.85
  -4   6  -8   64.25    3.60
  -4   6  -8   57.75    3.92
  -5   6  -8   87.75    5.19
  -5   6  -8   86.22    5.17
  -5   6  -8   77.93    4.94
  -5   6  -8   78.25    5.07
   5  -6   8   75.72    5.54
  -6   6  -8  122.24    7.23
  -6   6  -8  112.78    6.94
  -6   6  -8  113.72    7.12
   6  -6   8  117.67    7.15
  -7   6  -8   46.86    3.18
  -7   6  -8   47.53    3.48
   7  -6   8   49.14    3.58
   5   5  -8   41.60    3.00
  -5  -5   8   39.73    3.29
   4   5  -8   22.92    1.90
   4   5  -8   22.81    1.66
  -4  -5   8   20.60    2.19
   3   5  -8   54.28    3.72
   3   5  -8   51.19    3.34
   3   5  -8   56.94    3.66
   3   5  -8   49.75    3.17
  -3  -5   8   48.15    3.52
   2   5  -8   37.23    2.39
   2   5  -8   35.56    2.54
   2   5  -8   41.90    2.89
   2   5  -8   40.90    2.40
   2   5  -8   40.20    2.84
   2   5  -8   37.62    2.64
  -2  -5   8   38.37    2.76
   1   5  -8  170.02    9.02
   1   5  -8  153.75    8.71
   1   5  -8  135.41    8.65
   1   5  -8  155.43    9.04
   1   5  -8  140.80    8.78
   1   5  -8  153.17    8.74
   0   5  -8   33.65    2.43
   0   5  -8   34.95    2.28
   0   5  -8   37.20    2.48
   0   5  -8   34.98    2.23
   0   5  -8   38.28    2.33
  -1   5  -8  194.42   11.01
  -1   5  -8  177.79   10.98
  -1   5  -8  204.11   11.13
  -1   5  -8  184.72   11.15
  -1   5  -8  202.54   11.14
  -1   5  -8  186.72   10.94
  -2   5  -8  101.97    6.50
  -2   5  -8  113.33    6.47
  -2   5  -8  108.55    6.52
  -2   5  -8  103.66    6.31
  -2   5  -8  112.28    6.43
  -2   5  -8  115.84    6.53
  -3   5  -8  162.42    8.96
  -3   5  -8  167.66    9.03
  -3   5  -8  146.33    8.93
  -3   5  -8  142.58    8.95
  -3   5  -8  155.22    8.70
  -3   5  -8  142.33    8.70
  -4   5  -8   50.10    3.38
  -4   5  -8   56.95    3.53
  -4   5  -8   50.03    3.45
  -4   5  -8   54.10    3.46
   4  -5   8   58.01    3.40
   4  -5   8   52.69    3.40
  -5   5  -8   86.84    5.39
  -5   5  -8   90.81    5.57
  -5   5  -8   90.52    5.55
  -5   5  -8   82.66    5.46
   5  -5   8   83.31    5.46
   5  -5   8   99.61    5.41
  -6   5  -8   35.98    2.80
  -6   5  -8   36.19    2.67
  -6   5  -8   36.95    2.86
  -6   5  -8   35.95    2.54
   6  -5   8   38.01    2.53
   6  -5   8   35.14    2.71
  -7   5  -8   76.44    5.26
   7  -5   8   73.37    5.32
   7  -5   8   93.76    5.12
   5   4  -8   29.89    2.27
   5   4  -8   29.92    2.04
  -5  -4   8   28.46    2.10
  -5  -4   8   28.12    2.55
   4   4  -8  256.42   14.34
   4   4  -8  237.24   13.95
   4   4  -8  247.39   14.11
   4   4  -8  250.57   14.34
  -4  -4   8  219.19   14.26
  -4  -4   8  252.00   13.99
   3   4  -8   61.12    3.89
   3   4  -8   66.62    4.10
   3   4  -8   55.82    3.63
   3   4  -8   65.96    4.11
   3   4  -8   61.57    3.63
   3   4  -8   60.45    3.83
  -3  -4   8   67.35    3.95
  -3  -4   8   55.93    4.00
   2   4  -8  164.72    9.65
   2   4  -8  157.94    9.55
   2   4  -8  153.88    9.71
   2   4  -8  179.70    9.96
   2   4  -8  165.17    9.84
   2   4  -8  194.08    9.98
  -2  -4   8  154.05    9.86
  -2  -4   8  159.98    9.67
  -2  -4   8  182.50    9.81
   1   4  -8   12.77    1.03
   1   4  -8   14.23    1.26
   1   4  -8   11.71    0.83
   1   4  -8   12.16    0.80
   1   4  -8    9.93    1.12
   1   4  -8   12.32    1.01
  -1  -4   8   11.79    1.05
  -1  -4   8   14.09    1.09
   0   4  -8  235.08   12.65
   0   4  -8  216.81   12.40
   0   4  -8  202.10   12.62
   0   4  -8  207.70   12.49
   0   4  -8  225.42   12.38
   0   4  -8  231.88   12.58
   0  -4   8  209.29   12.60
  -1   4  -8  105.53    6.49
  -1   4  -8  111.00    6.67
  -1   4  -8  117.47    6.77
  -1   4  -8  112.13    6.50
  -1   4  -8  117.99    6.63
   1  -4   8  110.42    6.68
  -2   4  -8  157.71    8.77
  -2   4  -8  145.54    8.60
  -2   4  -8  150.62    8.71
  -2   4  -8  143.39    8.81
  -2   4  -8  144.34    8.80
  -2   4  -8  162.28    8.86
   2  -4   8  147.60    8.87
   2  -4   8  153.74    8.69
  -3   4  -8   68.09    4.36
  -3   4  -8   75.36    4.45
  -3   4  -8   66.74    4.36
  -3   4  -8   72.82    4.35
   3  -4   8   75.60    4.35
   3  -4   8   68.87    4.29
  -4   4  -8  188.01   11.80
  -4   4  -8  224.25   11.96
  -4   4  -8  184.79   11.82
  -4   4  -8  202.40   11.87
   4  -4   8  218.76   11.81
   4  -4   8  203.56   11.82
  -5   4  -8   14.01    1.51
  -5   4  -8   12.77    1.27
  -5   4  -8   12.74    1.32
  -5   4  -8   13.11    1.42
   5  -4   8   13.68    1.26
   5  -4   8   12.52    1.37
  -6   4  -8  200.99   11.04
  -6   4  -8  170.59   10.83
  -6   4  -8  184.70   10.98
  -6   4  -8  169.46   10.86
   6  -4   8  179.96   10.92
   6  -4   8  195.88   10.75
  -7   4  -8   67.83    4.69
  -7   4  -8   67.18    4.55
   7  -4   8   71.39    4.89
   7  -4   8   76.40    4.57
   6   3  -8   21.38    1.90
   6   3  -8   23.07    1.96
   6   3  -8   22.25    1.71
  -6  -3   8   20.63    2.31
  -6  -3   8   24.65    1.84
   5   3  -8   76.37    4.93
   5   3  -8   85.47    5.22
   5   3  -8   77.30    4.92
   5   3  -8   84.45    5.23
   5   3  -8   77.41    4.76
  -5  -3   8   82.55    4.79
  -5  -3   8   76.18    5.14
   4   3  -8   51.37    3.38
   4   3  -8   46.95    3.17
   4   3  -8   46.76    2.93
   4   3  -8   52.11    3.41
   4   3  -8   44.96    3.12
   4   3  -8   49.92    2.92
  -4  -3   8   47.70    2.93
  -4  -3   8   53.96    3.25
  -4  -3   8   45.67    3.31
  -4  -3   8   48.73    2.95
   3   3  -8  136.56    8.31
   3   3  -8  156.72    8.55
   3   3  -8  152.29    8.51
   3   3  -8  148.01    8.22
   3   3  -8  138.68    8.10
   3   3  -8  132.29    8.36
  -3  -3   8  152.90    8.37
  -3  -3   8  135.09    8.22
  -3  -3   8  127.24    8.45
   2   3  -8   28.29    1.85
   2   3  -8   25.02    1.95
   2   3  -8   29.72    2.11
   2   3  -8   28.30    1.89
  -2  -3   8   26.70    1.86
  -2  -3   8   29.58    1.92
  -2  -3   8   27.71    2.03
   1   3  -8  139.69    8.59
   1   3  -8  155.28    8.75
   1   3  -8  155.09    8.65
   1   3  -8  141.01    8.70
  -1  -3   8  139.44    8.66
  -1  -3   8  161.57    8.63
   0   3  -8  132.98    7.70
   0   3  -8  141.36    7.81
   0   3  -8  142.39    7.92
   0   3  -8  123.72    7.81
   0  -3   8  140.38    7.70
   0  -3   8  118.67    7.80
  -1   3  -8  296.07   17.36
  -1   3  -8  287.22   17.53
  -1   3  -8  302.00   17.35
  -1   3  -8  331.18   17.57
   1  -3   8  310.31   17.35
   1  -3   8  296.11   17.57
   1  -3   8  318.89   17.36
  -2   3  -8   21.75    1.29
  -2   3  -8   20.43    1.54
  -2   3  -8   23.54    1.64
  -2   3  -8   21.53    1.59
  -2   3  -8   21.22    1.46
   2  -3   8   21.87    1.57
   2  -3   8   20.36    1.63
   2  -3   8   20.89    1.44
  -3   3  -8  241.07   12.40
  -3   3  -8  223.61   12.28
  -3   3  -8  192.76   12.24
  -3   3  -8  202.68   12.29
   3  -3   8  200.38   12.22
   3  -3   8  224.60   12.27
   3  -3   8  201.29   12.34
  -4   3  -8   67.01    4.40
  -4   3  -8   67.16    4.40
  -4   3  -8   72.81    4.46
  -4   3  -8   77.82    4.55
   4  -3   8   71.64    4.47
   4  -3   8   67.34    4.41
   4  -3   8   75.16    4.38
  -5   3  -8  141.53    8.69
  -5   3  -8  138.67    8.69
  -5   3  -8  158.14    8.84
  -5   3  -8  155.52    8.84
   5  -3   8  120.62    9.33
   5  -3   8  162.43    8.69
  -6   3  -8   32.99    2.65
  -6   3  -8   32.12    2.64
  -6   3  -8   29.33    2.37
  -6   3  -8   28.95    2.40
   6  -3   8   30.76    2.31
   6  -3   8   30.83    2.55
  -7   3  -8   54.32    3.93
  -7   3  -8   52.03    3.77
   7  -3   8   59.08    3.86
   7  -3   8   53.90    4.11
   7   2  -8   30.65    2.54
   7   2  -8   31.64    2.58
   7   2  -8   33.94    2.37
  -7  -2   8   35.96    3.07
   6   2  -8   73.66    4.78
   6   2  -8   75.51    4.98
   6   2  -8   74.38    4.75
   6   2  -8   72.31    4.59
  -6  -2   8   74.92    4.44
  -6  -2   8   76.78    5.05
  -6  -2   8   85.94    4.64
   5   2  -8   32.53    2.38
   5   2  -8   27.90    2.15
   5   2  -8   33.01    2.49
   5   2  -8   30.20    1.94
   5   2  -8   29.71    2.19
   5   2  -8   28.25    1.94
  -5  -2   8   32.54    2.27
  -5  -2   8   30.20    1.96
  -5  -2   8   28.88    2.37
  -5  -2   8   30.93    1.97
   4   2  -8  144.29    7.87
   4   2  -8  137.10    7.79
   4   2  -8  129.92    7.52
   4   2  -8  124.35    7.42
   4   2  -8  109.68    7.70
   4   2  -8  121.38    7.64
  -4  -2   8  131.70    7.42
  -4  -2   8  122.83    7.53
  -4  -2   8  145.43    7.70
   3   2  -8   55.07    3.40
   3   2  -8   53.28    3.43
   3   2  -8   56.99    3.35
   3   2  -8   57.97    3.60
  -3  -2   8   56.28    3.41
  -3  -2   8   50.12    3.35
  -3  -2   8   51.80    3.52
   2   2  -8  205.59   11.12
   2   2  -8  183.26   10.94
   2   2  -8  199.13   10.97
   2   2  -8  180.17   11.00
  -2  -2   8  206.10   10.96
  -2  -2   8  174.75   10.97
  -2  -2   8  179.27   11.04
   1   2  -8  131.52    7.40
   1   2  -8  116.43    7.29
   1   2  -8  132.98    7.44
  -1  -2   8  117.39    7.40
  -1  -2   8  130.52    7.31
   0   2  -8  108.27    5.93
   0   2  -8   93.30    5.95
   0   2  -8  104.30    5.97
   0   2  -8   94.10    5.80
   0  -2   8  104.16    5.81
   0  -2   8   91.39    5.97
   0  -2   8  104.77    5.91
  -1   2  -8   55.04    3.23
  -1   2  -8   53.07    3.61
  -1   2  -8   56.76    3.34
  -1   2  -8   54.73    3.21
   1  -2   8   55.42    3.23
   1  -2   8   58.24    3.22
   1  -2   8   51.11    3.46
   1  -2   8   51.75    3.47
  -2   2  -8  141.09    8.58
  -2   2  -8  144.29    8.29
  -2   2  -8  162.09    8.67
  -2   2  -8  143.41    8.51
  -2   2  -8  148.21    8.48
   2  -2   8  139.97    8.47
   2  -2   8  131.95    8.60
   2  -2   8  155.39    8.55
   2  -2   8  150.78    8.29
  -3   2  -8   94.74    5.31
  -3   2  -8   80.24    5.13
  -3   2  -8   81.90    5.20
  -3   2  -8   88.08    5.18
   3  -2   8   95.75    5.20
   3  -2   8   80.49    5.15
   3  -2   8   78.53    5.22
  -4   2  -8  137.56    8.04
  -4   2  -8  127.50    8.01
  -4   2  -8  125.06    7.93
  -4   2  -8  150.98    8.12
   4  -2   8  129.00    8.02
   4  -2   8  127.96    7.99
   4  -2   8  143.75    7.97
  -5   2  -8   43.12    3.16
  -5   2  -8   47.02    3.25
  -5   2  -8   45.35    3.09
  -5   2  -8   49.05    3.31
   5  -2   8   43.38    3.24
   5  -2   8   47.89    3.10
  -6   2  -8   90.33    5.80
  -6   2  -8   85.85    5.79
  -6   2  -8  103.01    6.06
   6  -2   8   86.64    5.94
   6  -2   8   96.66    5.80
  -7   2  -8   19.52    2.26
  -7   2  -8   21.15    2.32
   7  -2   8   18.14    2.49
   7   1  -8   92.03    6.13
   7   1  -8   97.92    6.05
   7   1  -8  101.30    5.99
   7   1  -8  108.62    6.33
  -7  -1   8   94.52    6.00
  -7  -1   8  102.99    5.87
  -7  -1   8  101.53    6.44
   6   1  -8   43.78    3.12
   6   1  -8   44.27    2.97
   6   1  -8   35.45    2.89
   6   1  -8   39.30    2.80
   6   1  -8   39.96    2.58
   6   1  -8   39.49    2.59
  -6  -1   8   43.25    2.63
  -6  -1   8   42.22    2.86
  -6  -1   8   39.47    3.04
  -6  -1   8   39.49    2.60
   5   1  -8  158.43    9.33
   5   1  -8  165.81    9.41
   5   1  -8  161.24    9.50
   5   1  -8  167.35    9.71
   5   1  -8  154.88    9.52
   5   1  -8  176.43    9.62
  -5  -1   8  152.07    9.66
  -5  -1   8  159.38    9.32
  -5  -1   8  148.77    9.40
  -5  -1   8  178.82    9.55
   4   1  -8   45.13    2.95
   4   1  -8   51.47    3.17
   4   1  -8   44.33    2.93
   4   1  -8   48.99    2.89
  -4  -1   8   40.03    3.03
  -4  -1   8   40.94    2.87
  -4  -1   8   43.60    2.67
  -4  -1   8   50.90    2.96
   3   1  -8  115.87    7.33
   3   1  -8  138.44    7.53
   3   1  -8  120.17    7.37
   3   1  -8  136.99    7.38
  -3  -1   8  114.15    7.34
  -3  -1   8  117.41    7.43
  -3  -1   8  133.10    7.34
   2   1  -8  147.85    7.89
   2   1  -8  145.71    7.95
   2   1  -8  129.54    7.85
   2   1  -8  123.13    7.78
  -2  -1   8  137.65    7.78
  -2  -1   8  129.19    7.85
  -2  -1   8  124.05    7.86
   1   1  -8  348.81   19.25
   1   1  -8  364.05   19.29
   1   1  -8  321.51   19.14
   1   1  -8  317.37   19.23
  -1  -1   8  351.00   19.20
  -1  -1   8  309.28   19.26
  -1  -1   8  342.31   19.13
   0   1  -8   53.09    3.22
   0   1  -8   51.55    3.45
   0   1  -8   58.89    3.51
   0   1  -8   54.57    3.29
   0   1  -8   59.24    3.40
   0  -1   8   58.86    3.41
   0  -1   8   55.36    3.28
   0  -1   8   55.33    3.24
   0  -1   8   51.43    3.49
  -1   1  -8  238.32   13.82
  -1   1  -8  261.11   13.89
  -1   1  -8  247.61   13.70
  -1   1  -8  234.09   13.60
  -1   1  -8  223.00   13.65
  -1   1  -8  228.63   13.70
   1  -1   8  223.68   13.85
   1  -1   8  243.81   13.59
   1  -1   8  259.69   13.79
   1  -1   8  234.24   13.68
  -2   1  -8   39.03    2.50
  -2   1  -8   39.34    2.47
  -2   1  -8   43.21    2.68
  -2   1  -8   37.59    2.58
   2  -1   8   40.51    2.28
   2  -1   8   35.11    2.58
   2  -1   8   38.30    2.52
   2  -1   8   36.00    2.49
  -3   1  -8  191.38   11.32
  -3   1  -8  183.20   11.43
  -3   1  -8  209.83   11.51
  -3   1  -8  201.81   11.41
   3  -1   8  185.82   11.41
   3  -1   8  211.63   11.41
   3  -1   8  185.91   11.41
  -4   1  -8   61.47    4.05
  -4   1  -8   69.14    4.23
  -4   1  -8   72.66    4.29
  -4   1  -8   59.46    4.16
   4  -1   8   64.60    4.24
   4  -1   8   58.54    4.17
   4  -1   8   69.14    4.13
  -5   1  -8  146.23    9.44
  -5   1  -8  160.12    9.56
  -5   1  -8  155.34    9.35
  -5   1  -8  171.50    9.56
   5  -1   8  150.62    9.51
   5  -1   8  156.90    9.35
   5  -1   8  164.61    9.42
  -6   1  -8   73.55    4.97
  -6   1  -8   83.10    5.15
  -6   1  -8   71.65    4.83
   6  -1   8   69.39    5.05
   8   0  -8   82.80    6.54
   8   0  -8   97.70    5.64
   8   0  -8   90.97    5.86
   8   0  -8   91.46    5.63
  -8   0   8   91.86    6.09
   7   0  -8   32.89    2.61
   7   0  -8   32.76    2.34
   7   0  -8   33.18    2.62
   7   0  -8   35.18    2.67
   7   0  -8   34.47    2.37
  -7   0   8   34.06    2.35
  -7   0   8   34.18    2.82
  -7   0   8   37.42    2.42
   6   0  -8  203.63   11.34
   6   0  -8  195.93   11.23
   6   0  -8  199.79   11.21
   6   0  -8  202.34   11.50
   6   0  -8  180.86   11.13
   6   0  -8  175.27   11.30
  -6   0   8  189.86   11.20
  -6   0   8  199.32   11.14
  -6   0   8  201.86   11.31
  -6   0   8  182.36   11.42
   5   0  -8   37.86    2.74
   5   0  -8   40.87    2.76
   5   0  -8   41.81    2.73
   5   0  -8   40.40    2.89
   5   0  -8   40.37    2.66
  -5   0   8   42.73    2.70
  -5   0   8   40.99    2.48
  -5   0   8   37.37    2.63
   4   0  -8   74.17    4.21
   4   0  -8   62.29    4.13
   4   0  -8   61.98    3.98
   4   0  -8   59.06    4.00
  -4   0   8   61.21    3.99
  -4   0   8   67.80    3.78
  -4   0   8   61.77    4.07
  -4   0   8   68.99    3.99
   3   0  -8   46.29    2.92
   3   0  -8   48.66    2.95
   3   0  -8   42.52    2.89
  -3   0   8   45.35    2.64
  -3   0   8   45.15    2.65
  -3   0   8   43.54    2.93
  -3   0   8   43.00    2.94
  -3   0   8   49.15    2.87
   2   0  -8  436.13   23.13
   2   0  -8  434.22   23.11
   2   0  -8  397.64   23.05
   2   0  -8  377.20   22.98
  -2   0   8  413.92   22.96
  -2   0   8  408.59   22.98
  -2   0   8  380.35   23.09
  -2   0   8  374.15   22.99
  -2   0   8  393.85   22.80
  -2   0   8  423.29   22.82
   1   0  -8   81.02    4.60
   1   0  -8   73.16    4.62
   1   0  -8   71.04    4.50
  -1   0   8   77.53    4.44
  -1   0   8   77.89    4.56
  -1   0   8   71.59    4.67
  -1   0   8   80.83    4.50
   0   0  -8  233.21   12.77
   0   0  -8  243.45   12.95
   0   0  -8  214.31   12.70
   0   0  -8  216.27   12.69
   0   0  -8  212.56   12.86
   0   0   8  225.79   12.69
   0   0   8  226.88   12.90
   0   0   8  228.08   12.74
   0   0   8  201.79   12.89
  -1   0  -8   36.12    2.55
  -1   0  -8   39.86    2.41
  -1   0  -8   39.29    2.39
  -1   0  -8   38.65    2.42
  -1   0  -8   36.49    2.33
  -1   0  -8   40.73    2.64
   1   0   8   38.71    2.31
   1   0   8   36.83    2.47
   1   0   8   34.69    2.56
   1   0   8   41.61    2.53
  -2   0  -8  283.68   15.88
  -2   0  -8  299.97   16.01
  -2   0  -8  270.06   15.76
  -2   0  -8  251.28   15.91
   2   0   8  274.73   15.89
   2   0   8  255.42   15.90
   2   0   8  277.99   15.63
   2   0   8  290.51   15.88
  -3   0  -8   57.67    3.66
  -3   0  -8   61.58    3.77
  -3   0  -8   60.21    3.52
  -3   0  -8   48.45    3.64
   3   0   8   56.71    3.67
   3   0   8   53.71    3.28
   3   0   8   59.18    3.64
   3   0   8   56.09    3.30
   3   0   8   52.74    3.61
  -4   0  -8  132.81    8.54
  -4   0  -8  158.92    8.63
  -4   0  -8  146.19    8.57
  -4   0  -8  142.35    8.38
   4   0   8  153.60    8.53
   4   0   8  133.21    8.56
   4   0   8  138.15    8.11
   4   0   8  131.15    8.42
   4   0   8  141.47    8.10
  -5   0  -8   47.39    3.26
  -5   0  -8   40.54    2.98
  -5   0  -8   38.48    3.20
   5   0   8   43.39    2.96
   5   0   8   44.84    2.54
   5   0   8   39.66    3.25
   5   0   8   42.69    2.55
  -6   0  -8   81.98    5.07
  -6   0  -8   69.76    5.01
  -6   0  -8   68.50    4.81
   6   0   8   68.37    5.08
   8  -1  -8   31.83    2.78
   8  -1  -8   30.28    2.63
   8  -1  -8   33.71    2.41
  -8   1   8   35.60    2.52
  -8   1   8   33.35    2.48
  -8   1   8   32.09    2.89
   7  -1  -8   42.03    2.83
   7  -1  -8   37.93    2.92
   7  -1  -8   38.39    2.75
   7  -1  -8   40.03    2.67
  -7   1   8   37.74    3.01
  -7   1   8   40.41    2.66
  -7   1   8   39.96    2.72
   6  -1  -8   58.11    3.67
   6  -1  -8   55.41    3.72
   6  -1  -8   63.52    4.03
   6  -1  -8   56.05    3.83
   6  -1  -8   60.85    3.75
  -6   1   8   60.39    3.60
  -6   1   8   53.08    3.87
  -6   1   8   57.62    3.71
  -6   1   8   60.93    3.77
   5  -1  -8  162.63    9.11
   5  -1  -8  142.44    9.15
   5  -1  -8  153.29    9.02
   5  -1  -8  168.07    9.25
  -5   1   8  147.84    9.07
  -5   1   8  161.16    9.05
  -5   1   8  143.14    9.15
  -5   1   8  156.24    8.90
   4  -1  -8   74.39    4.93
   4  -1  -8   90.88    5.09
   4  -1  -8   77.54    4.89
   4  -1  -8   89.47    5.03
  -4   1   8   87.43    4.91
  -4   1   8   72.58    4.94
  -4   1   8   75.01    4.96
  -4   1   8   79.54    4.75
  -4   1   8   84.52    4.75
   3  -1  -8  226.98   13.86
   3  -1  -8  251.72   13.95
   3  -1  -8  272.02   14.00
   3  -1  -8  233.02   13.87
  -3   1   8  246.90   13.81
  -3   1   8  251.70   13.80
  -3   1   8  247.22   13.70
  -3   1   8  214.84   13.92
  -3   1   8  237.07   13.71
  -3   1   8  225.69   13.85
   2  -1  -8   30.57    1.95
   2  -1  -8   26.15    1.83
   2  -1  -8   26.76    1.89
   2  -1  -8   28.44    2.03
  -2   1   8   28.69    1.79
  -2   1   8   23.66    1.71
  -2   1   8   24.03    1.95
  -2   1   8   28.80    1.81
   1  -1  -8  163.74   10.05
   1  -1  -8  179.36   10.00
   1  -1  -8  169.39    9.96
   1  -1  -8  193.24   10.19
  -1   1   8  182.99    9.93
  -1   1   8  158.87   10.12
  -1   1   8  157.89   10.09
  -1   1   8  174.83    9.95
   0  -1  -8   41.22    2.73
   0  -1  -8   37.21    2.45
   0  -1  -8   38.99    2.45
   0  -1  -8   36.67    2.60
   0  -1  -8   37.93    2.41
   0  -1  -8   40.27    2.45
   0   1   8   38.57    2.67
   0   1   8   38.39    2.52
   0   1   8   41.58    2.56
   0   1   8   40.74    2.42
  -1  -1  -8  119.25    6.81
  -1  -1  -8  104.07    6.50
  -1  -1  -8  117.87    6.52
  -1  -1  -8  102.60    6.72
  -1  -1  -8  111.50    6.62
  -1  -1  -8  103.64    6.51
   1   1   8  114.18    6.69
   1   1   8  118.14    6.68
   1   1   8  119.71    6.50
   1   1   8  108.34    6.74
  -2  -1  -8   84.56    4.94
  -2  -1  -8   77.40    5.18
  -2  -1  -8   82.52    5.10
  -2  -1  -8   91.13    5.25
   2   1   8   86.63    5.13
   2   1   8   79.35    5.13
   2   1   8   76.76    5.11
   2   1   8   85.56    4.87
  -3  -1  -8   70.19    4.27
  -3  -1  -8   62.43    3.96
  -3  -1  -8   64.95    4.18
  -3  -1  -8   59.83    4.21
   3   1   8   64.25    4.22
   3   1   8   65.79    3.84
   3   1   8   59.60    4.42
   3   1   8   67.01    4.21
  -4  -1  -8   19.37    1.72
  -4  -1  -8   22.00    2.06
  -4  -1  -8   21.66    2.07
  -4  -1  -8   18.92    2.04
   4   1   8   18.65    1.41
   4   1   8   20.92    2.00
   4   1   8   20.70    1.45
   4   1   8   19.64    1.76
  -5  -1  -8   70.85    5.07
  -5  -1  -8   68.63    4.73
  -5  -1  -8   80.47    5.02
   5   1   8   72.53    4.70
   5   1   8   75.16    5.11
   5   1   8   79.83    4.81
   8  -2  -8   91.33    5.73
   8  -2  -8   95.70    5.53
   8  -2  -8   81.77    5.86
  -8   2   8   90.82    5.67
  -8   2   8   89.34    5.95
  -8   2   8   97.52    5.67
   7  -2  -8   48.38    3.08
   7  -2  -8   45.72    3.21
   7  -2  -8   44.06    3.01
   7  -2  -8   50.10    3.56
   7  -2  -8   45.41    3.34
  -7   2   8   46.62    3.35
  -7   2   8   43.72    3.14
  -7   2   8   49.02    3.08
   6  -2  -8  102.92    5.97
   6  -2  -8   83.10    5.79
   6  -2  -8  100.79    5.68
   6  -2  -8   89.28    5.62
   6  -2  -8  103.74    5.84
  -6   2   8   94.90    5.62
  -6   2   8   87.11    5.82
  -6   2   8   96.85    5.74
  -6   2   8   88.72    5.78
   5  -2  -8   34.49    2.65
   5  -2  -8   39.24    2.73
   5  -2  -8   35.22    2.50
   5  -2  -8   44.06    2.76
  -5   2   8   36.31    2.66
  -5   2   8   36.86    2.66
  -5   2   8   42.00    2.59
  -5   2   8   39.39    2.47
   4  -2  -8  184.98   11.84
   4  -2  -8  217.64   11.96
   4  -2  -8  227.22   12.01
   4  -2  -8  195.14   11.79
  -4   2   8  194.73   11.73
  -4   2   8  194.61   11.83
  -4   2   8  219.63   11.81
  -4   2   8  210.97   11.73
  -4   2   8  208.02   11.72
  -4   2   8  188.53   11.91
   3  -2  -8   66.58    4.31
   3  -2  -8   79.13    4.53
   3  -2  -8   63.91    4.31
   3  -2  -8   76.21    4.37
  -3   2   8   66.88    4.23
  -3   2   8   72.47    4.24
  -3   2   8   62.42    4.41
  -3   2   8   71.76    4.20
  -3   2   8   76.05    4.28
  -3   2   8   70.17    4.23
   2  -2  -8   59.72    3.82
   2  -2  -8   58.36    3.77
   2  -2  -8   62.29    3.78
   2  -2  -8   66.91    4.01
  -2   2   8   59.65    3.75
  -2   2   8   65.00    3.73
  -2   2   8   61.28    3.77
  -2   2   8   58.32    3.93
   1  -2  -8  101.33    5.68
   1  -2  -8   91.48    5.37
   1  -2  -8   83.82    5.50
   1  -2  -8   86.72    5.39
   1  -2  -8   86.77    5.26
  -1   2   8   94.78    5.44
  -1   2   8   83.67    5.56
  -1   2   8   94.32    5.46
  -1   2   8   93.98    5.36
   0  -2  -8  255.45   15.38
   0  -2  -8  245.26   15.53
   0  -2  -8  286.97   15.33
   0  -2  -8  273.81   15.45
   0  -2  -8  269.12   15.27
   0  -2  -8  291.33   15.65
   0   2   8  267.37   15.49
   0   2   8  260.42   15.41
   0   2   8  255.82   15.57
   0   2   8  279.04   15.48
  -1  -2  -8  128.09    7.14
  -1  -2  -8  106.21    7.04
  -1  -2  -8  118.45    6.97
  -1  -2  -8  111.65    6.73
  -1  -2  -8  121.75    6.75
   1   2   8  118.78    6.81
   1   2   8  107.73    7.00
   1   2   8  122.28    7.00
   1   2   8  112.07    7.01
  -2  -2  -8  155.03    8.64
  -2  -2  -8  139.15    8.65
  -2  -2  -8  155.40    9.01
  -2  -2  -8  151.87    8.94
  -2  -2  -8  136.45    8.98
   2   2   8  146.09    8.97
   2   2   8  159.47    8.96
   2   2   8  153.99    8.68
  -3  -2  -8   54.33    4.03
  -3  -2  -8   61.77    4.05
  -3  -2  -8   61.00    4.00
  -3  -2  -8   52.58    3.63
   3   2   8   62.06    3.62
   3   2   8   59.26    3.56
   3   2   8   60.17    4.01
   3   2   8   56.75    3.81
  -4  -2  -8  158.93    9.04
  -4  -2  -8  143.83    8.75
  -4  -2  -8  144.09    9.15
   4   2   8  149.01    8.61
   4   2   8  142.62    8.81
   4   2   8  143.94    9.12
   4   2   8  155.24    8.81
   8  -3  -8   27.34    2.89
  -8   3   8   35.21    2.68
  -8   3   8   36.28    2.60
  -8   3   8   34.65    2.89
   7  -3  -8  101.69    6.14
   7  -3  -8   86.31    6.08
   7  -3  -8   97.94    5.77
   7  -3  -8   98.90    5.77
   7  -3  -8   99.26    6.21
  -7   3   8   94.33    6.03
  -7   3   8   97.15    6.10
  -7   3   8  102.62    5.94
   6  -3  -8   26.69    1.92
   6  -3  -8   29.10    2.30
   6  -3  -8   27.78    2.21
   6  -3  -8   29.16    2.31
  -6   3   8   29.60    2.21
  -6   3   8   27.23    2.19
  -6   3   8   25.36    2.13
  -6   3   8   27.53    2.04
   5  -3  -8  199.08   10.98
   5  -3  -8  208.76   11.14
   5  -3  -8  182.05   10.82
   5  -3  -8  178.45   10.98
  -5   3   8  194.67   10.89
  -5   3   8  173.80   11.00
  -5   3   8  178.79   10.91
  -5   3   8  181.08   10.85
   4  -3  -8   97.97    6.20
   4  -3  -8  109.28    6.26
   4  -3  -8  112.65    6.48
   4  -3  -8   94.46    6.28
  -4   3   8  110.04    6.20
  -4   3   8  105.93    6.22
  -4   3   8   94.17    6.36
  -4   3   8   97.96    6.17
  -4   3   8  106.88    6.13
  -4   3   8  114.65    6.25
   3  -3  -8  365.51   19.03
   3  -3  -8  326.11   18.70
   3  -3  -8  308.57   18.79
   3  -3  -8  298.48   18.79
  -3   3   8  321.18   18.71
  -3   3   8  311.58   18.76
  -3   3   8  336.94   18.74
  -3   3   8  353.26   18.75
   2  -3  -8   32.08    2.26
   2  -3  -8   32.12    2.31
   2  -3  -8   34.05    2.10
   2  -3  -8   36.34    2.54
  -2   3   8   27.66    2.22
  -2   3   8   34.27    2.20
  -2   3   8   33.88    2.20
   1  -3  -8  133.93    7.64
   1  -3  -8  121.12    7.19
   1  -3  -8  120.53    7.39
   1  -3  -8  119.79    7.51
   1  -3  -8  126.33    7.14
  -1   3   8  121.07    7.47
  -1   3   8  129.31    7.34
  -1   3   8  128.87    7.41
   0  -3  -8   49.97    3.47
   0  -3  -8   48.57    3.28
   0  -3  -8   54.85    3.58
   0  -3  -8   51.31    3.37
   0   3   8   53.23    3.46
   0   3   8   56.53    3.26
   0   3   8   46.18    3.46
   0   3   8   52.18    3.38
  -1  -3  -8  139.72    8.53
  -1  -3  -8  133.56    8.96
  -1  -3  -8  163.42    9.05
  -1  -3  -8  151.11    8.55
  -1  -3  -8  160.23    8.95
   1   3   8  147.58    8.91
   1   3   8  140.48    8.89
   1   3   8  162.66    8.75
   1   3   8  146.68    8.97
  -2  -3  -8   32.79    2.68
  -2  -3  -8   32.98    2.07
  -2  -3  -8   33.48    2.66
  -2  -3  -8   33.61    2.72
  -2  -3  -8   31.88    2.12
   2   3   8   30.87    2.42
   2   3   8   32.61    2.64
   2   3   8   34.54    2.30
  -3  -3  -8   72.20    5.47
  -3  -3  -8   82.75    5.37
   3   3   8   80.26    5.16
   3   3   8   82.19    4.96
   3   3   8   90.09    5.07
   3   3   8   84.30    5.48
   8  -4  -8   79.51    5.59
  -8   4   8   85.96    5.49
  -8   4   8   83.75    5.52
  -8   4   8   88.69    5.43
   7  -4  -8   18.64    2.06
   7  -4  -8   19.21    2.01
   7  -4  -8   18.19    1.37
   7  -4  -8   19.33    1.39
  -7   4   8   17.80    1.87
  -7   4   8   20.26    1.81
  -7   4   8   16.13    1.87
   6  -4  -8  112.72    7.05
   6  -4  -8  128.71    7.53
   6  -4  -8  109.26    7.31
   6  -4  -8  129.31    7.31
  -6   4   8  120.15    7.24
  -6   4   8  118.83    7.26
  -6   4   8  114.83    7.37
  -6   4   8  130.40    7.24
   5  -4  -8   40.63    2.90
   5  -4  -8   33.40    2.61
   5  -4  -8   33.88    2.44
   5  -4  -8   39.52    2.54
  -5   4   8   34.98    2.44
  -5   4   8   36.79    2.34
  -5   4   8   36.42    2.51
  -5   4   8   37.60    2.57
  -5   4   8   36.82    2.71
  -5   4   8   36.36    2.57
   4  -4  -8  109.02    6.20
   4  -4  -8  103.31    6.41
   4  -4  -8  100.55    6.32
   4  -4  -8  118.72    6.67
  -4   4   8   92.58    6.47
  -4   4   8  112.80    6.35
  -4   4   8   98.69    6.34
  -4   4   8  118.00    6.35
  -4   4   8   97.66    6.30
  -4   4   8  104.76    6.15
   3  -4  -8   21.98    2.03
   3  -4  -8   19.37    1.70
   3  -4  -8   19.98    1.36
   3  -4  -8   19.94    1.73
  -3   4   8   21.48    1.89
  -3   4   8   20.79    1.72
  -3   4   8   23.59    1.66
  -3   4   8   21.62    1.57
   2  -4  -8   96.53    5.88
   2  -4  -8   91.47    5.64
   2  -4  -8   83.93    5.68
  -2   4   8   91.98    5.57
  -2   4   8   85.27    5.79
  -2   4   8   95.84    5.71
  -2   4   8  100.74    5.59
   1  -4  -8   48.04    3.21
   1  -4  -8   42.93    3.30
   1  -4  -8   54.24    3.51
  -1   4   8   48.51    3.21
  -1   4   8   48.65    3.33
  -1   4   8   44.06    3.34
  -1   4   8   52.60    3.15
   0  -4  -8  142.29    7.94
   0  -4  -8  116.16    7.81
   0   4   8  129.43    7.59
   0   4   8  120.31    7.76
   0   4   8  129.75    7.75
   0   4   8  130.23    7.82
  -1  -4  -8   15.09    2.02
  -1  -4  -8   18.59    2.13
   1   4   8   19.68    2.00
   1   4   8   20.70    1.71
   1   4   8   15.96    1.75
  -2  -4  -8   85.69    6.47
  -2  -4  -8  102.68    6.44
   2   4   8  108.77    6.16
   2   4   8   97.89    6.17
   2   4   8  103.79    6.48
   7  -5  -8  133.03    7.49
   7  -5  -8  109.58    7.56
  -7   5   8  125.94    7.48
  -7   5   8  125.15    7.50
  -7   5   8  117.35    7.47
  -7   5   8  124.72    7.62
   6  -5  -8   49.74    3.27
   6  -5  -8   55.92    3.41
   6  -5  -8   47.20    3.63
  -6   5   8   51.23    3.72
  -6   5   8   55.68    3.53
  -6   5   8   51.61    3.37
  -6   5   8   51.94    3.52
   5  -5  -8   72.25    4.67
   5  -5  -8   74.17    4.87
   5  -5  -8   76.91    4.53
  -5   5   8   76.97    4.51
  -5   5   8   79.06    4.56
  -5   5   8   72.74    4.96
  -5   5   8   76.79    4.79
  -5   5   8   75.92    4.82
   4  -5  -8   39.67    2.87
   4  -5  -8   38.05    2.75
  -4   5   8   39.39    2.56
  -4   5   8   39.02    2.98
  -4   5   8   39.46    2.79
  -4   5   8   40.22    2.82
   3  -5  -8   97.13    6.28
   3  -5  -8  111.53    6.64
   3  -5  -8   89.84    6.44
  -3   5   8  107.85    6.34
  -3   5   8  106.79    6.22
  -3   5   8  109.32    6.15
  -3   5   8   92.42    6.41
   2  -5  -8  106.75    7.07
   2  -5  -8  114.62    7.03
   2  -5  -8  127.39    7.34
  -2   5   8  117.07    6.96
  -2   5   8  117.86    6.96
  -2   5   8  116.10    7.12
  -2   5   8  109.70    7.18
   1  -5  -8  111.09    7.31
   1  -5  -8  131.08    7.60
  -1   5   8  115.61    7.32
  -1   5   8  120.86    7.22
  -1   5   8  113.39    7.32
   0  -5  -8   27.08    2.70
   0   5   8   28.97    2.61
   0   5   8   29.61    2.44
   6  -6  -8   95.27    6.66
  -6   6   8  112.62    6.66
  -6   6   8  112.05    6.44
  -6   6   8  100.03    6.72
   5  -6  -8   67.73    4.34
   5  -6  -8   64.29    4.56
  -5   6   8   66.78    4.63
  -5   6   8   71.45    4.15
  -5   6   8   66.02    4.51
   4  -6  -8   60.65    4.43
  -4   6   8   72.13    4.17
  -4   6   8   63.84    4.61
  -4   6   8   67.64    4.49
   3  -6  -8   30.38    2.64
   3  -6  -8   33.42    2.67
  -3   6   8   30.77    2.87
  -3   6   8   35.91    2.74
  -3   6   8   32.34    2.42
   2  -6  -8  163.80   10.43
  -2   6   8  182.32   10.52
  -2   6   8  172.86   10.51
  -2   9  -9   48.47    3.29
  -2   9  -9   46.75    3.41
  -2   9  -9   48.32    3.44
  -2   9  -9   47.60    3.47
  -2   9  -9   49.13    3.13
  -2   9  -9   41.79    3.26
  -2   9  -9   43.28    3.07
  -3   9  -9   10.76    1.39
  -3   9  -9    8.94    1.24
  -3   9  -9   12.42    1.59
  -3   9  -9   10.94    1.68
  -3   9  -9   13.49    1.41
  -3   9  -9   10.50    1.40
  -3   9  -9   10.99    1.51
  -4   9  -9   64.85    4.59
  -4   9  -9   74.57    4.46
  -4   9  -9   70.77    4.93
  -4   9  -9   73.21    4.90
  -4   9  -9   64.65    4.22
  -4   9  -9   65.91    4.50
  -4   9  -9   72.74    4.79
  -4   9  -9   66.86    4.73
  -5   9  -9   30.10    2.44
  -5   9  -9   30.78    2.95
  -5   9  -9   29.79    2.47
  -5   9  -9   30.84    2.66
  -5   9  -9   32.47    4.41
   1   8  -9   82.49    5.23
   1   8  -9   77.94    5.39
   1   8  -9   88.43    5.22
   0   8  -9   27.75    1.94
   0   8  -9   23.79    2.23
   0   8  -9   24.76    2.03
   0   8  -9   25.34    2.13
   0   8  -9   26.10    1.92
   0   8  -9   25.45    1.94
  -1   8  -9   76.15    4.83
  -1   8  -9   83.67    4.90
  -1   8  -9   78.76    5.09
  -1   8  -9   80.88    5.19
  -1   8  -9   84.07    4.99
  -1   8  -9   77.51    4.81
  -1   8  -9   73.95    5.07
  -2   8  -9   48.40    3.26
  -2   8  -9   49.84    3.31
  -2   8  -9   51.49    3.33
  -2   8  -9   46.05    3.34
  -2   8  -9   46.45    3.10
  -2   8  -9   47.52    3.10
  -2   8  -9   53.81    3.74
  -2   8  -9   45.29    3.32
  -2   8  -9   49.72    3.39
  -2   8  -9   49.27    3.39
  -3   8  -9   72.72    4.79
  -3   8  -9   78.24    4.62
  -3   8  -9   79.65    4.77
  -3   8  -9   75.32    4.73
  -3   8  -9   73.52    4.47
  -3   8  -9   70.51    4.73
  -3   8  -9   79.12    4.79
  -3   8  -9   73.72    4.96
  -3   8  -9   66.77    4.70
  -4   8  -9   16.10    1.77
  -4   8  -9   21.47    1.94
  -4   8  -9   19.52    2.13
  -4   8  -9   20.00    1.97
  -4   8  -9   20.17    1.58
  -4   8  -9   20.86    1.45
  -5   8  -9  115.77    6.99
  -5   8  -9  109.58    6.91
  -5   8  -9  115.71    6.52
  -5   8  -9  107.67    6.76
  -5   8  -9  107.94    6.44
  -6   8  -9   26.65    2.48
  -6   8  -9   27.51    2.24
   2   7  -9   48.96    3.58
   2   7  -9   53.38    3.28
   2   7  -9   52.54    3.46
   1   7  -9   39.69    2.45
   1   7  -9   38.41    2.82
   1   7  -9   38.56    2.47
   1   7  -9   35.38    2.41
   1   7  -9   38.88    2.64
   1   7  -9   34.64    2.59
   1   7  -9   39.62    3.08
   0   7  -9   70.66    4.56
   0   7  -9   78.27    4.58
   0   7  -9   76.92    5.01
   0   7  -9   79.88    4.88
   0   7  -9   70.12    4.76
   0   7  -9   77.84    4.56
   0   7  -9   70.33    4.47
  -1   7  -9   55.55    3.55
  -1   7  -9   47.28    3.18
  -1   7  -9   55.47    3.34
  -1   7  -9   57.80    3.37
  -1   7  -9   53.25    3.75
  -1   7  -9   47.90    3.46
  -1   7  -9   47.63    3.40
  -2   7  -9  166.92   10.54
  -2   7  -9  167.80   10.31
  -2   7  -9  170.71   10.32
  -2   7  -9  178.71   10.56
  -2   7  -9  184.64   10.48
  -2   7  -9  184.04   10.52
  -2   7  -9  187.15   10.42
  -2   7  -9  183.36   10.49
  -2   7  -9  187.44   10.68
  -3   7  -9   33.67    2.44
  -3   7  -9   31.79    2.44
  -3   7  -9   35.86    2.41
  -3   7  -9   34.89    2.37
  -3   7  -9   30.52    2.11
  -3   7  -9   35.12    2.22
  -3   7  -9   30.10    2.41
  -4   7  -9  158.16    8.79
  -4   7  -9  148.54    8.81
  -4   7  -9  137.58    8.47
  -4   7  -9  135.75    8.80
  -4   7  -9  159.27    8.89
  -4   7  -9  147.30    8.49
  -5   7  -9   54.62    3.55
  -5   7  -9   45.53    3.45
  -6   7  -9   98.98    5.94
  -6   7  -9   81.15    6.25
  -6   7  -9   91.48    5.81
  -7   7  -9   35.17    3.03
  -7   7  -9   32.06    2.60
   7  -7   9   36.09    3.07
   3   6  -9   73.41    4.56
   3   6  -9   68.50    4.61
   3   6  -9   73.21    4.33
   2   6  -9   90.99    5.25
   2   6  -9   91.13    5.75
   2   6  -9   91.72    5.22
   2   6  -9   84.12    5.55
   2   6  -9   86.44    5.42
   1   6  -9   95.36    5.94
   1   6  -9   87.45    5.82
   1   6  -9   98.17    5.62
   1   6  -9   90.37    5.54
   1   6  -9  101.76    5.61
   1   6  -9  100.56    6.04
   1   6  -9   90.30    5.68
   0   6  -9   28.66    1.80
   0   6  -9   24.94    1.85
   0   6  -9   24.32    1.70
   0   6  -9   25.31    2.05
   0   6  -9   27.53    2.11
   0   6  -9   26.20    2.25
   0   6  -9   27.95    1.88
  -1   6  -9   86.33    5.27
  -1   6  -9   94.16    5.52
  -1   6  -9   92.81    5.36
  -1   6  -9   87.60    5.34
  -1   6  -9   98.19    5.47
  -1   6  -9   82.62    5.53
  -2   6  -9   33.92    2.44
  -2   6  -9   34.88    2.41
  -2   6  -9   32.43    2.18
  -2   6  -9   35.85    2.39
  -2   6  -9   36.56    2.32
  -2   6  -9   35.21    2.26
  -2   6  -9   32.43    2.47
  -3   6  -9   87.65    5.30
  -3   6  -9   81.97    5.34
  -3   6  -9   95.09    5.38
  -3   6  -9   89.13    5.07
  -3   6  -9   80.66    5.04
  -3   6  -9   79.81    5.30
  -3   6  -9   92.26    5.29
  -4   6  -9   42.82    3.05
  -4   6  -9   50.53    3.22
  -4   6  -9   44.60    3.13
  -4   6  -9   46.77    3.11
  -5   6  -9   71.16    4.42
  -5   6  -9   70.02    4.52
  -5   6  -9   66.98    4.50
  -5   6  -9   75.73    4.64
   5  -6   9   67.20    4.48
  -6   6  -9   19.52    2.00
  -6   6  -9   19.02    2.16
  -6   6  -9   22.96    2.09
   6  -6   9   24.58    2.05
  -7   6  -9   37.92    2.86
  -7   6  -9   40.79    3.19
   7  -6   9   40.03    3.22
   4   5  -9   56.99    3.35
   4   5  -9   53.21    3.63
   4   5  -9   55.01    3.59
  -4  -5   9   49.89    3.83
   3   5  -9   31.17    2.34
   3   5  -9   32.83    2.45
   3   5  -9   32.63    2.08
   3   5  -9   33.10    2.04
   3   5  -9   34.61    2.78
   3   5  -9   34.92    2.91
  -3  -5   9   32.87    2.58
   2   5  -9  127.14    7.40
   2   5  -9  122.53    6.92
   2   5  -9  131.43    7.38
   2   5  -9  113.91    7.20
   2   5  -9  124.18    6.99
   2   5  -9  112.74    6.88
   2   5  -9  108.62    7.07
   1   5  -9   21.63    1.81
   1   5  -9   17.88    1.60
   1   5  -9   16.25    1.42
   1   5  -9   19.68    1.41
   1   5  -9   19.73    1.73
   1   5  -9   17.46    1.18
   1   5  -9   18.66    1.23
   0   5  -9  120.99    6.85
   0   5  -9  101.25    6.48
   0   5  -9  109.33    6.64
   0   5  -9  116.71    6.53
   0   5  -9  125.69    6.73
   0   5  -9  106.44    6.90
  -1   5  -9   24.94    1.80
  -1   5  -9   24.19    1.53
  -1   5  -9   23.44    1.63
  -1   5  -9   24.76    1.79
  -1   5  -9   24.40    1.60
  -1   5  -9   23.98    1.85
  -2   5  -9  229.94   12.40
  -2   5  -9  202.31   12.38
  -2   5  -9  202.62   12.15
  -2   5  -9  222.21   12.25
  -2   5  -9  222.56   12.33
  -2   5  -9  197.16   12.36
  -3   5  -9  132.85    7.59
  -3   5  -9  137.73    7.84
  -3   5  -9  131.60    7.59
  -3   5  -9  123.42    7.90
  -3   5  -9  147.88    7.99
  -3   5  -9  126.15    7.89
  -4   5  -9  138.47    8.68
  -4   5  -9  157.87    8.84
  -4   5  -9  150.22    8.72
  -4   5  -9  134.74    8.71
   4  -5   9  159.43    8.69
   4  -5   9  142.65    8.65
  -5   5  -9   48.28    3.29
  -5   5  -9   43.01    3.14
  -5   5  -9   44.60    3.05
  -5   5  -9   41.87    3.08
   5  -5   9   48.46    3.03
  -6   5  -9  108.51    7.12
  -6   5  -9  119.79    7.27
  -6   5  -9  115.52    7.05
   6  -5   9  109.90    7.13
   6  -5   9  127.72    7.04
  -7   5  -9   40.93    3.00
  -7   5  -9   38.71    3.15
   7  -5   9   38.54    3.21
   7  -5   9   43.31    3.01
   5   4  -9   80.27    5.05
   5   4  -9   82.18    5.01
   5   4  -9   79.87    4.75
  -5  -4   9   75.28    5.26
   4   4  -9   57.85    3.93
   4   4  -9   53.82    3.30
   4   4  -9   54.08    3.56
   4   4  -9   56.56    3.90
   4   4  -9   49.82    3.60
   4   4  -9   55.16    3.24
  -4  -4   9   60.54    3.75
  -4  -4   9   54.42    3.82
   3   4  -9  147.65    8.46
   3   4  -9  131.92    8.27
   3   4  -9  145.69    8.07
   3   4  -9  129.38    8.19
   3   4  -9  149.02    8.47
   3   4  -9  130.19    7.94
  -3  -4   9  131.87    8.38
  -3  -4   9  136.95    8.08
  -3  -4   9  153.46    8.32
   2   4  -9   37.86    2.72
   2   4  -9   43.82    2.89
   2   4  -9   39.28    2.53
   2   4  -9   38.39    2.59
  -2  -4   9   38.37    2.56
  -2  -4   9   37.91    2.78
  -2  -4   9   43.86    2.69
   1   4  -9  225.82   14.29
   1   4  -9  260.86   14.22
   1   4  -9  232.16   14.17
   1   4  -9  269.13   14.38
  -1  -4   9  270.59   14.23
  -1  -4   9  224.58   14.22
   0   4  -9  124.14    7.65
   0   4  -9  135.05    7.64
   0   4  -9  120.76    7.48
   0   4  -9  127.64    7.61
   0  -4   9  143.25    7.52
   0  -4   9  122.15    7.62
  -1   4  -9  196.95   10.62
  -1   4  -9  175.89   10.61
  -1   4  -9  172.83   10.41
  -1   4  -9  182.24   10.37
  -1   4  -9  189.48   10.57
   1  -4   9  172.80   10.62
  -2   4  -9   18.51    1.46
  -2   4  -9   17.00    1.23
  -2   4  -9   15.78    1.31
  -2   4  -9   16.75    1.09
  -2   4  -9   17.05    1.42
  -2   4  -9   16.35    1.37
   2  -4   9   15.78    1.19
   2  -4   9   18.86    1.38
   2  -4   9   14.38    1.42
  -3   4  -9  223.58   12.16
  -3   4  -9  197.07   12.07
  -3   4  -9  199.91   12.06
  -3   4  -9  208.91   12.00
   3  -4   9  222.17   12.05
   3  -4   9  201.44   12.18
   3  -4   9  200.17   11.96
  -4   4  -9   49.81    3.34
  -4   4  -9   53.23    3.35
  -4   4  -9   47.01    3.32
  -4   4  -9   52.11    3.45
   4  -4   9   49.71    3.28
   4  -4   9   54.70    3.32
  -5   4  -9  119.19    8.01
  -5   4  -9  139.24    8.09
  -5   4  -9  143.68    8.18
  -5   4  -9  124.13    7.98
   5  -4   9  141.56    7.96
  -6   4  -9   25.04    2.19
  -6   4  -9   26.17    2.46
  -6   4  -9   22.57    2.03
   6  -4   9   23.25    2.12
   6  -4   9   24.54    2.04
  -7   4  -9  111.93    7.44
  -7   4  -9  118.43    7.36
   7  -4   9  120.69    7.59
   7  -4   9  126.43    7.35
   6   3  -9   43.72    3.12
   6   3  -9   43.91    2.82
   6   3  -9   43.98    3.12
  -6  -3   9   46.42    3.47
   5   3  -9   48.26    3.32
   5   3  -9   41.60    2.92
   5   3  -9   42.14    2.63
   5   3  -9   42.28    2.57
   5   3  -9   43.91    2.93
  -5  -3   9   44.64    2.60
  -5  -3   9   42.47    3.17
  -5  -3   9   38.45    2.62
   4   3  -9  111.44    6.42
   4   3  -9   96.53    6.18
   4   3  -9  104.89    5.98
   4   3  -9  105.40    6.35
   4   3  -9   97.50    6.14
   4   3  -9   97.48    5.86
  -4  -3   9   95.19    6.32
  -4  -3   9  113.84    6.25
  -4  -3   9   98.91    5.99
   3   3  -9   26.39    1.98
   3   3  -9   27.95    1.87
   3   3  -9   30.24    2.25
  -3  -3   9   25.58    1.87
  -3  -3   9   28.99    2.00
  -3  -3   9   26.18    2.12
   2   3  -9  136.82    7.35
   2   3  -9  118.07    7.32
   2   3  -9  116.13    7.42
   2   3  -9  131.68    7.53
  -2  -3   9  117.74    7.35
  -2  -3   9  115.31    7.45
  -2  -3   9  138.08    7.37
   1   3  -9   26.69    1.76
   1   3  -9   22.07    1.78
   1   3  -9   25.67    1.85
   1   3  -9   21.68    1.65
  -1  -3   9   25.78    1.68
  -1  -3   9   23.07    1.76
   0   3  -9  165.89   10.07
   0   3  -9  183.66   10.06
   0   3  -9  159.24    9.90
   0   3  -9  180.24   10.05
   0  -3   9  185.36    9.92
   0  -3   9  159.11   10.06
  -1   3  -9   72.09    4.75
  -1   3  -9   89.48    4.82
  -1   3  -9   79.92    4.70
  -1   3  -9   72.72    4.53
  -1   3  -9   80.01    4.51
   1  -3   9   69.39    4.76
   1  -3   9   80.71    4.54
   1  -3   9   75.27    4.50
   1  -3   9   80.72    4.73
  -2   3  -9   99.53    5.65
  -2   3  -9   93.63    5.56
  -2   3  -9   87.65    5.65
  -2   3  -9   92.16    5.40
  -2   3  -9  104.71    5.80
  -2   3  -9   91.17    5.72
   2  -3   9   98.70    5.69
   2  -3   9   89.95    5.77
   2  -3   9   94.92    5.55
  -3   3  -9   68.04    4.21
  -3   3  -9   64.12    4.13
  -3   3  -9   65.56    4.07
  -3   3  -9   67.85    4.05
   3  -3   9   70.54    4.09
   3  -3   9   61.50    4.16
   3  -3   9   61.38    4.00
  -4   3  -9   95.26    6.14
  -4   3  -9  105.92    6.20
  -4   3  -9  113.88    6.34
  -4   3  -9   93.64    6.20
   4  -3   9   96.09    6.22
   4  -3   9   97.08    6.14
   4  -3   9  110.36    6.16
  -5   3  -9   46.21    3.22
  -5   3  -9   38.09    2.95
  -5   3  -9   38.62    2.92
  -5   3  -9   42.96    3.03
   5  -3   9   41.26    2.99
   5  -3   9   47.06    2.93
  -6   3  -9  100.61    6.29
  -6   3  -9   91.98    6.04
  -6   3  -9   93.12    6.03
   6  -3   9  104.05    6.03
   6  -3   9   91.77    6.14
  -7   3  -9   23.09    2.61
  -7   3  -9   29.13    2.58
   7  -3   9   24.81    2.79
   7   2  -9   31.53    2.57
   7   2  -9   36.75    2.85
   7   2  -9   27.59    2.64
  -7  -2   9   35.67    3.47
   6   2  -9   28.10    1.91
   6   2  -9   30.04    1.96
   6   2  -9   29.17    2.30
   6   2  -9   28.48    2.23
   6   2  -9   30.43    2.68
  -6  -2   9   30.58    1.98
  -6  -2   9   31.79    1.96
  -6  -2   9   22.13    2.53
   5   2  -9  179.60   10.22
   5   2  -9  181.39   10.13
   5   2  -9  161.83    9.69
   5   2  -9  161.84    9.95
   5   2  -9  173.70    9.79
   5   2  -9  168.15    9.97
  -5  -2   9  176.62   10.01
  -5  -2   9  160.70   10.12
  -5  -2   9  165.38    9.68
  -5  -2   9  166.97    9.81
   4   2  -9   42.28    2.71
   4   2  -9   42.99    2.87
   4   2  -9   41.30    2.60
   4   2  -9   38.11    2.74
   4   2  -9   39.96    2.92
  -4  -2   9   41.68    2.72
  -4  -2   9   39.34    2.61
  -4  -2   9   36.31    2.83
   3   2  -9   96.82    5.59
   3   2  -9  101.74    5.82
   3   2  -9   89.95    5.65
   3   2  -9   90.51    5.60
  -3  -2   9   87.62    5.73
  -3  -2   9   99.48    5.62
  -3  -2   9   88.64    5.59
   2   2  -9   54.21    3.08
   2   2  -9   50.18    3.21
   2   2  -9   42.60    2.99
   2   2  -9   46.40    3.09
  -2  -2   9   49.99    3.00
  -2  -2   9   44.57    3.06
  -2  -2   9   46.91    3.11
   1   2  -9  119.11    7.73
   1   2  -9  126.58    7.63
   1   2  -9  143.84    7.79
  -1  -2   9  142.71    7.64
  -1  -2   9  123.50    7.76
   0   2  -9  168.65    9.30
   0   2  -9  147.58    9.32
   0   2  -9  153.19    9.16
   0   2  -9  174.72    9.38
   0  -2   9  170.71    9.18
   0  -2   9  140.59    9.35
   0  -2   9  160.07    9.28
  -1   2  -9  225.89   12.81
  -1   2  -9  226.70   12.69
  -1   2  -9  220.83   12.56
  -1   2  -9  207.04   12.77
  -1   2  -9  211.19   12.53
   1  -2   9  234.43   12.55
   1  -2   9  217.00   12.55
   1  -2   9  232.19   12.73
   1  -2   9  206.94   12.82
  -2   2  -9   68.36    4.38
  -2   2  -9   73.60    4.33
  -2   2  -9   73.61    4.54
  -2   2  -9   67.19    4.46
  -2   2  -9   69.62    4.13
   2  -2   9   67.77    4.31
   2  -2   9   79.22    4.45
   2  -2   9   77.58    4.13
   2  -2   9   71.32    4.53
  -3   2  -9  144.78    7.88
  -3   2  -9  125.35    7.76
  -3   2  -9  128.15    7.68
   3  -2   9  117.35    7.80
   3  -2   9  122.51    7.67
   3  -2   9  142.36    7.73
  -4   2  -9   23.44    2.06
  -4   2  -9   24.71    1.91
  -4   2  -9   23.67    1.93
  -4   2  -9   19.85    1.76
   4  -2   9   21.82    1.87
   4  -2   9   23.64    1.85
   4  -2   9   23.94    1.91
  -5   2  -9  178.63   11.07
  -5   2  -9  190.86   11.14
  -5   2  -9  205.72   11.25
  -5   2  -9  180.44   10.99
   5  -2   9  194.27   11.01
   5  -2   9  178.39   11.01
   5  -2   9  179.06   11.11
  -6   2  -9   81.29    5.31
  -6   2  -9   81.00    5.38
   6  -2   9   83.57    5.51
   7   1  -9   29.37    2.23
   7   1  -9   24.36    2.32
   7   1  -9   26.94    1.98
   7   1  -9   30.58    2.75
  -7  -1   9   27.59    1.99
  -7  -1   9   30.64    2.71
   6   1  -9  166.32    9.49
   6   1  -9  149.64    9.15
   6   1  -9  152.39    9.41
   6   1  -9  160.46    9.37
  -6  -1   9  155.60    9.25
  -6  -1   9  156.82    9.59
  -6  -1   9  169.14    9.15
   5   1  -9   33.88    2.41
   5   1  -9   28.57    2.28
   5   1  -9   28.78    2.24
   5   1  -9   34.76    2.56
   5   1  -9   30.53    2.26
  -5  -1   9   32.26    2.25
  -5  -1   9   30.00    2.14
  -5  -1   9   28.14    2.39
  -5  -1   9   33.50    1.92
   4   1  -9  124.32    8.64
   4   1  -9  160.82    8.72
   4   1  -9  148.68    8.75
   4   1  -9  148.52    8.53
  -4  -1   9  138.07    8.46
  -4  -1   9  123.34    8.87
  -4  -1   9  164.76    8.53
   3   1  -9   76.29    4.78
   3   1  -9   80.83    4.92
   3   1  -9   75.50    4.74
   3   1  -9   73.80    4.91
  -3  -1   9   77.19    4.83
  -3  -1   9   87.75    4.74
  -3  -1   9   74.23    4.76
   2   1  -9  300.87   15.92
   2   1  -9  303.17   15.98
   2   1  -9  254.12   15.80
   2   1  -9  270.65   15.90
  -2  -1   9  262.12   15.90
  -2  -1   9  264.99   15.87
   1   1  -9   94.31    5.42
   1   1  -9   83.81    5.25
   1   1  -9   86.26    5.39
  -1  -1   9   81.80    5.40
  -1  -1   9   96.08    5.25
  -1  -1   9   91.20    5.32
   0   1  -9  245.84   13.40
   0   1  -9  259.46   13.55
   0   1  -9  225.09   13.29
   0   1  -9  214.76   13.46
   0   1  -9  220.77   13.21
   0  -1   9  247.92   13.42
   0  -1   9  222.12   13.22
   0  -1   9  234.41   13.28
   0  -1   9  225.60   13.53
  -1   1  -9   53.73    3.62
  -1   1  -9   53.60    3.35
  -1   1  -9   62.62    3.71
  -1   1  -9   57.32    3.41
  -1   1  -9   55.19    3.48
   1  -1   9   59.47    3.55
   1  -1   9   55.77    3.44
   1  -1   9   53.52    3.65
   1  -1   9   60.62    3.36
  -2   1  -9  245.27   13.53
  -2   1  -9  220.50   13.64
  -2   1  -9  226.68   13.51
  -2   1  -9  243.54   13.72
   2  -1   9  222.55   13.54
   2  -1   9  255.66   13.61
   2  -1   9  223.93   13.68
   2  -1   9  240.62   13.33
  -3   1  -9   25.27    2.14
  -3   1  -9   27.22    1.93
  -3   1  -9   27.44    2.02
  -3   1  -9   25.57    2.09
   3  -1   9   27.44    2.04
   3  -1   9   29.73    2.03
   3  -1   9   23.97    2.25
  -4   1  -9  155.82    8.40
  -4   1  -9  136.95    8.25
  -4   1  -9  116.52    8.27
  -4   1  -9  131.18    8.26
   4  -1   9  130.49    8.19
   4  -1   9  138.93    8.28
   4  -1   9  147.41    8.21
  -5   1  -9   42.83    3.02
  -5   1  -9   39.77    3.19
  -5   1  -9   46.19    3.41
  -5   1  -9   43.44    3.31
   5  -1   9   40.89    3.22
   5  -1   9   43.64    3.03
  -6   1  -9   63.10    4.32
  -6   1  -9   65.32    4.48
   6  -1   9   58.34    4.47
   7   0  -9  101.08    5.86
   7   0  -9   89.42    5.61
   7   0  -9   89.94    5.85
   7   0  -9   94.15    5.68
  -7   0   9   95.26    6.04
  -7   0   9   96.14    5.64
  -7   0   9   82.56    5.80
   6   0  -9   52.15    3.56
   6   0  -9   54.37    3.79
   6   0  -9   54.03    3.54
   6   0  -9   51.42    3.42
   6   0  -9   51.87    3.40
  -6   0   9   48.06    3.62
  -6   0   9   54.69    3.23
  -6   0   9   50.37    3.37
  -6   0   9   56.86    3.54
   5   0  -9   94.15    5.74
   5   0  -9   91.09    5.80
   5   0  -9   97.98    5.74
   5   0  -9   98.08    5.96
  -5   0   9   94.56    5.48
  -5   0   9  100.95    5.76
  -5   0   9   90.15    5.71
  -5   0   9   90.18    5.86
   4   0  -9   43.81    2.70
   4   0  -9   39.11    2.68
   4   0  -9   41.27    2.82
   4   0  -9   38.01    2.63
  -4   0   9   39.04    2.31
  -4   0   9   38.59    2.59
  -4   0   9   40.66    2.31
  -4   0   9   39.61    2.72
  -4   0   9   33.24    2.60
   3   0  -9  183.35    9.98
   3   0  -9  180.92   10.03
   3   0  -9  160.29    9.91
   3   0  -9  162.97    9.89
  -3   0   9  177.07    9.85
  -3   0   9  162.85    9.95
  -3   0   9  159.99    9.91
   2   0  -9   47.92    3.04
   2   0  -9   51.08    3.19
   2   0  -9   45.87    3.11
   2   0  -9   53.90    3.20
  -2   0   9   44.25    3.14
  -2   0   9   44.19    3.07
  -2   0   9   50.27    3.03
  -2   0   9   47.30    2.78
  -2   0   9   48.46    2.80
   1   0  -9  110.01    6.82
   1   0  -9  122.45    6.93
   1   0  -9  127.37    7.06
   1   0  -9  112.40    6.97
  -1   0   9  118.14    6.89
  -1   0   9  110.72    6.72
  -1   0   9  114.71    7.03
  -1   0   9  120.12    6.80
   0   0  -9    5.31    0.82
   0   0  -9    4.63    0.70
   0   0  -9    4.37    0.53
   0   0  -9    4.40    0.58
   0   0  -9    5.56    0.84
   0   0   9    4.97    0.74
   0   0   9    3.55    0.65
   0   0   9    4.33    0.60
   0   0   9    5.12    0.56
  -1   0  -9  277.65   14.40
  -1   0  -9  253.80   14.11
  -1   0  -9  233.29   14.03
  -1   0  -9  231.82   14.27
  -1   0  -9  232.54   14.10
  -1   0  -9  248.21   14.12
   1   0   9  251.24   14.01
   1   0   9  261.41   14.22
   1   0   9  228.27   14.30
   1   0   9  243.13   14.16
  -2   0  -9   70.36    4.36
  -2   0  -9   68.66    4.30
  -2   0  -9   80.51    4.62
  -2   0  -9   63.92    4.50
   2   0   9   69.87    4.42
   2   0   9   70.09    4.53
   2   0   9   71.63    4.14
   2   0   9   73.36    4.43
  -3   0  -9  140.15    7.77
  -3   0  -9  139.34    7.90
  -3   0  -9  116.04    7.79
  -3   0  -9  130.47    7.62
   3   0   9  128.89    7.38
   3   0   9  124.63    7.38
   3   0   9  122.57    7.79
   3   0   9  135.04    7.75
   3   0   9  123.89    7.75
  -4   0  -9   46.68    3.50
  -4   0  -9   49.27    3.53
  -4   0  -9   51.61    3.49
   4   0   9   48.92    2.89
   4   0   9   47.60    3.34
   4   0   9   50.55    2.88
   4   0   9   46.50    3.45
  -5   0  -9   84.50    5.89
  -5   0  -9  103.15    6.33
  -5   0  -9   84.87    5.63
   5   0   9   91.64    5.98
   5   0   9   88.57    5.65
   8  -1  -9   61.53    4.42
  -8   1   9   62.30    4.06
  -8   1   9   62.24    4.48
   7  -1  -9   26.58    2.07
   7  -1  -9   23.19    1.96
   7  -1  -9   20.57    2.23
   7  -1  -9   27.58    2.16
  -7   1   9   22.68    2.02
  -7   1   9   26.17    2.35
  -7   1   9   25.24    1.94
   6  -1  -9   74.39    4.60
   6  -1  -9   64.01    4.71
   6  -1  -9   75.86    4.68
   6  -1  -9   74.88    4.65
   6  -1  -9   73.47    4.87
  -6   1   9   66.34    4.75
  -6   1   9   86.29    4.47
   5  -1  -9   33.06    2.42
   5  -1  -9   34.76    2.56
   5  -1  -9   29.90    2.42
   5  -1  -9   30.47    2.30
  -5   1   9   35.10    2.11
  -5   1   9   32.47    2.40
  -5   1   9   37.02    2.36
   4  -1  -9  137.94    7.45
   4  -1  -9  112.08    7.34
   4  -1  -9  131.93    7.46
   4  -1  -9  118.68    7.31
  -4   1   9  116.20    7.34
  -4   1   9  123.48    7.10
  -4   1   9  134.33    7.30
  -4   1   9  123.63    7.09
  -4   1   9  110.24    7.35
   3  -1  -9   78.22    5.00
   3  -1  -9   80.69    5.03
   3  -1  -9   84.19    5.13
  -3   1   9   83.48    4.93
  -3   1   9   85.06    4.80
  -3   1   9   78.11    4.96
  -3   1   9   89.35    4.96
  -3   1   9   79.46    5.11
  -3   1   9   82.30    4.81
   2  -1  -9  242.45   13.08
   2  -1  -9  220.92   13.07
   2  -1  -9  214.33   12.99
   2  -1  -9  245.14   13.21
  -2   1   9  185.20   13.08
  -2   1   9  222.83   12.85
  -2   1   9  234.96   12.99
  -2   1   9  237.13   12.94
   1  -1  -9  139.48    9.09
   1  -1  -9  166.33    9.24
   1  -1  -9  166.71    9.05
   1  -1  -9  150.53    8.99
  -1   1   9  164.25    9.05
  -1   1   9  153.98    8.96
  -1   1   9  142.04    9.17
   0  -1  -9  146.91    8.00
   0  -1  -9  129.97    7.93
   0  -1  -9  138.42    7.99
   0  -1  -9  152.25    8.30
   0  -1  -9  126.61    8.15
   0  -1  -9  128.27    7.96
   0   1   9  140.59    8.08
   0   1   9  140.15    7.93
   0   1   9  141.76    8.06
   0   1   9  126.36    8.19
  -1  -1  -9   45.02    2.66
  -1  -1  -9   45.29    3.01
  -1  -1  -9   40.14    2.93
  -1  -1  -9   43.68    2.75
  -1  -1  -9   39.99    2.63
  -1  -1  -9   38.66    2.62
   1   1   9   41.91    2.82
   1   1   9   42.79    2.60
   1   1   9   39.51    3.12
   1   1   9   42.44    2.81
  -2  -1  -9  111.43    6.16
  -2  -1  -9  114.32    6.54
  -2  -1  -9  101.35    6.32
  -2  -1  -9   96.81    6.44
  -2  -1  -9  104.65    6.17
   2   1   9  107.23    6.09
   2   1   9  102.45    6.39
   2   1   9  107.67    6.37
   2   1   9   93.60    6.35
  -3  -1  -9   78.95    5.11
  -3  -1  -9   83.35    5.03
  -3  -1  -9   74.94    4.76
  -3  -1  -9   73.22    5.08
   3   1   9   72.34    4.59
   3   1   9   74.77    4.94
   3   1   9   79.58    4.62
   3   1   9   93.74    5.58
   3   1   9   77.48    5.05
  -4  -1  -9   90.83    5.91
  -4  -1  -9  101.00    6.14
  -4  -1  -9   88.38    6.08
   4   1   9   91.08    5.82
   4   1   9  101.15    5.73
   4   1   9   90.44    6.04
   4   1   9   92.92    5.49
   8  -2  -9   79.29    4.92
   8  -2  -9   67.19    5.00
  -8   2   9   72.51    4.99
  -8   2   9   73.97    4.75
   7  -2  -9  138.91    7.57
   7  -2  -9  131.32    7.53
   7  -2  -9  123.73    7.69
   7  -2  -9  116.36    7.78
  -7   2   9  132.94    7.50
  -7   2   9  123.59    7.64
  -7   2   9  116.96    7.75
   6  -2  -9   46.55    3.35
   6  -2  -9   40.57    3.20
   6  -2  -9   46.63    3.01
   6  -2  -9   47.13    3.21
  -6   2   9   44.69    3.14
  -6   2   9   49.03    2.92
  -6   2   9   43.50    3.19
  -6   2   9   46.05    3.12
   5  -2  -9  107.05    6.07
   5  -2  -9   87.88    5.97
   5  -2  -9  106.22    6.08
   5  -2  -9   94.29    5.87
  -5   2   9   98.75    5.76
  -5   2   9   96.07    5.77
  -5   2   9   92.02    5.99
  -5   2   9   96.16    5.97
  -5   2   9  100.12    5.90
   4  -2  -9  117.92    7.14
   4  -2  -9  128.23    7.26
   4  -2  -9  113.20    7.05
   4  -2  -9  111.65    7.10
  -4   2   9  113.90    7.05
  -4   2   9  118.99    6.92
  -4   2   9  122.51    6.95
  -4   2   9  110.70    7.18
  -4   2   9  130.27    7.05
  -4   2   9  119.54    6.97
   3  -2  -9  220.79   12.04
   3  -2  -9  198.13   12.01
   3  -2  -9  194.50   11.99
  -3   2   9  202.82   11.90
  -3   2   9  181.19   12.63
  -3   2   9  214.62   11.91
  -3   2   9  217.79   11.95
  -3   2   9  213.63   11.87
  -3   2   9  212.37   11.92
   2  -2  -9   19.49    1.62
   2  -2  -9   22.02    1.62
   2  -2  -9   18.19    1.55
   2  -2  -9   20.56    1.81
  -2   2   9   20.95    1.49
  -2   2   9   19.92    1.52
  -2   2   9   20.52    1.52
   1  -2  -9  178.80   10.63
   1  -2  -9  175.28   10.90
   1  -2  -9  178.10   10.76
   1  -2  -9  185.39   10.73
   1  -2  -9  197.27   11.04
  -1   2   9  192.96   10.81
  -1   2   9  191.96   10.81
  -1   2   9  185.40   10.71
   0  -2  -9   41.85    2.66
   0  -2  -9   42.73    2.80
   0  -2  -9   46.07    3.16
   0  -2  -9   45.27    2.85
   0  -2  -9   45.09    2.76
   0  -2  -9   39.12    3.00
   0   2   9   41.64    3.04
   0   2   9   43.59    2.92
   0   2   9   46.20    2.76
   0   2   9   44.30    2.90
  -1  -2  -9  129.32    7.22
  -1  -2  -9  111.71    6.73
  -1  -2  -9  122.73    6.77
  -1  -2  -9  106.28    7.08
  -1  -2  -9  116.96    6.97
   1   2   9  115.32    6.79
   1   2   9  108.71    7.04
   1   2   9  113.05    7.03
   1   2   9  118.39    7.01
  -2  -2  -9   58.69    3.78
  -2  -2  -9   54.13    3.44
  -2  -2  -9   60.10    3.96
  -2  -2  -9   47.93    3.85
  -2  -2  -9   60.11    3.44
   2   2   9   56.49    3.46
   2   2   9   55.81    3.80
   2   2   9   53.47    3.71
  -3  -2  -9  161.59    8.75
  -3  -2  -9  137.71    9.17
  -3  -2  -9  146.01    8.75
  -3  -2  -9  157.81    9.21
   3   2   9  147.53    8.95
   3   2   9  141.47    9.10
   3   2   9  158.36    8.72
   3   2   9  144.36    8.66
   8  -3  -9   48.21    3.98
  -8   3   9   53.42    3.85
  -8   3   9   54.65    3.76
   7  -3  -9   17.27    2.01
   7  -3  -9   15.76    1.55
   7  -3  -9   15.59    2.26
   7  -3  -9   18.81    1.64
  -7   3   9   18.13    1.63
  -7   3   9   17.70    1.91
  -7   3   9   17.84    1.86
   6  -3  -9  111.60    6.82
   6  -3  -9  108.73    7.06
   6  -3  -9  120.15    7.16
   6  -3  -9  115.69    7.07
  -6   3   9  122.60    6.86
  -6   3   9  110.83    7.04
  -6   3   9  110.41    6.97
  -6   3   9  117.78    6.85
   5  -3  -9   27.87    2.21
   5  -3  -9   31.41    2.44
   5  -3  -9   26.59    2.03
   5  -3  -9   31.33    2.31
  -5   3   9   27.11    2.00
  -5   3   9   26.03    2.07
  -5   3   9   29.94    1.99
  -5   3   9   25.75    2.24
  -5   3   9   29.61    2.14
   4  -3  -9  196.31   10.89
   4  -3  -9  179.20   10.87
   4  -3  -9  180.95   10.94
   4  -3  -9  205.52   11.16
  -4   3   9  183.14   10.83
  -4   3   9  206.82   10.89
  -4   3   9  179.88   10.78
  -4   3   9  193.71   10.79
  -4   3   9  179.10   10.92
  -4   3   9  159.85   10.99
   3  -3  -9   16.90    1.51
   3  -3  -9   14.46    1.47
   3  -3  -9   15.90    1.72
   3  -3  -9   14.36    1.36
  -3   3   9   17.51    1.40
  -3   3   9   17.81    1.34
  -3   3   9   15.43    1.65
  -3   3   9   16.23    1.34
  -3   3   9   16.70    1.38
   2  -3  -9  153.35    8.21
   2  -3  -9  111.65    7.93
   2  -3  -9  124.32    7.95
   2  -3  -9  134.36    7.74
   2  -3  -9  140.23    7.65
  -2   3   9  128.33    8.07
  -2   3   9  123.26    7.88
  -2   3   9  139.86    7.86
  -2   3   9  141.39    7.82
   1  -3  -9   69.34    4.28
   1  -3  -9   79.67    4.81
   1  -3  -9   75.63    4.21
   1  -3  -9   68.89    4.64
  -1   3   9   67.62    4.69
  -1   3   9   72.10    4.56
  -1   3   9   73.32    4.51
  -1   3   9   73.43    4.42
   0  -3  -9  137.45    9.26
   0  -3  -9  170.27    9.44
   0   3   9  143.85    9.27
   0   3   9  149.84    9.22
   0   3   9  159.46    9.20
   0   3   9  167.69    9.06
  -1  -3  -9   45.60    3.51
  -1  -3  -9   55.25    3.65
  -1  -3  -9   50.65    3.42
   1   3   9   49.83    3.16
   1   3   9   46.08    3.38
   1   3   9   46.60    3.41
  -2  -3  -9   86.56    5.51
  -2  -3  -9   73.60    5.47
   2   3   9   80.41    5.23
   2   3   9   82.29    5.43
   2   3   9   88.98    5.07
   7  -4  -9   75.83    5.43
   7  -4  -9   88.17    5.53
  -7   4   9   79.81    5.23
  -7   4   9   86.57    5.27
  -7   4   9   87.16    5.47
  -7   4   9   86.02    5.36
   6  -4  -9   38.76    3.00
   6  -4  -9   42.16    2.97
   6  -4  -9   39.50    2.73
  -6   4   9   38.72    2.82
  -6   4   9   38.42    3.03
  -6   4   9   42.48    2.80
   5  -4  -9  133.11    8.59
   5  -4  -9  154.78    8.48
   5  -4  -9  135.14    8.44
  -5   4   9  142.12    8.38
  -5   4   9  148.04    8.51
  -5   4   9  149.95    8.35
  -5   4   9  134.40    8.68
  -5   4   9  145.51    8.46
   4  -4  -9   33.59    2.78
   4  -4  -9   34.04    2.20
   4  -4  -9   30.05    2.36
   4  -4  -9   32.72    2.48
  -4   4   9   31.62    2.31
  -4   4   9   32.93    2.36
  -4   4   9   33.93    2.23
  -4   4   9   31.48    2.34
  -4   4   9   31.49    2.58
   3  -4  -9   92.02    5.67
   3  -4  -9   83.03    5.35
   3  -4  -9   79.25    5.40
   3  -4  -9   85.91    5.00
  -3   4   9   81.59    5.51
  -3   4   9   91.16    5.28
  -3   4   9   86.87    5.35
  -3   4   9   89.24    5.23
   2  -4  -9   44.51    3.53
   2  -4  -9   55.31    3.83
   2  -4  -9   48.27    3.45
  -2   4   9   54.80    3.40
  -2   4   9   55.44    3.42
  -2   4   9   55.03    3.55
  -2   4   9   52.95    3.69
   1  -4  -9   91.99    6.30
   1  -4  -9  101.15    6.16
   1  -4  -9  108.54    6.50
  -1   4   9  100.23    6.37
  -1   4   9  100.15    6.18
  -1   4   9  102.22    6.09
  -1   4   9  101.30    6.27
   0  -4  -9   39.92    3.28
   0   4   9   40.76    3.15
   0   4   9   48.54    3.23
   0   4   9   41.65    2.96
  -1  -4  -9   79.90    5.93
   1   4   9   99.57    5.62
   1   4   9   86.62    5.72
   1   4   9   92.95    5.91
   7  -5  -9   29.86    3.17
  -7   5   9   36.83    2.81
  -7   5   9   34.83    2.67
  -7   5   9   32.03    2.98
  -7   5   9   33.98    2.70
   6  -5  -9  116.11    7.49
   6  -5  -9  115.28    7.18
  -6   5   9  125.38    7.18
  -6   5   9  117.26    7.53
  -6   5   9  123.72    7.33
  -6   5   9  124.25    7.36
   5  -5  -9   81.56    4.70
   5  -5  -9   66.84    4.65
   5  -5  -9   64.31    4.45
  -5   5   9   71.46    4.52
  -5   5   9   66.36    4.77
  -5   5   9   66.57    4.52
  -5   5   9   74.49    4.31
   4  -5  -9   68.75    4.64
  -4   5   9   72.68    4.55
  -4   5   9   59.59    4.71
  -4   5   9   70.26    4.37
  -4   5   9   80.71    4.64
   3  -5  -9   66.66    4.67
   3  -5  -9   67.59    4.66
  -3   5   9   68.42    4.85
  -3   5   9   76.86    4.70
  -3   5   9   77.69    4.51
   2  -5  -9   71.64    4.79
   2  -5  -9   70.60    4.88
  -2   5   9   76.83    4.89
  -2   5   9   76.79    4.70
  -2   5   9   70.79    4.97
   1  -5  -9   19.40    2.38
  -1   5   9   23.21    2.36
  -1   5   9   23.25    2.26
   5  -6  -9   77.04    5.87
   5  -6  -9   75.63    5.86
  -5   6   9   85.07    6.19
  -5   6   9   78.85    5.21
   4  -6  -9    8.46    1.40
   4  -6  -9    9.77    1.57
  -4   6   9    7.33    1.51
  -4   6   9   12.61    1.91
  -3   9 -10   54.37    3.58
  -3   9 -10   57.12    3.97
  -3   9 -10   61.37    4.04
  -3   9 -10   53.32    4.02
   0   8 -10   73.36    4.69
   0   8 -10   69.99    4.91
   0   8 -10   82.45    4.58
   0   8 -10   72.68    4.63
  -1   8 -10   63.34    3.86
  -1   8 -10   55.79    3.87
  -1   8 -10   57.08    3.75
  -1   8 -10   64.95    4.12
  -1   8 -10   60.28    3.68
  -1   8 -10   52.39    4.03
  -1   8 -10   61.82    3.83
  -2   8 -10  100.07    5.64
  -2   8 -10   98.90    5.84
  -2   8 -10   97.32    5.80
  -2   8 -10   92.05    5.96
  -2   8 -10   96.07    5.85
  -2   8 -10   85.80    5.63
  -2   8 -10   89.88    5.94
  -3   8 -10   23.20    1.97
  -3   8 -10   16.01    1.92
  -3   8 -10   19.77    1.57
  -3   8 -10   24.78    2.47
  -3   8 -10   20.59    2.09
  -3   8 -10   22.05    1.68
  -3   8 -10   20.60    1.79
  -4   8 -10   99.88    6.31
  -4   8 -10   96.94    5.86
  -4   8 -10  106.76    5.93
  -4   8 -10   91.79    6.17
  -4   8 -10  104.13    6.25
  -5   8 -10   27.20    2.46
  -5   8 -10   24.36    2.26
  -5   8 -10   26.96    2.54
   2   7 -10   32.53    2.63
   2   7 -10   31.21    2.41
   2   7 -10   28.06    2.35
   1   7 -10   71.09    4.48
   1   7 -10   72.82    4.68
   1   7 -10   79.10    4.59
   1   7 -10   72.27    4.88
   1   7 -10   80.65    4.56
   0   7 -10   36.43    2.64
   0   7 -10   38.86    2.69
   0   7 -10   38.82    2.91
   0   7 -10   45.39    3.65
   0   7 -10   41.45    2.59
   0   7 -10   39.47    2.50
  -1   7 -10   63.09    4.34
  -1   7 -10   69.11    4.21
  -1   7 -10   69.01    4.43
  -1   7 -10   69.21    4.10
  -1   7 -10   68.72    4.62
  -1   7 -10   61.96    3.98
  -2   7 -10   14.95    1.54
  -2   7 -10   15.87    1.61
  -2   7 -10   13.97    1.24
  -2   7 -10   15.53    1.19
  -2   7 -10   15.62    1.44
  -2   7 -10   14.87    1.37
  -2   7 -10   14.92    1.60
  -2   7 -10   15.89    1.60
  -3   7 -10   60.43    4.22
  -3   7 -10   67.92    3.98
  -3   7 -10   60.25    4.25
  -3   7 -10   67.68    4.28
  -3   7 -10   64.81    3.91
  -3   7 -10   64.71    4.20
  -3   7 -10   69.22    4.14
  -4   7 -10   68.12    4.49
  -4   7 -10   64.90    3.99
  -4   7 -10   72.59    4.00
  -4   7 -10   70.36    4.41
  -4   7 -10   64.87    4.38
  -5   7 -10  136.67    8.09
  -5   7 -10  136.83    8.01
  -5   7 -10  124.41    8.10
  -6   7 -10   38.01    2.83
  -6   7 -10   37.53    3.05
   3   6 -10   25.15    1.71
   3   6 -10   24.98    2.09
   3   6 -10   24.87    2.21
   2   6 -10   71.91    4.36
   2   6 -10   73.00    4.64
   2   6 -10   71.83    4.79
   2   6 -10   78.09    4.40
   2   6 -10   76.44    4.47
   1   6 -10   42.94    2.88
   1   6 -10   45.33    3.38
   1   6 -10   43.55    2.66
   1   6 -10   41.26    3.09
   1   6 -10   46.77    3.30
   1   6 -10   43.07    2.83
   1   6 -10   44.52    2.63
   0   6 -10   99.54    5.75
   0   6 -10  108.42    5.97
   0   6 -10   98.15    5.89
   0   6 -10   90.92    6.07
   0   6 -10  102.41    6.14
   0   6 -10   93.82    5.71
  -1   6 -10   62.33    3.86
  -1   6 -10   63.85    3.82
  -1   6 -10   67.33    4.10
  -1   6 -10   62.57    3.75
  -1   6 -10   56.63    4.08
  -1   6 -10   68.42    4.03
  -2   6 -10  122.19    7.56
  -2   6 -10  134.86    7.65
  -2   6 -10  122.68    7.84
  -2   6 -10  124.89    7.83
  -2   6 -10  140.28    7.82
  -2   6 -10  138.17    7.81
  -3   6 -10   28.47    2.10
  -3   6 -10   26.07    1.65
  -3   6 -10   24.00    2.03
  -3   6 -10   23.02    2.01
  -3   6 -10   27.08    1.92
  -3   6 -10   25.88    1.98
  -3   6 -10   23.88    1.62
  -4   6 -10   84.79    5.59
  -4   6 -10   90.50    5.57
  -4   6 -10   87.89    5.66
  -4   6 -10   99.79    5.78
  -5   6 -10   39.72    2.83
  -5   6 -10   34.27    2.78
  -5   6 -10   37.46    2.72
   5  -6  10   36.70    2.70
  -6   6 -10   51.43    3.54
  -6   6 -10   50.09    3.71
  -6   6 -10   53.07    3.84
   6  -6  10   53.78    3.66
   4   5 -10   27.06    2.26
   4   5 -10   26.94    2.20
   4   5 -10   27.08    1.79
  -4  -5  10   26.06    2.52
   3   5 -10   72.00    4.76
   3   5 -10   79.13    4.54
   3   5 -10   78.58    4.43
   3   5 -10   76.72    4.88
  -3  -5  10   75.07    5.02
   2   5 -10   30.09    2.32
   2   5 -10   34.15    2.53
   2   5 -10   34.91    2.83
   2   5 -10   36.12    2.27
   2   5 -10   35.42    2.78
   1   5 -10  134.63    8.34
   1   5 -10  153.77    8.38
   1   5 -10  130.58    8.50
   1   5 -10  151.77    8.61
   0   5 -10   41.18    2.68
   0   5 -10   38.22    2.89
   0   5 -10   44.55    2.81
   0   5 -10   41.29    2.91
   0  -5  10   44.13    2.86
  -1   5 -10  104.63    6.44
  -1   5 -10  110.99    6.38
  -1   5 -10  105.04    6.10
  -1   5 -10  106.41    6.20
  -1   5 -10  110.91    6.38
  -1   5 -10   99.38    6.06
   1  -5  10  103.62    6.43
  -2   5 -10   33.79    2.24
  -2   5 -10   31.54    2.85
  -2   5 -10   37.05    2.32
  -2   5 -10   39.15    2.49
  -2   5 -10   41.81    2.61
  -2   5 -10   34.37    2.55
  -3   5 -10  216.41   11.57
  -3   5 -10  202.77   11.47
  -3   5 -10  209.18   11.67
  -3   5 -10  183.65   11.58
  -3   5 -10  177.39   11.61
  -4   5 -10   32.82    2.60
  -4   5 -10   39.00    2.81
  -4   5 -10   37.62    2.60
  -4   5 -10   33.57    2.63
   4  -5  10   37.23    2.53
   4  -5  10   41.98    2.65
  -5   5 -10  114.28    7.40
  -5   5 -10  114.19    7.35
  -5   5 -10  128.33    7.45
   5  -5  10  127.80    7.35
   5  -5  10  123.88    7.36
  -6   5 -10   56.33    3.82
  -6   5 -10   56.66    3.94
  -6   5 -10   59.96    4.07
   6  -5  10   54.82    3.81
   6  -5  10   54.63    3.88
   5   4 -10   22.29    2.06
   5   4 -10   20.08    1.97
  -5  -4  10   25.76    2.47
   4   4 -10   77.46    5.09
   4   4 -10   83.28    4.77
   4   4 -10   81.86    5.04
  -4  -4  10   80.58    5.30
   3   4 -10   68.03    4.39
   3   4 -10   67.44    4.37
   3   4 -10   62.13    4.04
   3   4 -10   64.57    3.92
   3   4 -10   62.33    4.16
  -3  -4  10   57.58    4.20
  -3  -4  10   63.12    3.95
  -3  -4  10   71.06    4.17
   2   4 -10   91.77    6.63
   2   4 -10  102.01    6.56
   2   4 -10  120.49    6.73
  -2  -4  10  121.05    6.51
  -2  -4  10  105.17    6.44
   1   4 -10   31.99    2.22
   1   4 -10   34.29    2.29
   1   4 -10   30.85    2.41
   1   4 -10   33.32    2.43
  -1  -4  10   37.29    2.29
  -1  -4  10   32.33    2.33
   0   4 -10  231.84   12.78
   0   4 -10  233.37   12.83
   0   4 -10  196.76   12.62
   0  -4  10  237.00   12.66
   0  -4  10  201.98   12.79
  -1   4 -10   22.82    1.50
  -1   4 -10   22.85    1.40
  -1   4 -10   22.76    1.77
  -1   4 -10   22.30    1.70
  -1   4 -10   21.79    1.80
   1  -4  10   20.51    1.80
  -2   4 -10  237.89   12.90
  -2   4 -10  219.65   12.64
  -2   4 -10  226.59   12.74
  -2   4 -10  230.73   12.99
  -2   4 -10  204.36   12.98
  -2   4 -10  199.95   12.94
   2  -4  10  220.31   12.72
   2  -4  10  239.65   12.93
  -3   4 -10  114.27    6.49
  -3   4 -10  100.10    6.35
  -3   4 -10  115.73    6.27
  -3   4 -10   85.65    6.78
   3  -4  10  102.77    6.21
   3  -4  10  113.67    6.35
   3  -4  10  100.26    6.46
  -4   4 -10   87.38    5.47
  -4   4 -10   91.01    5.32
  -4   4 -10   80.22    5.34
  -4   4 -10   79.18    5.31
   4  -4  10   85.77    5.24
   4  -4  10   91.48    5.31
  -5   4 -10   13.86    1.55
  -5   4 -10   15.80    1.71
  -5   4 -10   14.66    1.57
   5  -4  10   15.63    1.54
   5  -4  10   10.34    1.46
  -6   4 -10   66.10    4.35
  -6   4 -10   60.45    4.23
   6  -4  10   67.68    4.26
   6  -4  10   59.05    4.27
   6   3 -10   22.70    2.18
   6   3 -10   23.53    2.15
  -6  -3  10   23.07    2.55
   5   3 -10   79.77    4.63
   5   3 -10   78.76    4.95
   5   3 -10   75.73    4.90
  -5  -3  10   73.47    5.15
  -5  -3  10   80.54    4.65
   4   3 -10   51.27    3.43
   4   3 -10   51.48    3.18
   4   3 -10   53.77    3.64
   4   3 -10   48.30    3.32
   4   3 -10   50.30    3.66
  -4  -3  10   49.66    3.21
  -4  -3  10   55.10    3.45
  -4  -3  10   48.42    3.54
   3   3 -10  129.88    7.93
   3   3 -10  126.06    7.81
   3   3 -10  144.66    8.10
   3   3 -10  133.44    7.90
  -3  -3  10  125.69    7.79
  -3  -3  10  142.55    7.87
  -3  -3  10  125.61    7.98
   2   3 -10   24.35    1.98
   2   3 -10   17.77    2.34
   2   3 -10   23.92    1.75
   2   3 -10   23.37    1.72
  -2  -3  10   26.73    1.78
  -2  -3  10   23.06    1.79
   1   3 -10   95.75    5.49
   1   3 -10   80.40    5.44
   1   3 -10   97.90    5.43
   1   3 -10   82.99    5.29
  -1  -3  10   93.56    5.33
  -1  -3  10   83.18    5.43
   0   3 -10   67.56    4.07
   0   3 -10   57.36    4.07
   0   3 -10   67.28    4.04
   0   3 -10   60.36    3.86
   0  -3  10   65.23    4.12
   0  -3  10   68.73    3.88
  -1   3 -10  113.58    6.94
  -1   3 -10  127.66    7.24
  -1   3 -10  111.80    7.20
  -1   3 -10  121.82    6.90
  -1   3 -10  131.73    7.16
   1  -3  10  127.57    6.95
   1  -3  10  117.52    6.89
   1  -3  10  124.63    7.16
   1  -3  10  107.35    7.23
  -2   3 -10  118.24    6.67
  -2   3 -10  114.97    6.50
  -2   3 -10  100.51    6.51
  -2   3 -10   96.65    6.56
  -2   3 -10  118.47    6.39
  -2   3 -10  103.06    6.22
   2  -3  10  115.56    6.55
   2  -3  10  106.08    6.36
  -3   3 -10   67.33    4.40
  -3   3 -10   70.70    4.34
  -3   3 -10   65.68    4.47
  -3   3 -10   76.20    4.60
   3  -3  10   70.21    4.32
   3  -3  10   69.00    4.55
   3  -3  10   77.06    4.45
  -4   3 -10   25.77    2.13
  -4   3 -10   30.19    2.17
  -4   3 -10   26.59    2.19
  -4   3 -10   30.76    2.43
   4  -3  10   26.48    2.25
   4  -3  10   27.44    2.11
   4  -3  10   30.51    2.19
  -5   3 -10  104.63    6.84
  -5   3 -10  103.38    6.88
  -5   3 -10  120.82    6.96
   5  -3  10  108.19    6.86
   5  -3  10  122.63    6.87
  -6   3 -10   22.59    2.30
  -6   3 -10   20.11    2.29
   6  -3  10   24.50    2.42
   6   2 -10   78.57    4.58
   6   2 -10   69.90    4.82
   6   2 -10   76.57    4.85
  -6  -2  10   77.91    4.60
  -6  -2  10   76.27    5.08
   5   2 -10   33.90    2.66
   5   2 -10   31.24    2.40
   5   2 -10   34.56    2.43
   5   2 -10   30.67    2.62
  -5  -2  10   32.52    2.23
  -5  -2  10   34.25    2.61
  -5  -2  10   30.23    2.60
   4   2 -10  118.88    7.00
   4   2 -10  114.39    6.67
   4   2 -10  108.41    6.75
   4   2 -10  115.46    6.82
  -4  -2  10  105.14    6.68
  -4  -2  10  119.64    6.77
  -4  -2  10  106.22    6.90
   3   2 -10   49.01    3.20
   3   2 -10   46.98    3.34
   3   2 -10   51.44    3.20
   3   2 -10   53.98    3.45
  -3  -2  10   43.34    3.17
  -3  -2  10   56.29    3.22
  -3  -2  10   47.06    3.32
   2   2 -10  223.81   12.06
   2   2 -10  192.44   11.96
   2   2 -10  192.34   12.07
   2   2 -10  223.29   12.18
  -2  -2  10  215.44   11.96
  -2  -2  10  195.16   12.05
   1   2 -10   56.49    3.67
   1   2 -10   63.67    3.85
   1   2 -10   63.17    3.83
   1   2 -10   58.27    3.85
  -1  -2  10   56.41    3.84
  -1  -2  10   62.94    3.67
   0   2 -10  157.25    8.58
   0   2 -10  131.09    8.30
   0   2 -10  150.14    8.47
   0   2 -10  132.92    8.52
   0  -2  10  136.06    8.56
   0  -2  10  148.46    8.46
   0  -2  10  151.59    8.32
  -1   2 -10   51.95    3.38
  -1   2 -10   53.22    3.68
  -1   2 -10   59.80    3.58
  -1   2 -10   65.01    3.77
  -1   2 -10   53.82    3.57
  -1   2 -10   55.17    3.39
   1  -2  10   60.20    3.62
   1  -2  10   62.44    3.41
   1  -2  10   56.35    3.40
   1  -2  10   55.93    3.76
  -2   2 -10  172.60    9.81
  -2   2 -10  165.52    9.84
  -2   2 -10  171.63    9.76
  -2   2 -10  172.24   10.00
  -2   2 -10  159.91    9.57
   2  -2  10  176.61    9.88
   2  -2  10  155.22   10.03
   2  -2  10  166.23    9.75
   2  -2  10  175.57    9.57
  -3   2 -10   53.73    3.41
  -3   2 -10   48.00    3.12
  -3   2 -10   43.63    3.24
   3  -2  10   48.17    3.12
   3  -2  10   49.63    3.19
   3  -2  10   45.33    3.29
  -4   2 -10  158.37   10.38
  -4   2 -10  182.15   10.48
  -4   2 -10  194.19   10.68
  -4   2 -10  172.18   10.54
   4  -2  10  193.95   10.49
   4  -2  10  161.72   10.49
  -5   2 -10   70.27    4.72
  -5   2 -10   67.03    4.54
  -5   2 -10   72.89    4.74
   5  -2  10   70.90    4.66
   5  -2  10   68.62    4.61
  -6   2 -10   86.98    5.75
  -6   2 -10   84.15    5.63
   6  -2  10   87.22    5.77
   7   1 -10   88.36    5.81
   7   1 -10   90.73    5.69
  -7  -1  10   90.26    6.04
  -7  -1  10   94.43    5.79
   6   1 -10   30.99    2.14
   6   1 -10   27.39    2.24
   6   1 -10   28.38    2.50
   6   1 -10   26.73    2.31
  -6  -1  10   29.07    1.79
  -6  -1  10   26.81    2.49
  -6  -1  10   29.47    2.10
   5   1 -10  109.92    6.32
   5   1 -10  101.30    6.36
   5   1 -10   95.86    6.37
   5   1 -10  106.70    6.46
   5   1 -10  114.49    6.65
  -5  -1  10   98.98    6.49
  -5  -1  10  101.73    6.29
  -5  -1  10  111.46    6.40
   4   1 -10   22.85    1.80
   4   1 -10   21.71    1.84
   4   1 -10   25.59    2.09
   4   1 -10   21.51    1.85
  -4  -1  10   23.58    1.78
  -4  -1  10   25.09    1.82
  -4  -1  10   21.03    1.93
   3   1 -10  215.65   11.40
   3   1 -10  203.69   11.26
   3   1 -10  186.86   11.27
   3   1 -10  171.73   11.18
  -3  -1  10  178.27   11.22
  -3  -1  10  205.09   11.18
  -3  -1  10  186.65   11.28
   2   1 -10   62.82    3.94
   2   1 -10   58.71    3.88
   2   1 -10   64.33    3.90
   2   1 -10   57.96    3.77
  -2  -1  10   57.29    3.86
  -2  -1  10   64.03    3.75
   1   1 -10  152.59    9.72
   1   1 -10  160.57    9.90
   1   1 -10  177.18    9.88
   1   1 -10  189.69    9.97
  -1  -1  10  176.23    9.82
  -1  -1  10  169.60    9.71
  -1  -1  10  152.23    9.90
   0   1 -10   85.17    5.27
   0   1 -10   94.56    5.41
   0   1 -10   86.28    5.17
   0   1 -10   96.66    5.57
   0   1 -10   83.75    5.49
   0  -1  10   81.10    5.52
   0  -1  10   94.50    5.27
   0  -1  10   90.51    5.20
   0  -1  10   94.71    5.43
  -1   1 -10  307.87   16.48
  -1   1 -10  322.37   16.72
  -1   1 -10  280.26   16.32
  -1   1 -10  284.51   16.47
  -1   1 -10  293.82   16.38
  -1   1 -10  242.37   16.71
   1  -1  10  291.07   16.32
   1  -1  10  306.99   16.55
   1  -1  10  279.53   16.40
   1  -1  10  260.45   16.73
  -2   1 -10   25.13    1.91
  -2   1 -10   27.56    1.88
  -2   1 -10   29.24    1.91
  -2   1 -10   25.66    2.08
  -2   1 -10   26.18    2.19
   2  -1  10   27.65    2.02
   2  -1  10   26.57    1.92
   2  -1  10   26.57    1.66
   2  -1  10   25.90    2.14
  -3   1 -10  134.00    7.85
  -3   1 -10  124.99    7.98
  -3   1 -10  137.99    8.07
  -3   1 -10  131.25    7.82
   3  -1  10  133.01    7.89
   3  -1  10  138.64    7.91
   3  -1  10  121.60    7.94
  -4   1 -10   33.76    2.78
  -4   1 -10   37.67    2.93
  -4   1 -10   33.79    2.54
  -4   1 -10   36.68    2.67
   4  -1  10   33.37    2.64
   4  -1  10   35.06    2.66
  -5   1 -10  109.60    7.07
  -5   1 -10  111.87    6.87
   5  -1  10  112.29    7.06
   5  -1  10  110.90    6.91
   7   0 -10   42.88    3.05
   7   0 -10   42.36    3.09
   7   0 -10   48.23    3.35
   7   0 -10   43.26    3.33
  -7   0  10   41.85    3.39
  -7   0  10   46.81    3.06
   6   0 -10  168.49    9.66
   6   0 -10  152.18    9.65
   6   0 -10  165.73    9.60
   6   0 -10  169.11    9.56
  -6   0  10  158.79    9.26
  -6   0  10  156.07    9.74
   5   0 -10   37.48    2.62
   5   0 -10   37.32    2.64
   5   0 -10   34.18    2.67
   5   0 -10   41.77    2.93
  -5   0  10   34.46    2.70
  -5   0  10   40.47    2.65
  -5   0  10   34.48    2.59
   4   0 -10   77.65    5.31
   4   0 -10   91.96    5.37
   4   0 -10   83.82    5.33
   4   0 -10   92.27    5.48
  -4   0  10   91.63    5.27
  -4   0  10   82.04    5.33
   3   0 -10   33.11    2.48
   3   0 -10   40.38    2.60
   3   0 -10   35.21    2.54
   3   0 -10   39.46    2.68
  -3   0  10   34.90    2.48
  -3   0  10   32.83    2.54
  -3   0  10   39.55    2.44
   2   0 -10  153.65    9.64
   2   0 -10  158.79    9.76
   2   0 -10  180.85    9.80
   2   0 -10  176.51    9.83
  -2   0  10  173.64    9.62
  -2   0  10  146.00    9.76
  -2   0  10  170.71    9.67
   1   0 -10   67.56    4.32
   1   0 -10   77.01    4.44
   1   0 -10   67.45    4.48
   1   0 -10   79.98    4.60
  -1   0  10   68.87    4.19
  -1   0  10   65.10    4.52
  -1   0  10   76.11    4.41
   0   0 -10  104.81    6.48
   0   0 -10  118.48    6.62
   0   0 -10  106.50    6.23
   0   0 -10   98.91    6.50
   0   0 -10  102.65    6.27
   0   0 -10   98.73    6.30
   0   0  10  114.50    6.25
   0   0  10  114.91    6.42
   0   0  10  105.13    6.27
  -1   0 -10   20.45    1.81
  -1   0 -10   22.58    1.60
  -1   0 -10   20.30    1.48
  -1   0 -10   23.89    1.96
  -1   0 -10   20.62    1.57
  -1   0 -10   23.09    1.59
   1   0  10   22.56    1.46
   1   0  10   22.51    1.72
   1   0  10   22.44    1.65
   1   0  10   20.20    1.87
  -2   0 -10   55.40    4.03
  -2   0 -10   69.07    4.17
  -2   0 -10   62.39    3.86
  -2   0 -10   63.31    3.77
  -2   0 -10   56.94    3.78
   2   0  10   61.80    3.61
   2   0  10   63.52    3.95
   2   0  10   55.23    3.99
   2   0  10   61.36    3.90
  -3   0 -10   24.87    2.09
  -3   0 -10   26.73    2.44
  -3   0 -10   24.10    2.28
  -3   0 -10   27.20    1.99
   3   0  10   24.68    2.15
   3   0  10   24.67    2.14
   3   0  10   28.64    2.33
   3   0  10   26.40    1.64
   3   0  10   26.43    1.64
  -4   0 -10  113.91    6.72
  -4   0 -10  102.05    6.71
  -4   0 -10  108.26    6.45
   4   0  10  107.61    6.67
   4   0  10   95.44    6.53
   7  -1 -10   82.96    5.34
   7  -1 -10   87.57    5.37
   7  -1 -10   82.81    5.50
  -7   1  10   85.93    5.32
  -7   1  10   82.96    5.54
   6  -1 -10   21.32    1.92
   6  -1 -10   22.34    2.06
   6  -1 -10   23.78    2.29
   6  -1 -10   18.84    1.82
  -6   1  10   20.35    1.47
  -6   1  10   19.96    1.84
  -6   1  10   19.55    1.98
   5  -1 -10   79.18    4.93
   5  -1 -10   72.22    4.97
   5  -1 -10   89.98    5.14
   5  -1 -10   85.10    5.03
  -5   1  10   80.92    4.90
  -5   1  10   73.83    4.95
  -5   1  10   78.07    4.61
  -5   1  10   77.54    4.62
  -5   1  10   74.44    4.97
   4  -1 -10   74.51    4.83
   4  -1 -10   73.36    4.80
   4  -1 -10   86.27    4.94
   4  -1 -10   82.25    4.95
  -4   1  10   76.86    4.81
  -4   1  10   78.71    4.50
  -4   1  10   80.84    4.75
  -4   1  10   70.24    4.50
  -4   1  10   73.89    4.87
   3  -1 -10   61.23    4.21
   3  -1 -10   75.21    4.39
   3  -1 -10   69.85    4.31
   3  -1 -10   61.76    4.18
  -3   1  10   70.79    4.13
  -3   1  10   62.56    4.29
  -3   1  10   66.75    4.14
  -3   1  10   65.48    3.95
  -3   1  10   66.00    3.92
  -3   1  10   70.60    4.13
   2  -1 -10   90.82    5.35
   2  -1 -10   84.50    5.24
   2  -1 -10   81.61    5.11
  -2   1  10   82.38    4.97
  -2   1  10   85.05    4.94
  -2   1  10   71.54    5.24
  -2   1  10   90.36    5.13
  -2   1  10   89.16    5.06
   1  -1 -10  213.51   13.38
   1  -1 -10  221.72   13.17
   1  -1 -10  255.34   13.48
   1  -1 -10  249.19   13.25
  -1   1  10  205.87   13.12
  -1   1  10  206.83   13.37
  -1   1  10  242.29   13.24
  -1   1  10  235.24   13.13
   0  -1 -10   53.98    3.90
   0  -1 -10   63.67    3.76
   0  -1 -10   55.33    3.64
   0  -1 -10   63.00    3.70
   0  -1 -10   56.94    3.69
   0  -1 -10   68.97    4.11
   0   1  10   62.01    3.64
   0   1  10   55.06    3.95
   0   1  10   60.08    3.76
   0   1  10   62.85    3.83
  -1  -1 -10  163.80    9.50
  -1  -1 -10  147.91    9.77
  -1  -1 -10  151.78    9.48
  -1  -1 -10  181.44    9.91
  -1  -1 -10  177.53    9.54
  -1  -1 -10  165.99    9.60
   1   1  10  168.51    9.70
   1   1  10  159.21    9.79
   1   1  10  159.46    9.65
  -2  -1 -10   80.23    4.94
  -2  -1 -10   72.98    5.27
  -2  -1 -10   85.40    5.39
  -2  -1 -10   84.75    4.94
  -2  -1 -10   84.62    5.12
   2   1  10   85.83    4.84
   2   1  10   84.84    5.22
   2   1  10   77.65    5.19
   2   1  10   79.69    5.16
  -3  -1 -10  165.97   10.09
  -3  -1 -10  195.21   10.82
  -3  -1 -10  179.34   10.34
  -3  -1 -10  157.59   10.42
  -3  -1 -10  178.27   10.05
   3   1  10  165.73    9.90
   3   1  10  164.46   10.28
   3   1  10  176.64    9.92
   3   1  10  171.36   10.34
  -4  -1 -10   36.57    2.71
  -4  -1 -10   35.65    3.26
   4   1  10   37.04    2.85
   4   1  10   32.70    3.06
   7  -2 -10   32.90    2.90
   7  -2 -10   36.18    2.54
   7  -2 -10   31.69    2.63
  -7   2  10   36.39    2.85
  -7   2  10   33.92    2.74
   6  -2 -10  100.54    5.97
   6  -2 -10  100.96    6.04
   6  -2 -10   96.19    5.75
   6  -2 -10   85.06    5.91
  -6   2  10   88.14    5.85
  -6   2  10   90.45    5.56
  -6   2  10   93.74    5.89
  -6   2  10   95.41    5.58
   5  -2 -10   91.59    5.62
   5  -2 -10   91.62    5.57
   5  -2 -10   83.34    5.51
   5  -2 -10   83.97    5.39
  -5   2  10   89.75    5.20
  -5   2  10   88.87    5.43
  -5   2  10   86.67    5.54
  -5   2  10   87.29    5.22
   4  -2 -10  268.64   14.89
   4  -2 -10  241.25   14.81
   4  -2 -10  278.79   15.01
   4  -2 -10  237.52   14.84
  -4   2  10  272.27   14.78
  -4   2  10  259.69   14.64
  -4   2  10  265.27   14.72
  -4   2  10  238.44   14.92
  -4   2  10  258.53   14.62
  -4   2  10  236.38   14.73
   3  -2 -10   24.53    2.08
   3  -2 -10   22.67    2.00
   3  -2 -10   31.03    2.35
  -3   2  10   27.42    1.87
  -3   2  10   24.59    2.18
  -3   2  10   28.04    1.94
  -3   2  10   28.81    1.83
  -3   2  10   29.39    1.95
   2  -2 -10  144.60    9.50
   2  -2 -10  171.29    9.53
   2  -2 -10  180.16    9.80
  -2   2  10  167.46    9.44
  -2   2  10  146.10    9.67
  -2   2  10  164.67    9.49
  -2   2  10  160.88    9.45
   1  -2 -10   34.14    2.62
   1  -2 -10   40.31    2.79
   1  -2 -10   33.05    2.21
   1  -2 -10   33.22    2.39
   1  -2 -10   36.10    2.40
  -1   2  10   36.13    2.32
  -1   2  10   36.28    2.44
  -1   2  10   31.00    2.59
  -1   2  10   34.57    2.39
   0  -2 -10  140.45    9.25
   0  -2 -10  168.12    9.02
   0  -2 -10  152.19    8.91
   0  -2 -10  172.76    9.44
   0  -2 -10  144.78    9.02
   0   2  10  153.59    9.15
   0   2  10  156.35    9.16
   0   2  10  144.40    9.27
   0   2  10  157.77    8.98
  -1  -2 -10   42.70    3.30
  -1  -2 -10   39.26    2.63
  -1  -2 -10   37.81    3.12
  -1  -2 -10   40.35    2.90
  -1  -2 -10   44.34    2.71
   1   2  10   42.74    2.70
   1   2  10   50.39    3.51
   1   2  10   39.31    3.03
   1   2  10   42.01    2.99
  -2  -2 -10   81.78    4.55
  -2  -2 -10   77.42    4.90
  -2  -2 -10   72.02    4.52
  -2  -2 -10   69.81    5.02
   2   2  10   79.51    4.54
   2   2  10   70.88    4.88
   2   2  10   69.13    4.82
  -3  -2 -10   39.46    3.57
   3   2  10   40.85    2.68
   3   2  10   43.09    3.35
   3   2  10   40.63    3.11
   7  -3 -10   52.04    4.03
   7  -3 -10   54.02    3.64
  -7   3  10   56.50    3.91
  -7   3  10   59.25    3.63
  -7   3  10   55.17    3.89
   6  -3 -10   13.06    1.91
   6  -3 -10   17.83    2.02
   6  -3 -10   18.20    1.64
  -6   3  10   15.68    1.92
  -6   3  10   19.17    1.60
  -6   3  10   18.11    1.53
  -6   3  10   17.80    1.77
   5  -3 -10   92.50    5.70
   5  -3 -10   90.80    5.57
   5  -3 -10   83.57    5.68
  -5   3  10   88.07    5.78
  -5   3  10   94.18    5.46
  -5   3  10   94.06    5.49
  -5   3  10   90.60    5.54
   4  -3 -10   22.76    2.07
   4  -3 -10   23.58    2.09
   4  -3 -10   29.38    2.09
   4  -3 -10   28.57    2.44
  -4   3  10   24.07    2.25
  -4   3  10   28.12    2.06
  -4   3  10   26.72    1.89
  -4   3  10   27.82    1.95
   3  -3 -10  130.72    8.30
   3  -3 -10  147.63    8.59
   3  -3 -10  141.77    8.19
   3  -3 -10  124.68    8.70
  -3   3  10  142.72    8.19
  -3   3  10  152.31    8.24
  -3   3  10  146.50    8.22
  -3   3  10  128.80    8.45
  -3   3  10  136.64    8.22
   2  -3 -10   31.59    2.35
   2  -3 -10   32.12    2.03
   2  -3 -10   35.66    2.81
   2  -3 -10   30.96    2.49
   2  -3 -10   30.01    2.17
  -2   3  10   30.74    2.54
  -2   3  10   32.93    2.33
  -2   3  10   33.06    2.25
  -2   3  10   32.60    2.29
   1  -3 -10   78.92    5.50
   1  -3 -10   86.28    5.34
   1  -3 -10   84.90    5.03
   1  -3 -10   98.19    5.74
   1  -3 -10   85.85    5.11
  -1   3  10   78.91    5.54
  -1   3  10   94.19    5.27
  -1   3  10   87.56    5.37
   0  -3 -10   20.72    2.07
   0   3  10   17.29    1.91
   0   3  10   18.98    1.61
   0   3  10   19.93    1.87
  -1  -3 -10   88.80    6.63
   1   3  10  112.99    6.30
   1   3  10  110.03    6.62
   1   3  10  104.92    6.57
  -2  -3 -10   33.56    3.81
   2   3  10   36.83    2.92
   2   3  10   37.69    3.12
   7  -4 -10   25.82    3.30
   7  -4 -10   25.28    3.32
  -7   4  10   23.74    2.10
  -7   4  10   23.70    2.25
  -7   4  10   22.49    2.43
   6  -4 -10   79.64    5.01
   6  -4 -10   78.37    5.17
   6  -4 -10   73.11    5.23
  -6   4  10   84.92    5.04
  -6   4  10   82.24    4.97
  -6   4  10   75.98    5.27
  -6   4  10   84.25    5.09
   5  -4 -10   45.58    3.33
   5  -4 -10   41.66    3.10
   5  -4 -10   47.97    3.09
  -5   4  10   46.71    3.00
  -5   4  10   40.46    3.32
  -5   4  10   44.08    2.92
  -5   4  10   42.72    2.86
   4  -4 -10  122.58    7.73
   4  -4 -10  134.79    7.47
   4  -4 -10  123.54    7.75
  -4   4  10  134.20    7.59
  -4   4  10  121.64    7.88
  -4   4  10  112.53    8.18
  -4   4  10  136.58    7.54
   3  -4 -10   70.42    4.02
   3  -4 -10   63.36    4.43
   3  -4 -10   64.10    4.48
  -3   4  10   65.39    4.64
  -3   4  10   71.68    4.44
  -3   4  10   72.63    4.36
  -3   4  10   69.19    4.28
   2  -4 -10   68.05    4.59
   2  -4 -10   73.07    4.75
  -2   4  10   69.87    4.79
  -2   4  10   72.50    4.52
  -2   4  10   71.41    4.61
   1  -4 -10   42.64    3.43
   1  -4 -10   40.82    3.12
  -1   4  10   44.90    3.43
  -1   4  10   49.25    3.28
   0  -4 -10   84.97    5.87
   0   4  10   89.58    5.75
   0   4  10   89.27    5.75
   5  -5 -10   70.93    5.04
   5  -5 -10   71.71    4.85
  -5   5  10   64.68    4.95
  -5   5  10   73.97    4.67
  -5   5  10   72.41    4.66
   4  -5 -10   23.37    2.37
   4  -5 -10   27.90    2.50
  -4   5  10   31.39    2.37
  -4   5  10   21.14    2.62
  -4   5  10   29.64    2.39
  -4   5  10   23.62    2.08
   3  -5 -10  131.03    8.08
   3  -5 -10  124.19    8.11
  -3   5  10  138.10    8.12
  -3   5  10  138.35    7.92
  -3   5  10  126.03    8.26
   2  -5 -10   36.62    3.26
   2  -5 -10   39.76    3.06
  -2   5  10   43.08    3.21
  -2   5  10   37.45    3.35
   0   8 -11   29.88    2.73
   0   8 -11   30.37    2.33
  -1   8 -11  111.26    6.70
  -1   8 -11  105.72    6.56
  -1   8 -11  117.91    7.01
  -1   8 -11  120.19    6.85
  -1   8 -11  106.24    7.02
  -2   8 -11   30.22    2.68
  -2   8 -11   33.25    2.15
  -2   8 -11   32.33    2.74
  -2   8 -11   30.80    2.57
  -2   8 -11   31.35    2.26
  -3   8 -11   78.56    4.62
  -3   8 -11   72.67    4.64
  -3   8 -11   72.81    5.01
  -3   8 -11   81.92    4.87
  -3   8 -11   75.80    5.07
  -4   8 -11   33.24    2.86
  -4   8 -11   38.42    3.03
  -4   8 -11   38.01    2.84
   1   7 -11   20.76    2.07
   1   7 -11   17.71    1.74
   1   7 -11   18.64    1.81
   0   7 -11   67.65    4.16
   0   7 -11   64.96    4.09
   0   7 -11   61.13    4.36
   0   7 -11   65.37    3.89
   0   7 -11   65.97    3.85
  -1   7 -11   48.91    3.03
  -1   7 -11   53.83    3.12
  -1   7 -11   48.60    3.23
  -1   7 -11   48.98    3.36
  -1   7 -11   49.99    3.54
  -2   7 -11   42.87    2.64
  -2   7 -11   36.75    2.95
  -2   7 -11   41.23    2.74
  -2   7 -11   39.03    2.51
  -2   7 -11   39.91    2.59
  -2   7 -11   40.70    2.93
  -2   7 -11   38.33    2.98
  -3   7 -11   20.99    1.52
  -3   7 -11   21.51    1.61
  -3   7 -11   21.72    2.03
  -3   7 -11   19.30    2.05
  -3   7 -11   24.10    1.81
  -4   7 -11   56.15    4.03
  -4   7 -11   62.46    3.96
  -4   7 -11   62.13    4.17
  -5   7 -11   20.86    2.03
  -5   7 -11   21.31    2.24
  -5   7 -11   21.67    2.19
   3   6 -11   51.53    3.44
   3   6 -11   48.24    3.61
   2   6 -11   24.74    1.70
   2   6 -11   16.96    1.82
   2   6 -11   20.60    2.09
   1   6 -11   74.68    4.81
   1   6 -11   84.10    4.86
   1   6 -11   76.13    5.07
   0   6 -11   38.79    2.88
   0   6 -11   37.98    2.83
   0   6 -11   31.77    3.03
   0   6 -11   39.50    2.64
  -1   6 -11   90.57    6.04
  -1   6 -11   94.44    5.62
  -1   6 -11   97.00    5.59
  -1   6 -11   92.99    5.75
  -1   6 -11  103.87    5.97
  -1   6 -11  104.17    6.04
  -2   6 -11   46.10    2.95
  -2   6 -11   46.28    2.89
  -2   6 -11   48.20    2.98
  -2   6 -11   49.59    3.32
  -2   6 -11   45.91    3.32
  -2   6 -11   48.71    3.27
  -2   6 -11   52.07    3.32
  -3   6 -11  135.88    7.65
  -3   6 -11  126.65    8.07
  -3   6 -11  138.30    7.86
  -3   6 -11  123.56    8.05
  -3   6 -11  143.20    8.13
  -3   6 -11  132.64    7.64
  -4   6 -11   53.95    3.40
  -4   6 -11   47.99    3.44
  -4   6 -11   48.68    3.53
  -5   6 -11  124.85    7.60
  -5   6 -11  118.82    7.65
  -5   6 -11  126.56    7.61
   5  -6  11  127.23    7.53
  -6   6 -11   26.80    2.71
  -6   6 -11   31.38    2.49
   6  -6  11   25.66    2.48
   4   5 -11   63.23    4.42
   4   5 -11   66.88    4.31
  -4  -5  11   67.59    4.68
   3   5 -11   45.90    3.25
   3   5 -11   48.05    2.88
   3   5 -11   39.95    3.05
   2   5 -11  128.42    8.22
   2   5 -11  132.58    8.05
   2   5 -11  146.38    8.02
   1   5 -11   99.99    5.89
   1   5 -11   85.49    5.75
   1   5 -11  100.68    5.62
   1   5 -11   81.32    5.61
  -1  -5  11   92.54    5.64
   0   5 -11   95.58    5.58
   0   5 -11   81.09    5.51
   0   5 -11   84.59    5.28
   0   5 -11   92.50    5.43
   0  -5  11   88.38    5.50
  -1   5 -11    6.72    1.01
  -1   5 -11    5.62    0.74
  -1   5 -11    5.26    0.96
  -1   5 -11    5.20    0.45
  -1   5 -11    5.40    0.50
  -1   5 -11    5.17    0.82
   1  -5  11    5.82    0.97
  -2   5 -11  192.46   11.68
  -2   5 -11  203.67   11.65
  -2   5 -11  200.65   11.97
  -2   5 -11  224.32   12.03
  -2   5 -11  192.87   11.99
  -2   5 -11  217.24   11.94
   2  -5  11  197.62   12.04
  -3   5 -11   53.69    3.63
  -3   5 -11   47.72    3.25
  -3   5 -11   58.23    3.49
  -3   5 -11   48.00    3.49
  -3   5 -11   53.12    3.50
  -4   5 -11  124.99    7.35
  -4   5 -11  117.13    7.46
  -4   5 -11  119.74    7.46
   4  -5  11  130.43    7.45
   4  -5  11  121.39    7.29
  -5   5 -11   16.50    1.81
  -5   5 -11   18.33    1.94
  -5   5 -11   16.89    1.89
   5  -5  11   17.76    1.87
   5  -5  11   18.41    1.72
  -6   5 -11   75.82    5.23
  -6   5 -11   81.66    5.19
   6  -5  11   77.56    5.13
   5   4 -11   43.58    3.18
   5   4 -11   44.72    3.30
  -5  -4  11   44.30    3.64
   4   4 -11   31.88    2.08
   4   4 -11   28.50    2.32
   4   4 -11   28.78    2.47
  -4  -4  11   30.99    2.12
  -4  -4  11   29.08    2.61
   3   4 -11   74.36    4.86
   3   4 -11   67.81    4.21
   3   4 -11   65.70    4.46
   3   4 -11   64.58    4.29
  -3  -4  11   68.83    4.25
  -3  -4  11   73.19    4.43
  -3  -4  11   66.19    4.53
   2   4 -11   25.07    1.90
   2   4 -11   25.40    1.92
   2   4 -11   25.41    2.32
   2   4 -11   22.78    2.06
  -2  -4  11   25.91    1.96
  -2  -4  11   26.44    1.96
   1   4 -11  135.29    8.12
   1   4 -11  123.91    8.21
   1   4 -11  153.97    8.32
   1   4 -11  127.55    8.03
  -1  -4  11  151.48    8.09
  -1  -4  11  131.42    8.18
   0   4 -11   35.53    2.35
   0   4 -11   29.03    2.37
   0   4 -11   34.42    2.40
   0   4 -11   31.34    2.13
   0  -4  11   30.25    2.39
  -1   4 -11   94.41    5.86
  -1   4 -11  100.85    5.84
  -1   4 -11   93.87    5.53
  -1   4 -11  103.85    5.79
  -1   4 -11   84.47    5.39
   1  -4  11   91.51    5.87
  -2   4 -11   46.90    3.36
  -2   4 -11   51.50    3.04
  -2   4 -11   51.30    3.41
  -2   4 -11   46.95    3.29
  -2   4 -11   50.05    2.93
  -2   4 -11   52.19    3.26
   2  -4  11   45.34    3.39
   2  -4  11   53.36    3.32
  -3   4 -11   90.59    5.34
  -3   4 -11   91.67    5.22
  -3   4 -11   80.73    5.40
  -3   4 -11   94.72    5.56
  -3   4 -11   80.59    5.36
   3  -4  11   92.91    5.38
   3  -4  11   82.87    5.18
   3  -4  11   79.48    5.49
  -4   4 -11   48.91    3.56
  -4   4 -11   54.66    3.65
  -4   4 -11   55.56    3.51
   4  -4  11   56.69    3.59
   4  -4  11   48.93    3.69
   4  -4  11   53.89    3.45
  -5   4 -11   61.36    4.25
  -5   4 -11   66.30    4.25
  -5   4 -11   61.03    4.23
   5  -4  11   63.84    4.15
  -6   4 -11   28.74    2.77
  -6   4 -11   29.46    2.73
   6  -4  11   30.14    2.65
   5   3 -11   27.88    2.42
   5   3 -11   27.21    2.31
  -5  -3  11   28.41    2.62
  -5  -3  11   31.27    2.09
   4   3 -11   53.70    3.75
   4   3 -11   57.86    3.52
   4   3 -11   59.71    3.99
   4   3 -11   54.45    3.64
  -4  -3  11   56.98    3.75
  -4  -3  11   54.58    3.54
  -4  -3  11   52.57    3.87
   3   3 -11   52.24    3.71
   3   3 -11   49.71    3.36
   3   3 -11   49.37    3.48
   3   3 -11   52.93    3.35
  -3  -3  11   52.11    3.37
  -3  -3  11   50.72    3.54
  -3  -3  11   54.85    3.40
   2   3 -11  109.45    6.85
   2   3 -11  120.15    6.91
   2   3 -11  122.43    7.11
   2   3 -11  111.64    7.01
  -2  -3  11  122.44    6.87
  -2  -3  11  105.90    6.92
   1   3 -11   50.69    3.27
   1   3 -11   48.36    3.35
   1   3 -11   50.60    3.35
   1   3 -11   46.15    3.12
  -1  -3  11   47.35    3.32
  -1  -3  11   54.16    3.15
   0   3 -11  134.62    7.61
   0   3 -11  130.67    7.62
   0   3 -11  118.93    7.64
   0   3 -11  124.09    7.41
   0  -3  11  115.67    7.81
   0  -3  11  137.30    7.42
  -1   3 -11   67.98    4.18
  -1   3 -11   73.29    3.87
  -1   3 -11   61.15    3.94
  -1   3 -11   67.10    4.29
   1  -3  11   70.47    3.96
   1  -3  11   58.46    4.29
   1  -3  11   66.61    4.20
  -2   3 -11  147.86    8.11
  -2   3 -11  128.17    8.19
  -2   3 -11  142.97    7.94
  -2   3 -11  151.07    8.30
  -2   3 -11  125.14    8.10
  -2   3 -11  130.95    7.78
   2  -3  11  121.08    8.25
   2  -3  11  143.88    8.15
   2  -3  11  139.13    7.92
  -3   3 -11   41.63    3.11
  -3   3 -11   50.64    3.33
  -3   3 -11   41.75    3.02
  -3   3 -11   48.42    3.01
  -3   3 -11   42.62    2.92
   3  -3  11   45.10    2.89
   3  -3  11   48.77    3.09
   3  -3  11   39.96    3.17
  -4   3 -11  113.02    7.60
  -4   3 -11  121.38    7.56
  -4   3 -11  135.10    7.56
   4  -3  11  129.79    7.52
   4  -3  11  121.77    7.71
   4  -3  11  128.89    7.58
  -5   3 -11   59.39    4.02
  -5   3 -11   58.02    4.10
  -5   3 -11   58.73    4.05
   5  -3  11   57.20    3.95
   6   2 -11   24.97    2.32
   6   2 -11   25.48    2.35
  -6  -2  11   23.98    2.59
  -6  -2  11   28.56    2.01
   5   2 -11  109.68    6.77
   5   2 -11  103.71    6.72
   5   2 -11  115.88    6.94
   5   2 -11  115.58    6.61
  -5  -2  11  107.95    6.93
  -5  -2  11  109.29    6.62
   4   2 -11   73.93    4.55
   4   2 -11   61.07    4.16
   4   2 -11   64.76    4.11
   4   2 -11   66.10    4.25
  -4  -2  11   69.09    4.19
  -4  -2  11   61.91    4.32
  -4  -2  11   63.02    4.12
   3   2 -11  204.63   11.24
   3   2 -11  206.28   11.45
   3   2 -11  184.67   11.20
   3   2 -11  184.50   11.30
  -3  -2  11  180.38   11.30
  -3  -2  11  185.07   11.24
  -3  -2  11  198.64   11.19
   2   2 -11   21.65    1.68
   2   2 -11   19.34    1.78
   2   2 -11   16.94    1.67
   2   2 -11   17.64    1.51
  -2  -2  11   17.09    1.64
  -2  -2  11   18.46    1.47
   1   2 -11  139.40    9.12
   1   2 -11  170.10    9.16
   1   2 -11  143.31    8.95
   1   2 -11  168.78    9.15
  -1  -2  11  159.46    8.94
  -1  -2  11  155.89    9.05
  -1  -2  11  139.80    9.13
   0   2 -11   92.33    5.47
   0   2 -11   81.34    5.18
   0   2 -11   82.62    5.46
   0   2 -11   94.86    5.39
   0  -2  11   77.62    5.50
   0  -2  11   95.11    5.20
   0  -2  11   90.36    5.36
  -1   2 -11  217.98   12.99
  -1   2 -11  222.17   12.98
  -1   2 -11  211.03   13.18
  -1   2 -11  211.64   13.30
  -1   2 -11  243.18   13.22
  -1   2 -11  251.41   13.40
   1  -2  11  215.03   13.37
   1  -2  11  239.16   13.24
   1  -2  11  243.78   13.01
   1  -2  11  223.53   12.99
  -2   2 -11   43.76    2.76
  -2   2 -11   41.58    2.57
  -2   2 -11   43.31    2.94
  -2   2 -11   47.69    2.91
  -2   2 -11   38.61    3.03
  -2   2 -11   49.08    3.17
   2  -2  11   45.25    2.97
   2  -2  11   45.97    2.57
   2  -2  11   40.66    3.09
   2  -2  11   41.69    2.75
  -3   2 -11   70.35    4.50
  -3   2 -11   78.00    4.53
  -3   2 -11   68.76    4.56
  -3   2 -11   80.46    4.91
  -3   2 -11   68.65    4.68
   3  -2  11   69.92    4.50
   3  -2  11   76.24    4.65
   3  -2  11   70.49    4.75
  -4   2 -11   19.39    2.13
  -4   2 -11   20.56    1.96
  -4   2 -11   21.99    1.90
   4  -2  11   21.85    1.92
   4  -2  11   22.64    2.10
  -5   2 -11  107.15    6.69
  -5   2 -11  107.57    6.85
   5  -2  11  103.82    6.73
   5  -2  11  107.30    6.73
   6   1 -11   91.57    5.47
   6   1 -11   87.71    5.57
   6   1 -11   90.45    5.65
   6   1 -11   91.97    5.79
  -6  -1  11   82.06    5.75
   5   1 -11   25.93    2.21
   5   1 -11   25.43    2.16
   5   1 -11   27.30    2.10
  -5  -1  11   26.63    2.32
   4   1 -11  128.08    7.42
   4   1 -11  115.98    7.22
   4   1 -11  128.31    7.22
   4   1 -11  120.27    7.28
  -4  -1  11  108.66    7.26
  -4  -1  11  102.45    7.31
  -4  -1  11  134.67    7.21
   3   1 -11   13.74    1.64
   3   1 -11   17.17    1.57
   3   1 -11   16.04    1.60
   3   1 -11   17.95    1.77
  -3  -1  11   15.48    1.54
  -3  -1  11   14.25    1.62
  -3  -1  11   15.88    1.39
   2   1 -11   79.06    5.45
   2   1 -11   80.69    5.26
   2   1 -11   94.33    5.47
   2   1 -11   94.54    5.45
  -2  -1  11   85.50    5.29
  -2  -1  11   88.87    5.23
   1   1 -11   20.26    1.83
   1   1 -11   21.34    1.79
   1   1 -11   19.60    1.57
   1   1 -11   23.99    1.88
  -1  -1  11   22.83    1.56
  -1  -1  11   20.17    1.86
  -1  -1  11   22.99    1.71
   0   1 -11  179.11   10.99
   0   1 -11  202.13   11.17
   0   1 -11  206.04   11.32
   0   1 -11  177.48   11.25
   0  -1  11  202.78   11.00
   0  -1  11  186.97   10.90
   0  -1  11  174.56   11.29
   0  -1  11  200.51   11.17
  -1   1 -11   81.27    4.63
  -1   1 -11   75.40    4.34
  -1   1 -11   65.80    4.13
  -1   1 -11   69.73    4.17
  -1   1 -11   61.78    4.45
  -1   1 -11   64.93    4.29
   1  -1  11   75.64    4.42
   1  -1  11   63.80    4.51
   1  -1  11   67.80    4.19
   1  -1  11   73.31    4.14
  -2   1 -11   96.48    5.78
  -2   1 -11  107.74    5.86
  -2   1 -11   91.92    6.02
  -2   1 -11  101.99    6.15
  -2   1 -11   88.54    5.86
   2  -1  11   99.96    5.60
   2  -1  11   92.61    6.07
   2  -1  11  101.94    5.96
   2  -1  11   89.91    5.80
  -3   1 -11   27.05    2.37
  -3   1 -11   25.79    2.02
  -3   1 -11   26.44    2.04
  -3   1 -11   28.22    1.99
   3  -1  11   22.03    2.20
  -4   1 -11  146.23    8.82
  -4   1 -11  149.33    8.73
  -4   1 -11  141.78    8.97
   4  -1  11  137.74    8.85
   4  -1  11  152.76    8.86
   7   0 -11   53.99    4.09
   7   0 -11   55.08    4.42
   7   0 -11   60.00    3.80
   7   0 -11   51.49    4.03
  -7   0  11   54.29    4.04
  -7   0  11   52.60    3.68
   6   0 -11   14.96    1.75
   6   0 -11   15.89    1.94
   6   0 -11   16.49    1.95
   6   0 -11   17.77    1.76
  -6   0  11   15.80    1.95
  -6   0  11   16.57    1.63
   5   0 -11   99.22    6.60
   5   0 -11  112.56    6.80
   5   0 -11  111.99    6.57
   5   0 -11  106.43    6.58
  -5   0  11  103.51    6.63
  -5   0  11  115.30    6.60
  -5   0  11  101.72    6.52
   4   0 -11   44.52    3.14
   4   0 -11   47.31    3.32
   4   0 -11   48.84    3.20
   4   0 -11   44.89    3.19
  -4   0  11   42.21    3.13
  -4   0  11   48.67    3.08
  -4   0  11   46.18    3.18
   3   0 -11  120.58    7.61
   3   0 -11  140.46    7.70
   3   0 -11  105.61    7.81
   3   0 -11  137.36    7.73
  -3   0  11  120.34    7.64
  -3   0  11  135.38    7.51
   2   0 -11  129.99    8.24
   2   0 -11  147.71    8.24
   2   0 -11  128.73    8.08
   2   0 -11  146.35    8.30
  -2   0  11  145.50    8.04
  -2   0  11  126.01    8.23
  -2   0  11  135.99    8.09
   1   0 -11   94.61    5.66
   1   0 -11   88.30    5.51
   1   0 -11   88.51    5.74
   1   0 -11  108.20    5.87
  -1   0  11   87.69    5.35
  -1   0  11   97.65    5.49
  -1   0  11   79.32    5.72
  -1   0  11   95.61    5.60
   0   0 -11   46.62    3.40
   0   0 -11   57.33    3.57
   0   0 -11   54.35    3.29
   0   0 -11   48.45    3.17
   0   0 -11   48.39    3.13
   0   0  11   48.18    3.46
   0   0  11   53.59    3.32
   0   0  11   47.28    3.09
  -1   0 -11   96.80    6.04
  -1   0 -11  102.52    6.14
  -1   0 -11   95.45    6.13
  -1   0 -11  118.27    6.56
  -1   0 -11  109.34    6.19
  -1   0 -11   94.06    6.37
   1   0  11  103.69    6.16
   1   0  11  108.19    6.02
   1   0  11   96.79    6.40
   1   0  11  107.19    6.29
  -2   0 -11   51.01    3.57
  -2   0 -11   50.96    3.10
  -2   0 -11   45.58    3.09
  -2   0 -11   43.56    3.11
  -2   0 -11   47.38    3.45
   2   0  11   49.13    2.87
   2   0  11   43.31    3.33
   2   0  11   48.15    3.21
  -3   0 -11  107.73    6.64
  -3   0 -11  116.81    6.61
  -3   0 -11  110.43    6.75
  -3   0 -11  103.49    6.96
   3   0  11  111.84    6.32
   3   0  11  111.02    6.34
   3   0  11  109.70    6.79
   3   0  11  105.74    6.84
  -4   0 -11   12.14    1.85
  -4   0 -11   12.52    1.71
   4   0  11   15.53    2.15
   4   0  11   14.64    1.87
   7  -1 -11   33.80    3.17
   7  -1 -11   37.33    2.82
  -7   1  11   35.30    3.00
  -7   1  11   36.86    2.83
   6  -1 -11   89.07    5.62
   6  -1 -11   96.36    5.71
   6  -1 -11   82.24    5.74
  -6   1  11   84.71    5.69
  -6   1  11   90.58    5.64
  -6   1  11   92.22    5.20
   5  -1 -11   70.63    4.76
   5  -1 -11   81.15    4.90
   5  -1 -11   76.33    4.81
   5  -1 -11   71.80    4.71
  -5   1  11   73.51    4.26
  -5   1  11   68.21    4.71
  -5   1  11   72.40    4.73
  -5   1  11   74.41    4.26
   4  -1 -11   77.60    5.15
   4  -1 -11   90.97    5.29
   4  -1 -11   94.06    5.33
   4  -1 -11   74.67    5.38
  -4   1  11   82.32    4.75
  -4   1  11   75.14    4.74
  -4   1  11   71.10    5.22
  -4   1  11   81.68    5.23
  -4   1  11   93.82    5.09
   3  -1 -11   24.14    2.07
   3  -1 -11   26.13    2.17
   3  -1 -11   24.33    2.15
   3  -1 -11   23.29    1.97
  -3   1  11   24.87    1.88
  -3   1  11   26.37    1.62
  -3   1  11   21.86    2.05
  -3   1  11   26.11    1.60
  -3   1  11   27.94    1.90
   2  -1 -11  172.87    9.42
   2  -1 -11  144.42    9.42
   2  -1 -11  176.23    9.59
   2  -1 -11  149.46    9.31
  -2   1  11  171.34    9.26
  -2   1  11  142.81    9.12
  -2   1  11  167.59    9.33
  -2   1  11  145.01    9.47
  -2   1  11  158.80    9.11
   1  -1 -11   69.87    4.10
   1  -1 -11   62.51    4.20
   1  -1 -11   69.44    4.36
   1  -1 -11   58.26    3.97
  -1   1  11   66.11    3.92
  -1   1  11   61.43    3.91
  -1   1  11   61.23    4.25
  -1   1  11   65.41    4.07
   0  -1 -11  130.16    8.06
   0  -1 -11  135.73    8.04
   0  -1 -11  145.04    8.13
   0  -1 -11  152.60    8.49
   0  -1 -11  125.63    8.31
   0   1  11  139.47    8.12
   0   1  11  142.38    8.02
   0   1  11  139.37    8.21
   0   1  11  128.16    8.35
  -1  -1 -11   15.98    1.96
  -1  -1 -11   22.09    1.68
  -1  -1 -11   21.90    1.73
  -1  -1 -11   20.60    1.59
  -1  -1 -11   25.98    2.35
   1   1  11   19.69    1.77
   1   1  11   20.80    2.03
   1   1  11   20.29    1.51
  -2  -1 -11  139.84    8.46
  -2  -1 -11  138.16    8.87
  -2  -1 -11  155.42    8.50
  -2  -1 -11  138.27    8.61
   2   1  11  143.65    8.68
   2   1  11  150.88    8.34
   2   1  11  141.10    8.77
  -3  -1 -11   83.16    5.94
   3   1  11   88.55    5.73
   3   1  11   93.65    5.80
   7  -2 -11   89.21    6.22
   7  -2 -11  102.64    6.02
  -7   2  11   93.61    6.05
  -7   2  11   91.96    6.06
   6  -2 -11   16.94    1.93
   6  -2 -11   19.87    2.40
  -6   2  11   18.49    1.86
  -6   2  11   15.30    1.92
  -6   2  11   14.89    1.31
   5  -2 -11   86.53    5.47
   5  -2 -11   76.21    5.40
  -5   2  11   97.49    5.06
  -5   2  11   84.49    5.03
  -5   2  11   82.42    5.30
  -5   2  11   79.49    5.43
   4  -2 -11   27.54    2.30
   4  -2 -11   30.66    2.39
   4  -2 -11   26.69    2.29
   4  -2 -11   30.51    2.51
  -4   2  11   27.89    2.39
  -4   2  11   29.71    2.12
  -4   2  11   27.60    1.94
  -4   2  11   31.76    2.25
  -4   2  11   28.96    1.92
   3  -2 -11  166.91    9.57
   3  -2 -11  146.59    9.30
   3  -2 -11  146.51    9.36
   3  -2 -11  170.29    9.35
  -3   2  11  163.39    9.14
  -3   2  11  158.33    9.09
  -3   2  11  154.06    9.23
  -3   2  11  166.97    9.23
  -3   2  11  140.32    9.44
   2  -2 -11   67.27    4.51
   2  -2 -11   77.21    4.87
   2  -2 -11   73.42    4.77
   2  -2 -11   65.83    4.64
  -2   2  11   72.99    4.42
  -2   2  11   68.15    4.75
  -2   2  11   75.51    4.53
  -2   2  11   77.36    4.46
   1  -2 -11  166.72    9.51
   1  -2 -11  160.74    9.11
   1  -2 -11  144.66    9.10
   1  -2 -11  144.20    9.32
   1  -2 -11  152.88    8.96
  -1   2  11  152.86    9.16
  -1   2  11  141.85    9.35
  -1   2  11  165.93    9.15
  -1   2  11  162.93    9.04
   0  -2 -11   17.60    1.56
   0  -2 -11   17.33    1.93
   0  -2 -11   17.00    1.32
   0   2  11   13.99    1.83
   0   2  11   18.42    1.44
   0   2  11   12.01    2.19
  -1  -2 -11   72.54    4.62
  -1  -2 -11   79.56    4.90
  -1  -2 -11   79.01    4.72
  -1  -2 -11   68.24    5.10
   1   2  11   82.69    4.98
   1   2  11   73.02    5.06
   1   2  11   80.99    4.67
  -2  -2 -11   20.83    2.66
   2   2  11   26.54    2.40
   2   2  11   23.08    2.33
   6  -3 -11   64.18    4.71
   6  -3 -11   70.00    4.55
   6  -3 -11   69.62    4.77
  -6   3  11   73.39    4.32
  -6   3  11   68.06    4.52
  -6   3  11   70.18    4.76
   5  -3 -11   45.07    3.08
   5  -3 -11   34.60    2.85
   5  -3 -11   32.93    2.94
  -5   3  11   43.88    2.66
  -5   3  11   35.58    3.08
  -5   3  11   40.87    2.63
   4  -3 -11   84.90    5.66
   4  -3 -11   89.31    5.67
   4  -3 -11   94.96    5.59
  -4   3  11   96.19    5.44
  -4   3  11   80.43    5.41
  -4   3  11   90.37    5.83
  -4   3  11   93.16    5.49
   3  -3 -11   31.59    2.61
   3  -3 -11   31.05    2.48
   3  -3 -11   33.62    2.38
  -3   3  11   36.29    2.36
  -3   3  11   33.22    2.38
  -3   3  11   30.42    2.67
  -3   3  11   31.68    2.39
  -3   3  11   31.01    2.28
   2  -3 -11   95.93    6.27
   2  -3 -11   96.96    6.42
   2  -3 -11  109.73    6.11
   2  -3 -11  108.02    5.98
  -2   3  11  106.19    6.19
  -2   3  11  100.93    6.24
  -2   3  11  105.98    6.25
  -2   3  11   92.38    6.48
   1  -3 -11   22.53    2.10
   1  -3 -11   23.70    1.58
   1  -3 -11   24.46    2.38
   1  -3 -11   23.78    2.00
  -1   3  11   24.88    1.95
  -1   3  11   24.92    2.06
  -1   3  11   21.78    2.27
   0  -3 -11   83.15    5.88
   0   3  11   97.73    5.50
   0   3  11   93.07    5.71
   0   3  11   82.72    5.81
   5  -4 -11   67.29    5.01
   5  -4 -11   72.94    4.92
  -5   4  11   75.22    4.69
  -5   4  11   78.43    5.21
  -5   4  11   81.42    4.79
   4  -4 -11   50.70    3.73
   4  -4 -11   46.58    3.68
  -4   4  11   50.22    3.92
  -4   4  11   56.28    3.52
  -4   4  11   55.26    3.49
  -4   4  11   54.12    3.55
   3  -4 -11   89.14    5.94
   3  -4 -11   87.18    5.86
  -3   4  11   95.82    5.73
  -3   4  11   84.93    6.00
  -3   4  11   96.48    5.74
  -3   4  11   99.03    5.81
   2  -4 -11   22.60    2.20
   2  -4 -11   20.88    2.49
  -2   4  11   23.37    2.08
  -2   4  11   23.11    2.47
   1  -4 -11   76.85    5.48
   1  -4 -11   78.67    5.19
  -1   4  11   78.00    5.44
  -1   4  11   87.18    5.34
  -2   8 -12   54.97    4.05
  -2   8 -12   58.14    3.59
  -2   8 -12   52.87    4.08
  -3   8 -12   45.48    3.56
  -3   8 -12   43.61    3.46
   1   7 -12   75.41    5.03
   1   7 -12   71.30    4.65
   0   7 -12   68.89    4.15
   0   7 -12   60.85    4.01
   0   7 -12   59.34    4.33
  -1   7 -12   73.41    4.54
  -1   7 -12   79.95    4.79
  -1   7 -12   70.04    4.29
  -1   7 -12   71.95    4.91
  -2   7 -12   16.65    2.04
  -2   7 -12   17.85    1.68
  -2   7 -12   21.37    2.00
  -2   7 -12   16.71    1.23
  -2   7 -12   16.84    1.66
  -2   7 -12   15.21    1.42
  -3   7 -12   35.46    3.03
  -3   7 -12   41.40    2.44
  -3   7 -12   38.58    2.65
  -3   7 -12   37.49    3.01
  -4   7 -12   40.36    3.42
  -4   7 -12   35.56    2.95
  -4   7 -12   33.88    2.99
   2   6 -12   79.21    4.96
   2   6 -12   78.49    5.21
   1   6 -12   29.87    2.72
   1   6 -12   31.16    2.36
   1   6 -12   36.79    2.47
   0   6 -12   54.91    4.09
   0   6 -12   64.14    3.94
   0   6 -12   60.31    3.79
  -1   6 -12   38.26    2.72
  -1   6 -12   34.80    2.35
  -1   6 -12   31.39    2.71
  -2   6 -12  120.55    6.82
  -2   6 -12  104.90    6.76
  -2   6 -12  105.70    6.38
  -2   6 -12  106.32    6.80
  -2   6 -12  107.69    6.35
  -2   6 -12  110.91    6.31
  -3   6 -12   25.43    2.31
  -3   6 -12   27.62    1.92
  -3   6 -12   25.74    2.36
  -4   6 -12  126.25    7.96
  -4   6 -12  140.44    7.75
  -4   6 -12  119.55    7.90
  -5   6 -12   39.60    3.05
  -5   6 -12   35.84    3.09
  -5   6 -12   34.62    3.05
   5  -6  12   42.22    2.88
   3   5 -12   47.56    3.37
   3   5 -12   48.14    3.59
   3   5 -12   52.15    3.45
   2   5 -12   33.90    2.85
   2   5 -12   36.15    2.56
   2   5 -12   38.40    2.57
  -2  -5  12   34.01    2.56
   1   5 -12  135.42    8.09
   1   5 -12  126.58    8.31
   1   5 -12  148.02    8.18
  -1  -5  12  137.29    8.23
   0   5 -12   33.40    2.83
   0   5 -12   31.06    2.54
   0   5 -12   31.08    2.17
   0   5 -12   32.85    2.37
   0  -5  12   28.66    2.42
  -1   5 -12  113.77    7.38
  -1   5 -12  127.92    7.35
  -1   5 -12  115.18    7.03
  -1   5 -12  127.87    7.35
   1  -5  12  118.19    7.39
  -2   5 -12   40.05    2.56
  -2   5 -12   42.67    2.57
  -2   5 -12   46.25    3.13
  -2   5 -12   42.19    3.08
  -2   5 -12   41.14    3.02
   2  -5  12   40.12    3.12
  -3   5 -12   93.03    6.11
  -3   5 -12  107.69    5.87
  -3   5 -12   92.50    6.14
  -4   5 -12   16.99    1.64
  -4   5 -12   14.99    1.88
  -4   5 -12   16.42    1.84
   4  -5  12   16.98    1.53
  -5   5 -12   63.07    4.35
  -5   5 -12   65.88    4.47
  -5   5 -12   64.98    4.49
   5  -5  12   66.50    4.26
   4   4 -12   52.10    3.81
   4   4 -12   57.71    3.99
  -4  -4  12   61.32    3.69
  -4  -4  12   57.70    4.14
   3   4 -12   39.51    2.80
   3   4 -12   36.80    3.00
   3   4 -12   39.66    2.72
  -3  -4  12   45.74    3.38
  -3  -4  12   37.80    2.75
   2   4 -12   70.81    4.55
   2   4 -12   77.27    4.61
   2   4 -12   66.14    4.74
  -2  -4  12   78.13    4.61
   1   4 -12   47.97    3.58
   1   4 -12   53.51    3.35
   1   4 -12   52.67    3.46
   1   4 -12   49.35    3.65
  -1  -4  12   50.49    3.52
  -1  -4  12   58.37    3.39
   0   4 -12   61.20    3.73
   0   4 -12   56.76    3.77
   0   4 -12   51.01    3.74
   0   4 -12   54.15    3.45
   0  -4  12   49.99    3.73
   0  -4  12   59.58    3.48
  -1   4 -12   43.52    2.84
  -1   4 -12   38.50    2.46
  -1   4 -12   35.08    2.83
  -1   4 -12   40.79    2.86
   1  -4  12   37.33    2.90
  -2   4 -12   97.08    6.29
  -2   4 -12  105.83    6.28
  -2   4 -12  110.10    6.46
  -2   4 -12  101.90    5.90
  -2   4 -12  111.63    6.00
  -2   4 -12   94.62    6.36
   2  -4  12   93.92    6.41
   2  -4  12  104.63    6.31
  -3   4 -12   55.12    3.62
  -3   4 -12   42.43    3.10
  -3   4 -12   42.33    2.90
  -3   4 -12   41.01    3.19
   3  -4  12   44.18    2.84
   3  -4  12   49.12    3.17
   3  -4  12   39.94    3.31
  -4   4 -12   89.20    5.77
  -4   4 -12   83.60    5.67
  -4   4 -12   96.10    5.57
   4  -4  12   93.67    5.52
   4  -4  12   85.86    5.86
  -5   4 -12   18.18    2.06
  -5   4 -12   16.52    2.13
  -5   4 -12   16.10    2.02
   5  -4  12   18.85    1.87
   5   3 -12   54.16    3.67
   5   3 -12   45.05    3.48
  -5  -3  12   52.40    3.32
  -5  -3  12   49.87    3.88
   4   3 -12   62.97    3.89
   4   3 -12   62.08    4.14
   4   3 -12   57.87    3.98
  -4  -3  12   57.12    4.20
  -4  -3  12   63.37    3.95
   3   3 -12  120.18    6.99
   3   3 -12  115.82    7.15
   3   3 -12  115.41    6.98
  -3  -3  12  101.61    7.63
  -3  -3  12  124.43    7.01
   2   3 -12   38.21    2.69
   2   3 -12   34.16    2.57
   2   3 -12   36.14    2.80
   2   3 -12   39.46    2.99
  -2  -3  12   40.68    2.59
  -2  -3  12   36.61    2.71
   1   3 -12   88.05    5.38
   1   3 -12   94.00    5.34
   1   3 -12   78.67    5.36
   1   3 -12   80.00    5.14
  -1  -3  12   87.87    5.14
  -1  -3  12   80.91    5.35
   0   3 -12   16.47    1.79
   0   3 -12   18.72    1.77
   0   3 -12   19.34    1.46
   0   3 -12   21.86    1.80
   0  -3  12   20.34    1.59
   0  -3  12   19.26    1.83
  -1   3 -12  175.78   10.53
  -1   3 -12  203.76   10.96
  -1   3 -12  199.08   10.82
  -1   3 -12  166.73   10.88
  -1   3 -12  162.62   10.76
  -1   3 -12  180.65   10.42
   1  -3  12  168.68   10.93
   1  -3  12  194.87   10.84
   1  -3  12  201.66   10.56
  -2   3 -12   60.48    3.60
  -2   3 -12   59.77    4.00
  -2   3 -12   66.21    4.24
  -2   3 -12   62.07    3.74
  -2   3 -12   57.25    4.13
  -2   3 -12   65.71    4.01
   2  -3  12   61.39    3.74
   2  -3  12   58.59    4.21
   2  -3  12   68.37    4.10
  -3   3 -12  123.13    6.93
  -3   3 -12  110.03    6.94
  -3   3 -12  106.28    7.03
  -3   3 -12  121.02    6.80
   3  -3  12  116.31    6.77
   3  -3  12  104.99    7.11
  -4   3 -12   64.78    3.96
  -4   3 -12   57.38    4.10
  -4   3 -12   57.99    3.99
   4  -3  12   55.68    4.17
   4  -3  12   58.15    3.84
  -5   3 -12   67.73    4.75
  -5   3 -12   69.48    4.63
   5  -3  12   67.12    4.53
   5   2 -12   23.42    2.18
   5   2 -12   23.52    2.03
   5   2 -12   25.03    2.24
  -5  -2  12   22.55    2.36
  -5  -2  12   23.56    2.00
   4   2 -12  118.84    6.85
   4   2 -12  111.48    6.99
   4   2 -12  104.68    6.87
  -4  -2  12  110.67    6.86
  -4  -2  12  124.49    7.00
  -4  -2  12  109.10    7.00
   3   2 -12   37.12    2.64
   3   2 -12   35.29    2.76
   3   2 -12   38.75    2.99
   3   2 -12   30.94    2.56
  -3  -2  12   35.32    2.63
  -3  -2  12   40.49    2.55
   2   2 -12  132.21    8.56
   2   2 -12  132.46    8.42
   2   2 -12  149.35    8.53
   2   2 -12  150.58    8.64
  -2  -2  12  134.65    8.52
  -2  -2  12  153.92    8.38
   1   2 -12   41.76    2.79
   1   2 -12   44.01    3.02
   1   2 -12   40.95    3.05
   1   2 -12   42.49    3.00
  -1  -2  12   46.29    2.93
  -1  -2  12   38.51    2.99
  -1  -2  12   44.28    2.76
   0   2 -12  247.48   13.37
   0   2 -12  204.52   13.39
   0   2 -12  253.61   13.48
   0   2 -12  209.05   13.12
   0  -2  12  246.62   13.14
   0  -2  12  204.95   13.41
   0  -2  12  235.04   13.32
  -1   2 -12   43.01    3.03
  -1   2 -12   41.73    2.77
  -1   2 -12   40.49    2.77
  -1   2 -12   36.54    2.92
  -1   2 -12   40.45    2.46
  -1   2 -12   40.69    2.51
   1  -2  12   39.43    2.47
   1  -2  12   43.49    2.52
   1  -2  12   35.08    2.96
   1  -2  12   42.08    2.86
  -2   2 -12   99.84    5.61
  -2   2 -12   99.26    5.78
  -2   2 -12   88.12    5.76
  -2   2 -12   83.29    5.91
  -2   2 -12  103.83    6.12
   2  -2  12   98.70    5.41
   2  -2  12   98.27    5.86
   2  -2  12   83.97    5.96
   2  -2  12   92.83    5.60
  -3   2 -12   46.37    2.88
  -3   2 -12   37.42    2.90
  -3   2 -12   43.47    2.94
  -3   2 -12   39.11    3.11
   3  -2  12   42.92    2.83
   3  -2  12   39.57    3.19
  -4   2 -12  108.03    7.11
  -4   2 -12  108.34    6.93
  -4   2 -12  118.50    6.93
   4  -2  12  107.97    7.08
   4  -2  12  117.07    6.88
   6   1 -12   27.91    2.58
   6   1 -12   26.71    2.32
   6   1 -12   24.88    2.47
  -6  -1  12   26.17    2.19
  -6  -1  12   25.06    2.69
   5   1 -12   72.69    4.89
   5   1 -12   79.13    4.94
   5   1 -12   82.56    4.84
  -5  -1  12   68.69    4.73
  -5  -1  12   73.25    4.95
   4   1 -12   30.34    2.45
   4   1 -12   36.96    2.81
   4   1 -12   29.04    2.48
   4   1 -12   33.45    2.44
  -4  -1  12   28.39    2.46
  -4  -1  12   35.84    2.45
  -4  -1  12   28.39    2.34
   3   1 -12  136.11    8.52
   3   1 -12  154.90    8.52
   3   1 -12  131.75    8.40
   3   1 -12  147.92    8.60
  -3  -1  12  125.30    8.43
  -3  -1  12  151.39    8.36
   2   1 -12   21.88    1.87
   2   1 -12   21.46    1.92
   2   1 -12   18.36    1.65
   2   1 -12   18.20    1.83
  -2  -1  12   18.76    1.54
  -2  -1  12   18.27    1.80
  -2  -1  12   20.02    1.66
   1   1 -12   65.39    4.19
   1   1 -12   68.72    4.12
   1   1 -12   55.87    4.11
   1   1 -12   58.42    3.86
  -1  -1  12   61.68    4.17
  -1  -1  12   62.91    3.98
  -1  -1  12   64.34    3.85
   0   1 -12   40.93    3.23
   0   1 -12   48.57    3.14
   0   1 -12   43.13    2.89
   0   1 -12   51.94    3.38
   0  -1  12   43.46    3.27
   0  -1  12   49.92    3.15
   0  -1  12   46.26    2.77
  -1   1 -12   61.21    4.00
  -1   1 -12   70.88    4.36
  -1   1 -12   57.07    4.20
  -1   1 -12   61.15    3.80
  -1   1 -12   64.33    3.83
  -1   1 -12   67.07    4.04
   1  -1  12   68.56    3.81
   1  -1  12   62.08    3.84
   1  -1  12   63.07    4.10
   1  -1  12   56.69    4.22
  -2   1 -12   32.88    2.30
  -2   1 -12   29.57    2.55
  -2   1 -12   29.23    2.17
  -2   1 -12   29.01    2.26
   2  -1  12   31.46    2.20
   2  -1  12   28.26    2.57
   2  -1  12   33.68    1.95
  -3   1 -12   86.75    5.20
  -3   1 -12   80.60    5.50
  -3   1 -12   80.94    5.17
  -3   1 -12   84.52    5.18
   3  -1  12   82.33    5.21
   3  -1  12   81.63    5.43
  -4   1 -12   35.85    2.89
  -4   1 -12   35.85    3.33
   4  -1  12   39.69    2.99
   4  -1  12   33.11    3.06
   6   0 -12   79.96    5.53
   6   0 -12   87.19    5.46
   6   0 -12   89.71    5.57
   6   0 -12   86.14    5.42
  -6   0  12   83.62    5.56
  -6   0  12   80.49    5.33
   5   0 -12   44.70    3.41
   5   0 -12   45.63    3.35
   5   0 -12   48.97    3.41
  -5   0  12   44.65    3.27
  -5   0  12   50.92    3.42
   4   0 -12   46.71    3.29
   4   0 -12   47.40    3.36
   4   0 -12   47.67    3.32
   4   0 -12   49.14    3.47
  -4   0  12   45.34    3.19
  -4   0  12   45.18    3.26
  -4   0  12   46.75    3.27
   3   0 -12   30.77    2.48
   3   0 -12   35.15    2.60
   3   0 -12   28.08    2.33
   3   0 -12   35.71    2.56
  -3   0  12   34.64    2.30
  -3   0  12   27.08    2.42
   2   0 -12  149.52    8.31
   2   0 -12  151.63    8.24
   2   0 -12  120.94    8.18
  -2   0  12  135.48    8.07
  -2   0  12  138.36    7.98
  -2   0  12  118.70    8.17
   1   0 -12  107.07    7.06
   1   0 -12  126.09    7.20
   1   0 -12  121.69    6.99
   1   0 -12  108.92    6.81
  -1   0  12  106.17    6.61
  -1   0  12  121.59    6.78
  -1   0  12  117.74    6.92
  -1   0  12  110.37    7.10
   0   0 -12  145.93    9.51
   0   0 -12  170.01    9.65
   0   0 -12  167.21    9.38
   0   0 -12  154.93    9.28
   0   0 -12  153.17    9.21
   0   0  12  165.19    9.18
   0   0  12  167.55    9.41
   0   0  12  146.15    9.54
   0   0  12  154.51    9.16
  -1   0 -12   52.10    4.02
  -1   0 -12   67.08    3.85
  -1   0 -12   58.62    3.76
  -1   0 -12   60.95    3.69
  -1   0 -12   56.67    3.61
   1   0  12   57.36    4.07
   1   0  12   55.01    3.90
   1   0  12   62.29    3.74
  -2   0 -12  118.39    8.02
  -2   0 -12  135.68    7.75
  -2   0 -12  133.37    7.75
  -2   0 -12  124.78    7.71
   2   0  12  134.77    7.50
   2   0  12  131.49    7.81
   2   0  12  126.00    8.02
  -3   0 -12   19.12    2.54
  -3   0 -12   26.49    2.27
  -3   0 -12   21.16    2.03
  -3   0 -12   23.78    2.04
   3   0  12   23.46    2.24
   3   0  12   19.84    2.29
   6  -1 -12   46.11    3.30
   6  -1 -12   41.99    3.44
  -6   1  12   45.40    3.37
  -6   1  12   43.95    3.33
   5  -1 -12  145.06    9.48
   5  -1 -12  157.40    9.47
   5  -1 -12  170.72    9.64
  -5   1  12  161.68    9.44
  -5   1  12  153.12    9.48
   4  -1 -12   17.70    1.83
   4  -1 -12   17.78    1.85
   4  -1 -12   18.15    2.08
  -4   1  12   16.26    1.90
  -4   1  12   20.54    1.79
   3  -1 -12   99.58    6.50
   3  -1 -12  102.86    6.61
   3  -1 -12  111.81    6.93
   3  -1 -12  119.01    6.65
  -3   1  12  108.32    6.13
  -3   1  12  110.32    6.42
  -3   1  12  101.40    6.64
  -3   1  12  100.50    6.13
  -3   1  12  107.52    6.46
   2  -1 -12   63.44    4.27
   2  -1 -12   69.97    4.21
   2  -1 -12   59.54    4.06
  -2   1  12   60.24    4.28
  -2   1  12   64.14    3.98
  -2   1  12   62.09    3.81
  -2   1  12   67.85    4.11
  -2   1  12   63.59    3.80
   1  -1 -12  129.93    7.87
   1  -1 -12  128.73    8.19
   1  -1 -12  143.54    8.07
  -1   1  12  122.01    8.20
  -1   1  12  138.60    8.04
  -1   1  12  136.58    7.85
  -1   1  12  138.52    7.87
   0  -1 -12   24.19    1.83
   0  -1 -12   23.82    1.89
   0  -1 -12   27.72    2.11
   0  -1 -12   26.45    2.38
   0   1  12   25.89    1.81
   0   1  12   24.45    1.91
   0   1  12   23.70    2.34
  -1  -1 -12   70.94    4.32
  -1  -1 -12   68.91    4.19
  -1  -1 -12   70.17    4.29
  -1  -1 -12   59.22    4.60
   1   1  12   66.64    4.09
   1   1  12   68.83    4.34
   1   1  12   63.79    4.58
  -2  -1 -12   40.92    3.00
  -2  -1 -12   31.24    3.26
  -2  -1 -12   39.04    2.76
   2   1  12   41.90    2.94
   2   1  12   34.93    3.08
   6  -2 -12   71.47    4.60
   6  -2 -12   61.90    4.72
  -6   2  12   71.44    4.58
  -6   2  12   68.26    4.66
   5  -2 -12   22.56    2.22
   5  -2 -12   25.20    2.50
   5  -2 -12   25.60    2.41
  -5   2  12   27.85    2.16
  -5   2  12   24.93    2.40
  -5   2  12   24.42    1.87
   4  -2 -12   69.64    4.78
   4  -2 -12   80.77    4.86
   4  -2 -12   74.81    4.83
  -4   2  12   72.47    4.64
  -4   2  12   76.85    4.40
  -4   2  12   73.06    4.40
  -4   2  12   67.76    4.89
   3  -2 -12   44.42    3.01
   3  -2 -12   37.32    2.90
   3  -2 -12   38.72    2.99
  -3   2  12   42.02    2.58
  -3   2  12   38.68    2.81
  -3   2  12   42.55    2.79
  -3   2  12   34.05    3.06
  -3   2  12   40.34    2.60
   2  -2 -12   81.52    5.11
   2  -2 -12   81.84    5.51
   2  -2 -12   79.21    5.29
   2  -2 -12   90.17    5.36
  -2   2  12   93.35    5.20
  -2   2  12   86.77    5.21
  -2   2  12   88.36    5.33
  -2   2  12   79.05    5.54
   1  -2 -12   14.45    2.07
   1  -2 -12   18.64    1.90
   1  -2 -12   16.66    1.62
   1  -2 -12   15.74    1.36
  -1   2  12   12.78    1.92
  -1   2  12   17.47    1.53
  -1   2  12   18.13    1.60
   0  -2 -12  114.39    7.11
   0  -2 -12  121.60    6.97
   0  -2 -12  112.35    7.50
   0   2  12  121.19    7.21
   0   2  12  116.27    7.47
   0   2  12  124.04    7.04
  -1  -2 -12   24.78    2.75
   1   2  12   24.67    2.51
   1   2  12   22.98    2.21
   5  -3 -12   49.38    3.81
   5  -3 -12   54.18    3.73
  -5   3  12   53.88    3.98
   4  -3 -12   53.13    3.98
   4  -3 -12   56.09    4.02
  -4   3  12   52.92    4.09
  -4   3  12   58.91    3.76
  -4   3  12   61.95    3.67
   3  -3 -12   90.65    5.98
   3  -3 -12   90.11    6.08
  -3   3  12  104.10    5.99
  -3   3  12   90.84    6.18
  -3   3  12   96.22    5.77
   2  -3 -12   39.76    3.03
   2  -3 -12   41.38    3.39
  -2   3  12   46.24    3.00
  -2   3  12   37.43    3.29
   1  -3 -12   82.98    5.96
   1  -3 -12   90.02    5.65
  -1   3  12   87.26    5.96
  -1   3  12   97.85    5.70
  -1   7 -13   38.96    3.28
  -1   7 -13   40.45    2.76
  -2   7 -13   79.72    4.69
  -2   7 -13   75.29    5.18
  -2   7 -13   76.26    5.23
  -3   7 -13   37.69    3.18
  -3   7 -13   38.79    3.33
   1   6 -13   75.11    4.66
   1   6 -13   78.70    4.77
   1   6 -13   67.51    4.96
   0   6 -13   19.42    1.96
   0   6 -13   16.75    1.61
   0   6 -13   15.38    2.10
  -1   6 -13   98.47    6.57
  -1   6 -13  106.59    6.14
  -2   6 -13   33.17    2.69
  -2   6 -13   31.85    1.96
  -2   6 -13   34.13    2.14
  -2   6 -13   27.76    2.72
  -3   6 -13   58.83    4.18
  -3   6 -13   58.95    4.17
  -4   6 -13   15.97    2.16
  -4   6 -13   15.37    2.04
   3   5 -13   11.05    1.95
   3   5 -13   10.67    1.36
   2   5 -13  106.62    6.52
   2   5 -13  101.83    6.76
   2   5 -13  115.10    6.57
  -2  -5  13  105.03    6.57
   1   5 -13   46.95    3.12
   1   5 -13   41.09    3.44
   1   5 -13   48.16    3.28
  -1  -5  13   49.29    3.32
   0   5 -13   49.04    3.28
   0   5 -13   42.31    2.94
   0   5 -13   43.93    3.41
   0  -5  13   44.56    3.28
  -1   5 -13   26.45    2.47
  -1   5 -13   28.97    1.98
   1  -5  13   29.53    2.54
  -2   5 -13   53.91    4.06
  -2   5 -13   57.79    4.01
  -2   5 -13   62.71    3.44
  -2   5 -13   57.41    3.47
   2  -5  13   58.42    4.20
  -3   5 -13   43.14    3.39
  -3   5 -13   47.90    2.90
  -3   5 -13   46.04    3.34
   3  -5  13   41.36    3.48
  -4   5 -13   82.06    5.55
  -4   5 -13   78.32    5.49
   4  -5  13   90.08    5.20
   3   4 -13   57.95    3.87
   3   4 -13   57.59    3.85
   3   4 -13   59.40    4.12
  -3  -4  13   58.81    3.90
   2   4 -13   52.39    3.55
   2   4 -13   57.98    3.70
   2   4 -13   48.45    3.85
  -2  -4  13   60.13    3.66
  -2  -4  13   51.57    3.67
   1   4 -13   57.25    4.17
   1   4 -13   65.41    4.06
   1   4 -13   55.40    3.83
  -1  -4  13   64.63    3.87
  -1  -4  13   58.80    4.06
   0   4 -13   45.39    3.24
   0   4 -13   44.24    2.89
   0   4 -13   43.19    3.31
   0  -4  13   51.02    2.94
   0  -4  13   38.23    3.23
  -1   4 -13   94.13    6.20
  -1   4 -13  102.62    5.77
  -1   4 -13   95.74    6.09
   1  -4  13   97.76    6.27
  -2   4 -13   23.30    2.05
  -2   4 -13   23.22    1.49
  -2   4 -13   23.63    2.24
   2  -4  13   18.49    2.29
  -3   4 -13  109.72    7.28
  -3   4 -13  115.92    7.19
   3  -4  13  126.21    6.89
   3  -4  13  113.08    7.42
  -4   4 -13   45.98    3.64
  -4   4 -13   42.16    3.38
  -4   4 -13   41.12    3.28
   4  -4  13   45.62    3.08
   4  -4  13   43.55    3.58
   4   3 -13   73.55    4.88
   4   3 -13   79.16    4.81
   4   3 -13   78.08    5.09
  -4  -3  13   71.43    5.08
  -4  -3  13   76.19    4.84
   3   3 -13   36.83    2.70
   3   3 -13   32.05    2.63
   3   3 -13   34.93    2.87
  -3  -3  13   34.61    2.67
  -3  -3  13   38.99    2.68
   2   3 -13  121.25    7.08
   2   3 -13  110.15    7.18
   2   3 -13  108.48    6.94
  -2  -3  13  123.31    6.93
  -2  -3  13  113.53    7.10
   1   3 -13   53.83    3.70
   1   3 -13   50.09    3.33
   1   3 -13   51.74    3.56
   1   3 -13   46.21    3.60
  -1  -3  13   51.31    3.59
  -1  -3  13   53.88    3.30
   0   3 -13  132.01    8.71
   0   3 -13  149.92    8.71
   0   3 -13  137.88    8.38
   0   3 -13  144.97    8.69
   0  -3  13  161.39    8.39
   0  -3  13  133.59    8.72
  -1   3 -13   16.45    1.31
  -1   3 -13   17.02    1.66
  -1   3 -13   15.75    1.90
  -1   3 -13   19.46    1.84
   1  -3  13   19.73    1.35
   1  -3  13   17.12    1.96
  -2   3 -13   72.20    5.23
  -2   3 -13   75.86    5.08
  -2   3 -13   86.06    4.76
   2  -3  13   84.55    4.77
   2  -3  13   79.44    5.36
  -3   3 -13   35.24    2.44
  -3   3 -13   33.34    2.88
  -3   3 -13   32.80    2.71
   3  -3  13   34.86    3.02
   3  -3  13   36.89    2.42
  -4   3 -13   80.38    5.82
  -4   3 -13   89.65    5.69
   4  -3  13   94.94    5.50
   4  -3  13   85.10    5.96
   5   2 -13   51.06    3.73
   5   2 -13   51.79    3.64
   5   2 -13   51.54    3.82
  -5  -2  13   53.36    3.55
  -5  -2  13   50.14    3.86
   4   2 -13   40.96    3.21
   4   2 -13   41.38    3.00
   4   2 -13   41.28    3.07
  -4  -2  13   38.79    3.16
  -4  -2  13   42.70    2.97
   3   2 -13   77.82    5.11
   3   2 -13   73.53    4.88
   3   2 -13   80.34    4.98
  -3  -2  13   80.48    4.85
  -3  -2  13   73.63    4.92
   2   2 -13   11.97    1.60
   2   2 -13    5.62    0.98
   2   2 -13    8.09    1.20
   2   2 -13    9.49    1.45
  -2  -2  13    7.76    1.14
  -2  -2  13    7.81    1.15
   1   2 -13  108.70    6.82
   1   2 -13  121.04    7.11
   1   2 -13  105.58    7.10
   1   2 -13  122.62    7.12
  -1  -2  13  106.85    7.08
  -1  -2  13  122.67    6.80
   0   2 -13   35.78    2.98
   0   2 -13   40.00    2.92
   0   2 -13   40.38    3.23
   0   2 -13   38.49    2.57
   0  -2  13   37.83    2.99
   0  -2  13   42.80    2.57
  -1   2 -13  128.07    7.46
  -1   2 -13  115.32    7.39
  -1   2 -13  115.15    7.59
  -1   2 -13  118.58    7.13
  -1   2 -13  122.07    7.07
   1  -2  13  113.90    7.63
   1  -2  13  138.63    7.15
   1  -2  13  127.94    7.08
  -2   2 -13   42.70    3.46
  -2   2 -13   44.29    3.17
  -2   2 -13   49.92    3.27
   2  -2  13   45.16    3.50
   2  -2  13   47.51    2.95
  -3   2 -13  116.15    6.61
  -3   2 -13   99.82    6.92
  -3   2 -13  110.23    6.75
   3  -2  13  108.53    6.99
   5   1 -13   47.93    3.64
   5   1 -13   52.00    3.78
   5   1 -13   40.90    3.52
  -5  -1  13   51.18    3.62
  -5  -1  13   50.60    3.44
   4   1 -13   97.47    6.32
   4   1 -13  107.83    6.35
   4   1 -13  100.73    6.42
  -4  -1  13   99.03    6.30
   3   1 -13   49.99    3.72
   3   1 -13   51.20    3.54
   3   1 -13   50.46    3.66
   3   1 -13   61.32    3.89
  -3  -1  13   53.25    3.46
  -3  -1  13   48.42    3.60
   2   1 -13   58.57    4.05
   2   1 -13   65.03    4.33
   2   1 -13   68.39    4.36
   2   1 -13   61.37    4.31
  -2  -1  13   66.78    4.01
  -2  -1  13   61.02    4.27
   1   1 -13   33.93    2.78
   1   1 -13   37.26    2.74
   1   1 -13   33.48    2.45
  -1  -1  13   37.05    2.40
  -1  -1  13   33.68    2.79
   0   1 -13  100.78    6.40
   0   1 -13  115.04    6.55
   0   1 -13   98.55    6.65
   0   1 -13  103.47    6.27
   0  -1  13   99.68    6.66
   0  -1  13  114.49    6.26
   0  -1  13  107.36    6.09
  -1   1 -13   61.26    3.61
  -1   1 -13   58.79    3.61
  -1   1 -13   51.79    4.11
  -1   1 -13   62.59    3.94
  -1   1 -13   58.60    3.84
   1  -1  13   53.72    4.11
   1  -1  13   65.29    3.63
   1  -1  13   58.25    3.64
  -2   1 -13   51.31    4.20
  -2   1 -13   57.99    3.92
  -2   1 -13   64.39    4.03
  -2   1 -13   62.30    3.81
   2  -1  13   61.81    3.82
   2  -1  13   58.78    4.26
  -3   1 -13   11.13    1.71
  -3   1 -13   11.55    2.01
  -3   1 -13    7.48    1.70
   3  -1  13   11.05    1.63
   3  -1  13   11.61    1.58
   5   0 -13   69.10    4.79
   5   0 -13   75.41    4.82
  -5   0  13   69.65    4.68
  -5   0  13   68.95    4.72
   4   0 -13    9.70    1.38
   4   0 -13   11.44    1.75
  -4   0  13   11.65    1.62
   3   0 -13  112.53    7.09
   3   0 -13  126.51    7.31
   3   0 -13  109.18    7.24
  -3   0  13  108.27    7.19
  -3   0  13  126.20    7.03
   2   0 -13   48.77    3.28
   2   0 -13   43.02    2.99
   2   0 -13   40.62    3.25
  -2   0  13   41.30    3.21
  -2   0  13   42.53    2.89
   1   0 -13   90.30    6.53
   1   0 -13  120.43    6.58
   1   0 -13   99.54    6.62
  -1   0  13  107.73    6.05
  -1   0  13  109.75    6.26
  -1   0  13  103.93    6.06
  -1   0  13  102.02    6.65
   0   0 -13   32.13    2.47
   0   0 -13   29.85    2.24
   0   0 -13   28.66    2.60
   0   0 -13   30.16    2.17
   0   0  13   30.76    2.66
   0   0  13   31.10    2.10
   0   0  13   28.95    2.05
  -1   0 -13  106.00    7.20
  -1   0 -13  121.39    6.79
  -1   0 -13  106.59    6.84
  -1   0 -13  108.82    6.71
  -1   0 -13  125.50    6.99
   1   0  13  116.66    6.85
   1   0  13  114.69    6.81
   1   0  13  110.51    7.22
  -2   0 -13   90.35    5.72
  -2   0 -13   99.34    6.01
  -2   0 -13   87.13    6.18
   2   0  13   88.69    6.11
   2   0  13   96.32    5.80
   5  -1 -13   19.87    2.25
   5  -1 -13   21.73    2.36
  -5   1  13   23.90    2.14
  -5   1  13   17.91    2.17
   4  -1 -13  120.25    6.73
   4  -1 -13  102.68    6.58
   4  -1 -13   96.57    6.49
  -4   1  13   95.99    6.52
   3  -1 -13   38.60    3.04
   3  -1 -13   35.42    2.86
   3  -1 -13   41.02    3.08
  -3   1  13   37.98    3.01
   2  -1 -13   92.29    6.19
   2  -1 -13   93.37    6.45
   2  -1 -13  111.23    6.38
  -2   1  13   96.99    6.45
  -2   1  13  110.52    6.20
  -2   1  13  102.15    6.13
  -2   1  13  102.01    5.91
   1  -1 -13   45.29    3.06
   1  -1 -13   40.37    2.91
   1  -1 -13   37.35    3.17
   1  -1 -13   35.91    2.78
  -1   1  13   42.74    2.63
  -1   1  13   39.71    2.70
  -1   1  13   37.24    3.21
   0  -1 -13   73.02    5.21
   0  -1 -13   71.29    4.71
   0  -1 -13   80.50    4.97
   0  -1 -13   74.86    4.73
   0   1  13   80.05    4.65
   0   1  13   73.14    5.13
   0   1  13   77.22    4.71
  -1  -1 -13   17.09    2.56
  -1  -1 -13   19.17    2.50
   1   1  13   20.79    1.89
   1   1  13   18.12    2.43
   4  -2 -13   16.27    2.28
   4  -2 -13   15.16    2.11
   4  -2 -13   16.13    2.00
  -4   2  13   16.23    2.17
   3  -2 -13   74.78    4.74
   3  -2 -13   68.94    4.88
  -3   2  13   70.49    4.88
   2  -2 -13   43.18    3.79
   2  -2 -13   48.02    3.18
   2  -2 -13   50.17    3.44
  -2   2  13   46.66    3.70
  -2   2  13   53.43    3.21
   1  -2 -13   89.89    5.78
   1  -2 -13   93.50    6.20
  -1   2  13   97.65    5.71
  -1   2  13   89.95    6.16
   0   6 -14   83.02    5.81
   0   6 -14   85.01    5.21
  -1   6 -14   32.55    2.22
  -1   6 -14   29.47    2.92
  -1   6 -14   27.53    2.68
  -2   6 -14   52.95    4.05
  -2   6 -14   49.29    3.91
   1   5 -14   40.30    2.81
   1   5 -14   41.09    3.36
  -1  -5  14   37.17    3.10
   0   5 -14   40.64    3.80
   0   5 -14   45.72    3.61
   0  -5  14   52.33    3.64
  -1   5 -14   48.42    3.98
  -1   5 -14   56.42    3.46
  -1   5 -14   55.98    3.91
   1  -5  14   59.14    4.14
  -2   5 -14   26.85    2.72
  -2   5 -14   30.10    2.61
   2  -5  14   31.29    2.94
  -3   5 -14   51.00    3.74
  -3   5 -14   47.78    3.86
   3  -5  14   48.38    3.98
   3   4 -14   21.58    2.04
   3   4 -14   17.83    2.45
  -3  -4  14   18.41    2.06
   2   4 -14   69.09    4.67
   2   4 -14   63.47    4.26
   2   4 -14   61.34    4.64
  -2  -4  14   60.89    4.40
  -2  -4  14   75.70    4.77
   1   4 -14   31.11    2.49
   1   4 -14   29.96    2.90
  -1  -4  14   37.37    2.54
  -1  -4  14   36.86    2.86
   0   4 -14   83.77    5.96
   0   4 -14   87.53    5.54
   0  -4  14   87.00    5.96
   0  -4  14  106.57    5.57
  -1   4 -14   25.31    2.45
  -1   4 -14   27.14    1.85
  -1   4 -14   24.25    2.29
   1  -4  14   26.11    2.61
  -2   4 -14   69.81    5.00
  -2   4 -14   73.62    4.85
   2  -4  14   76.52    5.11
  -3   4 -14   45.97    3.49
  -3   4 -14   46.93    3.66
   3  -4  14   43.34    3.94
   3   3 -14   95.59    5.97
   3   3 -14   95.90    6.22
  -3  -3  14   93.64    6.02
   2   3 -14   48.33    3.79
   2   3 -14   49.71    3.46
  -2  -3  14   55.26    3.47
  -2  -3  14   51.02    3.69
   1   3 -14  102.16    6.92
   1   3 -14  107.10    6.60
  -1  -3  14  108.29    6.89
  -1  -3  14  118.58    6.57
   0   3 -14   19.17    1.65
   0   3 -14   16.89    2.18
   0  -3  14   21.45    2.25
   0  -3  14   23.08    1.71
  -1   3 -14   88.05    4.92
  -1   3 -14   82.29    5.30
  -1   3 -14   78.87    5.46
   1  -3  14   79.09    5.51
  -2   3 -14   33.64    2.99
  -2   3 -14   33.10    2.73
   2  -3  14   35.74    3.15
   4   2 -14   74.69    5.11
   4   2 -14   77.66    4.98
  -4  -2  14   72.55    4.88
   3   2 -14   20.07    2.32
   3   2 -14   21.51    2.09
  -3  -2  14   20.84    2.13
   2   2 -14   37.35    3.23
   2   2 -14   40.39    2.93
  -2  -2  14   43.22    2.84
  -2  -2  14   42.56    3.18
   1   2 -14   24.38    2.00
   1   2 -14   23.71    2.43
  -1  -2  14   25.38    2.39
  -1  -2  14   25.71    1.93
   0   2 -14   63.01    4.24
   0   2 -14   58.13    4.49
   0   2 -14   63.16    4.00
   0  -2  14   63.76    4.51
   0  -2  14   72.38    4.02
  -1   2 -14   17.36    1.84
  -1   2 -14   18.16    1.41
  -1   2 -14   14.50    2.09
   1  -2  14   18.67    2.19
  -2   2 -14   72.06    4.71
  -2   2 -14   69.66    4.95
   2  -2  14   70.85    5.00
   4   1 -14   40.76    3.31
   4   1 -14   37.10    3.15
  -4  -1  14   41.68    3.14
   3   1 -14  104.11    6.57
   3   1 -14   99.29    6.33
  -3  -1  14  101.68    6.47
   2   1 -14   55.13    3.58
   2   1 -14   50.50    3.89
  -2  -1  14   50.01    3.81
  -2  -1  14   55.06    3.49
   1   1 -14  118.65    7.06
   1   1 -14  109.91    6.73
   1   1 -14  103.70    7.10
  -1  -1  14  117.46    6.67
  -1  -1  14  108.32    7.07
   0   1 -14   32.09    2.33
   0   1 -14   26.97    2.85
   0   1 -14   36.33    2.86
   0   1 -14   31.79    2.53
   0  -1  14   37.36    2.33
   0  -1  14   33.51    2.91
  -1   1 -14  108.60    6.61
  -1   1 -14  111.11    6.35
  -1   1 -14  102.22    6.93
   1  -1  14  107.51    6.99
   4   0 -14   89.49    5.91
   4   0 -14   90.19    5.77
  -4   0  14   86.72    5.73
   3   0 -14   18.80    2.29
   3   0 -14   15.67    2.01
  -3   0  14   18.48    2.09
   2   0 -14   81.37    5.97
   2   0 -14  101.98    6.01
   2   0 -14   86.00    5.68
  -2   0  14   93.00    6.00
  -2   0  14   95.00    5.64
   1   0 -14   22.11    2.47
   1   0 -14   24.78    1.99
   1   0 -14   20.29    1.97
   1   0 -14   25.82    2.55
  -1   0  14   21.54    2.41
  -1   0  14   24.20    1.92
   0   0 -14   63.87    4.83
   0   0 -14   68.86    4.41
   0   0 -14   76.08    4.69
   0   0 -14   69.25    4.52
   0   0  14   66.26    4.86
   3  -1 -14   62.19    4.50
   3  -1 -14   57.09    4.06
   3  -1 -14   60.24    4.35
  -3   1  14   55.61    4.23
   2  -1 -14   20.00    2.41
   2  -1 -14   20.97    2.03
  -2   1  14   20.78    2.47
   1   4 -15   79.95    5.13
  -1  -4  15   82.61    5.49
   0   4 -15   23.21    1.91
   0   4 -15   18.79    2.71
   0  -4  15   22.26    2.60
  -1   4 -15   39.71    3.27
  -1   4 -15   38.38    4.27
   1  -4  15   40.62    3.58
   2   3 -15   72.39    4.68
   2   3 -15   66.66    5.12
  -2  -3  15   74.13    4.91
   1   3 -15   49.11    3.48
  -1  -3  15   54.30    3.90
   0   3 -15   73.51    4.41
   0   3 -15   66.26    4.70
   0   3 -15   66.26    5.01
   0  -3  15   74.45    4.97
  -1   3 -15   18.14    3.57
  -1   3 -15   19.89    2.15
   1  -3  15   16.36    2.45
   2   2 -15   39.77    3.61
   2   2 -15   45.24    3.19
  -2  -2  15   52.19    3.96
  -2  -2  15   39.91    3.41
   1   2 -15   49.46    3.97
   1   2 -15   52.94    3.45
  -1  -2  15   47.85    3.80
   0   2 -15   18.03    2.65
   0   2 -15   14.71    1.98
   0   2 -15   19.73    1.68
   0  -2  15   17.17    2.42
   0   0   0    0.00    0.00
;
_shelx_hkl_checksum              96079
_shelx_res_file
;
    shelx.res created by SHELXL-2014/7
TITL SIR92 run in space group P -1
CELL  0.71073   6.9970   7.1850  11.0430  106.356   93.891  115.130
ZERR     1.00   0.0020   0.0030   0.0030    0.012    0.010    0.016
LATT   1
SFAC  C    H    CO   O    U
UNIT  8 20 1 18 1
MERG   2
EQIV $3 -x+2, -y+2, -z+2
HTAB OW2 O3_$3
EQIV $4 x+1, y+1, z+1
HTAB OW2 O6_$4
EQIV $5 -x+2, -y+2, -z+1
HTAB OW2 OW3_$5
HTAB OW1 OW3_$4
EQIV $6 -x+2, -y+1, -z+1
HTAB OW1 O5_$6
EQIV $7 x, y+1, z
HTAB OW3 O5_$7
EQIV $8 x-1, y, z-1
HTAB OW3 OW2_$8
HTAB OW3 O2_$8
FMAP   2
PLAN   20
ACTA
HTAB    2.00000
BOND   $H
CONF
L.S.   5
TEMP  -173.00
WGHT    0.017500    0.037800
FVAR       0.22280
U1    5    0.500000    0.500000    0.500000    10.50000    0.00538    0.00511 =
         0.00354   -0.00028   -0.00018    0.00367
CO1   3    1.000000    1.000000    1.000000    10.50000    0.00654    0.00646 =
         0.00524   -0.00007   -0.00014    0.00403
O1    4    0.307843    0.336560    0.574732    11.00000    0.01235    0.01148 =
         0.01079    0.00366    0.00331    0.00738
OW2   4    1.309483    1.078615    1.083794    11.00000    0.00803    0.01349 =
         0.00645    0.00146    0.00025    0.00495
O2    4    1.000262    0.722110    0.868105    11.00000    0.01103    0.01051 =
         0.00638   -0.00073   -0.00119    0.00688
OW1   4    1.125635    1.192326    0.880575    11.00000    0.01359    0.00934 =
         0.01000    0.00210    0.00376    0.00619
O3    4    0.776532    0.679222    0.695538    11.00000    0.01563    0.01275 =
         0.00940   -0.00163   -0.00254    0.01110
O4    4    0.762386    0.337326    0.550687    11.00000    0.01497    0.01084 =
         0.00563   -0.00282   -0.00314    0.00995
O5    4    0.576332   -0.085252    0.245308    11.00000    0.01397    0.01270 =
         0.00765   -0.00131    0.00057    0.00896
O6    4    0.483182    0.171052    0.344310    11.00000    0.01338    0.01473 =
         0.00903    0.00071   -0.00073    0.01025
C1    1    0.891000    0.620797    0.753559    11.00000    0.00660    0.00859 =
         0.00740    0.00133    0.00081    0.00382
C2    1    0.898602    0.414622    0.676188    11.00000    0.01067    0.01000 =
         0.00636   -0.00064   -0.00186    0.00696
AFIX  23
H2A   2    1.048604    0.446612    0.668442    11.00000   -1.20000
H2B   2    0.844305    0.303189    0.718498    11.00000   -1.20000
AFIX   0
C3    1    0.768393    0.153941    0.461002    11.00000    0.01012    0.00857 =
         0.00743   -0.00054    0.00037    0.00674
AFIX  23
H3A   2    0.737833    0.036956    0.498568    11.00000   -1.20000
H3B   2    0.913211    0.197913    0.440177    11.00000   -1.20000
AFIX   0
C4    1    0.597468    0.071559    0.339307    11.00000    0.00849    0.00799 =
         0.00677    0.00229    0.00241    0.00476
OW3   4    0.325601    0.650156   -0.009953    11.00000    0.01220    0.01131 =
         0.01193    0.00108   -0.00021    0.00727
HW2B  2    1.345278    1.113331    1.161963    11.00000   -1.50000
HW2A  2    1.419863    1.160356    1.064695    11.00000   -1.50000
HW1B  2    1.190361    1.331282    0.917070    11.00000   -1.50000
HW1A  2    1.194078    1.163492    0.831298    11.00000   -1.50000
HW3A  2    0.381424    0.734514    0.071024    11.00000   -1.50000
HW3B  2    0.237826    0.686369   -0.031954    11.00000   -1.50000
HKLF    4
REM  SIR92 run in space group P -1
REM R1 =  0.0170 for    2596 Fo > 4sig(Fo)  and  0.0170 for all    2596 data
REM    148 parameters refined using      0 restraints
END
WGHT      0.0257      0.0152
REM Instructions for potential hydrogen bonds
EQIV $9 x+1, y, z
HTAB C2 O1_$9
EQIV $10 -x+1, -y, -z+1
HTAB C3 O1_$10
HTAB OW2 O3_$3
HTAB OW2 O6_$4
HTAB OW2 OW3_$5
HTAB OW1 OW3_$4
HTAB OW1 O5_$6
HTAB OW3 O5_$7
HTAB OW3 OW2_$8
HTAB OW3 O2_$8
REM Highest difference peak  0.781,  deepest hole -2.068,  1-sigma level  0.187
Q1    1   0.3468  0.5621  0.5014  11.00000  0.05    0.78
Q2    1   0.3985  0.5061  0.3965  11.00000  0.05    0.68
Q3    1   0.4809  0.3155  0.4234  11.00000  0.05    0.67
Q4    1   0.4173  0.4338  0.3778  11.00000  0.05    0.66
Q5    1   0.6946  0.1213  0.3924  11.00000  0.05    0.58
Q6    1   0.3261  0.3065  0.4548  11.00000  0.05    0.53
Q7    1   0.4013  0.2839  0.3247  11.00000  0.05    0.48
Q8    1   0.7216  0.3882  0.4482  11.00000  0.05    0.47
Q9    1   0.5564  0.3741  0.3195  11.00000  0.05    0.45
Q10   1   0.9260  0.5520  0.7161  11.00000  0.05    0.44
Q11   1   0.6049  0.2765  0.4419  11.00000  0.05    0.44
Q12   1   1.0081  0.8540  0.9013  11.00000  0.05    0.43
Q13   1   0.5998  0.2566  0.4953  11.00000  0.05    0.41
Q14   1   0.8200  0.7281  0.5825  11.00000  0.05    0.40
Q15   1   0.3252  0.1610  0.3969  11.00000  0.05    0.40
Q16   1   0.4442  0.5424  0.6207  11.00000  0.05    0.40
Q17   1   0.7079  0.3715  0.5258  11.00000  0.05    0.39
Q18   1   1.0572  1.1039  1.1292  11.00000  0.05    0.39
Q19   1   1.1618  1.1824  1.0807  11.00000  0.05    0.39
Q20   1   0.4880  0.3045  0.5319  11.00000  0.05    0.38
;
_shelx_res_checksum              61889
loop_
_space_group_symop_operation_xyz
'x, y, z'
'-x, -y, -z'
loop_
_atom_site_type_symbol
_atom_site_label
_atom_site_fract_x
_atom_site_fract_y
_atom_site_fract_z
_atom_site_U_iso_or_equiv
_atom_site_adp_type
_atom_site_calc_flag
_atom_site_occupancy
U U1 0.5000 0.5000 0.5000 0.00469(4) Uani d 1
Co Co1 1.0000 1.0000 1.0000 0.00626(8) Uani d 1
O O1 0.3078(3) 0.3366(3) 0.57473(16) 0.0108(3) Uani d 1
O OW2 1.3095(3) 1.0786(3) 1.08379(16) 0.0099(3) Uani d 1
O O2 1.0003(3) 0.7221(3) 0.86811(16) 0.0096(3) Uani d 1
O OW1 1.1256(3) 1.1923(3) 0.88058(16) 0.0109(3) Uani d 1
O O3 0.7765(3) 0.6792(3) 0.69554(16) 0.0125(3) Uani d 1
O O4 0.7624(3) 0.3373(3) 0.55069(15) 0.0106(3) Uani d 1
O O5 0.5763(3) -0.0853(3) 0.24531(15) 0.0116(3) Uani d 1
O O6 0.4832(3) 0.1711(3) 0.34431(17) 0.0119(3) Uani d 1
C C1 0.8910(3) 0.6208(3) 0.7536(2) 0.0078(4) Uani d 1
C C2 0.8986(3) 0.4146(4) 0.6762(2) 0.0092(4) Uani d 1
H H2A 1.0486 0.4466 0.6684 0.011 Uiso calc 1
H H2B 0.8443 0.3032 0.7185 0.011 Uiso calc 1
C C3 0.7684(4) 0.1539(4) 0.4610(2) 0.0087(4) Uani d 1
H H3A 0.7378 0.0370 0.4986 0.010 Uiso calc 1
H H3B 0.9132 0.1979 0.4402 0.010 Uiso calc 1
C C4 0.5975(3) 0.0716(3) 0.3393(2) 0.0074(4) Uani d 1
O OW3 0.3256(3) 0.6502(3) -0.00995(17) 0.0120(3) Uani d 1
H HW2B 1.345(6) 1.113(6) 1.162(4) 0.018 Uiso d 1
H HW2A 1.420(6) 1.160(6) 1.065(3) 0.018 Uiso d 1
H HW1B 1.190(6) 1.331(6) 0.917(3) 0.018 Uiso d 1
H HW1A 1.194(5) 1.163(6) 0.831(3) 0.018 Uiso d 1
H HW3A 0.381(6) 0.735(6) 0.071(4) 0.018 Uiso d 1
H HW3B 0.238(6) 0.686(6) -0.032(4) 0.018 Uiso d 1
loop_
_atom_site_aniso_label
_atom_site_aniso_U_11
_atom_site_aniso_U_22
_atom_site_aniso_U_33
_atom_site_aniso_U_12
_atom_site_aniso_U_13
_atom_site_aniso_U_23
U1 0.00538(6) 0.00511(6) 0.00354(6) 0.00367(4) -0.00018(4) -0.00028(4)
Co1 0.00654(17) 0.00646(18) 0.00524(17) 0.00403(15) -0.00014(14) -0.00007(14)
O1 0.0124(7) 0.0115(7) 0.0108(7) 0.0074(6) 0.0033(6) 0.0037(6)
OW2 0.0080(7) 0.0135(8) 0.0065(7) 0.0049(6) 0.0003(5) 0.0015(6)
O2 0.0110(7) 0.0105(8) 0.0064(7) 0.0069(6) -0.0012(6) -0.0007(6)
OW1 0.0136(7) 0.0093(8) 0.0100(7) 0.0062(6) 0.0038(6) 0.0021(6)
O3 0.0156(8) 0.0127(8) 0.0094(7) 0.0111(6) -0.0025(6) -0.0016(6)
O4 0.0150(7) 0.0108(7) 0.0056(7) 0.0099(6) -0.0031(6) -0.0028(6)
O5 0.0140(7) 0.0127(8) 0.0077(7) 0.0090(7) 0.0006(6) -0.0013(6)
O6 0.0134(7) 0.0147(8) 0.0090(7) 0.0103(7) -0.0007(6) 0.0007(6)
C1 0.0066(8) 0.0086(9) 0.0074(9) 0.0038(7) 0.0008(7) 0.0013(7)
C2 0.0107(9) 0.0100(9) 0.0064(9) 0.0070(8) -0.0019(7) -0.0006(7)
C3 0.0101(9) 0.0086(9) 0.0074(9) 0.0067(8) 0.0004(7) -0.0005(7)
C4 0.0085(9) 0.0080(9) 0.0068(9) 0.0048(7) 0.0024(7) 0.0023(7)
OW3 0.0122(7) 0.0113(8) 0.0119(8) 0.0073(6) -0.0002(6) 0.0011(6)
loop_
_atom_type_symbol
_atom_type_description
_atom_type_scat_dispersion_real
_atom_type_scat_dispersion_imag
_atom_type_scat_source
C C 0.0033 0.0016 'International Tables Vol C Tables 4.2.6.8 and 6.1.1.4'
H H 0.0000 0.0000 'International Tables Vol C Tables 4.2.6.8 and 6.1.1.4'
Co Co 0.3494 0.9721 'International Tables Vol C Tables 4.2.6.8 and 6.1.1.4'
O O 0.0106 0.0060 'International Tables Vol C Tables 4.2.6.8 and 6.1.1.4'
U U -9.6767 9.6646 'International Tables Vol C Tables 4.2.6.8 and 6.1.1.4'
loop_
_geom_angle_atom_site_label_1
_geom_angle_atom_site_label_2
_geom_angle_atom_site_label_3
_geom_angle_site_symmetry_1
_geom_angle_site_symmetry_3
_geom_angle
O1 U1 O1 2_666 . 180.00(11)
O1 U1 O3 2_666 2_666 91.69(7)
O1 U1 O3 . 2_666 88.31(7)
O1 U1 O3 2_666 . 88.31(7)
O1 U1 O3 . . 91.69(7)
O3 U1 O3 2_666 . 180.0
O1 U1 O6 2_666 . 89.18(7)
O1 U1 O6 . . 90.82(7)
O3 U1 O6 2_666 . 63.10(6)
O3 U1 O6 . . 116.90(6)
O1 U1 O6 2_666 2_666 90.82(7)
O1 U1 O6 . 2_666 89.18(7)
O3 U1 O6 2_666 2_666 116.90(6)
O3 U1 O6 . 2_666 63.10(6)
O6 U1 O6 . 2_666 180.00(8)
O1 U1 O4 2_666 . 90.23(7)
O1 U1 O4 . . 89.77(7)
O3 U1 O4 2_666 . 121.71(5)
O3 U1 O4 . . 58.29(6)
O6 U1 O4 . . 58.68(6)
O6 U1 O4 2_666 . 121.32(6)
O1 U1 O4 2_666 2_666 89.77(7)
O1 U1 O4 . 2_666 90.23(7)
O3 U1 O4 2_666 2_666 58.29(5)
O3 U1 O4 . 2_666 121.71(6)
O6 U1 O4 . 2_666 121.31(6)
O6 U1 O4 2_666 2_666 58.68(6)
O4 U1 O4 . 2_666 180.00(5)
OW2 Co1 OW2 2_777 . 180.0
OW2 Co1 O2 2_777 . 94.34(7)
OW2 Co1 O2 . . 85.66(7)
OW2 Co1 O2 2_777 2_777 85.66(7)
OW2 Co1 O2 . 2_777 94.34(7)
O2 Co1 O2 . 2_777 180.00(9)
OW2 Co1 OW1 2_777 2_777 90.38(7)
OW2 Co1 OW1 . 2_777 89.62(7)
O2 Co1 OW1 . 2_777 87.72(7)
O2 Co1 OW1 2_777 2_777 92.28(7)
OW2 Co1 OW1 2_777 . 89.62(7)
OW2 Co1 OW1 . . 90.38(7)
O2 Co1 OW1 . . 92.28(7)
O2 Co1 OW1 2_777 . 87.72(7)
OW1 Co1 OW1 2_777 . 180.00(5)
Co1 OW2 HW2B . . 120(2)
Co1 OW2 HW2A . . 123(2)
HW2B OW2 HW2A . . 103(3)
C1 O2 Co1 . . 125.81(15)
Co1 OW1 HW1B . . 117(2)
Co1 OW1 HW1A . . 121(3)
HW1B OW1 HW1A . . 107(3)
C1 O3 U1 . . 134.13(15)
C3 O4 C2 . . 113.26(16)
C3 O4 U1 . . 123.78(12)
C2 O4 U1 . . 122.74(12)
C4 O6 U1 . . 133.98(15)
O2 C1 O3 . . 125.4(2)
O2 C1 C2 . . 118.53(19)
O3 C1 C2 . . 116.11(19)
O4 C2 C1 . . 106.18(17)
O4 C2 H2A . . 110.5
C1 C2 H2A . . 110.5
O4 C2 H2B . . 110.5
C1 C2 H2B . . 110.5
H2A C2 H2B . . 108.7
O4 C3 C4 . . 107.73(17)
O4 C3 H3A . . 110.2
C4 C3 H3A . . 110.2
O4 C3 H3B . . 110.2
C4 C3 H3B . . 110.2
H3A C3 H3B . . 108.5
O5 C4 O6 . . 125.1(2)
O5 C4 C3 . . 119.47(19)
O6 C4 C3 . . 115.41(18)
HW3A OW3 HW3B . . 103(3)
loop_
_geom_bond_atom_site_label_1
_geom_bond_atom_site_label_2
_geom_bond_site_symmetry_2
_geom_bond_distance
_geom_bond_publ_flag
U1 O1 2_666 1.7953(17) ?
U1 O1 . 1.7953(17) y
U1 O3 2_666 2.4115(18) ?
U1 O3 . 2.4115(18) y
U1 O4 . 2.6649(17) y
U1 O4 2_666 2.6649(17) ?
U1 O6 . 2.4502(19) y
U1 O6 2_666 2.4502(19) ?
Co1 O2 . 2.1151(18) y
Co1 O2 2_777 2.1151(18) ?
Co1 OW1 2_777 2.1386(18) ?
Co1 OW1 . 2.1386(18) y
Co1 OW2 2_777 2.0638(17) ?
Co1 OW2 . 2.0638(17) y
OW2 HW2B . 0.82(4) ?
OW2 HW2A . 0.83(4) ?
O2 C1 . 1.262(3) ?
OW1 HW1B . 0.85(4) ?
OW1 HW1A . 0.79(4) ?
O3 C1 . 1.263(3) ?
O4 C3 . 1.427(3) ?
O4 C2 . 1.441(3) ?
O5 C4 . 1.244(3) ?
O6 C4 . 1.274(3) ?
C1 C2 . 1.512(3) ?
C2 H2A . 0.9900 ?
C2 H2B . 0.9900 ?
C3 C4 . 1.523(3) ?
C3 H3A . 0.9900 ?
C3 H3B . 0.9900 ?
OW3 HW3A . 0.88(4) ?
OW3 HW3B . 0.81(4) ?
loop_
_geom_hbond_atom_site_label_D
_geom_hbond_atom_site_label_H
_geom_hbond_atom_site_label_A
_geom_hbond_site_symmetry_A
_geom_hbond_distance_DH
_geom_hbond_distance_HA
_geom_hbond_distance_DA
_geom_hbond_angle_DHA
OW1 HW1A O5 2_766 0.79(4) 2.07(4) 2.833(2) 161(3)
OW1 HW1B OW3 1_666 0.85(4) 1.95(4) 2.804(3) 176(3)
OW2 HW2A OW3 2_776 0.83(4) 1.99(4) 2.817(3) 177(3)
OW2 HW2B O3 2_777 0.82(4) 2.32(4) 2.833(2) 122(3)
OW2 HW2B O6 1_666 0.82(4) 2.02(4) 2.821(2) 166(3)
OW3 HW3A O5 1_565 0.88(4) 2.00(4) 2.849(3) 165(3)
OW3 HW3B OW2 1_454 0.81(4) 2.55(4) 3.013(3) 118(3)
OW3 HW3B O2 1_454 0.81(4) 2.08(4) 2.870(3) 166(4)
loop_
_geom_torsion_atom_site_label_1
_geom_torsion_atom_site_label_2
_geom_torsion_atom_site_label_3
_geom_torsion_atom_site_label_4
_geom_torsion
Co1 O2 C1 O3 6.0(3)
Co1 O2 C1 C2 -175.44(14)
U1 O3 C1 O2 -165.78(16)
U1 O3 C1 C2 15.6(3)
C3 O4 C2 C1 174.25(17)
U1 O4 C2 C1 -11.0(2)
O2 C1 C2 O4 -179.37(19)
O3 C1 C2 O4 -0.7(3)
C2 O4 C3 C4 172.88(17)
U1 O4 C3 C4 -1.8(2)
U1 O6 C4 O5 -172.96(16)
U1 O6 C4 C3 8.2(3)
O4 C3 C4 O5 178.09(19)
O4 C3 C4 O6 -3.0(3)
