#------------------------------------------------------------------------------
#$Date: 2017-08-08 08:32:00 +0300 (Tue, 08 Aug 2017) $
#$Revision: 199636 $
#$URL: file:///home/coder/svn-repositories/cod/cif/2/02/08/2020845.cif $
#------------------------------------------------------------------------------
#
# This file is available in the Crystallography Open Database (COD),
# http://www.crystallography.net/. The original data for this entry
# were provided by IUCr Journals, http://journals.iucr.org/.
#
# The file may be used within the scientific community so long as
# proper attribution is given to the journal article from which the
# data were obtained.
#
data_2020845
loop_
_publ_author_name
'Setifi, Zouaoui'
'Zambon, Daniel'
'Setifi, Fatima'
'El-Ghozzi, Malika'
'Mahiou, Rachid'
'Glidewell, Christopher'
_publ_section_title
;
 Three zinc(II) and cadmium(II) complexes containing
 4-amino-3,5-bis(pyridin-2-yl)-1,2,4-triazole and polynitrile ligands:
 synthesis, molecular and supramolecular structures, and photoluminescence
 properties
;
_journal_coeditor_code           SK3666
_journal_issue                   9
_journal_name_full               'Acta Crystallographica Section C'
_journal_page_first
;
;
_journal_paper_doi               10.1107/S2053229617011391
_journal_volume                  73
_journal_year                    2017
_chemical_formula_iupac          '[Zn (C12 H10 N6)2 (C2 N3)2]'
_chemical_formula_moiety         'C28 H20 N18 Zn'
_chemical_formula_sum            'C28 H20 N18 Zn'
_chemical_formula_weight         674.01
_chemical_name_systematic
Bis[4-amino-3,5-bis(pyridin-2-yl)-1,2,4-triazole-\k^2^<i>N</i>^1^,<i>N</i>^5^]bis(dicyanamido-\k<i>N</i>^1^)zinc(II)
_space_group_crystal_system      triclinic
_space_group_IT_number           2
_space_group_name_Hall           '-P 1'
_space_group_name_H-M_alt        'P -1'
_symmetry_space_group_name_Hall  '-P 1'
_symmetry_space_group_name_H-M   'P -1'
_atom_sites_solution_hydrogens   mixed
_audit_creation_method           SHELXL-2014
_cell_angle_alpha                83.531(6)
_cell_angle_beta                 66.048(4)
_cell_angle_gamma                85.922(6)
_cell_formula_units_Z            1
_cell_length_a                   8.4211(11)
_cell_length_b                   9.5379(12)
_cell_length_c                   9.7491(12)
_cell_measurement_reflns_used    3720
_cell_measurement_temperature    296(2)
_cell_measurement_theta_max      28.99
_cell_measurement_theta_min      2.15
_cell_volume                     710.78(16)
_computing_cell_refinement
;
APEX2 and SAINT (Bruker, 2009)
;
_computing_data_collection
;
APEX2 (Bruker, 2009)
;
_computing_data_reduction
;
SAINT (Bruker, 2009)
;
_computing_molecular_graphics
;
PLATON (Spek, 2009)
;
_computing_publication_material
;
SHELXL2014 (Sheldrick, 2015) and PLATON (Spek, 2009)
;
_computing_structure_refinement
;
SHELXL2014 (Sheldrick, 2015)
;
_computing_structure_solution
;
SHELXS97 (Sheldrick, 2008)
;
_diffrn_ambient_temperature      296(2)
_diffrn_detector_area_resol_mean 9.091
_diffrn_measured_fraction_theta_full 0.990
_diffrn_measured_fraction_theta_max 0.981
_diffrn_measurement_device_type  'Bruker APEXII CCD diffractometer'
_diffrn_measurement_method       '\f & \w scans'
_diffrn_radiation_monochromator  graphite
_diffrn_radiation_source         'fine-focus sealed tube'
_diffrn_radiation_type           MoK\a
_diffrn_radiation_wavelength     0.71073
_diffrn_reflns_av_R_equivalents  0.0326
_diffrn_reflns_limit_h_max       11
_diffrn_reflns_limit_h_min       -11
_diffrn_reflns_limit_k_max       8
_diffrn_reflns_limit_k_min       -12
_diffrn_reflns_limit_l_max       13
_diffrn_reflns_limit_l_min       -12
_diffrn_reflns_number            13438
_diffrn_reflns_theta_full        25.242
_diffrn_reflns_theta_max         28.991
_diffrn_reflns_theta_min         2.998
_diffrn_standards_decay_%        0
_diffrn_standards_interval_count 0
_diffrn_standards_interval_time  0
_diffrn_standards_number         0
_exptl_absorpt_coefficient_mu    0.921
_exptl_absorpt_correction_T_max  0.895
_exptl_absorpt_correction_T_min  0.791
_exptl_absorpt_correction_type   multi-scan
_exptl_absorpt_process_details
;
(SADABS; Sheldrick, 2003)
;
_exptl_crystal_colour            colourless
_exptl_crystal_density_diffrn    1.575
_exptl_crystal_description       block
_exptl_crystal_F_000             344
_exptl_crystal_size_max          0.250
_exptl_crystal_size_mid          0.200
_exptl_crystal_size_min          0.120
_refine_diff_density_max         0.718
_refine_diff_density_min         -0.331
_refine_ls_extinction_method     none
_refine_ls_goodness_of_fit_ref   1.019
_refine_ls_hydrogen_treatment    constr
_refine_ls_matrix_type           full
_refine_ls_number_parameters     214
_refine_ls_number_reflns         3716
_refine_ls_number_restraints     0
_refine_ls_restrained_S_all      1.019
_refine_ls_R_factor_all          0.0695
_refine_ls_R_factor_gt           0.0445
_refine_ls_shift/su_max          0.000
_refine_ls_shift/su_mean         0.000
_refine_ls_structure_factor_coef Fsqd
_refine_ls_weighting_details
'w=1/[\s^2^(Fo^2^)+(0.0583P)^2^+0.1896P] where P=(Fo^2^+2Fc^2^)/3'
_refine_ls_weighting_scheme      calc
_refine_ls_wR_factor_gt          0.1059
_refine_ls_wR_factor_ref         0.1172
_reflns_number_gt                2731
_reflns_number_total             3716
_reflns_threshold_expression     'I > 2\s(I)'
_cod_data_source_file            sk3666sup1.cif
_cod_data_source_block           I
_cod_database_code               2020845
_shelx_space_group_comment
;
The symmetry employed for this shelxl refinement is uniquely defined
by the following loop, which should always be used as a source of
symmetry information in preference to the above space-group names.
They are only intended as comments.
;
_shelx_estimated_absorpt_t_min   0.802
_shelx_estimated_absorpt_t_max   0.897
_shelx_hkl_file
;
   0  -1   0    0.09    0.03
   0   1   0   -0.01    0.02
   0  -2   0    3.52    0.14
   0  -2   0    3.44    0.13
   0  -2   0    3.39    0.17
   0   2   0    3.75    0.17
   0   2   0    3.59    0.13
   0   2   0    3.61    0.13
   0  -3   0   27.82    0.80
   0  -3   0   27.10    0.80
   0  -3   0   27.27    0.82
   0   3   0   27.63    0.80
   0   3   0   27.52    0.80
   0  -4   0   71.16    2.00
   0  -4   0   71.44    2.01
   0  -4   0   69.62    1.98
   0  -4   0   69.99    1.93
   0   4   0   71.17    1.99
   0  -5   0    0.06    0.04
   0  -5   0    0.06    0.04
   0  -5   0    0.03    0.05
   0  -5   0    0.09    0.06
   0  -5   0    0.04    0.10
   0   5   0    0.06    0.04
   0  -6   0    1.69    0.13
   0  -6   0    1.84    0.13
   0  -6   0    2.03    0.22
   0  -6   0    1.26    0.11
   0   6   0    1.83    0.11
   0  -7   0    0.15    0.07
   0  -7   0    0.31    0.15
   0  -7   0    0.25    0.08
   0  -7   0    0.21    0.07
   0  -8   0    3.35    0.20
   0  -8   0    3.43    0.34
   0  -8   0    2.99    0.19
   0  -8   0    3.11    0.20
   0  -9   0    0.22    0.09
   0  -9   0    0.15    0.09
   0  -9   0    0.18    0.08
   0  -9   0    0.28    0.17
   0  -9   0    0.19    0.09
   0 -10   0    4.65    0.45
   0 -10   0    6.06    0.29
   0 -10   0    6.43    0.33
   0 -10   0    5.98    0.29
   0 -10   0    6.28    0.33
   0 -11   0    0.18    0.12
   0 -11   0    0.04    0.19
   0 -11   0    0.33    0.13
   0 -12   0    0.75    0.30
   0 -12   0    0.47    0.15
   0 -12   0    0.82    0.18
  -1 -12  -2    1.12    0.30
  -1 -12  -2    0.84    0.19
  -1 -12  -2    0.79    0.20
  -1 -12  -2    1.15    0.24
  -1 -11  -2    0.34    0.15
  -1 -11  -2    0.52    0.24
  -1 -11  -2    0.23    0.16
  -1 -11  -2    0.78    0.17
  -1 -10  -2    1.72    0.22
  -1 -10  -2    1.97    0.25
  -1 -10  -2    1.76    0.23
  -1 -10  -2    1.88    0.31
  -1  -9  -2    0.10    0.11
  -1  -9  -2    0.24    0.11
  -1  -9  -2    0.02    0.10
  -1  -9  -2    0.04    0.15
  -1  -9  -2    0.01    0.10
   1   8   2    7.43    0.35
  -1  -8  -2    7.69    0.38
  -1  -8  -2    6.76    0.44
  -1  -8  -2    7.13    0.37
  -1  -8  -2    7.50    0.38
  -1  -8  -2    7.54    0.39
   1   7   2    5.15    0.28
  -1  -7  -2    5.17    0.28
  -1  -7  -2    5.56    0.36
  -1  -7  -2    5.69    0.31
  -1  -7  -2    5.24    0.30
   1   6   2    8.02    0.36
  -1  -6  -2    8.32    0.37
  -1  -6  -2    7.92    0.37
  -1  -6  -2    7.76    0.40
  -1  -6  -2    8.30    0.35
   1   5   2   10.35    0.41
  -1  -5  -2   10.69    0.43
  -1  -5  -2   10.03    0.44
  -1  -5  -2   10.74    0.40
   1   4   2   21.42    0.66
   1   4   2   21.47    0.70
  -1  -4  -2   21.20    0.72
  -1  -4  -2   21.46    0.68
   1   3   2    3.38    0.19
   1   3   2    3.56    0.17
   1   3   2    3.47    0.20
   1   3   2    3.48    0.17
  -1  -3  -2    3.79    0.19
  -1  -3  -2    3.64    0.20
  -1  -3  -2    3.49    0.20
   1   2   2    0.13    0.05
   1   2   2    0.20    0.08
   1   2   2    0.18    0.07
  -1  -2  -2    0.14    0.06
  -1  -2  -2    0.20    0.06
  -1  -2  -2    0.26    0.07
   1   1   2   35.96    1.09
   1   1   2   38.22    1.10
  -1  -1  -2   37.01    1.09
  -1  -1  -2   36.38    1.10
  -1  -1  -2   36.92    1.06
   1   0   2    0.13    0.05
   1   0   2    0.16    0.03
   1   0   2    0.11    0.04
   1   0   2    0.12    0.03
   1   0   2    0.07    0.05
   1   0   2    0.08    0.05
  -1   0  -2    0.20    0.06
  -1   0  -2    0.11    0.04
  -1   0  -2    0.15    0.05
  -1   0  -2    0.11    0.04
   1  -1   2   46.40    1.34
   1  -1   2   45.99    1.30
   1  -1   2   46.14    1.29
   1  -1   2   46.50    1.34
  -1   1  -2   48.29    1.34
  -1   1  -2   47.32    1.34
  -1   1  -2   47.47    1.28
  -1   1  -2   47.13    1.29
  -1   1  -2   46.95    1.28
   1  -2   2   26.05    0.75
   1  -2   2   25.82    0.77
   1  -2   2   25.69    0.75
  -1   2  -2   25.81    0.77
  -1   2  -2   26.25    0.74
  -1   2  -2   25.49    0.74
   1  -3   2   10.48    0.40
   1  -4   2   42.48    1.27
   1  -5   2   13.84    0.55
   1  -6   2    6.78    0.38
   1  -7   2    6.97    0.41
   1  -8   2    7.24    0.46
   1  -9   2    0.75    0.21
   1 -10   2    0.11    0.19
   1 -11   2   -0.12    0.17
   1 -12   2   -0.25    0.18
  -2 -12  -4    0.71    0.25
  -2 -12  -4    0.29    0.25
  -2 -12  -4    0.81    0.21
  -2 -11  -4    0.22    0.21
  -2 -11  -4    0.52    0.21
  -2 -11  -4    0.21    0.17
  -2 -10  -4    0.56    0.19
  -2 -10  -4    0.72    0.19
  -2 -10  -4    0.71    0.23
  -2 -10  -4    0.77    0.21
  -2  -9  -4    0.34    0.16
  -2  -9  -4    0.16    0.16
  -2  -9  -4    0.47    0.16
  -2  -9  -4    0.34    0.16
  -2  -8  -4    6.54    0.39
  -2  -8  -4    5.27    0.36
  -2  -8  -4    5.85    0.41
  -2  -8  -4    5.84    0.39
  -2  -8  -4    6.44    0.38
   2   7   4   11.34    0.50
  -2  -7  -4   10.20    0.51
  -2  -7  -4   11.08    0.50
  -2  -7  -4   10.44    0.49
  -2  -7  -4   10.49    0.51
   2   6   4    8.47    0.42
  -2  -6  -4    8.45    0.41
  -2  -6  -4    8.17    0.40
  -2  -6  -4    7.56    0.42
  -2  -6  -4    8.23    0.42
   2   5   4    4.86    0.30
   2   5   4    5.34    0.27
  -2  -5  -4    5.30    0.30
  -2  -5  -4    5.14    0.32
  -2  -5  -4    5.32    0.32
  -2  -5  -4    4.54    0.28
   2   4   4   18.68    0.71
   2   4   4   20.05    0.67
  -2  -4  -4   19.55    0.68
  -2  -4  -4   20.09    0.72
  -2  -4  -4   18.90    0.72
  -2  -4  -4   19.00    0.68
   2   3   4   17.72    0.62
   2   3   4   17.56    0.65
  -2  -3  -4   17.34    0.62
  -2  -3  -4   18.56    0.66
  -2  -3  -4   18.02    0.63
  -2  -3  -4   17.19    0.66
   2   2   4   39.83    1.20
   2   2   4   40.96    1.26
   2   2   4   38.49    1.24
  -2  -2  -4   38.41    1.24
  -2  -2  -4   39.57    1.20
  -2  -2  -4   39.70    1.24
   2   1   4   -0.04    0.06
   2   1   4    0.18    0.08
   2   1   4    0.01    0.07
  -2  -1  -4    0.24    0.09
  -2  -1  -4    0.01    0.07
  -2  -1  -4    0.05    0.07
  -2  -1  -4   -0.02    0.06
   2   0   4    6.28    0.29
   2   0   4    6.18    0.29
   2   0   4    6.19    0.28
   2   0   4    6.21    0.27
  -2   0  -4    5.93    0.25
  -2   0  -4    5.85    0.28
  -2   0  -4    6.66    0.27
   2  -1   4   31.20    0.95
   2  -1   4   30.88    0.97
   2  -1   4   30.68    0.94
   2  -1   4   31.21    0.94
  -2   1  -4   30.49    0.82
  -2   1  -4   31.52    0.83
  -2   1  -4   32.17    0.91
  -2   1  -4   30.93    0.97
   2  -2   4    0.35    0.09
   2  -2   4    0.36    0.08
   2  -2   4    0.31    0.07
   2  -2   4    0.38    0.07
  -2   2  -4    0.39    0.08
   2  -3   4   31.61    0.93
   2  -3   4   32.36    0.97
   2  -3   4   32.18    0.93
   2  -3   4   31.52    0.97
  -2   3  -4   31.72    0.95
   2  -4   4    5.13    0.22
   2  -4   4    5.74    0.23
   2  -5   4    4.99    0.33
   2  -6   4    3.84    0.35
   2  -7   4    6.84    0.45
   2  -8   4    0.47    0.19
   2  -9   4    0.21    0.19
   2 -10   4   -0.10    0.18
   2 -11   4    1.36    0.32
  -3 -12  -6    0.32    0.22
  -3 -12  -6    0.19    0.24
  -3 -11  -6    2.51    0.36
  -3 -11  -6    2.51    0.35
  -3 -11  -6    2.34    0.38
  -3 -10  -6    2.05    0.31
  -3 -10  -6    2.31    0.35
  -3 -10  -6    2.06    0.35
  -3  -9  -6    4.14    0.45
  -3  -9  -6    4.61    0.42
  -3  -9  -6    5.07    0.47
  -3  -8  -6    0.77    0.21
  -3  -8  -6    1.04    0.22
   3   7   6    3.62    0.36
  -3  -7  -6    3.54    0.35
  -3  -7  -6    4.07    0.36
  -3  -7  -6    3.79    0.38
   3   6   6    7.28    0.44
  -3  -6  -6    7.86    0.48
  -3  -6  -6    7.40    0.42
  -3  -6  -6    7.18    0.43
   3   5   6    0.76    0.14
   3   5   6    0.43    0.14
  -3  -5  -6    0.34    0.12
  -3  -5  -6    0.65    0.17
  -3  -5  -6    0.60    0.14
   3   4   6    1.19    0.17
   3   4   6    1.15    0.19
   3   4   6    1.52    0.19
  -3  -4  -6    1.40    0.19
  -3  -4  -6    1.55    0.19
  -3  -4  -6    1.51    0.23
   3   3   6   10.41    0.50
   3   3   6    9.95    0.46
  -3  -3  -6   10.35    0.47
  -3  -3  -6    9.92    0.50
   3   2   6    4.05    0.28
   3   2   6    4.34    0.31
   3   2   6    3.98    0.30
  -3  -2  -6    4.23    0.27
  -3  -2  -6    4.64    0.31
  -3  -2  -6    4.79    0.29
   3   1   6   25.07    0.90
   3   1   6   24.76    0.71
   3   1   6   24.41    0.86
   3   1   6   25.47    0.72
   3   1   6   25.23    0.91
  -3  -1  -6   24.23    0.89
  -3  -1  -6   26.56    0.84
   3   0   6   13.30    0.57
   3   0   6   14.07    0.57
   3   0   6   13.25    0.54
  -3   0  -6   14.42    0.57
   3  -1   6    5.70    0.32
   3  -1   6    6.75    0.32
   3  -1   6    5.37    0.32
   3  -1   6    6.26    0.28
  -3   1  -6    5.91    0.32
   3  -2   6    0.46    0.12
   3  -2   6    0.55    0.12
   3  -2   6    0.38    0.11
   3  -2   6    0.56    0.12
  -3   2  -6    0.60    0.08
  -3   2  -6    0.32    0.10
   3  -3   6   11.69    0.46
   3  -3   6   11.83    0.48
   3  -3   6   12.27    0.49
   3  -3   6   11.85    0.47
  -3   3  -6   12.32    0.46
   3  -4   6    0.01    0.07
   3  -4   6    0.14    0.08
   3  -4   6   -0.01    0.06
   3  -4   6    0.01    0.07
   3  -5   6    0.39    0.10
   3  -5   6    0.39    0.10
   3  -5   6    0.38    0.09
   3  -5   6    0.26    0.09
   3  -6   6    0.53    0.11
   3  -7   6    0.63    0.10
  -4 -11  -8    0.16    0.24
  -4 -11  -8    0.44    0.25
  -4 -10  -8   -0.10    0.19
  -4 -10  -8    0.11    0.21
  -4  -9  -8    2.32    0.37
  -4  -8  -8    0.36    0.19
   4   7   8    7.03    0.59
  -4  -7  -8    6.37    0.55
   4   6   8    0.11    0.15
  -4  -6  -8    0.23    0.18
   4   5   8    3.64    0.38
  -4  -5  -8    3.11    0.36
   4   4   8    1.41    0.27
  -4  -4  -8    1.36    0.26
   4   3   8    3.26    0.22
   4   3   8    2.41    0.21
   4   3   8    3.00    0.36
   4   3   8    3.22    0.34
  -4  -3  -8    3.73    0.36
   4   2   8   11.19    0.40
   4   2   8   10.93    0.40
   4   2   8   10.43    0.57
   4   2   8   10.91    0.54
  -4  -2  -8   11.75    0.58
  -4  -2  -8   10.94    0.53
   4   1   8   10.23    0.54
   4   1   8    9.61    0.52
   4   1   8    9.61    0.49
  -4  -1  -8    9.86    0.52
   4   0   8    0.01    0.09
   4   0   8    0.14    0.12
   4   0   8    0.01    0.11
  -4   0  -8    0.04    0.10
   4  -1   8   10.79    0.54
   4  -1   8   12.36    0.57
   4  -1   8   11.78    0.54
  -4   1  -8   10.11    0.52
   4  -2   8    2.49    0.28
   4  -2   8    1.66    0.23
   4  -2   8    2.16    0.24
   4  -3   8    4.37    0.32
   4  -3   8    4.71    0.33
   4  -3   8    4.83    0.33
  -4   3  -8    4.72    0.25
   4  -4   8   -0.02    0.10
   4  -4   8   -0.01    0.09
   4  -4   8    0.03    0.11
   4  -5   8    1.69    0.20
   4  -5   8    2.54    0.26
   4  -5   8    2.21    0.23
   4  -6   8    0.79    0.16
   4  -6   8    0.91    0.15
   4  -6   8    1.01    0.15
   4  -7   8    0.35    0.14
   4  -8   8    0.83    0.17
   4  -8   8    1.01    0.18
   4  -9   8    0.04    0.13
   4  -9   8   -0.02    0.11
  -5  -9 -10    0.12    0.23
  -5  -8 -10    2.95    0.46
  -5  -7 -10    1.75    0.34
   5   6  10    0.46    0.22
  -5  -6 -10    0.27    0.22
   5   5  10    2.89    0.41
   5   5  10    2.92    0.27
  -5  -5 -10    2.71    0.40
   5   4  10    3.57    0.43
   5   4  10    4.02    0.30
  -5  -4 -10    4.80    0.49
   5   3  10    2.10    0.19
   5   3  10    1.79    0.18
   5   3  10    1.84    0.32
  -5  -3 -10    2.10    0.32
   5   2  10    0.05    0.16
   5   1  10    0.27    0.17
   5   1  10    0.17    0.17
   5   0  10    1.32    0.27
   5   0  10    1.14    0.27
   5   0  10    1.20    0.20
   5  -1  10    0.90    0.20
   5  -1  10    0.69    0.22
   5  -2  10    1.20    0.24
   5  -2  10    0.84    0.20
   5  -3  10    0.93    0.22
   5  -3  10    0.96    0.21
   5  -4  10    0.38    0.17
   5  -4  10    0.35    0.17
   5  -5  10    1.14    0.21
   5  -5  10    1.13    0.13
   5  -5  10    1.62    0.26
   5  -6  10    0.57    0.19
   5  -6  10    0.52    0.19
   5  -6  10    0.85    0.19
   5  -7  10    0.26    0.17
   5  -7  10   -0.01    0.16
   5  -7  10    0.10    0.12
   6   5  12    0.76    0.28
   6   4  12    0.86    0.32
   6   3  12   -0.01    0.23
   6   2  12   -0.15    0.22
   6   1  12    0.68    0.24
   6   1  12    0.47    0.18
   6   0  12   -0.02    0.18
   6  -1  12   -0.33    0.17
   6  -2  12    0.29    0.18
   6  -2  12    0.61    0.24
   6  -3  12    0.01    0.19
   6  -3  12   -0.02    0.18
   6   0  13   -0.06    0.20
   6   1  13    0.19    0.21
   6   2  13    0.39    0.19
   6   2  13    0.46    0.25
   6   3  13    0.10    0.23
   5  -5  11    0.44    0.20
   5  -5  11    0.51    0.18
   5  -4  11    0.48    0.20
   5  -4  11    0.43    0.20
   5  -3  11   -0.01    0.13
   5  -3  11    0.30    0.17
   5  -2  11   -0.12    0.16
   5  -2  11    0.21    0.17
   5  -1  11    0.13    0.14
   5  -1  11    0.01    0.17
   5   0  11    1.57    0.31
   5   0  11    1.13    0.26
   5   1  11    1.85    0.34
   5   2  11    0.33    0.20
   5   3  11    1.56    0.33
   5   4  11    3.70    0.28
   5   4  11    4.56    0.51
  -5  -5 -11    4.33    0.52
   5   5  11    3.26    0.43
   5   5  11    4.18    0.33
  -5  -6 -11    0.27    0.25
   5   6  11    0.00    0.13
   5   6  11    0.22    0.22
  -5  -7 -11    0.42    0.25
   5   7  11   -0.06    0.12
  -5  -8 -11    1.81    0.39
   4  -8   9    0.22    0.16
   4  -7   9    0.29    0.15
   4  -6   9    0.33    0.13
   4  -6   9    0.18    0.14
   4  -5   9    0.56    0.15
   4  -5   9    0.87    0.19
   4  -4   9    0.92    0.19
   4  -4   9    1.06    0.19
   4  -3   9    1.58    0.23
   4  -3   9    1.39    0.22
   4  -2   9    9.91    0.52
   4  -2   9   10.61    0.54
   4  -1   9    1.07    0.21
   4  -1   9    0.99    0.19
  -4   0  -9    8.93    0.55
   4   0   9    8.87    0.52
   4   0   9    8.63    0.49
  -4  -1  -9    0.40    0.16
   4   1   9    0.58    0.16
   4   1   9    0.57    0.20
  -4  -2  -9    1.82    0.27
   4   2   9    2.03    0.30
   4   2   9    2.21    0.16
   4   2   9    2.29    0.17
  -4  -3  -9    0.17    0.15
   4   3   9    0.09    0.08
   4   3   9    0.04    0.09
   4   3   9    0.28    0.17
   4   3   9    0.04    0.09
  -4  -4  -9   -0.08    0.14
   4   4   9   -0.36    0.12
   4   4   9    0.04    0.09
  -4  -5  -9    0.70    0.22
   4   5   9    1.82    0.30
  -4  -6  -9    0.08    0.18
   4   6   9   -0.01    0.15
  -4  -7  -9    0.00    0.19
  -4  -8  -9    1.31    0.31
  -4  -9  -9    1.96    0.38
  -4 -10  -9    0.52    0.27
   3  -7   7    0.84    0.14
   3  -6   7    2.34    0.21
   3  -6   7    2.19    0.20
   3  -6   7    2.30    0.17
   3  -6   7    2.28    0.19
   3  -5   7   -0.06    0.07
   3  -5   7   -0.04    0.07
   3  -5   7   -0.02    0.08
   3  -5   7    0.02    0.09
   3  -4   7    0.71    0.13
   3  -4   7    0.76    0.14
   3  -4   7    0.77    0.14
   3  -4   7    0.68    0.13
  -3   3  -7   11.36    0.46
  -3   3  -7   11.21    0.36
   3  -3   7   11.26    0.47
   3  -3   7   11.33    0.49
   3  -3   7   10.74    0.48
   3  -3   7   11.08    0.48
  -3   2  -7    7.38    0.37
   3  -2   7    7.08    0.38
   3  -2   7    7.93    0.40
   3  -2   7    7.41    0.38
   3  -2   7    7.33    0.37
  -3   1  -7    1.18    0.17
   3  -1   7    0.95    0.19
   3  -1   7    1.08    0.15
   3  -1   7    1.17    0.18
   3  -1   7    1.15    0.15
   3  -1   7    1.13    0.18
  -3   0  -7    3.88    0.32
   3   0   7    3.88    0.29
   3   0   7    3.14    0.29
   3   0   7    3.90    0.28
  -3  -1  -7   13.70    0.60
  -3  -1  -7   14.34    0.55
   3   1   7   13.70    0.42
   3   1   7   14.57    0.59
   3   1   7   13.64    0.61
   3   1   7   13.54    0.42
   3   1   7   14.43    0.62
  -3  -2  -7    9.74    0.50
  -3  -2  -7    9.67    0.45
   3   2   7    9.95    0.48
   3   2   7    9.67    0.37
   3   2   7    9.49    0.50
   3   2   7    9.80    0.36
  -3  -3  -7    2.14    0.24
  -3  -3  -7    1.14    0.20
  -3  -3  -7    1.42    0.19
   3   3   7    1.74    0.22
   3   3   7    1.03    0.18
  -3  -4  -7    8.81    0.43
   3   4   7    8.22    0.43
  -3  -5  -7    3.73    0.37
  -3  -5  -7    3.66    0.33
  -3  -5  -7    3.66    0.32
   3   5   7    4.31    0.37
   3   5   7    4.22    0.42
  -3  -6  -7    3.34    0.37
  -3  -6  -7    2.77    0.29
   3   6   7    2.50    0.31
  -3  -7  -7    2.34    0.29
  -3  -7  -7    2.81    0.35
   3   7   7    2.37    0.31
  -3  -8  -7    6.49    0.46
  -3  -8  -7    6.32    0.54
  -3  -9  -7    0.09    0.20
  -3 -10  -7    0.10    0.19
  -3 -10  -7   -0.14    0.17
  -3 -11  -7    0.73    0.29
  -3 -11  -7    0.90    0.27
   2 -11   5   -0.04    0.20
   2 -10   5    1.49    0.33
   2  -9   5    0.70    0.25
   2  -8   5    0.68    0.23
   2  -5   5    1.74    0.13
   2  -4   5    2.93    0.16
   2  -4   5    3.05    0.18
   2  -4   5    3.07    0.17
   2  -4   5    3.16    0.18
  -2   3  -5    6.19    0.25
   2  -3   5    5.52    0.27
   2  -3   5    5.42    0.25
   2  -3   5    5.84    0.25
   2  -3   5    5.68    0.27
  -2   2  -5    2.10    0.17
   2  -2   5    2.40    0.19
   2  -2   5    2.38    0.18
   2  -2   5    2.69    0.19
   2  -2   5    2.32    0.16
  -2   1  -5    0.91    0.13
  -2   1  -5    0.97    0.09
   2  -1   5    0.87    0.13
   2  -1   5    0.97    0.13
   2  -1   5    0.62    0.10
   2  -1   5    0.90    0.11
  -2   0  -5    0.46    0.10
  -2   0  -5    0.30    0.08
   2   0   5    0.42    0.10
   2   0   5    0.32    0.09
   2   0   5    0.45    0.11
   2   0   5    0.28    0.10
  -2  -1  -5   40.91    1.28
  -2  -1  -5   40.94    1.23
  -2  -1  -5   39.35    1.21
   2   1   5   40.16    1.09
   2   1   5   40.35    1.24
   2   1   5   40.14    1.28
   2   1   5   40.17    1.08
   2   1   5   39.14    1.28
   2   1   5   40.17    1.23
  -2  -2  -5    2.22    0.19
  -2  -2  -5    2.13    0.20
  -2  -2  -5    2.54    0.23
   2   2   5    2.63    0.24
   2   2   5    2.78    0.24
  -2  -3  -5   44.18    1.36
  -2  -3  -5   44.08    1.43
  -2  -3  -5   44.65    1.42
  -2  -3  -5   43.61    1.36
   2   3   5   43.90    1.41
  -2  -4  -5   26.31    0.89
  -2  -4  -5   26.23    0.94
  -2  -4  -5   25.32    0.89
  -2  -4  -5   25.56    0.92
   2   4   5   26.12    0.93
   2   4   5   26.30    0.88
  -2  -5  -5    1.59    0.22
  -2  -5  -5    1.61    0.20
  -2  -5  -5    1.47    0.21
  -2  -5  -5    1.45    0.19
   2   5   5    1.25    0.15
   2   5   5    1.25    0.20
  -2  -6  -5    2.26    0.24
  -2  -6  -5    2.37    0.26
  -2  -6  -5    2.51    0.25
  -2  -6  -5    2.23    0.26
   2   6   5    2.53    0.27
  -2  -7  -5   13.73    0.64
  -2  -7  -5   13.64    0.60
  -2  -7  -5   13.20    0.61
  -2  -7  -5   13.51    0.60
   2   7   5   12.71    0.60
  -2  -8  -5    0.49    0.15
  -2  -8  -5    0.25    0.16
  -2  -8  -5    0.26    0.14
  -2  -9  -5   -0.06    0.12
  -2  -9  -5    0.07    0.17
  -2  -9  -5   -0.02    0.12
  -2  -9  -5    0.13    0.13
  -2 -10  -5    0.08    0.16
  -2 -10  -5    0.05    0.15
  -2 -10  -5   -0.11    0.16
  -2 -11  -5    1.44    0.33
  -2 -11  -5    2.83    0.36
  -2 -11  -5    1.75    0.29
  -2 -12  -5    1.22    0.26
  -2 -12  -5    0.41    0.22
  -2 -12  -5    0.87    0.29
   1 -12   3    0.17    0.25
   1 -11   3    0.81    0.27
   1 -10   3    0.16    0.18
   1  -9   3    3.28    0.40
   1  -8   3    1.55    0.25
   1  -7   3    0.38    0.17
   1  -6   3    5.41    0.36
   1  -5   3    2.82    0.27
   1  -4   3    7.54    0.36
   1  -3   3    0.13    0.05
   1  -3   3    0.04    0.04
   1  -3   3    0.09    0.09
  -1   2  -3   12.87    0.42
  -1   2  -3   13.37    0.42
   1  -2   3   12.87    0.43
   1  -2   3   12.99    0.40
   1  -2   3   13.46    0.43
   1  -2   3   13.35    0.40
  -1   1  -3   46.60    1.29
  -1   1  -3   46.61    1.35
  -1   1  -3   45.97    1.35
  -1   1  -3   46.52    1.29
   1  -1   3   46.15    1.36
   1  -1   3   47.39    1.31
   1  -1   3   44.83    1.31
   1  -1   3   46.19    1.36
   1  -1   3   47.63    1.35
  -1   0  -3    3.35    0.16
  -1   0  -3    3.52    0.17
  -1   0  -3    3.54    0.14
  -1   0  -3    3.51    0.19
  -1   0  -3    3.57    0.19
   1   0   3    3.41    0.12
   1   0   3    3.38    0.12
   1   0   3    3.33    0.19
   1   0   3    3.56    0.19
   1   0   3    3.38    0.17
   1   0   3    3.31    0.17
  -1  -1  -3   13.63    0.49
  -1  -1  -3   13.90    0.47
  -1  -1  -3   14.49    0.50
  -1  -1  -3   14.80    0.48
   1   1   3   14.21    0.47
   1   1   3   14.32    0.50
   1   1   3   14.06    0.50
   1   1   3   14.51    0.48
  -1  -2  -3   18.68    0.65
  -1  -2  -3   19.33    0.62
  -1  -2  -3   19.77    0.63
  -1  -2  -3   20.07    0.65
   1   2   3   18.42    0.65
   1   2   3   19.16    0.62
   1   2   3   19.44    0.66
  -1  -3  -3    4.91    0.26
  -1  -3  -3    4.83    0.27
  -1  -3  -3    4.59    0.24
  -1  -3  -3    5.25    0.25
   1   3   3    4.56    0.25
   1   3   3    4.88    0.26
   1   3   3    5.00    0.24
  -1  -4  -3    0.39    0.10
  -1  -4  -3    0.65    0.11
  -1  -4  -3    0.68    0.11
  -1  -4  -3    0.53    0.11
   1   4   3    0.54    0.10
   1   4   3    0.68    0.11
  -1  -5  -3    3.75    0.23
  -1  -5  -3    3.76    0.25
  -1  -5  -3    3.70    0.25
  -1  -5  -3    3.43    0.22
   1   5   3    4.26    0.25
  -1  -6  -3   28.01    1.08
  -1  -6  -3   34.80    1.07
  -1  -6  -3   33.27    1.11
  -1  -6  -3   35.18    1.07
   1   6   3   34.60    1.10
  -1  -7  -3    0.04    0.11
  -1  -7  -3    0.01    0.04
  -1  -7  -3    0.10    0.09
  -1  -7  -3    0.03    0.09
  -1  -7  -3   -0.05    0.09
   1   7   3   -0.02    0.07
  -1  -8  -3    6.28    0.36
  -1  -8  -3    6.07    0.37
  -1  -8  -3    6.20    0.37
  -1  -8  -3    6.58    0.37
  -1  -8  -3    6.64    0.43
   1   8   3    6.62    0.36
  -1  -9  -3    6.59    0.40
  -1  -9  -3    7.01    0.40
  -1  -9  -3    6.70    0.47
  -1  -9  -3    7.57    0.41
  -1 -10  -3   -0.02    0.11
  -1 -10  -3    0.12    0.13
  -1 -10  -3   -0.08    0.13
  -1 -10  -3   -0.10    0.15
  -1 -11  -3    1.29    0.29
  -1 -11  -3    2.45    0.31
  -1 -11  -3    1.80    0.27
  -1 -11  -3    1.70    0.25
  -1 -12  -3    0.77    0.21
  -1 -12  -3    0.88    0.24
  -1 -12  -3    0.46    0.25
   0 -12   1   -0.07    0.19
   0 -12   1    0.02    0.13
   0 -12   1    0.08    0.11
   0 -11   1    0.06    0.10
   0 -11   1   -0.08    0.19
   0 -11   1    0.02    0.09
   0 -10   1    0.68    0.24
   0 -10   1    0.55    0.12
   0  -9   1    9.90    0.38
   0  -9   1   10.02    0.57
   0  -8   1    0.52    0.19
   0  -7   1   10.21    0.51
   0  -6   1    8.09    0.41
   0  -5   1   21.82    0.75
   0  -4   1   63.26    1.80
   0  -3   1   85.68    2.35
   0   2  -1   74.24    1.96
   0  -2   1   70.12    1.96
   0   1  -1   67.78    1.93
   0   1  -1   67.71    1.90
   0   1  -1   67.85    1.83
   0   1  -1   68.51    1.90
   0  -1   1   69.27    1.83
   0  -1   1   69.20    1.90
   0  -1   1   68.28    1.90
   0   0   1    9.76    0.29
   0  -1  -1   53.56    1.47
   0  -1  -1   52.08    1.42
   0  -1  -1   43.35    1.46
   0  -1  -1   52.82    1.42
   0   1   1   52.51    1.42
   0   1   1   53.02    1.47
   0   1   1   51.51    1.47
   0  -2  -1    5.84    0.23
   0  -2  -1    5.80    0.21
   0  -2  -1    6.01    0.21
   0   2   1    5.73    0.22
   0   2   1    5.69    0.20
   0   2   1    5.78    0.23
   0  -3  -1    0.45    0.07
   0  -3  -1    0.46    0.07
   0  -3  -1    0.62    0.09
   0   3   1    0.54    0.06
   0   3   1    0.40    0.07
   0   3   1    0.58    0.08
   0   3   1    0.62    0.06
   0  -4  -1    4.83    0.20
   0  -4  -1    4.68    0.26
   0  -4  -1    4.54    0.23
   0  -4  -1    4.82    0.22
   0  -4  -1    4.73    0.20
   0   4   1    4.73    0.22
   0  -5  -1    4.25    0.26
   0  -5  -1    4.09    0.20
   0  -5  -1    4.30    0.20
   0  -5  -1    3.80    0.21
   0  -5  -1    4.48    0.22
   0   5   1    4.05    0.20
   0  -6  -1    0.41    0.09
   0  -6  -1    0.43    0.09
   0  -6  -1    0.63    0.11
   0  -6  -1    0.49    0.10
   0  -6  -1    0.62    0.14
   0   6   1    0.51    0.09
   0  -7  -1    3.53    0.21
   0  -7  -1    2.92    0.21
   0  -7  -1    3.37    0.21
   0  -7  -1    2.87    0.21
   0  -7  -1    2.82    0.29
   0   7   1    2.97    0.19
   0  -8  -1    9.10    0.50
   0  -8  -1    8.86    0.38
   0  -8  -1    8.97    0.39
   0  -8  -1    8.60    0.39
   0  -8  -1    8.77    0.38
   0  -9  -1   -0.04    0.15
   0  -9  -1    0.06    0.10
   0  -9  -1    0.08    0.09
   0  -9  -1   -0.07    0.08
   0  -9  -1   -0.03    0.08
   0 -10  -1    4.77    0.31
   0 -10  -1    5.20    0.31
   0 -10  -1    4.70    0.33
   0 -10  -1    4.95    0.49
   0 -10  -1    5.23    0.33
   0 -11  -1    0.37    0.15
   0 -11  -1    0.49    0.14
   0 -11  -1    0.68    0.18
   0 -11  -1    0.66    0.25
   0 -12  -1   -0.05    0.14
   0 -12  -1   -0.02    0.10
   0 -12  -1    0.04    0.21
   0 -12  -1   -0.06    0.12
  -1 -12  -1    0.16    0.20
  -1 -12  -1    0.11    0.13
  -1 -12  -1    0.01    0.15
  -1 -12  -1    0.03    0.11
  -1 -11  -1    0.47    0.16
  -1 -11  -1    0.40    0.23
  -1 -11  -1    0.48    0.14
  -1 -11  -1    0.47    0.15
  -1 -10  -1    3.70    0.31
  -1 -10  -1    3.86    0.27
  -1 -10  -1    3.83    0.43
  -1 -10  -1    4.05    0.28
  -1 -10  -1    3.78    0.30
  -1  -9  -1    0.79    0.15
  -1  -9  -1    0.64    0.19
  -1  -9  -1    0.50    0.13
  -1  -9  -1    0.86    0.15
  -1  -8  -1    5.58    0.45
  -1  -8  -1    5.19    0.29
  -1  -8  -1    5.01    0.29
  -1  -8  -1    5.01    0.28
   1   7   1    1.41    0.15
  -1  -7  -1    0.99    0.14
  -1  -7  -1    1.42    0.16
  -1  -7  -1    1.36    0.15
  -1  -7  -1    1.03    0.19
   1   6   1    2.20    0.17
  -1  -6  -1    1.48    0.20
  -1  -6  -1    1.80    0.15
  -1  -6  -1    1.73    0.15
  -1  -6  -1    1.90    0.17
  -1  -6  -1    1.71    0.16
   1   5   1   18.85    0.62
  -1  -5  -1   19.06    0.60
  -1  -5  -1   19.39    0.64
  -1  -5  -1   18.71    0.60
  -1  -5  -1   20.12    0.68
  -1  -5  -1   17.86    0.63
   1   4   1    2.28    0.15
  -1  -4  -1    2.21    0.19
  -1  -4  -1    2.27    0.16
  -1  -4  -1    2.38    0.15
  -1  -4  -1    2.41    0.14
  -1  -4  -1    2.25    0.14
   1   3   1    6.07    0.25
   1   3   1    6.33    0.21
   1   3   1    6.11    0.25
   1   3   1    6.23    0.22
  -1  -3  -1    6.33    0.27
  -1  -3  -1    5.74    0.25
  -1  -3  -1    6.10    0.23
  -1  -3  -1    6.13    0.23
   1   2   1    1.31    0.09
   1   2   1    1.44    0.11
   1   2   1    1.16    0.10
   1   2   1    1.45    0.09
  -1  -2  -1    1.35    0.10
  -1  -2  -1    1.39    0.10
  -1  -2  -1    1.21    0.10
   1   1   1   10.04    0.33
   1   1   1    9.94    0.33
   1   1   1   10.04    0.31
  -1  -1  -1    9.69    0.31
  -1  -1  -1    9.98    0.33
  -1  -1  -1    9.88    0.33
  -1  -1  -1    9.58    0.31
   1   0   1   28.49    0.81
  -1   0  -1   26.92    0.81
   1  -1   1   72.03    2.26
   1  -1   1   80.96    2.19
   1  -1   1   80.59    2.15
   1  -1   1   80.60    2.26
  -1   1  -1   81.96    2.18
  -1   1  -1   79.85    2.26
  -1   1  -1   85.66    2.26
  -1   1  -1   82.38    2.18
  -1   1  -1   82.79    2.15
   1  -2   1   92.12    2.56
   1  -2   1   97.89    2.67
   1  -2   1   95.52    2.66
   1  -2   1   93.60    2.69
  -1   2  -1   95.87    2.66
  -1   2  -1   96.85    2.56
  -1   2  -1   97.40    2.66
  -1   2  -1   94.92    2.70
   1  -3   1   18.59    0.55
   1  -3   1   18.20    0.60
   1  -3   1   18.65    0.55
   1  -3   1   18.76    0.55
  -1   3  -1   18.66    0.56
   1  -4   1   32.64    0.95
   1  -4   1   33.25    0.95
   1  -4   1   32.55    1.00
  -1   4  -1   32.45    0.96
   1  -5   1   12.58    0.41
   1  -5   1   12.71    0.51
   1  -5   1   12.56    0.41
  -1   5  -1   13.05    0.42
   1  -6   1    3.10    0.15
   1  -6   1    3.29    0.16
   1  -6   1    2.65    0.25
  -1   6  -1    3.16    0.16
   1  -7   1    5.39    0.22
   1  -7   1    5.09    0.35
   1  -7   1    5.17    0.22
   1  -8   1    4.56    0.22
   1  -8   1    5.43    0.43
   1  -8   1    4.77    0.22
   1  -9   1    2.69    0.19
   1  -9   1    3.18    0.36
   1  -9   1    2.93    0.20
   1 -10   1    1.96    0.19
   1 -10   1    2.47    0.36
   1 -10   1    2.15    0.19
   1 -11   1    0.01    0.19
   1 -11   1    0.09    0.10
   1 -11   1    0.04    0.11
   1 -12   1   -0.01    0.21
   1 -12   1    0.10    0.13
   1 -12   1    0.03    0.11
  -2 -12  -3   -0.02    0.14
  -2 -12  -3    0.18    0.24
  -2 -12  -3    0.07    0.18
  -2 -11  -3    2.10    0.30
  -2 -11  -3    2.19    0.29
  -2 -11  -3    2.08    0.35
  -2 -11  -3    1.84    0.25
  -2 -10  -3    0.42    0.21
  -2 -10  -3    0.14    0.15
  -2 -10  -3    0.47    0.15
  -2 -10  -3    0.57    0.17
  -2  -9  -3    0.10    0.11
  -2  -9  -3    0.10    0.12
  -2  -9  -3    0.17    0.16
  -2  -9  -3    0.07    0.12
   2   8   3    4.52    0.32
  -2  -8  -3    4.03    0.31
  -2  -8  -3    3.64    0.35
  -2  -8  -3    4.51    0.31
  -2  -8  -3    4.50    0.31
   2   7   3    4.11    0.28
  -2  -7  -3    4.05    0.29
  -2  -7  -3    3.99    0.36
  -2  -7  -3    4.40    0.28
   2   6   3   31.59    1.05
  -2  -6  -3   32.25    1.06
  -2  -6  -3   30.93    1.07
  -2  -6  -3   31.51    1.07
  -2  -6  -3   32.35    1.03
   2   5   3    2.69    0.22
  -2  -5  -3    2.64    0.22
  -2  -5  -3    2.73    0.23
  -2  -5  -3    2.73    0.25
   2   4   3   17.06    0.62
   2   4   3   18.02    0.58
  -2  -4  -3   16.82    0.59
  -2  -4  -3   15.57    0.62
  -2  -4  -3   16.92    0.62
   2   3   3   25.33    0.78
   2   3   3   26.62    0.83
   2   3   3   23.50    0.77
   2   3   3   22.67    0.80
  -2  -3  -3   24.52    0.82
  -2  -3  -3   24.22    0.82
  -2  -3  -3   23.96    0.78
   2   2   3    3.65    0.22
   2   2   3    3.16    0.21
   2   2   3    3.09    0.19
  -2  -2  -3    3.47    0.20
  -2  -2  -3    3.39    0.21
  -2  -2  -3    3.27    0.21
   2   1   3   17.52    0.59
   2   1   3   16.74    0.58
   2   1   3   18.16    0.57
  -2  -1  -3   16.36    0.58
  -2  -1  -3   17.94    0.59
  -2  -1  -3   17.49    0.56
  -2  -1  -3   15.64    0.55
   2   0   3   21.24    0.68
   2   0   3   20.65    0.56
   2   0   3   20.90    0.65
   2   0   3   20.99    0.68
  -2   0  -3   20.31    0.58
  -2   0  -3   20.42    0.64
  -2   0  -3   20.63    0.68
  -2   0  -3   20.49    0.64
  -2   0  -3   21.29    0.68
   2  -1   3    4.72    0.21
   2  -1   3    4.42    0.22
  -2   1  -3    4.90    0.19
  -2   1  -3    4.94    0.19
  -2   1  -3    4.67    0.22
  -2   1  -3    4.87    0.15
  -2   1  -3    4.84    0.22
   2  -2   3   36.27    1.04
   2  -2   3   36.67    1.08
   2  -2   3   36.21    1.08
   2  -2   3   36.02    1.04
  -2   2  -3   36.09    1.07
   2  -3   3   16.28    0.52
   2  -3   3   16.10    0.56
   2  -3   3   15.63    0.51
   2  -3   3   16.16    0.48
   2  -3   3   16.05    0.48
   2  -3   3   16.36    0.50
  -2   3  -3   16.01    0.50
   2  -4   3   17.66    0.62
   2  -4   3   16.64    0.53
   2  -4   3   17.40    0.54
   2  -5   3   11.40    0.49
   2  -6   3   12.80    0.56
   2  -7   3    4.11    0.38
   2  -8   3    1.63    0.28
   2  -9   3    3.24    0.39
   2 -10   3   -0.05    0.18
   2 -11   3   -0.07    0.19
   2 -12   3   -0.14    0.23
  -3 -12  -5    0.38    0.28
  -3 -12  -5    0.52    0.24
  -3 -12  -5    0.44    0.20
  -3 -11  -5    2.79    0.35
  -3 -11  -5    2.13    0.36
  -3 -11  -5    3.51    0.39
  -3 -10  -5    2.11    0.31
  -3 -10  -5    1.68    0.31
  -3 -10  -5    2.09    0.31
  -3  -9  -5    0.06    0.13
  -3  -9  -5    0.27    0.18
  -3  -9  -5    0.14    0.17
  -3  -9  -5   -0.02    0.14
  -3  -8  -5    1.39    0.25
  -3  -8  -5    1.11    0.22
  -3  -8  -5    1.61    0.23
  -3  -8  -5    1.39    0.25
   3   7   5    8.38    0.46
  -3  -7  -5    8.39    0.46
  -3  -7  -5    8.28    0.49
  -3  -7  -5    8.97    0.49
  -3  -7  -5    8.52    0.47
   3   6   5    1.09    0.19
  -3  -6  -5    0.84    0.17
  -3  -6  -5    1.21    0.19
  -3  -6  -5    0.98    0.20
  -3  -6  -5    0.87    0.18
   3   5   5    0.05    0.10
   3   5   5    0.03    0.08
  -3  -5  -5    0.20    0.11
  -3  -5  -5    0.20    0.12
  -3  -5  -5    0.40    0.12
  -3  -5  -5    0.01    0.08
   3   4   5    2.21    0.20
   3   4   5    2.69    0.22
   3   4   5    2.39    0.24
  -3  -4  -5    2.25    0.23
  -3  -4  -5    2.14    0.24
  -3  -4  -5    1.73    0.20
  -3  -4  -5    2.77    0.27
   3   3   5   20.25    0.70
   3   3   5   18.42    0.72
  -3  -3  -5   18.67    0.73
  -3  -3  -5   18.86    0.69
  -3  -3  -5   19.59    0.70
   3   2   5    0.19    0.10
   3   2   5    0.40    0.09
   3   2   5    0.36    0.11
  -3  -2  -5    0.43    0.10
  -3  -2  -5    0.34    0.09
  -3  -2  -5    0.42    0.13
   3   1   5   42.52    1.36
   3   1   5   40.51    1.35
   3   1   5   42.62    1.31
   3   1   5   41.39    1.15
  -3  -1  -5   43.20    1.36
  -3  -1  -5   43.16    1.29
  -3  -1  -5   43.38    1.30
   3   0   5    2.03    0.20
   3   0   5    1.40    0.16
   3   0   5    2.13    0.20
  -3   0  -5    2.43    0.22
  -3   0  -5    2.05    0.17
   3  -1   5    0.91    0.14
   3  -1   5    1.27    0.15
   3  -1   5    1.41    0.15
  -3   1  -5    1.63    0.18
  -3   1  -5    1.84    0.13
   3  -2   5    3.38    0.21
   3  -2   5    2.86    0.21
   3  -2   5    3.04    0.20
  -3   2  -5    2.91    0.19
   3  -3   5    6.43    0.30
   3  -3   5    6.63    0.30
   3  -3   5    6.70    0.31
  -3   3  -5    6.86    0.30
   3  -4   5    1.54    0.12
   3  -4   5    1.58    0.16
   3  -4   5    1.37    0.15
   3  -4   5    2.02    0.16
  -3   4  -5    1.69    0.14
   3  -5   5    0.58    0.10
   3  -5   5    0.73    0.10
   3  -5   5    0.63    0.10
   3  -8   5    1.05    0.25
   3  -9   5    0.10    0.19
   3 -10   5    0.91    0.27
   3 -11   5    0.68    0.28
  -4 -11  -7    0.46    0.25
  -4 -11  -7    0.70    0.27
  -4 -10  -7    0.17    0.20
  -4 -10  -7    0.12    0.19
  -4  -9  -7    1.90    0.34
  -4  -8  -7    8.27    0.57
  -4  -8  -7    7.79    0.51
   4   7   7    0.60    0.19
  -4  -7  -7    1.03    0.25
  -4  -7  -7    0.68    0.18
   4   6   7    1.15    0.22
  -4  -6  -7    0.80    0.18
  -4  -6  -7    1.18    0.24
   4   5   7    5.60    0.41
  -4  -5  -7    4.79    0.44
  -4  -5  -7    4.80    0.35
   4   4   7    5.69    0.35
   4   4   7    5.93    0.38
   4   4   7    5.57    0.40
  -4  -4  -7    5.58    0.41
  -4  -4  -7    6.38    0.39
   4   3   7    3.03    0.33
   4   3   7    2.39    0.21
   4   3   7    2.41    0.25
   4   3   7    2.00    0.23
  -4  -3  -7    2.28    0.24
  -4  -3  -7    3.15    0.31
   4   2   7    7.93    0.40
   4   2   7    7.43    0.31
   4   2   7    7.64    0.45
  -4  -2  -7    7.48    0.39
  -4  -2  -7    6.87    0.43
   4   1   7    6.82    0.26
   4   1   7    7.41    0.42
   4   1   7    7.39    0.42
   4   1   7    6.96    0.39
   4   1   7    6.92    0.26
  -4  -1  -7    7.20    0.36
  -4  -1  -7    7.49    0.42
   4   0   7    3.37    0.31
   4   0   7    3.72    0.31
   4   0   7    3.41    0.30
  -4   0  -7    3.46    0.30
   4  -1   7   19.14    0.75
   4  -1   7   18.76    0.72
   4  -1   7   18.81    0.74
  -4   1  -7   19.22    0.74
   4  -2   7    2.15    0.23
   4  -2   7    2.32    0.24
   4  -2   7    2.17    0.23
  -4   2  -7    2.76    0.19
  -4   2  -7    2.84    0.26
   4  -3   7    6.87    0.37
   4  -3   7    6.91    0.37
   4  -3   7    6.66    0.37
  -4   3  -7    6.42    0.34
  -4   3  -7    6.75    0.27
   4  -4   7    0.75    0.14
   4  -4   7    1.07    0.18
   4  -4   7    0.84    0.15
   4  -5   7    1.05    0.17
   4  -5   7    1.26    0.17
   4  -6   7    0.75    0.15
   4  -6   7    0.85    0.13
   4  -6   7    0.78    0.13
   4  -7   7    0.63    0.14
   4  -7   7    0.89    0.16
   4  -8   7    0.17    0.11
   4  -8   7    0.29    0.12
  -5 -10  -9    0.43    0.28
  -5 -10  -9   -0.02    0.19
  -5  -9  -9    0.01    0.19
  -5  -8  -9    0.30    0.21
  -5  -7  -9    2.75    0.39
   5   6   9    0.09    0.16
  -5  -6  -9    0.01    0.18
   5   5   9    3.53    0.40
  -5  -5  -9    2.13    0.34
   5   4   9   10.79    0.65
  -5  -4  -9   11.08    0.65
   5   3   9    2.18    0.20
   5   3   9    1.82    0.31
   5   3   9    2.16    0.20
  -5  -3  -9    1.98    0.31
   5   2   9    0.00    0.14
   5   2   9   -0.02    0.11
   5   2   9    0.09    0.07
   5   2   9    0.19    0.08
  -5  -2  -9   -0.07    0.14
   5   1   9    0.06    0.13
   5   1   9    0.07    0.11
  -5  -1  -9    0.02    0.12
   5   0   9   13.28    0.65
   5   0   9   13.10    0.62
   5   0   9   11.03    0.52
   5  -1   9   -0.01    0.11
   5  -1   9    0.30    0.15
   5  -2   9    0.10    0.13
   5  -2   9    0.17    0.13
   5  -3   9    1.89    0.26
   5  -3   9    1.31    0.25
   5  -4   9    0.78    0.18
   5  -4   9    0.78    0.19
   5  -5   9    0.79    0.12
   5  -5   9    0.69    0.19
   5  -5   9    0.75    0.18
   5  -5   9    0.70    0.18
   5  -6   9    0.16    0.15
   5  -6   9    0.35    0.14
   5  -6   9    0.39    0.17
   5  -7   9    0.15    0.16
   5  -7   9    0.22    0.12
   5  -7   9    0.06    0.15
   5  -8   9    0.37    0.18
   5  -8   9    0.07    0.15
  -6  -8 -11    0.47    0.30
  -6  -7 -11    0.33    0.27
   6   6  11    0.32    0.25
   6   6  11    0.18    0.14
  -6  -6 -11    0.00    0.20
   6   5  11    0.50    0.15
   6   5  11    0.42    0.25
   6   4  11    0.27    0.23
   6   4  11    0.57    0.13
   6   3  11    0.83    0.26
   6   2  11    0.27    0.23
   6   1  11    1.10    0.22
   6   1  11    1.33    0.29
   6   0  11    0.76    0.25
   6  -1  11    0.21    0.19
   6  -1  11    0.21    0.19
   6  -2  11    2.14    0.34
   6  -2  11    1.44    0.29
   6  -3  11    0.44    0.19
   6  -3  11    0.71    0.23
   6  -4  11    0.76    0.24
   6  -4  11    0.73    0.23
   6  -5  11    0.17    0.16
   6  -5  11    0.01    0.18
   5  -4  12    0.24    0.20
   5  -4  12    0.28    0.20
   5  -3  12    0.06    0.17
   5  -3  12   -0.13    0.17
   5  -2  12    0.35    0.18
   5  -2  12    0.39    0.22
   5  -1  12    0.06    0.19
   5   0  12    1.20    0.30
   5   1  12    0.91    0.30
   5   1  12    1.35    0.24
   5   2  12    0.49    0.25
   5   3  12    0.69    0.25
   5   4  12    4.80    0.57
   5   5  12    0.55    0.28
   4  -7  10    0.32    0.17
   4  -6  10    0.05    0.12
   4  -6  10    0.44    0.19
   4  -5  10    0.91    0.20
   4  -5  10    0.66    0.21
   4  -4  10    1.80    0.26
   4  -4  10    1.97    0.28
   4  -3  10    0.60    0.20
   4  -3  10    0.57    0.19
   4  -2  10    0.58    0.19
   4  -2  10    1.16    0.25
   4  -1  10    0.19    0.16
   4  -1  10    0.22    0.15
   4   0  10    1.47    0.27
   4   0  10    1.32    0.25
   4   0  10    1.47    0.21
   4   1  10    0.14    0.16
   4   1  10    0.32    0.13
  -4  -2 -10    0.42    0.12
   4   2  10    0.50    0.21
  -4  -3 -10    0.10    0.17
   4   3  10   -0.06    0.09
   4   3  10   -0.02    0.18
   4   3  10    0.13    0.08
  -4  -4 -10    0.05    0.17
   4   4  10   -0.07    0.09
   4   4  10   -0.07    0.16
  -4  -5 -10    1.03    0.28
   4   5  10    2.13    0.34
   4   5  10    1.99    0.22
  -4  -6 -10    1.48    0.34
   4   6  10    1.74    0.23
   4   6  10    1.84    0.34
  -4  -7 -10    0.15    0.19
  -4  -8 -10    2.75    0.42
  -4  -9 -10    0.69    0.27
   3  -8   8    0.65    0.15
   3  -7   8   -0.03    0.10
   3  -7   8   -0.04    0.08
   3  -6   8    0.43    0.11
   3  -6   8    0.52    0.14
   3  -6   8    0.43    0.11
   3  -6   8    0.61    0.13
   3  -5   8    2.17    0.22
   3  -5   8    2.26    0.23
   3  -5   8    2.41    0.23
   3  -5   8    2.14    0.23
   3  -4   8    0.23    0.11
   3  -4   8    0.22    0.12
   3  -4   8    0.11    0.09
   3  -4   8    0.30    0.12
   3  -4   8    0.12    0.07
   3  -3   8    1.51    0.20
   3  -3   8    1.31    0.20
   3  -3   8    1.45    0.19
   3  -3   8    1.09    0.18
  -3   2  -8    5.76    0.36
   3  -2   8    5.00    0.33
   3  -2   8    5.28    0.34
   3  -2   8    5.17    0.35
   3  -2   8    5.75    0.35
  -3   1  -8   14.41    0.63
   3  -1   8   15.18    0.65
   3  -1   8   14.49    0.55
   3  -1   8   13.67    0.63
   3  -1   8   15.15    0.63
   3  -1   8   14.92    0.61
  -3   0  -8    5.17    0.36
   3   0   8    5.60    0.37
   3   0   8    5.90    0.37
   3   0   8    4.95    0.33
   3   0   8    4.80    0.33
  -3  -1  -8    3.49    0.33
   3   1   8    3.73    0.35
   3   1   8    3.12    0.30
   3   1   8    4.03    0.38
  -3  -2  -8   11.62    0.53
  -3  -2  -8   10.61    0.57
   3   2   8   13.19    0.58
   3   2   8   12.44    0.42
   3   2   8   11.72    0.41
   3   2   8   11.29    0.59
  -3  -3  -8    3.52    0.35
  -3  -3  -8    3.10    0.29
  -3  -3  -8    3.06    0.22
   3   3   8    3.19    0.22
   3   3   8    2.75    0.30
   3   3   8    3.68    0.37
  -3  -4  -8    1.41    0.25
   3   4   8    1.76    0.28
   3   4   8    1.67    0.19
  -3  -5  -8    3.22    0.38
   3   5   8    2.69    0.32
  -3  -6  -8    0.01    0.16
   3   6   8    0.10    0.16
  -3  -7  -8    2.30    0.36
   3   7   8    1.94    0.31
  -3  -8  -8    0.01    0.18
  -3  -9  -8    2.02    0.37
  -3 -10  -8    0.28    0.24
  -3 -11  -8    0.18    0.24
  -3 -11  -8    0.27    0.25
   2  -6   6    8.75    0.34
   2  -6   6    8.59    0.33
   2  -5   6    1.35    0.14
   2  -5   6    1.18    0.13
   2  -5   6    1.35    0.14
   2  -5   6    1.28    0.13
   2  -4   6    0.64    0.11
   2  -4   6    0.91    0.09
   2  -4   6    0.88    0.11
   2  -4   6    0.79    0.12
   2  -4   6    1.00    0.14
  -2   3  -6   13.29    0.49
   2  -3   6   13.93    0.52
   2  -3   6   13.18    0.51
   2  -3   6   12.90    0.49
   2  -3   6   13.82    0.50
  -2   2  -6   21.69    0.60
  -2   2  -6   20.09    0.71
   2  -2   6   20.99    0.71
   2  -2   6   20.50    0.70
   2  -2   6   20.94    0.74
   2  -2   6   19.87    0.73
  -2   1  -6    0.30    0.10
  -2   1  -6    0.53    0.08
   2  -1   6    0.33    0.10
   2  -1   6    0.39    0.10
   2  -1   6    0.26    0.09
   2  -1   6    0.40    0.09
  -2   0  -6    0.11    0.09
   2   0   6    0.10    0.09
   2   0   6    0.11    0.10
   2   0   6    0.01    0.07
   2   0   6    0.17    0.10
  -2  -1  -6    7.44    0.34
  -2  -1  -6    7.29    0.37
   2   1   6    7.13    0.38
   2   1   6    7.15    0.26
   2   1   6    6.95    0.26
   2   1   6    6.68    0.35
   2   1   6    6.64    0.34
   2   1   6    6.79    0.37
  -2  -2  -6   10.09    0.43
  -2  -2  -6   10.37    0.45
  -2  -2  -6    9.11    0.46
   2   2   6   10.63    0.37
   2   2   6    9.58    0.45
   2   2   6   10.92    0.46
   2   2   6   10.46    0.49
   2   2   6   10.36    0.48
  -2  -3  -6   27.87    1.00
  -2  -3  -6   27.35    0.95
   2   3   6   28.89    0.96
   2   3   6   27.19    1.00
  -2  -4  -6    7.37    0.39
  -2  -4  -6    8.24    0.44
  -2  -4  -6    7.71    0.40
   2   4   6    8.19    0.40
   2   4   6    7.93    0.44
  -2  -5  -6    2.12    0.24
  -2  -5  -6    2.40    0.26
  -2  -5  -6    1.96    0.25
   2   5   6    2.41    0.27
   2   5   6    2.24    0.24
  -2  -6  -6   -0.03    0.13
  -2  -6  -6   -0.02    0.11
  -2  -6  -6    0.07    0.11
  -2  -6  -6    0.11    0.11
   2   6   6   -0.03    0.10
  -2  -7  -6   12.63    0.60
  -2  -7  -6   13.11    0.61
  -2  -7  -6   12.76    0.65
   2   7   6   11.67    0.61
  -2  -8  -6    1.29    0.24
  -2  -8  -6    1.80    0.26
  -2  -9  -6    0.10    0.16
  -2  -9  -6    0.10    0.14
  -2 -10  -6    0.70    0.21
  -2 -10  -6    1.10    0.29
  -2 -10  -6    0.67    0.22
  -2 -11  -6    1.72    0.35
  -2 -11  -6    2.42    0.34
  -2 -11  -6    2.74    0.37
  -2 -12  -6    0.14    0.23
  -2 -12  -6    0.30    0.22
   1 -11   4    0.35    0.25
   1 -10   4   -0.05    0.19
   1  -9   4    0.07    0.18
   1  -8   4    0.66    0.22
   1  -7   4    4.31    0.39
   1  -6   4    0.19    0.15
   1  -5   4    3.10    0.30
   1  -4   4    5.23    0.21
   1  -4   4    5.06    0.20
  -1   3  -4   52.17    1.47
   1  -3   4   51.20    1.43
   1  -3   4   50.15    1.48
   1  -3   4   52.40    1.49
   1  -3   4   50.45    1.49
   1  -3   4   49.81    1.43
  -1   2  -4    5.28    0.23
   1  -2   4    5.12    0.23
   1  -2   4    5.43    0.22
   1  -2   4    5.52    0.25
   1  -2   4    5.45    0.24
  -1   1  -4   17.92    0.49
  -1   1  -4   17.68    0.60
   1  -1   4   17.70    0.60
   1  -1   4   18.10    0.57
   1  -1   4   17.65    0.58
  -1   0  -4    5.25    0.20
  -1   0  -4    5.65    0.25
  -1   0  -4    5.05    0.26
  -1   0  -4    5.49    0.24
   1   0   4    5.13    0.26
   1   0   4    5.24    0.26
   1   0   4    5.75    0.26
   1   0   4    5.54    0.25
  -1  -1  -4   39.85    1.21
  -1  -1  -4   37.77    1.16
  -1  -1  -4   39.21    1.16
  -1  -1  -4   38.70    1.21
   1   1   4   38.83    1.17
   1   1   4   40.56    1.22
   1   1   4   38.35    1.16
   1   1   4   38.32    1.04
   1   1   4   38.28    1.21
  -1  -2  -4   21.52    0.73
  -1  -2  -4   19.82    0.72
  -1  -2  -4   20.50    0.69
   1   2   4   21.34    0.73
   1   2   4   20.25    0.72
   1   2   4   20.94    0.69
   1   2   4   20.93    0.69
  -1  -3  -4    9.99    0.40
  -1  -3  -4    9.37    0.43
  -1  -3  -4    9.89    0.41
  -1  -3  -4    9.62    0.43
   1   3   4    9.86    0.43
   1   3   4   10.45    0.40
   1   3   4    9.33    0.39
  -1  -4  -4    3.72    0.26
  -1  -4  -4    4.21    0.28
  -1  -4  -4    4.11    0.25
  -1  -4  -4    3.88    0.25
   1   4   4    4.02    0.23
   1   4   4    4.18    0.26
  -1  -5  -4   27.15    0.93
  -1  -5  -4   29.74    0.98
  -1  -5  -4   26.63    0.97
  -1  -5  -4   28.40    0.93
   1   5   4   27.13    0.90
   1   5   4   27.47    0.96
  -1  -6  -4    9.56    0.46
  -1  -6  -4    9.60    0.44
  -1  -6  -4    9.43    0.44
  -1  -6  -4    8.95    0.46
   1   6   4    8.66    0.44
  -1  -7  -4    9.66    0.47
  -1  -7  -4   10.83    0.51
  -1  -7  -4   10.36    0.49
  -1  -7  -4    9.68    0.49
   1   7   4    9.90    0.48
  -1  -8  -4    2.87    0.28
  -1  -8  -4    3.24    0.32
  -1  -8  -4    2.97    0.29
  -1  -8  -4    3.11    0.31
  -1  -8  -4    3.33    0.34
  -1  -9  -4    3.27    0.38
  -1  -9  -4    2.85    0.30
  -1  -9  -4    3.25    0.32
  -1  -9  -4    2.50    0.29
  -1 -10  -4    1.38    0.24
  -1 -10  -4    1.36    0.24
  -1 -10  -4    1.33    0.24
  -1 -10  -4    0.63    0.23
  -1 -11  -4    1.27    0.25
  -1 -11  -4    1.36    0.31
  -1 -11  -4    1.85    0.29
  -1 -12  -4    0.29    0.22
  -1 -12  -4    0.04    0.16
  -1 -12  -4    0.39    0.24
   0 -12   2   -0.09    0.19
   0 -11   2    1.43    0.29
   0 -10   2    3.81    0.46
   0  -9   2    5.39    0.49
   0  -8   2    0.09    0.13
   0  -7   2   10.89    0.54
   0  -6   2    0.10    0.11
   0  -5   2    5.49    0.32
   0  -4   2   27.15    0.88
   0   3  -2   18.70    0.56
   0  -3   2   19.14    0.63
   0   2  -2    1.82    0.09
   0   2  -2    1.57    0.09
   0  -2   2    1.62    0.14
   0  -2   2    1.64    0.09
   0  -2   2    1.79    0.10
   0  -2   2    1.77    0.10
   0   1  -2   18.19    0.55
   0   1  -2   17.87    0.51
   0   1  -2   18.14    0.51
   0   1  -2   17.77    0.55
   0  -1   2   17.80    0.52
   0  -1   2   17.64    0.55
   0  -1   2   17.83    0.52
   0  -1   2   17.54    0.55
   0   0  -2   49.28    1.28
   0   0  -2   50.29    1.44
   0   0  -2   49.80    1.39
   0   0  -2   48.74    1.43
   0   0  -2   49.91    1.39
   0   0   2   50.09    1.39
   0   0   2   51.39    1.44
   0   0   2   50.09    1.44
   0   0   2   48.65    1.27
   0   0   2   49.80    1.40
   0  -1  -2  250.74    7.14
   0  -1  -2  259.34    7.14
   0  -1  -2  252.43    6.95
   0   1   2  257.78    6.53
   0   1   2  246.03    7.00
   0   1   2  271.21    6.96
   0   1   2  256.44    7.28
   0   1   2  260.39    7.15
   0  -2  -2  205.67    5.86
   0  -2  -2  208.94    5.70
   0  -2  -2  210.25    5.71
   0  -2  -2  212.78    5.87
   0   2   2  212.49    5.87
   0   2   2  206.93    5.70
   0   2   2  211.90    5.70
   0   2   2  209.30    5.87
   0  -3  -2    7.32    0.32
   0  -3  -2    7.63    0.30
   0  -3  -2    7.28    0.30
   0  -3  -2    7.92    0.30
   0  -3  -2    7.71    0.32
   0   3   2    7.25    0.29
   0   3   2    7.71    0.29
   0   3   2    7.18    0.31
   0   3   2    7.90    0.32
   0  -4  -2    5.53    0.27
   0  -4  -2    5.33    0.26
   0  -4  -2    5.57    0.26
   0  -4  -2    5.95    0.28
   0   4   2    6.23    0.28
   0   4   2    6.01    0.24
   0  -5  -2    9.57    0.41
   0  -5  -2   10.85    0.40
   0  -5  -2   10.52    0.40
   0   5   2   10.37    0.41
   0  -6  -2    0.00    0.07
   0  -6  -2   -0.04    0.07
   0  -6  -2    0.00    0.07
   0  -6  -2   -0.05    0.10
   0  -6  -2    0.07    0.08
   0   6   2    0.00    0.06
   0  -7  -2    0.63    0.17
   0  -7  -2    0.29    0.11
   0  -7  -2    0.55    0.12
   0  -7  -2    0.58    0.12
   0  -7  -2    0.34    0.11
   0   7   2    0.68    0.12
   0  -8  -2    6.35    0.35
   0  -8  -2    6.96    0.36
   0  -8  -2    6.33    0.42
   0  -8  -2    6.10    0.34
   0  -8  -2    6.41    0.35
   0   8   2    6.00    0.32
   0  -9  -2    3.03    0.27
   0  -9  -2    2.92    0.27
   0  -9  -2    2.95    0.27
   0  -9  -2    2.93    0.27
   0  -9  -2    3.58    0.39
   0 -10  -2    1.31    0.20
   0 -10  -2    0.64    0.23
   0 -10  -2    0.74    0.17
   0 -10  -2    1.23    0.20
   0 -11  -2    0.83    0.28
   0 -11  -2    1.14    0.21
   0 -11  -2    1.02    0.22
   0 -11  -2    0.86    0.19
   0 -12  -2   -0.09    0.16
   0 -12  -2    0.32    0.15
   0 -12  -2    0.34    0.25
   0 -12  -2    0.15    0.15
  -1 -12   0    0.27    0.13
  -1 -12   0    0.04    0.13
  -1 -12   0    0.64    0.27
  -1 -11   0    0.50    0.11
  -1 -11   0    0.45    0.14
  -1 -11   0    0.50    0.24
  -1 -10   0    0.11    0.17
  -1 -10   0    0.01    0.09
  -1 -10   0    0.15    0.09
  -1 -10   0    0.17    0.09
  -1  -9   0    0.44    0.18
  -1  -9   0    0.44    0.10
  -1  -9   0    0.27    0.10
  -1  -9   0    0.35    0.11
  -1  -8   0    1.95    0.17
  -1  -8   0    1.63    0.16
  -1  -8   0    1.47    0.15
  -1  -8   0    1.31    0.23
  -1  -8   0    1.64    0.16
  -1  -7   0   16.87    0.56
  -1  -7   0   16.01    0.54
  -1  -7   0   15.85    0.56
  -1  -7   0   16.03    0.67
  -1  -7   0   16.46    0.54
   1   6   0    5.34    0.22
  -1  -6   0    5.24    0.32
  -1  -6   0    5.27    0.24
  -1  -6   0    5.48    0.23
  -1  -6   0    5.21    0.22
  -1  -6   0    5.35    0.24
   1   5   0   13.12    0.42
  -1  -5   0   12.83    0.41
  -1  -5   0   12.75    0.51
  -1  -5   0   13.07    0.44
  -1  -5   0   12.85    0.44
  -1  -5   0   12.26    0.41
   1   4   0   28.02    0.82
  -1  -4   0   26.90    0.79
  -1  -4   0   27.57    0.79
  -1  -4   0   26.73    0.83
  -1  -4   0   28.19    0.87
  -1  -4   0   27.60    0.83
   1   3   0   42.44    1.24
   1   3   0   44.89    1.25
  -1  -3   0   42.88    1.25
  -1  -3   0   43.22    1.20
  -1  -3   0   43.46    1.25
  -1  -3   0   42.69    1.20
  -1  -3   0   42.76    1.23
   1   2   0   73.52    2.00
   1   2   0   75.08    2.08
   1   2   0   71.99    2.07
   1   2   0   74.81    2.00
   1   2   0   76.21    1.99
  -1  -2   0   73.25    2.01
  -1  -2   0   72.85    1.99
  -1  -2   0   74.05    2.01
  -1  -2   0   71.91    2.08
  -1  -2   0   72.47    2.08
   1   1   0   64.36    1.88
   1   1   0   66.86    1.83
   1   1   0   66.85    1.89
   1   1   0   68.06    1.78
   1   1   0   67.44    1.83
  -1  -1   0   66.71    1.83
  -1  -1   0   67.10    1.83
  -1  -1   0   67.19    1.89
  -1  -1   0   67.27    1.78
  -1   0   0   70.51    1.93
   1  -1   0   11.25    0.36
   1  -1   0   11.57    0.35
   1  -1   0   10.94    0.37
   1  -1   0   11.55    0.35
  -1   1   0   11.35    0.31
  -1   1   0   11.27    0.36
  -1   1   0   11.79    0.35
  -1   1   0   11.49    0.37
  -1   1   0   11.57    0.37
  -1   1   0   11.83    0.35
   1  -2   0    2.41    0.12
   1  -2   0    2.27    0.11
   1  -2   0    2.18    0.12
   1  -2   0    2.30    0.11
   1  -2   0    2.27    0.14
  -1   2   0    2.43    0.12
  -1   2   0    2.41    0.13
  -1   2   0    2.32    0.10
  -1   2   0    2.20    0.12
  -1   2   0    2.43    0.10
   1  -3   0    4.47    0.21
   1  -3   0    3.96    0.16
   1  -3   0    3.86    0.18
   1  -3   0    4.19    0.18
   1  -3   0    4.02    0.16
  -1   3   0    3.92    0.17
  -1   3   0    3.79    0.17
   1  -4   0    9.32    0.32
   1  -4   0    9.24    0.34
   1  -4   0    9.46    0.34
   1  -4   0    9.57    0.39
   1  -4   0    9.55    0.32
  -1   4   0    9.83    0.33
   1  -5   0   21.97    0.75
   1  -5   0   21.63    0.67
   1  -5   0   22.40    0.66
   1  -5   0   22.08    0.70
   1  -5   0   22.69    0.70
  -1   5   0   21.34    0.68
   1  -6   0    3.46    0.18
   1  -6   0    3.56    0.18
   1  -6   0    3.31    0.19
   1  -6   0    3.45    0.19
   1  -6   0    3.96    0.31
  -1   6   0    3.25    0.17
   1  -7   0    0.45    0.09
   1  -7   0    0.51    0.10
   1  -7   0    0.42    0.15
   1  -7   0    0.41    0.09
   1  -7   0    0.56    0.09
   1  -8   0   10.17    0.41
   1  -8   0   10.23    0.53
   1  -8   0   10.39    0.42
   1  -8   0   10.11    0.41
   1  -8   0   11.00    0.42
   1  -9   0    0.04    0.14
   1  -9   0    0.46    0.11
   1  -9   0    0.30    0.10
   1  -9   0    0.28    0.10
   1  -9   0    0.16    0.09
   1 -10   0    1.35    0.16
   1 -10   0    1.44    0.17
   1 -10   0    1.45    0.29
   1 -10   0    1.62    0.19
   1 -10   0    1.21    0.18
   1 -11   0    0.85    0.13
   1 -11   0    0.22    0.22
   1 -11   0    0.50    0.15
   1 -11   0    0.80    0.17
   1 -12   0    0.87    0.18
   1 -12   0    1.24    0.21
   1 -12   0    1.29    0.33
  -2 -12  -2    0.27    0.14
  -2 -12  -2    0.23    0.18
  -2 -12  -2    0.50    0.18
  -2 -12  -2    0.49    0.27
  -2 -11  -2    0.62    0.16
  -2 -11  -2    0.69    0.25
  -2 -11  -2    0.24    0.15
  -2 -11  -2    0.44    0.18
  -2 -10  -2    1.21    0.20
  -2 -10  -2    1.20    0.20
  -2 -10  -2    0.92    0.25
  -2  -9  -2    3.05    0.28
  -2  -9  -2    2.74    0.33
  -2  -9  -2    3.20    0.28
  -2  -9  -2    2.89    0.27
   2   8   2    4.35    0.27
  -2  -8  -2    4.39    0.39
  -2  -8  -2    4.09    0.29
  -2  -8  -2    4.86    0.30
  -2  -8  -2    4.63    0.29
   2   7   2    8.33    0.38
  -2  -7  -2    8.85    0.41
  -2  -7  -2    7.86    0.44
  -2  -7  -2    8.58    0.39
  -2  -7  -2    8.68    0.41
   2   6   2   11.36    0.45
  -2  -6  -2   11.60    0.44
  -2  -6  -2   10.46    0.43
  -2  -6  -2   10.63    0.46
  -2  -6  -2   10.71    0.46
  -2  -6  -2   10.75    0.49
   2   5   2    2.54    0.20
  -2  -5  -2    3.00    0.25
  -2  -5  -2    2.95    0.19
  -2  -5  -2    3.13    0.20
  -2  -5  -2    3.13    0.22
   2   4   2   20.72    0.66
   2   4   2   21.60    0.71
  -2  -4  -2   20.86    0.69
  -2  -4  -2   20.19    0.68
  -2  -4  -2   21.01    0.71
  -2  -4  -2   20.75    0.68
  -2  -4  -2   20.91    0.71
   2   3   2    4.14    0.22
   2   3   2    3.99    0.20
   2   3   2    3.97    0.19
   2   3   2    4.29    0.22
  -2  -3  -2    3.56    0.22
  -2  -3  -2    4.33    0.23
  -2  -3  -2    4.19    0.21
  -2  -3  -2    3.93    0.21
   2   2   2    7.49    0.32
   2   2   2    7.84    0.32
   2   2   2    7.54    0.29
   2   2   2    7.82    0.30
  -2  -2  -2    7.80    0.32
  -2  -2  -2    7.83    0.30
  -2  -2  -2    7.64    0.32
  -2  -2  -2    7.84    0.30
   2   1   2    5.24    0.25
   2   1   2    4.47    0.22
   2   1   2    5.96    0.25
   2   1   2    5.48    0.23
  -2  -1  -2    5.98    0.25
  -2  -1  -2    5.38    0.25
  -2  -1  -2    5.40    0.23
   2   0   2   78.33    2.02
   2   0   2   78.32    2.20
   2   0   2   79.32    2.26
   2   0   2   78.51    2.26
   2   0   2   77.73    2.19
  -2   0  -2   81.87    2.26
  -2   0  -2   77.19    2.02
  -2   0  -2   80.60    2.19
  -2   0  -2   78.85    2.26
   2  -1   2   59.58    1.71
   2  -1   2   57.85    1.65
   2  -1   2   58.43    1.65
  -2   1  -2   58.79    1.50
  -2   1  -2   60.01    1.64
  -2   1  -2   59.72    1.60
  -2   1  -2   57.94    1.70
  -2   1  -2   60.46    1.71
   2  -2   2  121.23    3.35
   2  -2   2  115.63    3.39
   2  -2   2  118.75    3.19
   2  -2   2  117.45    3.25
   2  -2   2  118.11    3.35
   2  -2   2  118.94    3.25
  -2   2  -2  117.68    3.34
  -2   2  -2  122.28    3.19
  -2   2  -2  122.36    3.35
   2  -3   2    0.63    0.07
   2  -3   2    0.59    0.06
   2  -3   2    0.59    0.08
   2  -3   2    0.81    0.09
   2  -3   2    0.62    0.11
   2  -3   2    0.67    0.07
  -2   3  -2    0.67    0.08
   2  -4   2   93.51    2.63
   2  -4   2   94.34    2.63
   2  -4   2   92.07    2.58
  -2   4  -2   92.89    2.61
   2  -5   2    8.41    0.30
   2  -5   2    8.13    0.39
   2  -5   2    8.15    0.30
  -2   5  -2    8.33    0.31
   2  -6   2    3.66    0.32
   2  -6   2    3.89    0.18
  -2   6  -2    3.81    0.19
   2  -7   2   -0.07    0.11
   2  -8   2    3.09    0.33
   2  -9   2    0.23    0.08
   2  -9   2    0.08    0.17
   2 -10   2   -0.03    0.08
   2 -10   2   -0.06    0.17
   2 -10   2    0.01    0.08
   2 -11   2   -0.06    0.09
   2 -11   2    0.14    0.10
   2 -11   2   -0.19    0.16
   2 -12   2    0.72    0.29
   2 -12   2    0.62    0.15
   2 -12   2    0.43    0.13
  -3 -12  -4    0.20    0.20
  -3 -12  -4    0.16    0.21
  -3 -12  -4   -0.07    0.14
  -3 -11  -4    0.51    0.19
  -3 -11  -4    0.46    0.20
  -3 -11  -4    0.63    0.26
  -3 -10  -4    7.51    0.49
  -3 -10  -4    8.00    0.49
  -3 -10  -4    8.28    0.55
  -3 -10  -4    7.91    0.50
  -3  -9  -4    0.44    0.17
  -3  -9  -4    0.23    0.14
  -3  -9  -4    0.32    0.15
  -3  -9  -4    0.38    0.19
  -3  -8  -4    0.01    0.14
  -3  -8  -4    0.23    0.14
  -3  -8  -4   -0.05    0.12
   3   7   4    0.34    0.13
  -3  -7  -4    0.60    0.15
  -3  -7  -4    0.51    0.16
  -3  -7  -4    0.55    0.15
  -3  -7  -4    0.76    0.19
   3   6   4   15.39    0.63
  -3  -6  -4   15.03    0.64
  -3  -6  -4   14.91    0.61
  -3  -6  -4   15.83    0.65
   3   5   4    0.53    0.13
   3   5   4    0.79    0.12
  -3  -5  -4    0.74    0.15
  -3  -5  -4    0.66    0.13
  -3  -5  -4    0.61    0.15
   3   4   4    1.89    0.20
   3   4   4    2.08    0.23
  -3  -4  -4    1.81    0.19
  -3  -4  -4    1.57    0.20
  -3  -4  -4    2.02    0.21
   3   3   4    4.66    0.26
   3   3   4    4.67    0.29
   3   3   4    4.84    0.27
  -3  -3  -4    4.86    0.29
  -3  -3  -4    4.43    0.29
  -3  -3  -4    4.14    0.26
   3   2   4   37.12    1.25
   3   2   4   39.38    1.27
   3   2   4   39.30    1.21
   3   2   4   39.88    1.21
  -3  -2  -4   38.66    1.26
  -3  -2  -4   39.77    1.21
  -3  -2  -4   42.04    1.27
   3   1   4   10.80    0.42
   3   1   4   10.68    0.35
   3   1   4   10.46    0.44
   3   1   4   10.95    0.43
   3   1   4   10.59    0.45
  -3  -1  -4   10.87    0.45
  -3  -1  -4   10.47    0.42
  -3  -1  -4   10.38    0.41
   3   0   4   42.12    1.28
   3   0   4   43.32    1.12
   3   0   4   42.21    1.27
   3   0   4   42.55    1.32
   3   0   4   42.61    1.33
  -3   0  -4   42.06    1.25
  -3   0  -4   43.73    1.16
  -3   0  -4   40.68    1.32
  -3   0  -4   44.09    1.27
   3  -1   4    2.01    0.16
   3  -1   4    1.08    0.14
   3  -1   4    1.86    0.17
  -3   1  -4    1.90    0.17
  -3   1  -4    1.74    0.11
  -3   1  -4    1.67    0.13
   3  -2   4    4.07    0.23
   3  -2   4    4.38    0.24
   3  -2   4    4.22    0.22
  -3   2  -4    4.75    0.24
   3  -3   4   10.71    0.42
   3  -3   4   10.88    0.40
   3  -3   4   11.83    0.44
  -3   3  -4   11.92    0.42
   3  -4   4   21.61    0.66
   3  -4   4   20.67    0.66
   3  -4   4   21.96    0.70
   3  -4   4   20.67    0.69
  -3   4  -4   21.23    0.67
   3  -5   4    2.20    0.15
   3  -5   4    2.05    0.14
   3  -5   4    2.06    0.24
   3  -5   4    2.06    0.14
   3  -5   4    2.03    0.16
   3  -6   4    2.68    0.30
   3  -7   4   10.30    0.54
   3  -8   4    3.48    0.37
   3  -9   4    2.37    0.35
   3 -10   4    0.80    0.25
   3 -11   4    0.71    0.28
  -4 -12  -6    0.50    0.24
  -4 -11  -6    1.82    0.37
  -4 -11  -6    1.33    0.29
  -4 -11  -6    1.67    0.33
  -4 -10  -6    0.15    0.18
  -4 -10  -6    0.46    0.19
  -4 -10  -6    0.33    0.21
  -4  -9  -6    0.47    0.21
  -4  -9  -6    0.61    0.22
  -4  -9  -6    0.88    0.21
  -4  -8  -6    8.75    0.57
  -4  -8  -6    9.06    0.52
   4   7   6    0.20    0.16
  -4  -7  -6    0.12    0.12
  -4  -7  -6    0.15    0.15
   4   6   6   13.01    0.64
  -4  -6  -6   12.96    0.65
  -4  -6  -6   13.35    0.61
  -4  -6  -6   13.88    0.63
   4   5   6    0.06    0.12
   4   5   6    0.27    0.11
  -4  -5  -6    0.28    0.14
  -4  -5  -6    0.22    0.12
  -4  -5  -6    0.08    0.11
   4   4   6   12.63    0.60
   4   4   6   13.13    0.56
   4   4   6   13.51    0.57
  -4  -4  -6   13.08    0.56
  -4  -4  -6   12.82    0.57
  -4  -4  -6   11.53    0.59
   4   3   6    3.84    0.28
   4   3   6    4.04    0.34
   4   3   6    3.71    0.34
  -4  -3  -6    3.95    0.28
  -4  -3  -6    2.95    0.30
   4   2   6   16.70    0.65
   4   2   6   17.25    0.70
   4   2   6   16.49    0.55
   4   2   6   17.12    0.66
  -4  -2  -6   16.82    0.64
  -4  -2  -6   16.09    0.69
  -4  -2  -6   17.61    0.67
   4   1   6   21.25    0.81
   4   1   6   20.96    0.63
   4   1   6   20.92    0.76
   4   1   6   23.39    0.83
   4   1   6   21.33    0.78
  -4  -1  -6   20.54    0.74
  -4  -1  -6   20.56    0.80
   4   0   6    0.44    0.13
   4   0   6    0.32    0.11
   4   0   6    0.38    0.13
   4   0   6    0.32    0.12
  -4   0  -6    0.39    0.12
   4  -1   6    0.33    0.11
   4  -1   6    0.26    0.10
   4  -1   6   -0.06    0.09
  -4   1  -6    0.22    0.10
  -4   1  -6    0.16    0.07
   4  -2   6   20.26    0.74
   4  -2   6   21.05    0.72
   4  -2   6   15.84    0.71
  -4   2  -6   20.53    0.73
  -4   2  -6   21.74    0.61
   4  -3   6    3.37    0.25
   4  -3   6    3.86    0.26
   4  -3   6    3.02    0.26
  -4   3  -6    4.21    0.18
  -4   3  -6    3.69    0.24
   4  -4   6    1.32    0.17
   4  -4   6    1.31    0.17
   4  -4   6    1.44    0.15
   4  -4   6    0.97    0.15
  -4   4  -6    1.45    0.16
   4  -5   6    0.14    0.09
   4  -5   6    0.08    0.09
   4  -5   6    0.05    0.09
   4  -5   6    0.12    0.08
   4  -6   6    3.86    0.24
   4  -6   6    3.50    0.25
   4  -6   6    3.39    0.23
   4  -6   6    3.99    0.25
   4  -7   6    0.42    0.11
   4  -7   6    0.40    0.12
   4  -8   6    0.18    0.10
   4  -8   6    0.40    0.11
   4  -9   6    0.86    0.15
  -5 -10  -8   -0.05    0.19
  -5 -10  -8    0.05    0.19
  -5  -9  -8    4.07    0.45
  -5  -8  -8    2.26    0.39
  -5  -7  -8    6.07    0.56
   5   6   8    1.15    0.27
  -5  -6  -8    1.29    0.27
   5   5   8    2.51    0.34
  -5  -5  -8    2.96    0.36
   5   4   8    8.13    0.38
   5   4   8    7.55    0.51
  -5  -4  -8    8.08    0.53
   5   3   8    0.40    0.13
   5   3   8    0.59    0.12
   5   3   8    0.64    0.20
  -5  -3  -8    0.76    0.21
   5   2   8    0.14    0.12
   5   2   8    0.17    0.08
   5   2   8    0.22    0.14
   5   2   8    0.15    0.08
   5   2   8    0.00    0.11
  -5  -2  -8    0.13    0.13
   5   1   8    0.11    0.13
   5   1   8    0.04    0.09
   5   1   8    0.14    0.13
   5   1   8    0.29    0.14
  -5  -1  -8    0.35    0.14
   5   0   8    0.22    0.13
   5   0   8    0.06    0.12
   5   0   8    0.12    0.12
   5   0   8    0.18    0.12
   5   0   8   -0.01    0.11
  -5   0  -8    0.07    0.11
   5  -1   8    9.16    0.48
   5  -1   8   10.51    0.51
   5  -1   8    8.34    0.49
  -5   1  -8    9.20    0.49
   5  -2   8    1.92    0.24
   5  -2   8    1.82    0.24
   5  -2   8    1.58    0.22
   5  -3   8    1.81    0.23
   5  -3   8    1.63    0.23
   5  -3   8    1.58    0.22
   5  -4   8    1.23    0.21
   5  -4   8    0.93    0.18
   5  -4   8    0.80    0.17
   5  -5   8    2.25    0.26
   5  -5   8    2.36    0.26
   5  -5   8    2.73    0.20
   5  -5   8    2.32    0.26
   5  -6   8    1.01    0.20
   5  -6   8    1.13    0.18
   5  -6   8    1.16    0.19
   5  -7   8    0.01    0.14
   5  -7   8    0.37    0.12
   5  -7   8    0.22    0.13
   5  -8   8   -0.13    0.13
   5  -8   8   -0.03    0.12
   5  -9   8   -0.17    0.13
   5  -9   8    0.16    0.14
  -6  -9 -10   -0.10    0.25
  -6  -8 -10    0.13    0.20
  -6  -7 -10    0.54    0.26
   6   6  10    0.06    0.20
  -6  -6 -10    0.02    0.20
   6   5  10    1.86    0.35
  -6  -5 -10    2.17    0.37
   6   4  10    0.54    0.13
   6   4  10    0.96    0.27
  -6  -4 -10    0.81    0.26
   6   3  10    7.71    0.34
   6   3  10    7.86    0.34
   6   3  10    9.00    0.61
  -6  -3 -10    6.35    0.59
   6   2  10    1.93    0.34
   6   1  10    3.65    0.41
   6   0  10    4.26    0.44
   6   0  10    3.63    0.38
   6  -1  10    2.38    0.29
   6  -1  10    2.96    0.36
   6  -2  10    0.34    0.16
   6  -2  10    0.44    0.19
   6  -3  10    1.04    0.24
   6  -3  10    0.68    0.22
   6  -4  10   -0.16    0.13
   6  -4  10   -0.33    0.12
   6  -5  10    0.66    0.21
   6  -5  10    0.34    0.19
   6  -5  10    0.60    0.19
   6  -5  10    0.50    0.13
   6  -6  10    0.29    0.18
   6  -6  10    0.06    0.15
   6  -6  10   -0.03    0.17
   7   5  12    0.38    0.26
   7   4  12    0.36    0.27
   7   3  12   -0.02    0.19
   7   2  12   -0.13    0.15
   7   2  12    0.36    0.25
   7   1  12    0.69    0.26
   7   0  12    0.17    0.23
   7  -1  12   -0.07    0.19
   7  -2  12    0.54    0.25
   5  -1  13    0.59    0.27
   5   0  13    0.05    0.23
   5   1  13    1.25    0.23
   5   1  13    1.66    0.35
   5   2  13    0.64    0.28
   5   3  13    0.32    0.28
   5   4  13    0.65    0.31
   4  -6  11    0.01    0.18
   4  -6  11   -0.10    0.12
   4  -5  11   -0.06    0.13
   4  -5  11   -0.13    0.15
   4  -4  11    0.17    0.17
   4  -4  11    0.56    0.20
   4  -3  11    0.21    0.17
   4  -3  11    0.17    0.15
   4  -2  11    0.83    0.24
   4  -2  11    0.51    0.19
   4  -1  11    0.05    0.13
   4  -1  11    0.38    0.20
   4   0  11    0.13    0.14
   4   0  11    0.11    0.17
   4   0  11    0.09    0.12
   4   1  11    4.77    0.49
  -4  -2 -11    0.34    0.13
   4   2  11    0.62    0.24
   4   3  11    0.02    0.16
   4   4  11    0.37    0.23
   4   4  11    0.40    0.12
   4   5  11    3.47    0.30
   4   5  11    3.83    0.46
  -4  -6 -11    1.55    0.35
   4   6  11    1.35    0.21
   4   6  11    1.39    0.35
  -4  -7 -11   -0.06    0.19
   4   7  11    0.22    0.15
  -4  -8 -11    1.27    0.32
   3  -8   9    0.16    0.15
   3  -7   9    0.47    0.14
   3  -7   9    0.99    0.19
   3  -6   9    1.34    0.21
   3  -6   9    0.98    0.18
   3  -6   9    1.16    0.17
   3  -5   9    1.33    0.22
   3  -5   9    1.12    0.19
   3  -5   9    1.34    0.19
   3  -4   9    1.41    0.20
   3  -4   9    0.97    0.18
   3  -4   9    1.21    0.21
   3  -3   9    1.32    0.22
   3  -3   9    1.90    0.23
   3  -3   9    2.07    0.26
   3  -2   9    4.84    0.36
   3  -2   9    4.88    0.34
   3  -2   9    4.51    0.38
   3  -1   9    0.44    0.14
   3  -1   9    0.54    0.18
   3  -1   9    0.81    0.20
  -3   0  -9    2.09    0.27
   3   0   9    2.24    0.29
   3   0   9    2.19    0.29
   3   0   9    2.21    0.25
  -3  -1  -9    0.52    0.17
   3   1   9    0.21    0.15
   3   1   9    0.15    0.13
   3   1   9    0.39    0.15
  -3  -2  -9    1.92    0.29
   3   2   9    1.55    0.14
   3   2   9    1.60    0.26
   3   2   9    1.60    0.14
   3   2   9    1.17    0.21
  -3  -3  -9    2.71    0.35
   3   3   9    2.69    0.33
   3   3   9    2.57    0.21
   3   3   9    2.33    0.20
   3   3   9    2.33    0.31
  -3  -4  -9    0.44    0.21
   3   4   9    0.16    0.11
   3   4   9    0.19    0.18
  -3  -5  -9    1.39    0.28
   3   5   9    1.11    0.17
   3   5   9    1.16    0.26
  -3  -6  -9    1.67    0.31
   3   6   9    1.56    0.30
   3   6   9    1.59    0.22
  -3  -7  -9    1.12    0.27
  -3  -8  -9    0.40    0.22
  -3  -9  -9    2.23    0.35
  -3 -10  -9    0.31    0.25
   2  -7   7    0.89    0.12
   2  -7   7    0.89    0.14
   2  -6   7    5.74    0.27
   2  -6   7    5.61    0.29
   2  -6   7    6.00    0.30
   2  -5   7    0.04    0.08
   2  -5   7   -0.08    0.08
   2  -5   7    0.05    0.07
   2  -5   7    0.11    0.09
   2  -4   7    0.21    0.10
   2  -4   7    0.13    0.08
   2  -4   7    0.11    0.06
   2  -4   7    0.13    0.08
   2  -4   7    0.20    0.10
  -2   3  -7    0.80    0.09
  -2   3  -7    0.56    0.12
   2  -3   7    0.53    0.13
   2  -3   7    0.43    0.12
   2  -3   7    0.86    0.15
   2  -3   7    0.53    0.12
  -2   2  -7    3.96    0.27
   2  -2   7    4.40    0.28
   2  -2   7    4.68    0.29
   2  -2   7    4.52    0.28
   2  -2   7    4.56    0.30
  -2   1  -7    1.74    0.20
   2  -1   7    1.51    0.20
   2  -1   7    1.54    0.16
   2  -1   7    1.63    0.21
   2  -1   7    1.56    0.20
   2  -1   7    1.54    0.19
  -2   0  -7    1.24    0.18
   2   0   7    1.66    0.22
   2   0   7    1.30    0.17
   2   0   7    1.37    0.18
   2   0   7    1.57    0.21
  -2  -1  -7    8.85    0.40
  -2  -1  -7    8.51    0.45
   2   1   7    9.09    0.46
   2   1   7    8.49    0.29
   2   1   7    9.36    0.45
   2   1   7    8.54    0.30
   2   1   7    9.22    0.46
   2   1   7    9.15    0.43
  -2  -2  -7   31.56    1.12
  -2  -2  -7   30.48    1.03
   2   2   7   29.81    1.10
   2   2   7   31.50    1.06
   2   2   7   31.89    1.07
   2   2   7   30.81    0.90
  -2  -3  -7    0.71    0.16
  -2  -3  -7    0.64    0.14
  -2  -3  -7    0.62    0.17
   2   3   7    0.69    0.15
   2   3   7    0.60    0.12
   2   3   7    0.46    0.15
  -2  -4  -7    8.35    0.40
  -2  -4  -7    8.88    0.51
  -2  -4  -7    9.06    0.47
   2   4   7    9.37    0.39
   2   4   7    8.95    0.50
  -2  -5  -7    0.67    0.17
  -2  -5  -7    0.42    0.17
  -2  -5  -7    0.73    0.16
   2   5   7    0.50    0.17
   2   5   7    0.35    0.12
  -2  -6  -7    0.09    0.11
  -2  -6  -7    0.13    0.14
   2   6   7    0.03    0.13
  -2  -7  -7   -0.01    0.11
  -2  -7  -7    0.33    0.19
   2   7   7    0.04    0.12
  -2  -8  -7    1.26    0.25
  -2  -8  -7    1.49    0.29
  -2  -9  -7   -0.16    0.16
  -2 -10  -7    0.04    0.17
  -2 -11  -7    0.96    0.29
  -2 -11  -7    0.99    0.27
   1  -5   5    6.94    0.27
   1  -4   5    8.38    0.33
   1  -4   5    8.23    0.33
   1  -4   5    8.67    0.31
   1  -4   5    7.63    0.31
  -1   3  -5    8.92    0.35
   1  -3   5    9.67    0.38
   1  -3   5    8.95    0.37
   1  -3   5   10.10    0.35
   1  -3   5    9.57    0.36
   1  -3   5    9.19    0.35
  -1   2  -5   22.62    0.73
   1  -2   5   21.75    0.71
   1  -2   5   22.13    0.74
   1  -2   5   22.83    0.75
   1  -2   5   21.61    0.71
  -1   1  -5   43.97    1.16
  -1   1  -5   42.58    1.33
   1  -1   5   43.76    1.29
   1  -1   5   43.55    1.30
   1  -1   5   43.54    1.35
  -1   0  -5    4.47    0.23
  -1   0  -5    4.52    0.26
  -1   0  -5    4.55    0.20
   1   0   5    4.22    0.24
   1   0   5    4.68    0.27
   1   0   5    4.50    0.26
   1   0   5    4.59    0.24
  -1  -1  -5    5.79    0.29
  -1  -1  -5    6.81    0.31
  -1  -1  -5    6.70    0.34
   1   1   5    6.18    0.24
   1   1   5    5.83    0.31
   1   1   5    6.39    0.33
   1   1   5    6.57    0.31
   1   1   5    6.36    0.33
  -1  -2  -5   20.40    0.74
  -1  -2  -5   20.55    0.70
  -1  -2  -5   19.58    0.69
   1   2   5   19.97    0.60
   1   2   5   19.65    0.69
   1   2   5   18.92    0.72
   1   2   5   20.79    0.74
   1   2   5   20.05    0.70
  -1  -3  -5    1.62    0.21
  -1  -3  -5    1.59    0.18
  -1  -3  -5    1.71    0.18
   1   3   5    2.43    0.24
   1   3   5    1.80    0.17
  -1  -4  -5   16.42    0.66
  -1  -4  -5   15.65    0.58
  -1  -4  -5   15.16    0.60
  -1  -4  -5   16.64    0.65
  -1  -4  -5   15.33    0.61
   1   4   5   15.28    0.59
   1   4   5   15.80    0.64
  -1  -5  -5   10.94    0.48
  -1  -5  -5   10.29    0.48
  -1  -5  -5   11.21    0.51
  -1  -5  -5   10.10    0.50
   1   5   5   10.97    0.51
   1   5   5    9.77    0.45
  -1  -6  -5    2.92    0.29
  -1  -6  -5    3.54    0.30
  -1  -6  -5    3.26    0.30
  -1  -6  -5    3.16    0.29
   1   6   5    3.91    0.35
  -1  -7  -5   12.26    0.61
  -1  -7  -5   12.60    0.58
  -1  -7  -5   13.27    0.59
  -1  -7  -5   14.05    0.63
   1   7   5   12.65    0.60
  -1  -8  -5    3.58    0.34
  -1  -8  -5    2.89    0.32
  -1  -8  -5    3.89    0.37
  -1  -9  -5    4.67    0.41
  -1  -9  -5    5.06    0.49
  -1  -9  -5    5.25    0.44
  -1  -9  -5    5.10    0.43
  -1 -10  -5   -0.10    0.13
  -1 -10  -5   -0.17    0.14
  -1 -10  -5   -0.09    0.16
  -1 -11  -5    0.03    0.17
  -1 -11  -5   -0.09    0.15
  -1 -11  -5    0.16    0.22
  -1 -12  -5    1.05    0.26
  -1 -12  -5    0.58    0.28
  -1 -12  -5    0.68    0.23
   0 -12   3    0.58    0.29
   0 -11   3    0.36    0.23
   0 -10   3    0.17    0.20
   0  -9   3    1.27    0.28
   0  -8   3    4.90    0.45
   0  -7   3    3.28    0.35
   0  -6   3   13.64    0.60
   0  -5   3    2.13    0.24
   0  -4   3   10.73    0.35
   0  -4   3   11.21    0.35
   0  -4   3   10.48    0.46
   0   3  -3   27.73    0.81
   0  -3   3   28.00    0.82
   0  -3   3   26.71    0.82
   0   2  -3    5.94    0.24
   0  -2   3    6.22    0.24
   0  -2   3    6.06    0.22
   0  -2   3    6.13    0.25
   0  -2   3    5.98    0.23
   0  -2   3    5.75    0.24
   0   1  -3    1.95    0.11
   0   1  -3    1.52    0.11
   0   1  -3    1.88    0.13
   0   1  -3    1.75    0.13
   0  -1   3    1.40    0.11
   0  -1   3    1.56    0.12
   0  -1   3    1.82    0.13
   0   0  -3    1.91    0.13
   0   0  -3    1.84    0.15
   0   0  -3    1.84    0.12
   0   0  -3    1.61    0.14
   0   0  -3    1.69    0.10
   0   0   3    1.93    0.15
   0   0   3    1.83    0.09
   0   0   3    1.83    0.13
   0   0   3    1.83    0.13
   0   0   3    1.21    0.12
   0  -1  -3    5.75    0.26
   0  -1  -3    5.30    0.26
   0  -1  -3    5.46    0.23
   0  -1  -3    4.87    0.23
   0   1   3    5.38    0.20
   0   1   3    5.67    0.26
   0   1   3    4.77    0.23
   0   1   3    5.35    0.24
   0   1   3    5.40    0.26
   0  -2  -3    0.65    0.09
   0  -2  -3    0.49    0.09
   0  -2  -3    0.80    0.12
   0  -2  -3    0.56    0.11
   0   2   3    0.37    0.07
   0   2   3    0.73    0.12
   0   2   3    0.53    0.09
   0  -3  -3    0.19    0.07
   0  -3  -3    0.11    0.07
   0  -3  -3    0.24    0.08
   0  -3  -3    0.16    0.06
   0   3   3    0.08    0.05
   0   3   3    0.12    0.06
   0   3   3    0.08    0.06
   0   3   3    0.17    0.08
   0  -4  -3   14.75    0.54
   0  -4  -3   14.32    0.56
   0  -4  -3   14.26    0.54
   0  -4  -3   15.78    0.57
   0  -4  -3   14.75    0.53
   0   4   3   15.07    0.52
   0   4   3   14.65    0.56
   0  -5  -3    0.59    0.13
   0  -5  -3    0.71    0.13
   0  -5  -3    0.55    0.10
   0  -5  -3    0.71    0.12
   0   5   3    0.64    0.12
   0  -6  -3   15.34    0.58
   0  -6  -3   15.50    0.61
   0  -6  -3   15.24    0.61
   0  -6  -3   15.62    0.58
   0   6   3   15.06    0.60
   0  -7  -3    7.19    0.37
   0  -7  -3    6.62    0.36
   0  -7  -3    6.97    0.38
   0   7   3    6.89    0.37
   0  -8  -3    1.95    0.22
   0  -8  -3    2.12    0.29
   0  -8  -3    1.88    0.22
   0  -8  -3    2.13    0.24
   0  -8  -3    2.37    0.25
   0  -9  -3    3.41    0.31
   0  -9  -3    3.65    0.32
   0  -9  -3    3.95    0.41
   0  -9  -3    3.22    0.31
   0 -10  -3    0.02    0.14
   0 -10  -3   -0.12    0.12
   0 -10  -3    0.04    0.19
   0 -10  -3    0.13    0.13
   0 -11  -3    3.38    0.34
   0 -11  -3    3.07    0.33
   0 -11  -3    2.67    0.39
   0 -11  -3    2.39    0.31
   0 -12  -3   -0.01    0.15
   0 -12  -3   -0.01    0.22
   0 -12  -3   -0.07    0.19
  -1 -12   1    0.26    0.24
  -1 -12   1    0.27    0.13
  -1 -11   1    0.04    0.10
  -1 -11   1    0.31    0.21
  -1 -10   1    1.80    0.18
  -1 -10   1    1.98    0.19
  -1 -10   1    1.76    0.32
  -1  -9   1   12.74    0.65
  -1  -9   1   12.04    0.45
  -1  -9   1   12.29    0.46
  -1  -8   1    1.27    0.13
  -1  -8   1    1.23    0.12
  -1  -8   1    0.99    0.22
  -1  -7   1   14.24    0.47
  -1  -7   1   13.29    0.61
  -1  -7   1   13.90    0.45
  -1  -7   1   13.60    0.46
  -1  -6   1    2.99    0.28
  -1  -6   1    3.38    0.17
  -1  -6   1    3.08    0.16
  -1  -5   1    1.39    0.18
  -1  -5   1    1.37    0.11
  -1  -5   1    1.63    0.12
   1   4  -1    5.96    0.21
  -1  -4   1    6.31    0.24
  -1  -4   1    5.88    0.23
  -1  -4   1    5.71    0.30
   1   3  -1    0.40    0.06
   1   3  -1    0.44    0.06
  -1  -3   1    0.51    0.05
  -1  -3   1    0.44    0.05
  -1  -3   1    0.31    0.06
  -1  -3   1    0.43    0.07
  -1  -3   1    0.37    0.09
   1   2  -1   15.54    0.48
   1   2  -1   15.33    0.48
   1   2  -1   15.79    0.50
   1   2  -1   15.69    0.49
  -1  -2   1   15.18    0.48
  -1  -2   1   15.14    0.48
  -1  -2   1   15.51    0.46
  -1  -2   1   15.19    0.50
  -1  -2   1   15.65    0.46
   1   1  -1    1.18    0.09
   1   1  -1    1.23    0.10
   1   1  -1    1.34    0.08
   1   1  -1    1.16    0.06
   1   1  -1    1.15    0.10
   1   1  -1    1.37    0.10
   1   1  -1    1.17    0.08
  -1  -1   1    1.28    0.09
  -1  -1   1    1.14    0.09
  -1  -1   1    1.13    0.08
  -1  -1   1    1.29    0.10
   1   0  -1   57.52    1.60
   1   0  -1   53.38    1.54
   1   0  -1   56.78    1.62
   1   0  -1   55.30    1.43
   1   0  -1   54.47    1.54
   1   0  -1   55.13    1.59
   1   0  -1   55.05    1.59
  -1   0   1   56.08    1.55
  -1   0   1   54.86    1.59
  -1   0   1   56.78    1.60
  -1   0   1   55.53    1.43
  -1   0   1   55.86    1.62
  -1   0   1   54.80    1.54
   1  -1  -1  109.84    3.01
   1  -1  -1  109.02    3.01
   1  -1  -1  109.41    3.10
   1  -1  -1  109.62    3.10
  -1   1   1  110.11    2.79
  -1   1   1  109.05    3.10
  -1   1   1  110.48    3.10
  -1   1   1  111.92    3.10
  -1   1   1  109.14    3.14
  -1   1   1  110.47    3.01
   1  -2  -1   62.20    1.74
   1  -2  -1   60.84    1.74
   1  -2  -1   61.31    1.80
   1  -2  -1   63.31    1.80
  -1   2   1   61.80    1.73
  -1   2   1   62.61    1.80
  -1   2   1   63.13    1.74
  -1   2   1   61.67    1.80
   1  -3  -1   35.48    1.04
   1  -3  -1   34.88    1.08
   1  -3  -1   35.14    1.04
  -1   3   1   35.83    1.07
  -1   3   1   34.36    1.07
  -1   3   1   35.61    1.02
  -1   3   1   36.90    1.02
   1  -4  -1   13.86    0.47
   1  -4  -1   14.24    0.50
   1  -4  -1   13.51    0.47
  -1   4   1   13.65    0.49
   1  -5  -1   27.90    0.90
   1  -5  -1   27.58    0.85
   1  -5  -1   27.64    0.85
   1  -5  -1   27.12    0.88
   1  -5  -1   27.46    0.89
  -1   5   1   26.84    0.87
  -1   5   1   28.49    0.88
   1  -6  -1    6.03    0.35
   1  -6  -1    5.82    0.28
   1  -6  -1    6.29    0.31
   1  -6  -1    6.08    0.31
   1  -6  -1    6.71    0.29
  -1   6   1    6.55    0.30
  -1   6   1    7.12    0.30
   1  -7  -1    0.50    0.17
   1  -7  -1    0.68    0.12
   1  -7  -1    0.54    0.11
   1  -7  -1    0.55    0.12
   1  -7  -1    0.65    0.12
  -1   7   1    0.80    0.12
   1  -8  -1    0.85    0.14
   1  -8  -1    0.77    0.19
   1  -8  -1    0.83    0.14
   1  -8  -1    0.89    0.14
   1  -8  -1    0.83    0.15
  -1   8   1    0.75    0.14
   1  -9  -1    0.09    0.17
   1  -9  -1    0.58    0.13
   1  -9  -1    0.54    0.13
   1  -9  -1    0.46    0.13
   1  -9  -1    0.35    0.11
   1 -10  -1    8.01    0.43
   1 -10  -1    8.03    0.54
   1 -10  -1    8.01    0.42
   1 -10  -1    8.22    0.41
   1 -11  -1    1.16    0.30
   1 -11  -1    0.99    0.18
   1 -11  -1    0.91    0.17
   1 -11  -1    1.06    0.20
   1 -12  -1    0.05    0.11
   1 -12  -1    0.00    0.13
   1 -12  -1    0.06    0.15
   1 -12  -1   -0.01    0.20
  -2 -12  -1    0.38    0.18
  -2 -12  -1   -0.01    0.13
  -2 -12  -1    0.33    0.14
  -2 -12  -1   -0.01    0.21
  -2 -11  -1    0.78    0.24
  -2 -11  -1    1.23    0.18
  -2 -11  -1    1.08    0.20
  -2 -10  -1    2.23    0.25
  -2 -10  -1    2.74    0.37
  -2 -10  -1    2.61    0.25
  -2  -9  -1    0.18    0.11
  -2  -9  -1    0.09    0.10
  -2  -9  -1   -0.02    0.08
  -2  -9  -1    0.11    0.15
  -2  -8  -1    2.48    0.23
  -2  -8  -1    2.52    0.30
  -2  -8  -1    2.24    0.22
  -2  -8  -1    2.66    0.23
  -2  -8  -1    2.90    0.24
   2   7   1    9.06    0.39
  -2  -7  -1   10.03    0.42
  -2  -7  -1   10.02    0.42
  -2  -7  -1    9.95    0.41
  -2  -7  -1    9.54    0.40
  -2  -7  -1    9.61    0.48
   2   6   1    0.59    0.10
  -2  -6  -1    0.39    0.10
  -2  -6  -1    0.42    0.10
  -2  -6  -1    0.30    0.10
  -2  -6  -1    0.34    0.09
  -2  -6  -1    0.34    0.12
   2   5   1   95.09    2.76
  -2  -5  -1   98.24    2.69
  -2  -5  -1   96.34    2.68
  -2  -5  -1   98.14    2.78
  -2  -5  -1   94.72    2.69
  -2  -5  -1   93.56    2.77
   2   4   1    6.14    0.28
  -2  -4  -1    6.50    0.30
  -2  -4  -1    6.54    0.27
  -2  -4  -1    6.74    0.29
  -2  -4  -1    6.58    0.30
  -2  -4  -1    6.51    0.27
   2   3   1   20.94    0.66
   2   3   1   20.91    0.61
   2   3   1   20.33    0.62
   2   3   1   19.64    0.65
  -2  -3  -1   19.96    0.66
  -2  -3  -1   19.89    0.63
  -2  -3  -1   20.52    0.63
  -2  -3  -1   18.91    0.62
   2   2   1   63.57    1.88
   2   2   1   64.19    1.81
   2   2   1   65.12    1.82
   2   2   1   62.97    1.88
  -2  -2  -1   64.64    1.82
  -2  -2  -1   68.20    1.88
  -2  -2  -1   65.53    1.83
  -2  -2  -1   63.27    1.88
  -2  -2  -1   66.01    1.76
   2   1   1  191.02    5.15
   2   1   1  190.30    4.79
   2   1   1  185.01    5.29
  -2  -1  -1  187.97    5.30
  -2  -1  -1  184.31    5.29
  -2  -1  -1  192.84    5.16
  -2  -1  -1  193.05    5.15
  -2  -1  -1  191.02    4.97
   2   0   1   24.07    0.74
   2   0   1   23.62    0.71
   2   0   1   23.55    0.71
  -2   0  -1   23.26    0.64
  -2   0  -1   23.80    0.74
  -2   0  -1   23.58    0.71
  -2   0  -1   23.94    0.74
   2  -1   1    3.62    0.16
   2  -1   1    2.98    0.17
   2  -1   1    3.34    0.16
   2  -1   1    3.22    0.17
   2  -1   1    3.34    0.13
   2  -1   1    3.74    0.18
  -2   1  -1    3.68    0.17
  -2   1  -1    3.67    0.17
  -2   1  -1    3.77    0.16
  -2   1  -1    3.47    0.15
  -2   1  -1    3.36    0.13
  -2   1  -1    3.52    0.13
   2  -2   1    9.69    0.31
   2  -2   1    8.97    0.33
   2  -2   1    9.16    0.32
   2  -2   1    9.04    0.32
   2  -2   1    9.41    0.34
   2  -2   1    9.35    0.32
  -2   2  -1    9.00    0.33
  -2   2  -1    9.68    0.35
  -2   2  -1    9.31    0.30
  -2   2  -1    9.57    0.30
  -2   2  -1    9.14    0.33
  -2   2  -1    9.48    0.32
   2  -3   1   12.25    0.42
   2  -3   1   12.08    0.39
   2  -3   1   11.91    0.42
   2  -3   1   12.30    0.42
   2  -3   1   12.48    0.39
   2  -3   1   11.71    0.41
  -2   3  -1   12.49    0.43
  -2   3  -1   12.28    0.41
   2  -4   1    2.62    0.16
   2  -4   1    2.40    0.13
   2  -4   1    2.50    0.20
   2  -4   1    2.42    0.15
   2  -4   1    2.33    0.13
   2  -4   1    2.46    0.15
  -2   4  -1    2.72    0.16
  -2   4  -1    2.48    0.15
   2  -5   1    4.77    0.23
   2  -5   1    5.01    0.21
   2  -5   1    4.93    0.23
   2  -5   1    4.57    0.28
   2  -5   1    5.01    0.21
  -2   5  -1    4.99    0.21
  -2   5  -1    5.30    0.24
   2  -6   1    0.19    0.06
   2  -6   1    0.28    0.08
   2  -6   1    0.17    0.06
   2  -6   1    0.25    0.12
   2  -6   1    0.15    0.07
  -2   6  -1    0.16    0.06
   2  -7   1    4.51    0.38
   2  -7   1    3.41    0.20
   2  -7   1    3.60    0.20
   2  -7   1    3.50    0.20
   2  -7   1    3.78    0.21
   2  -8   1    0.28    0.15
   2  -8   1   -0.06    0.07
   2  -8   1    0.03    0.07
   2  -8   1    0.02    0.07
   2  -8   1    0.06    0.07
   2  -9   1    2.80    0.21
   2  -9   1    2.39    0.21
   2  -9   1    3.16    0.24
   2  -9   1    3.14    0.20
   2  -9   1    2.46    0.33
   2 -10   1    2.09    0.34
   2 -10   1    1.71    0.16
   2 -10   1    1.77    0.19
   2 -10   1    1.97    0.17
   2 -10   1    1.98    0.20
   2 -11   1    0.04    0.11
   2 -11   1   -0.07    0.11
   2 -11   1   -0.19    0.18
   2 -12   1    0.26    0.15
   2 -12   1    0.52    0.26
   2 -12   1    0.42    0.15
  -3 -12  -3    0.06    0.17
  -3 -12  -3    0.37    0.21
  -3 -12  -3   -0.06    0.20
  -3 -11  -3    0.84    0.22
  -3 -11  -3    1.15    0.23
  -3 -11  -3    0.29    0.22
  -3 -11  -3    0.61    0.19
  -3 -10  -3    1.13    0.27
  -3 -10  -3    1.67    0.25
  -3 -10  -3    1.54    0.24
  -3  -9  -3    0.11    0.13
  -3  -9  -3    0.12    0.17
  -3  -9  -3   -0.12    0.10
  -3  -8  -3    0.53    0.16
  -3  -8  -3    0.74    0.19
  -3  -8  -3    0.67    0.16
  -3  -8  -3    0.63    0.15
   3   7   3    2.24    0.25
  -3  -7  -3    2.44    0.26
  -3  -7  -3    2.46    0.27
  -3  -7  -3    2.62    0.26
   3   6   3   19.30    0.73
  -3  -6  -3   18.97    0.73
  -3  -6  -3   20.60    0.75
  -3  -6  -3   19.77    0.60
  -3  -6  -3   19.70    0.72
  -3  -6  -3   18.99    0.75
   3   5   3    1.75    0.19
  -3  -5  -3    2.02    0.21
  -3  -5  -3    1.82    0.19
  -3  -5  -3    1.57    0.18
  -3  -5  -3    1.55    0.20
  -3  -5  -3    1.97    0.21
   3   4   3    0.48    0.11
   3   4   3    0.50    0.10
  -3  -4  -3    0.48    0.13
  -3  -4  -3    0.51    0.12
  -3  -4  -3    0.47    0.10
  -3  -4  -3    0.22    0.09
   3   3   3   51.12    1.50
   3   3   3   51.29    1.51
   3   3   3   50.76    1.57
  -3  -3  -3   50.37    1.57
  -3  -3  -3   50.87    1.52
  -3  -3  -3   48.32    1.51
  -3  -3  -3   53.98    1.58
   3   2   3   80.35    2.26
   3   2   3   77.88    2.34
   3   2   3   81.03    2.35
  -3  -2  -3   78.89    2.35
  -3  -2  -3   81.14    2.28
  -3  -2  -3   79.88    2.34
  -3  -2  -3   77.80    2.26
   3   1   3    1.04    0.14
   3   1   3    0.91    0.13
   3   1   3    0.85    0.13
   3   1   3    0.81    0.10
  -3  -1  -3    1.25    0.14
  -3  -1  -3    0.66    0.10
  -3  -1  -3    0.77    0.12
   3   0   3   50.68    1.48
   3   0   3   50.33    1.32
   3   0   3   50.08    1.47
   3   0   3   48.88    1.52
   3   0   3   52.13    1.53
  -3   0  -3   50.36    1.34
  -3   0  -3   50.14    1.46
  -3   0  -3   50.46    1.52
  -3   0  -3   51.64    1.53
   3  -1   3    1.93    0.16
   3  -1   3    2.03    0.16
   3  -1   3    2.28    0.17
   3  -1   3    1.38    0.14
  -3   1  -3    1.90    0.11
  -3   1  -3    1.75    0.15
  -3   1  -3    1.90    0.12
   3  -2   3    6.91    0.30
   3  -2   3    6.77    0.28
   3  -2   3    6.73    0.28
   3  -2   3    7.08    0.30
  -3   2  -3    6.46    0.29
   3  -3   3   25.81    0.80
   3  -3   3   26.39    0.82
   3  -3   3   27.36    0.84
   3  -3   3   26.11    0.83
   3  -3   3   26.82    0.80
   3  -3   3   25.28    0.83
  -3   3  -3   25.42    0.82
   3  -4   3   21.11    0.67
   3  -4   3   21.75    0.66
   3  -4   3   21.14    0.69
   3  -4   3   20.83    0.65
   3  -4   3   20.73    0.71
   3  -4   3   21.44    0.69
  -3   4  -3   20.51    0.67
   3  -5   3    7.66    0.30
   3  -5   3    7.61    0.29
   3  -5   3    7.99    0.39
   3  -5   3    8.14    0.32
   3  -5   3    7.64    0.31
   3  -6   3    2.68    0.17
   3  -6   3    2.65    0.16
   3  -6   3    2.94    0.17
   3  -6   3    2.58    0.17
   3  -6   3    2.67    0.16
   3  -6   3    2.90    0.28
   3  -7   3    9.13    0.35
   3  -7   3    9.31    0.35
   3  -7   3    8.80    0.49
   3  -8   3    6.41    0.28
   3  -8   3    6.28    0.45
   3  -8   3    6.36    0.28
   3  -9   3    0.02    0.08
   3  -9   3    0.14    0.17
   3 -10   3    0.08    0.09
   3 -10   3    0.04    0.18
   3 -10   3    0.02    0.08
   3 -11   3    0.49    0.25
   3 -11   3    0.67    0.15
  -4 -12  -5    0.46    0.23
  -4 -12  -5    0.03    0.23
  -4 -12  -5    0.56    0.23
  -4 -11  -5    0.96    0.29
  -4 -11  -5    1.31    0.28
  -4 -11  -5    1.11    0.26
  -4 -10  -5    1.78    0.30
  -4 -10  -5    1.96    0.32
  -4 -10  -5    2.07    0.31
  -4  -9  -5    0.80    0.23
  -4  -9  -5    0.55    0.18
  -4  -9  -5    0.50    0.19
  -4  -8  -5    2.41    0.31
  -4  -8  -5    3.77    0.40
  -4  -8  -5    3.01    0.32
   4   7   5    9.92    0.53
  -4  -7  -5   10.74    0.53
  -4  -7  -5   10.01    0.53
  -4  -7  -5   10.64    0.57
   4   6   5    1.56    0.25
  -4  -6  -5    1.34    0.24
  -4  -6  -5    0.97    0.19
  -4  -6  -5    1.23    0.22
   4   5   5    2.16    0.22
   4   5   5    2.10    0.26
  -4  -5  -5    2.08    0.26
  -4  -5  -5    2.37    0.25
  -4  -5  -5    1.64    0.23
   4   4   5    7.35    0.42
   4   4   5    7.89    0.39
  -4  -4  -5    7.52    0.40
  -4  -4  -5    8.17    0.44
   4   3   5   12.52    0.51
   4   3   5   11.93    0.54
  -4  -3  -5   12.08    0.55
  -4  -3  -5   13.48    0.54
   4   2   5    0.09    0.08
   4   2   5    0.24    0.11
   4   2   5   -0.01    0.03
   4   2   5    0.15    0.10
   4   2   5    0.16    0.09
  -4  -2  -5    0.58    0.15
  -4  -2  -5    0.35    0.11
   4   1   5    5.91    0.35
   4   1   5    6.61    0.36
   4   1   5    6.38    0.33
   4   1   5    6.01    0.25
   4   1   5    6.30    0.33
  -4  -1  -5    6.50    0.36
  -4  -1  -5    6.98    0.32
  -4  -1  -5    5.76    0.34
   4   0   5   25.95    0.91
   4   0   5   26.19    0.71
   4   0   5   25.56    0.88
   4   0   5   26.11    0.91
   4   0   5   26.56    0.87
  -4   0  -5   26.30    0.91
  -4   0  -5   26.54    0.85
   4  -1   5    6.70    0.33
   4  -1   5    6.60    0.35
   4  -1   5    6.69    0.33
   4  -1   5    6.58    0.35
  -4   1  -5    6.94    0.27
  -4   1  -5    6.72    0.34
   4  -2   5    7.64    0.35
   4  -2   5    6.95    0.34
   4  -2   5    7.55    0.36
  -4   2  -5    7.21    0.35
  -4   2  -5    7.54    0.27
   4  -3   5    3.58    0.23
   4  -3   5    3.30    0.23
   4  -3   5    3.57    0.24
   4  -3   5    3.92    0.25
  -4   3  -5    3.67    0.23
   4  -4   5    9.24    0.41
   4  -4   5    9.36    0.40
   4  -4   5   10.19    0.42
   4  -4   5    9.87    0.40
   4  -4   5    9.24    0.38
  -4   4  -5    9.52    0.39
   4  -5   5    0.64    0.08
   4  -5   5    0.77    0.12
   4  -5   5    0.99    0.14
   4  -5   5    0.80    0.13
   4  -5   5    0.62    0.12
   4  -6   5    0.22    0.09
   4  -6   5    0.07    0.09
   4  -6   5    0.17    0.09
   4  -6   5    0.21    0.09
   4  -7   5    0.99    0.14
   4  -7   5    1.50    0.14
   4  -7   5    1.28    0.15
   4  -7   5    1.77    0.16
   4  -8   5    0.68    0.13
   4  -8   5    0.77    0.22
   4  -8   5    0.77    0.13
   4  -9   5    0.09    0.10
   4  -9   5   -0.13    0.17
   4  -9   5    0.31    0.11
   4 -10   5    0.73    0.26
   4 -10   5    0.75    0.15
   4 -10   5    0.41    0.13
   4 -11   5    0.03    0.22
  -5 -11  -7    1.53    0.32
  -5 -11  -7    1.28    0.32
  -5 -10  -7    0.20    0.21
  -5 -10  -7    0.45    0.24
  -5  -9  -7    0.70    0.26
  -5  -9  -7    0.81    0.24
  -5  -8  -7    4.56    0.47
   5   7   7    2.71    0.34
  -5  -7  -7    2.68    0.36
   5   6   7    0.73    0.21
  -5  -6  -7    0.91    0.22
  -5  -6  -7    0.74    0.19
   5   5   7    0.06    0.14
  -5  -5  -7   -0.12    0.12
  -5  -5  -7   -0.08    0.09
   5   4   7    6.25    0.32
   5   4   7    6.22    0.43
   5   4   7    5.59    0.37
  -5  -4  -7    6.52    0.44
   5   3   7    0.45    0.10
   5   3   7    0.40    0.16
   5   3   7    0.63    0.16
   5   3   7    0.22    0.12
  -5  -3  -7    0.31    0.12
  -5  -3  -7    0.38    0.16
   5   2   7   -0.06    0.10
   5   2   7    0.24    0.12
   5   2   7    0.02    0.11
   5   2   7    0.09    0.07
  -5  -2  -7    0.20    0.13
  -5  -2  -7    0.14    0.09
   5   1   7    5.28    0.37
   5   1   7    4.32    0.20
   5   1   7    4.51    0.21
   5   1   7    5.07    0.34
   5   1   7    4.54    0.33
   5   1   7    5.05    0.43
  -5  -1  -7    4.16    0.31
  -5  -1  -7    5.04    0.41
   5   0   7    1.89    0.25
   5   0   7    1.42    0.17
   5   0   7    1.39    0.21
   5   0   7    1.60    0.21
   5   0   7    1.64    0.22
  -5   0  -7    1.86    0.25
   5  -1   7    9.18    0.48
   5  -1   7    9.23    0.48
   5  -1   7    9.52    0.46
   5  -1   7    8.91    0.46
  -5   1  -7    8.38    0.46
   5  -2   7   -0.04    0.10
   5  -2   7    0.02    0.05
   5  -2   7    0.03    0.10
   5  -2   7   -0.05    0.10
  -5   2  -7    0.07    0.10
  -5   2  -7    0.00    0.07
   5  -3   7    6.57    0.39
   5  -3   7    6.80    0.39
   5  -3   7    7.25    0.40
   5  -3   7    7.44    0.40
  -5   3  -7    7.11    0.31
   5  -4   7    2.40    0.25
   5  -4   7    2.42    0.22
   5  -4   7    1.43    0.21
   5  -4   7    1.90    0.22
   5  -4   7    2.21    0.24
   5  -5   7    0.40    0.12
   5  -5   7    0.41    0.15
   5  -5   7    0.61    0.15
   5  -5   7    0.47    0.11
   5  -5   7    0.30    0.13
   5  -6   7    0.36    0.13
   5  -6   7    0.46    0.12
   5  -6   7    0.42    0.13
   5  -6   7    0.73    0.16
   5  -7   7   -0.06    0.10
   5  -7   7    0.12    0.10
   5  -7   7    0.13    0.10
   5  -7   7    0.23    0.14
   5  -8   7    0.58    0.17
   5  -8   7    0.31    0.14
   5  -9   7    0.51    0.17
   5  -9   7    0.25    0.14
  -6  -9  -9    0.55    0.29
  -6  -8  -9    0.84    0.30
  -6  -7  -9    4.49    0.52
   6   6   9    2.03    0.33
  -6  -6  -9    1.49    0.32
   6   5   9    0.32    0.20
  -6  -5  -9    0.49    0.23
   6   4   9   10.66    0.65
  -6  -4  -9   10.56    0.64
   6   3   9    8.78    0.38
   6   3   9    9.70    0.61
  -6  -3  -9    9.12    0.58
   6   2   9    5.02    0.25
   6   2   9    5.55    0.51
   6   2   9    5.36    0.25
  -6  -2  -9    5.32    0.49
   6   1   9    0.02    0.14
   6   1   9    0.32    0.15
  -6  -1  -9   -0.07    0.13
   6   0   9    2.51    0.30
   6   0   9    2.45    0.33
   6  -1   9    1.87    0.29
   6  -1   9    1.94    0.26
   6  -2   9    0.10    0.15
   6  -2   9   -0.03    0.13
   6  -2   9    0.10    0.14
   6  -3   9    1.24    0.22
   6  -3   9    0.83    0.21
   6  -3   9    0.60    0.19
   6  -4   9   -0.11    0.10
   6  -4   9    0.07    0.14
   6  -4   9   -0.01    0.14
   6  -4   9    0.05    0.15
   6  -5   9    0.51    0.18
   6  -5   9    0.72    0.15
   6  -5   9    0.54    0.18
   6  -5   9    0.90    0.22
   6  -6   9    0.74    0.20
   6  -6   9    0.56    0.17
   6  -6   9    0.52    0.19
   6  -7   9    0.36    0.17
   6  -7   9    0.71    0.17
   6  -7   9    0.71    0.21
  -7  -7 -11    0.07    0.23
   7   5  11    1.28    0.33
   7   5  11    0.43    0.14
   7   4  11    1.03    0.32
   7   4  11    1.06    0.17
   7   3  11    0.15    0.24
   7   2  11    0.35    0.25
   7   1  11    1.72    0.35
   7   0  11    0.31    0.22
   7  -1  11    0.81    0.25
   7  -2  11    0.35    0.19
   7  -2  11    0.50    0.22
   7  -3  11    0.19    0.17
   7  -3  11    0.20    0.19
   7  -4  11    0.10    0.14
   7  -4  11    0.05    0.18
   7  -4  11    0.16    0.19
   4  -4  12    0.90    0.26
   4  -4  12    1.38    0.26
   4  -3  12    0.31    0.19
   4  -3  12    0.45    0.21
   4  -2  12    0.07    0.16
   4  -2  12   -0.24    0.15
   4  -1  12    0.23    0.21
   4   0  12    0.45    0.23
   4   1  12    1.22    0.32
   4   2  12    0.48    0.23
   4   3  12    0.20    0.24
   4   4  12    1.00    0.31
   4   5  12    2.48    0.27
   4   5  12    2.75    0.44
   3  -7  10    0.17    0.17
   3  -7  10    0.37    0.15
   3  -6  10    0.03    0.12
   3  -6  10    0.15    0.13
   3  -6  10   -0.08    0.15
   3  -5  10    0.36    0.15
   3  -5  10    0.28    0.15
   3  -5  10    0.60    0.19
   3  -4  10    0.25    0.17
   3  -4  10    0.25    0.14
   3  -4  10    0.19    0.14
   3  -3  10    0.47    0.17
   3  -3  10    0.35    0.18
   3  -3  10    0.16    0.15
   3  -2  10    1.46    0.24
   3  -2  10    1.26    0.23
   3  -2  10    1.76    0.28
   3  -1  10    1.77    0.29
   3  -1  10    1.39    0.24
   3   0  10    5.91    0.43
   3   0  10    5.79    0.49
   3   1  10   -0.06    0.11
   3   1  10    0.08    0.16
   3   2  10    3.06    0.39
  -3  -3 -10    3.93    0.43
   3   3  10    4.57    0.48
   3   3  10    3.68    0.23
   3   3  10    4.03    0.24
  -3  -4 -10    0.80    0.24
  -3  -4 -10    0.72    0.18
   3   4  10    0.59    0.23
   3   4  10    1.23    0.17
  -3  -5 -10    0.55    0.23
   3   5  10    0.23    0.12
   3   5  10    0.63    0.24
  -3  -6 -10    0.79    0.27
   3   6  10    0.62    0.16
   3   6  10    1.17    0.32
  -3  -7 -10   -0.04    0.20
   3   7  10    0.01    0.12
  -3  -8 -10    2.82    0.45
  -3  -9 -10    0.16    0.23
   2  -8   8    0.13    0.12
   2  -8   8    0.08    0.09
   2  -7   8    0.57    0.13
   2  -7   8    0.42    0.13
   2  -6   8    1.26    0.16
   2  -6   8    1.06    0.18
   2  -6   8    1.35    0.17
   2  -6   8    1.12    0.15
   2  -5   8    1.12    0.17
   2  -5   8    1.08    0.17
   2  -5   8    0.95    0.16
   2  -5   8    1.15    0.18
   2  -4   8    0.15    0.10
   2  -4   8    0.23    0.10
   2  -4   8    0.10    0.07
   2  -4   8    0.04    0.10
   2  -4   8    0.27    0.11
   2  -3   8    0.87    0.16
   2  -3   8    1.04    0.16
   2  -3   8    1.11    0.18
   2  -3   8    1.21    0.19
   2  -3   8    0.78    0.16
   2  -2   8   13.62    0.58
   2  -2   8   13.33    0.57
   2  -2   8   12.94    0.59
   2  -2   8   14.56    0.61
  -2   1  -8    0.94    0.18
   2  -1   8    1.22    0.21
   2  -1   8    1.47    0.21
   2  -1   8    0.77    0.16
   2  -1   8    1.08    0.18
   2  -1   8    0.98    0.14
  -2   0  -8    0.23    0.13
   2   0   8    0.06    0.10
   2   0   8    0.13    0.11
   2   0   8    0.13    0.12
   2   0   8   -0.04    0.11
  -2  -1  -8    1.32    0.21
   2   1   8    1.28    0.21
   2   1   8    1.49    0.23
   2   1   8    1.41    0.21
   2   1   8    1.28    0.21
  -2  -2  -8    4.45    0.39
  -2  -2  -8    4.05    0.30
   2   2   8    5.22    0.43
   2   2   8    4.21    0.39
   2   2   8    4.52    0.33
   2   2   8    4.48    0.23
  -2  -3  -8    0.80    0.19
   2   3   8    0.73    0.14
   2   3   8    0.82    0.13
   2   3   8    1.04    0.20
   2   3   8    0.97    0.22
  -2  -4  -8    1.32    0.24
   2   4   8    1.32    0.17
   2   4   8    1.60    0.27
  -2  -5  -8   -0.14    0.13
   2   5   8    0.04    0.10
   2   5   8    0.21    0.16
  -2  -6  -8    0.13    0.17
   2   6   8    0.07    0.14
  -2  -7  -8    2.62    0.36
   2   7   8    2.98    0.38
  -2  -8  -8    3.89    0.44
  -2  -9  -8    0.21    0.20
  -2 -10  -8    0.84    0.26
  -2 -11  -8    0.35    0.25
   1  -6   6    4.14    0.22
   1  -6   6    4.24    0.23
   1  -5   6    3.30    0.20
   1  -5   6    3.46    0.20
   1  -5   6    3.62    0.21
   1  -5   6    3.43    0.21
   1  -4   6   11.98    0.46
   1  -4   6   12.09    0.42
   1  -4   6   11.87    0.47
   1  -4   6   12.38    0.45
   1  -4   6   13.20    0.48
  -1   3  -6    4.84    0.26
   1  -3   6    4.83    0.25
   1  -3   6    4.91    0.26
   1  -3   6    4.80    0.27
   1  -3   6    5.12    0.28
   1  -3   6    5.15    0.27
  -1   2  -6   11.68    0.48
   1  -2   6   12.33    0.47
   1  -2   6   12.11    0.47
   1  -2   6   11.41    0.49
   1  -2   6   12.73    0.50
  -1   1  -6    0.27    0.10
  -1   1  -6    0.38    0.07
   1  -1   6    0.16    0.08
   1  -1   6    0.16    0.09
   1  -1   6    0.18    0.08
   1  -1   6    0.20    0.08
  -1   0  -6   24.29    0.86
  -1   0  -6   23.85    0.72
   1   0   6   24.22    0.84
   1   0   6   25.33    0.88
   1   0   6   24.53    0.87
   1   0   6   24.65    0.83
  -1  -1  -6    0.29    0.09
  -1  -1  -6    0.01    0.08
   1   1   6    0.11    0.09
   1   1   6    0.31    0.12
   1   1   6    0.17    0.08
   1   1   6    0.21    0.07
   1   1   6    0.21    0.08
  -1  -2  -6    5.72    0.32
  -1  -2  -6    6.29    0.32
  -1  -2  -6    5.62    0.34
   1   2   6    5.99    0.36
   1   2   6    6.00    0.33
   1   2   6    5.57    0.32
   1   2   6    5.78    0.26
   1   2   6    5.69    0.35
  -1  -3  -6   17.86    0.73
  -1  -3  -6   19.71    0.71
   1   3   6   18.02    0.74
   1   3   6   17.99    0.69
   1   3   6   18.53    0.60
  -1  -4  -6    5.96    0.38
  -1  -4  -6    6.30    0.35
  -1  -4  -6    5.40    0.35
   1   4   6    5.79    0.33
   1   4   6    6.05    0.38
   1   4   6    5.69    0.33
   1   4   6    5.86    0.29
  -1  -5  -6    9.07    0.42
  -1  -5  -6    8.96    0.46
  -1  -5  -6    9.14    0.49
  -1  -5  -6    8.87    0.46
   1   5   6    9.71    0.50
   1   5   6    9.54    0.45
  -1  -6  -6    6.76    0.40
  -1  -6  -6    6.06    0.39
  -1  -6  -6    6.38    0.43
   1   6   6    5.83    0.40
  -1  -7  -6    1.42    0.25
  -1  -7  -6    0.84    0.18
  -1  -7  -6    0.65    0.18
   1   7   6    0.61    0.19
  -1  -8  -6    0.65    0.19
  -1  -8  -6    0.45    0.19
  -1  -9  -6    0.29    0.16
  -1  -9  -6    0.17    0.16
  -1 -10  -6    0.06    0.18
  -1 -10  -6    0.25    0.20
  -1 -10  -6    0.20    0.18
  -1 -11  -6   -0.05    0.17
  -1 -11  -6   -0.13    0.18
  -1 -11  -6    0.26    0.20
  -1 -12  -6    0.06    0.20
  -1 -12  -6    0.08    0.24
   0 -11   4   -0.04    0.21
   0 -10   4    0.85    0.27
   0  -9   4    0.47    0.20
   0  -8   4    0.42    0.19
   0  -7   4    0.62    0.19
   0  -6   4    4.12    0.37
   0  -4   4    4.79    0.20
   0  -4   4    4.77    0.22
   0  -4   4    4.97    0.20
   0  -4   4    5.03    0.22
   0   3  -4   10.04    0.35
   0  -3   4    9.57    0.35
   0  -3   4    9.64    0.34
   0  -3   4    9.58    0.37
   0  -3   4    9.97    0.37
   0  -3   4    9.76    0.35
   0   2  -4   10.31    0.38
   0  -2   4   10.77    0.40
   0  -2   4    9.59    0.39
   0  -2   4   10.44    0.37
   0  -2   4   10.27    0.38
   0   1  -4   19.99    0.68
   0   1  -4   20.58    0.57
   0  -1   4   20.37    0.66
   0  -1   4   20.43    0.69
   0  -1   4   20.48    0.66
   0  -1   4   20.94    0.69
   0   0  -4    2.82    0.18
   0   0  -4    2.99    0.15
   0   0  -4    3.24    0.19
   0   0  -4    2.77    0.20
   0   0   4    3.40    0.21
   0   0   4    3.16    0.12
   0   0   4    2.87    0.18
   0   0   4    3.04    0.19
   0  -1  -4   10.00    0.40
   0  -1  -4   10.26    0.43
   0  -1  -4   11.73    0.46
   0  -1  -4   10.95    0.41
   0   1   4   10.22    0.41
   0   1   4   10.99    0.44
   0   1   4   10.83    0.41
   0   1   4   10.80    0.35
   0  -2  -4   38.39    1.19
   0  -2  -4   39.14    1.24
   0  -2  -4   39.14    1.23
   0   2   4   38.05    1.23
   0   2   4   39.65    1.24
   0   2   4   37.91    1.18
   0   2   4   39.38    1.07
   0   2   4   38.81    1.18
   0  -3  -4    0.72    0.12
   0  -3  -4    0.59    0.12
   0  -3  -4    0.72    0.13
   0  -3  -4    0.50    0.12
   0   3   4    0.64    0.12
   0   3   4    0.41    0.09
   0   3   4    0.43    0.10
   0  -4  -4    5.33    0.29
   0  -4  -4    5.66    0.30
   0  -4  -4    5.78    0.32
   0  -4  -4    4.87    0.31
   0   4   4    5.00    0.27
   0   4   4    5.55    0.31
   0  -5  -4   12.53    0.50
   0  -5  -4   12.30    0.51
   0  -5  -4   13.25    0.55
   0  -5  -4   12.27    0.54
   0  -5  -4   12.14    0.51
   0   5   4   12.99    0.49
   0   5   4   12.30    0.54
   0  -6  -4    4.21    0.30
   0  -6  -4    4.11    0.31
   0  -6  -4    4.15    0.29
   0  -6  -4    4.12    0.29
   0   6   4    4.62    0.30
   0  -7  -4    1.23    0.19
   0  -7  -4    1.24    0.19
   0  -7  -4    1.01    0.19
   0  -7  -4    1.18    0.20
   0   7   4    1.18    0.20
   0  -8  -4    3.99    0.36
   0  -8  -4    4.12    0.36
   0  -8  -4    3.58    0.32
   0  -9  -4    5.82    0.41
   0  -9  -4    5.24    0.49
   0  -9  -4    5.61    0.41
   0  -9  -4    6.03    0.41
   0 -10  -4    0.02    0.19
   0 -10  -4    0.27    0.15
   0 -10  -4    0.13    0.16
   0 -10  -4    0.14    0.16
   0 -11  -4    0.56    0.25
   0 -11  -4    0.57    0.20
   0 -11  -4    0.79    0.22
   0 -12  -4    0.24    0.22
   0 -12  -4   -0.07    0.16
   0 -12  -4    0.35    0.21
  -1 -12   2    0.22    0.25
  -1 -12   2    0.13    0.11
  -1 -11   2    1.15    0.15
  -1 -11   2    1.52    0.33
  -1 -11   2    0.86    0.15
  -1 -10   2    0.30    0.22
  -1 -10   2    0.24    0.09
  -1  -9   2    3.53    0.38
   1   8  -2    0.28    0.07
  -1  -8   2    0.18    0.15
   1   7  -2    3.74    0.18
  -1  -7   2    4.20    0.38
   1   6  -2    3.32    0.16
  -1  -6   2    2.92    0.28
  -1  -6   2    3.11    0.16
   1   5  -2    3.17    0.16
  -1  -5   2    2.70    0.14
  -1  -5   2    2.79    0.27
  -1  -5   2    3.03    0.16
   1   4  -2    0.14    0.06
   1   4  -2    0.16    0.05
  -1  -4   2    0.19    0.09
  -1  -4   2    0.26    0.06
  -1  -4   2    0.12    0.04
  -1  -4   2    0.13    0.06
   1   3  -2   54.70    1.59
   1   3  -2   54.97    1.56
  -1  -3   2   52.76    1.56
  -1  -3   2   53.77    1.51
  -1  -3   2   56.06    1.57
  -1  -3   2   53.26    1.56
  -1  -3   2   53.80    1.51
   1   2  -2   36.22    1.13
   1   2  -2   37.78    1.11
   1   2  -2   37.97    1.11
  -1  -2   2   37.89    1.12
  -1  -2   2   38.35    1.12
  -1  -2   2   37.80    1.08
  -1  -2   2   37.72    1.08
   1   1  -2    0.06    0.05
   1   1  -2   -0.04    0.05
   1   1  -2    0.06    0.04
   1   1  -2    0.02    0.03
   1   1  -2    0.13    0.06
   1   1  -2    0.08    0.06
  -1  -1   2    0.02    0.05
  -1  -1   2    0.14    0.05
  -1  -1   2    0.00    0.06
  -1  -1   2    0.10    0.06
  -1  -1   2   -0.02    0.02
   1   0  -2   14.03    0.45
   1   0  -2   13.84    0.48
   1   0  -2   14.24    0.40
   1   0  -2   14.18    0.45
  -1   0   2   13.72    0.45
  -1   0   2   13.92    0.48
  -1   0   2   13.49    0.47
  -1   0   2   13.18    0.47
  -1   0   2   14.08    0.45
  -1   0   2   13.36    0.39
   1  -1  -2  990.31   27.37
   1  -1  -2  967.30   24.80
   1  -1  -2  996.87   27.43
   1  -1  -2 1000.00   26.63
  -1   1   2  961.42   24.77
  -1   1   2  990.72   27.76
  -1   1   2  951.98   26.57
  -1   1   2  980.75   27.32
  -1   1   2  959.98   27.49
   1  -2  -2    0.30    0.08
   1  -2  -2    0.26    0.07
   1  -2  -2    0.25    0.08
   1  -2  -2    0.27    0.08
  -1   2   2    0.34    0.09
  -1   2   2    0.32    0.07
  -1   2   2    0.24    0.06
  -1   2   2    0.30    0.07
  -1   2   2    0.39    0.10
   1  -3  -2    0.32    0.09
   1  -3  -2    0.34    0.08
   1  -3  -2    0.34    0.08
   1  -3  -2    0.43    0.09
  -1   3   2    0.49    0.10
  -1   3   2    0.52    0.08
  -1   3   2    0.41    0.07
   1  -4  -2   15.20    0.53
   1  -4  -2   14.64    0.55
   1  -4  -2   15.38    0.53
   1  -4  -2   14.12    0.55
  -1   4   2   15.04    0.50
  -1   4   2   14.29    0.54
   1  -5  -2   28.75    0.90
   1  -5  -2   28.09    0.90
   1  -5  -2   27.84    0.94
  -1   5   2   27.82    0.93
   1  -6  -2    1.32    0.16
   1  -6  -2    1.49    0.17
   1  -6  -2    1.27    0.17
  -1   6   2    1.59    0.19
   1  -7  -2    0.83    0.14
   1  -7  -2    0.70    0.18
   1  -7  -2    0.97    0.16
   1  -7  -2    0.93    0.15
   1  -7  -2    1.00    0.16
  -1   7   2    0.91    0.15
  -1   7   2    0.82    0.14
   1  -8  -2    2.55    0.26
   1  -8  -2    1.99    0.27
   1  -8  -2    1.97    0.22
   1  -8  -2    2.32    0.24
   1  -8  -2    2.04    0.22
   1  -9  -2    3.01    0.28
   1  -9  -2    3.89    0.32
   1  -9  -2    3.75    0.38
   1  -9  -2    2.98    0.28
   1 -10  -2    0.05    0.13
   1 -10  -2   -0.05    0.10
   1 -10  -2   -0.01    0.16
   1 -10  -2   -0.05    0.11
   1 -11  -2    3.20    0.41
   1 -11  -2    3.89    0.37
   1 -11  -2    3.37    0.34
   1 -11  -2    3.35    0.32
   1 -12  -2   -0.27    0.14
   1 -12  -2   -0.11    0.21
   1 -12  -2    0.39    0.17
   1 -12  -2    0.21    0.15
  -2 -12   0    0.04    0.22
  -2 -12   0   -0.18    0.11
  -2 -11   0    1.05    0.15
  -2 -11   0    0.99    0.18
  -2 -11   0    1.14    0.30
  -2 -10   0    1.28    0.16
  -2 -10   0    0.78    0.16
  -2 -10   0    1.16    0.16
  -2 -10   0    0.84    0.16
  -2 -10   0    1.00    0.26
  -2  -9   0    5.43    0.31
  -2  -9   0    5.24    0.45
  -2  -9   0    6.15    0.30
  -2  -9   0    5.55    0.30
  -2  -9   0    5.67    0.32
  -2  -8   0    3.93    0.25
  -2  -8   0    3.94    0.24
  -2  -8   0    4.06    0.24
  -2  -8   0    4.07    0.25
  -2  -8   0    3.25    0.34
  -2  -7   0   15.63    0.58
  -2  -7   0   16.08    0.56
  -2  -7   0   17.07    0.56
  -2  -7   0   16.10    0.58
  -2  -7   0   15.58    0.67
   2   6   0   10.50    0.38
  -2  -6   0    9.88    0.40
  -2  -6   0    9.74    0.47
  -2  -6   0   10.54    0.40
  -2  -6   0    9.80    0.38
  -2  -6   0   10.15    0.38
   2   5   0   17.05    0.58
  -2  -5   0   18.16    0.60
  -2  -5   0   17.26    0.56
  -2  -5   0   17.79    0.57
  -2  -5   0   16.66    0.63
  -2  -5   0   17.29    0.60
   2   4   0   22.14    0.71
  -2  -4   0   21.39    0.68
  -2  -4   0   22.35    0.69
  -2  -4   0   22.54    0.73
  -2  -4   0   22.30    0.72
  -2  -4   0   22.62    0.72
   2   3   0   23.72    0.76
   2   3   0   24.35    0.70
  -2  -3   0   23.94    0.74
  -2  -3   0   24.14    0.73
  -2  -3   0   25.12    0.74
  -2  -3   0   22.91    0.76
  -2  -3   0   24.00    0.76
   2   2   0   43.66    1.31
   2   2   0   44.77    1.26
   2   2   0   45.75    1.23
   2   2   0   44.56    1.25
   2   2   0   43.26    1.31
  -2  -2   0   43.69    1.31
  -2  -2   0   44.04    1.27
  -2  -2   0   43.52    1.26
  -2  -2   0   44.42    1.23
   2   1   0    2.79    0.17
   2   1   0    2.95    0.17
   2   1   0    2.33    0.16
   2   1   0    2.87    0.13
   2   1   0    2.85    0.16
   2   1   0    2.82    0.13
   2   1   0    2.94    0.15
  -2  -1   0    2.68    0.15
  -2  -1   0    2.79    0.15
  -2  -1   0    2.89    0.13
  -2  -1   0    3.00    0.17
  -2  -1   0    2.82    0.17
   2   0   0   10.40    0.37
   2   0   0   10.62    0.35
   2   0   0   10.46    0.37
   2   0   0   10.10    0.31
   2   0   0    9.65    0.38
  -2   0   0   10.01    0.31
  -2   0   0   10.19    0.37
  -2   0   0   10.31    0.37
  -2   0   0   10.86    0.39
  -2   0   0   10.18    0.35
  -2   0   0    8.98    0.34
   2  -1   0    8.18    0.25
   2  -1   0    7.98    0.30
   2  -1   0    8.05    0.32
   2  -1   0    7.54    0.31
   2  -1   0    7.84    0.29
  -2   1   0    7.92    0.29
  -2   1   0    7.64    0.25
  -2   1   0    8.00    0.29
  -2   1   0    8.34    0.32
  -2   1   0    7.75    0.31
  -2   1   0    8.16    0.31
   2  -2   0   26.96    0.84
   2  -2   0   26.02    0.84
   2  -2   0   26.52    0.80
   2  -2   0   27.43    0.84
   2  -2   0   25.46    0.80
  -2   2   0   27.50    0.80
  -2   2   0   28.26    0.84
  -2   2   0   26.48    0.72
  -2   2   0   26.43    0.83
  -2   2   0   27.32    0.79
  -2   2   0   27.38    0.85
   2  -3   0   23.45    0.74
   2  -3   0   24.10    0.74
   2  -3   0   23.73    0.74
   2  -3   0   24.12    0.77
  -2   3   0   23.86    0.76
  -2   3   0   24.84    0.71
  -2   3   0   25.04    0.78
   2  -4   0    1.00    0.12
   2  -4   0    0.80    0.10
   2  -4   0    0.98    0.13
   2  -4   0    0.91    0.12
   2  -4   0    0.93    0.10
  -2   4   0    0.82    0.11
  -2   4   0    0.70    0.10
   2  -5   0   29.04    0.95
   2  -5   0   30.57    0.92
   2  -5   0   30.42    0.95
   2  -5   0   29.59    0.91
   2  -5   0   29.24    0.96
  -2   5   0   29.61    0.97
  -2   5   0   31.12    0.94
   2  -6   0    5.74    0.29
   2  -6   0    5.40    0.28
   2  -6   0    4.73    0.31
   2  -6   0    5.94    0.27
   2  -6   0    5.86    0.27
  -2   6   0    6.42    0.28
   2  -7   0    1.77    0.17
   2  -7   0    1.64    0.17
   2  -7   0    1.85    0.23
   2  -7   0    1.88    0.17
   2  -7   0    1.46    0.17
  -2   7   0    1.84    0.16
   2  -8   0    0.39    0.11
   2  -8   0    0.29    0.10
   2  -8   0    0.21    0.09
   2  -8   0    0.38    0.16
   2  -8   0    0.34    0.11
   2  -9   0    3.26    0.37
   2  -9   0    3.03    0.25
   2  -9   0    3.17    0.24
   2  -9   0    3.42    0.25
   2  -9   0    3.39    0.24
   2 -10   0    0.02    0.16
   2 -10   0    0.03    0.11
   2 -10   0    0.98    0.20
   2 -10   0   -0.13    0.09
   2 -11   0    0.44    0.14
   2 -11   0    0.22    0.23
   2 -11   0    0.42    0.16
   2 -11   0    0.42    0.12
   2 -12   0    0.00    0.11
   2 -12   0    0.08    0.14
   2 -12   0    0.23    0.23
   2 -12   0    0.03    0.15
  -3 -12  -2    0.05    0.14
  -3 -12  -2    0.06    0.15
  -3 -12  -2   -0.21    0.19
  -3 -11  -2    1.04    0.21
  -3 -11  -2    0.44    0.24
  -3 -11  -2    0.76    0.18
  -3 -10  -2    0.85    0.19
  -3 -10  -2    0.88    0.19
  -3 -10  -2    0.75    0.24
  -3  -9  -2    1.74    0.22
  -3  -9  -2    1.73    0.28
  -3  -9  -2    2.01    0.25
  -3  -8  -2    4.35    0.31
  -3  -8  -2    4.69    0.40
  -3  -8  -2    4.24    0.30
  -3  -8  -2    4.86    0.32
  -3  -8  -2    5.08    0.32
   3   7   2    4.60    0.29
  -3  -7  -2    5.09    0.31
  -3  -7  -2    4.74    0.31
  -3  -7  -2    4.83    0.34
  -3  -7  -2    5.44    0.31
  -3  -7  -2    5.21    0.32
   3   6   2   15.25    0.58
  -3  -6  -2   15.04    0.60
  -3  -6  -2   14.77    0.57
  -3  -6  -2   15.74    0.58
  -3  -6  -2   14.08    0.59
   3   5   2   24.33    0.83
  -3  -5  -2   24.91    0.82
  -3  -5  -2   25.66    0.82
  -3  -5  -2   24.48    0.85
  -3  -5  -2   24.61    0.81
  -3  -5  -2   21.96    0.83
   3   4   2    4.00    0.21
   3   4   2    3.70    0.24
  -3  -4  -2    3.74    0.23
  -3  -4  -2    4.30    0.25
  -3  -4  -2    3.43    0.24
  -3  -4  -2    3.48    0.22
  -3  -4  -2    3.73    0.23
   3   3   2   56.88    1.72
   3   3   2   57.02    1.66
   3   3   2   57.17    1.65
  -3  -3  -2   55.30    1.73
  -3  -3  -2   58.28    1.60
  -3  -3  -2   54.99    1.67
  -3  -3  -2   60.36    1.74
  -3  -3  -2   58.18    1.67
   3   2   2   71.77    2.09
   3   2   2   69.69    2.08
   3   2   2   70.79    2.01
   3   2   2   70.22    2.02
  -3  -2  -2   70.30    2.02
  -3  -2  -2   67.83    2.08
  -3  -2  -2   73.20    2.09
  -3  -2  -2   70.98    2.01
   3   1   2  204.09    5.53
   3   1   2  195.05    5.69
   3   1   2  199.05    5.14
   3   1   2  209.87    5.70
  -3  -1  -2  207.59    5.70
  -3  -1  -2  201.94    5.54
  -3  -1  -2  199.01    5.70
   3   0   2   12.52    0.48
   3   0   2   13.17    0.49
   3   0   2   13.11    0.46
   3   0   2   13.44    0.47
   3   0   2   13.24    0.40
  -3   0  -2   13.75    0.48
  -3   0  -2   12.94    0.48
  -3   0  -2   13.14    0.45
  -3   0  -2   12.51    0.40
  -3   0  -2   12.83    0.45
   3  -1   2    2.36    0.17
   3  -1   2    2.24    0.16
   3  -1   2    2.55    0.16
   3  -1   2    2.60    0.18
  -3   1  -2    2.46    0.15
  -3   1  -2    2.50    0.13
  -3   1  -2    2.58    0.18
  -3   1  -2    2.52    0.12
  -3   1  -2    2.91    0.18
  -3   1  -2    2.61    0.15
   3  -2   2    8.96    0.34
   3  -2   2    9.73    0.37
   3  -2   2    9.40    0.37
   3  -2   2    8.89    0.34
   3  -2   2    9.04    0.32
  -3   2  -2    8.80    0.36
  -3   2  -2    9.23    0.32
  -3   2  -2    9.22    0.28
  -3   2  -2    9.28    0.32
   3  -3   2    0.87    0.12
   3  -3   2    1.18    0.14
   3  -3   2    1.25    0.13
   3  -3   2    1.04    0.11
   3  -3   2    1.18    0.14
   3  -3   2    0.88    0.10
  -3   3  -2    1.12    0.12
   3  -4   2   22.21    0.75
   3  -4   2   22.96    0.75
   3  -4   2   22.88    0.72
   3  -4   2   23.60    0.72
   3  -4   2   23.52    0.75
   3  -4   2   23.04    0.74
  -3   4  -2   23.25    0.74
   3  -5   2    2.81    0.17
   3  -5   2    2.98    0.18
   3  -5   2    2.87    0.25
   3  -5   2    2.82    0.18
   3  -5   2    3.15    0.19
  -3   5  -2    3.05    0.18
   3  -6   2    0.13    0.07
   3  -6   2    0.14    0.12
   3  -6   2    0.00    0.07
   3  -6   2   -0.02    0.06
   3  -6   2    0.08    0.06
   3  -7   2    1.82    0.16
   3  -7   2    1.61    0.16
   3  -7   2    2.08    0.18
   3  -7   2    2.12    0.17
   3  -7   2    1.83    0.25
   3  -8   2    7.14    0.33
   3  -8   2    7.29    0.32
   3  -8   2    6.97    0.32
   3  -8   2    6.86    0.32
   3  -8   2    6.94    0.46
   3  -9   2    1.01    0.15
   3  -9   2    0.94    0.15
   3  -9   2    1.16    0.13
   3  -9   2    1.25    0.27
   3 -10   2    0.26    0.11
   3 -10   2    0.18    0.20
   3 -10   2    0.13    0.11
   3 -11   2   -0.03    0.19
   3 -11   2    0.22    0.12
   3 -11   2   -0.13    0.11
   3 -12   2    0.40    0.17
   3 -12   2    0.60    0.25
   3 -12   2    0.67    0.16
  -4 -12  -4    0.05    0.21
  -4 -12  -4    0.26    0.21
  -4 -12  -4    0.59    0.21
  -4 -11  -4    0.95    0.26
  -4 -11  -4    0.80    0.22
  -4 -11  -4    0.72    0.25
  -4 -10  -4    1.87    0.29
  -4 -10  -4    1.44    0.28
  -4  -9  -4    1.60    0.28
  -4  -9  -4    1.31    0.24
  -4  -9  -4    1.91    0.27
  -4  -8  -4    4.78    0.41
  -4  -8  -4    5.47    0.40
  -4  -8  -4    4.25    0.38
   4   7   4    3.84    0.35
  -4  -7  -4    3.49    0.33
  -4  -7  -4    3.08    0.32
  -4  -7  -4    2.92    0.31
  -4  -7  -4    3.71    0.33
  -4  -7  -4    3.64    0.17
   4   6   4    1.80    0.24
  -4  -6  -4    1.64    0.22
  -4  -6  -4    1.16    0.19
  -4  -6  -4    1.36    0.21
  -4  -6  -4    1.26    0.22
   4   5   4   11.37    0.53
  -4  -5  -4   11.50    0.51
  -4  -5  -4   12.39    0.55
  -4  -5  -4   11.45    0.54
   4   4   4    0.31    0.10
   4   4   4    0.50    0.13
  -4  -4  -4    0.50    0.12
  -4  -4  -4    0.10    0.11
  -4  -4  -4    0.39    0.12
   4   3   4    3.80    0.24
   4   3   4    3.82    0.25
   4   3   4    3.59    0.27
  -4  -3  -4    3.50    0.25
  -4  -3  -4    3.78    0.31
  -4  -3  -4    3.82    0.28
   4   2   4   17.11    0.61
   4   2   4   16.29    0.53
   4   2   4   15.28    0.60
   4   2   4   17.12    0.65
   4   2   4   16.00    0.64
  -4  -2  -4   15.53    0.64
  -4  -2  -4   17.48    0.62
   4   1   4    8.78    0.42
   4   1   4    9.06    0.33
   4   1   4    8.85    0.40
   4   1   4    8.78    0.39
   4   1   4    9.41    0.43
  -4  -1  -4    9.20    0.40
  -4  -1  -4    9.31    0.43
   4   0   4   14.35    0.42
   4   0   4   14.10    0.49
   4   0   4   13.67    0.55
   4   0   4   13.74    0.52
   4   0   4   14.01    0.56
   4   0   4   12.69    0.52
  -4   0  -4   13.97    0.46
  -4   0  -4   13.64    0.55
   4  -1   4    8.21    0.36
   4  -1   4    8.27    0.37
   4  -1   4    7.22    0.34
   4  -1   4    7.43    0.37
  -4   1  -4    8.13    0.29
  -4   1  -4    6.87    0.35
   4  -2   4   13.00    0.53
   4  -2   4   14.41    0.52
   4  -2   4   13.42    0.50
  -4   2  -4   13.48    0.52
  -4   2  -4   13.90    0.42
   4  -3   4    5.84    0.30
   4  -3   4    6.24    0.31
   4  -3   4    5.76    0.29
   4  -3   4    5.90    0.29
   4  -3   4    6.49    0.31
  -4   3  -4    6.03    0.30
   4  -4   4   15.12    0.55
   4  -4   4   14.64    0.56
   4  -4   4   15.51    0.55
   4  -4   4   15.64    0.57
   4  -4   4   15.30    0.55
  -4   4  -4   15.82    0.56
   4  -5   4    1.37    0.16
   4  -5   4    1.13    0.14
   4  -5   4    1.23    0.19
   4  -5   4    0.98    0.13
   4  -5   4    1.13    0.12
   4  -5   4    0.98    0.14
  -4   5  -4    1.19    0.13
   4  -6   4    0.04    0.08
   4  -6   4    0.06    0.07
   4  -6   4    0.11    0.08
   4  -6   4    0.16    0.08
   4  -6   4   -0.02    0.11
   4  -7   4    2.72    0.20
   4  -7   4    2.60    0.22
   4  -7   4    1.92    0.27
   4  -7   4    2.63    0.20
   4  -7   4    2.58    0.21
   4  -8   4    0.83    0.22
   4  -8   4    0.95    0.15
   4  -8   4    0.94    0.14
   4  -9   4    0.09    0.10
   4  -9   4    0.09    0.17
   4 -10   4   -0.08    0.18
   4 -10   4    0.14    0.11
   4 -10   4    0.08    0.10
   4 -11   4    0.23    0.13
   4 -11   4    0.16    0.22
   4 -11   4    0.06    0.11
  -5 -11  -6   -0.03    0.18
  -5 -11  -6    0.20    0.21
  -5 -10  -6    1.01    0.27
  -5 -10  -6    0.67    0.25
  -5  -9  -6    0.44    0.19
  -5  -9  -6    0.33    0.21
  -5  -9  -6    0.54    0.21
  -5  -8  -6    8.69    0.52
  -5  -8  -6    9.40    0.59
  -5  -8  -6    7.37    0.50
   5   7   6    0.53    0.17
  -5  -7  -6    0.74    0.22
   5   6   6    7.92    0.50
  -5  -6  -6    9.14    0.54
   5   5   6   -0.06    0.11
   5   5   6   -0.01    0.09
  -5  -5  -6    0.11    0.14
  -5  -5  -6    0.12    0.11
   5   4   6    4.43    0.32
   5   4   6    4.99    0.42
   5   4   6    4.25    0.26
  -5  -4  -6    4.51    0.39
  -5  -4  -6    4.05    0.35
   5   3   6    2.15    0.24
   5   3   6    1.90    0.23
  -5  -3  -6    1.93    0.25
  -5  -3  -6    1.73    0.24
   5   2   6    0.28    0.11
   5   2   6    0.44    0.14
   5   2   6    0.51    0.13
   5   2   6    0.25    0.09
  -5  -2  -6    0.50    0.16
  -5  -2  -6    0.24    0.10
   5   1   6    3.29    0.34
   5   1   6    3.15    0.31
   5   1   6    3.09    0.30
   5   1   6    2.75    0.17
   5   1   6    3.23    0.29
  -5  -1  -6    2.84    0.25
  -5  -1  -6    2.66    0.27
   5   0   6   10.10    0.47
   5   0   6   10.46    0.49
   5   0   6   10.71    0.51
   5   0   6   10.24    0.51
   5   0   6   10.47    0.43
  -5   0  -6   10.30    0.50
   5  -1   6    0.12    0.09
   5  -1   6    0.19    0.11
   5  -1   6    0.35    0.12
   5  -1   6    0.07    0.10
  -5   1  -6    0.14    0.08
  -5   1  -6    0.15    0.10
   5  -2   6   22.80    0.82
   5  -2   6   22.61    0.85
   5  -2   6   22.33    0.81
  -5   2  -6   22.50    0.83
  -5   2  -6   23.14    0.70
   5  -3   6    1.38    0.19
   5  -3   6    1.19    0.17
   5  -3   6    1.11    0.17
   5  -3   6    1.33    0.19
  -5   3  -6    1.57    0.15
  -5   3  -6    1.40    0.18
   5  -4   6    5.01    0.32
   5  -4   6    5.78    0.33
   5  -4   6    5.04    0.30
   5  -4   6    5.83    0.34
   5  -4   6    5.00    0.33
  -5   4  -6    6.17    0.25
   5  -5   6    0.29    0.11
   5  -5   6    0.19    0.10
   5  -5   6    0.21    0.09
   5  -5   6    0.40    0.13
   5  -5   6    0.12    0.11
   5  -6   6    4.01    0.28
   5  -6   6    3.88    0.28
   5  -6   6    3.84    0.28
   5  -6   6    3.45    0.29
   5  -7   6    0.46    0.14
   5  -7   6    0.69    0.16
   5  -7   6    0.99    0.15
   5  -7   6    0.86    0.14
   5  -8   6    0.15    0.12
   5  -8   6    0.18    0.11
   5  -9   6    0.25    0.14
   5  -9   6    0.21    0.14
   5 -10   6    0.47    0.17
   5 -10   6    0.26    0.14
  -6 -10  -8    1.38    0.35
  -6 -10  -8    0.69    0.25
  -6  -9  -8    0.61    0.23
  -6  -9  -8    0.30    0.21
  -6  -8  -8    0.16    0.21
  -6  -7  -8    3.59    0.44
   6   6   8    5.21    0.54
  -6  -6  -8    5.21    0.52
   6   5   8    0.05    0.16
  -6  -5  -8   -0.11    0.13
   6   4   8    7.36    0.51
  -6  -4  -8    7.19    0.51
   6   3   8    6.90    0.50
   6   3   8    7.22    0.34
  -6  -3  -8    7.72    0.51
   6   2   8    6.28    0.29
   6   2   8    7.12    0.48
  -6  -2  -8    6.34    0.46
   6   1   8    0.13    0.11
   6   1   8    0.12    0.14
  -6  -1  -8   -0.06    0.12
   6   0   8    1.17    0.20
   6   0   8    1.32    0.20
   6   0   8    1.88    0.27
  -6   0  -8    1.51    0.24
   6  -1   8    0.99    0.19
   6  -1   8    1.40    0.24
   6  -1   8    1.33    0.23
   6  -2   8    0.84    0.20
   6  -2   8    0.54    0.16
   6  -2   8    1.14    0.22
   6  -3   8    0.15    0.14
   6  -3   8    0.22    0.14
   6  -3   8    0.19    0.14
   6  -4   8    0.68    0.18
   6  -4   8    0.53    0.15
   6  -4   8    0.77    0.19
   6  -4   8    0.59    0.18
   6  -5   8    0.14    0.11
   6  -5   8    0.12    0.13
   6  -5   8    0.02    0.13
   6  -5   8   -0.08    0.12
   6  -6   8    0.97    0.21
   6  -6   8    1.39    0.21
   6  -6   8    1.36    0.24
   6  -7   8    0.54    0.19
   6  -7   8    0.42    0.15
   6  -7   8    0.51    0.17
   6  -8   8    0.13    0.15
   6  -8   8    0.41    0.19
  -7  -8 -10    1.05    0.34
  -7  -7 -10    0.55    0.29
  -7  -6 -10   -0.07    0.18
   7   5  10    3.02    0.46
  -7  -5 -10    2.10    0.37
   7   4  10    2.56    0.39
  -7  -4 -10    2.86    0.41
   7   3  10    0.90    0.14
   7   3  10    0.90    0.27
   7   3  10    1.21    0.16
   7   2  10    1.34    0.30
   7   1  10    0.91    0.25
   7   1  10    0.84    0.20
   7   0  10    0.69    0.23
   7  -1  10    0.34    0.18
   7  -1  10    0.11    0.18
   7  -2  10    0.26    0.18
   7  -2  10    0.40    0.20
   7  -3  10    0.92    0.24
   7  -3  10    1.19    0.25
   7  -4  10   -0.22    0.11
   7  -4  10   -0.09    0.16
   7  -4  10   -0.20    0.15
   7  -5  10    0.42    0.19
   7  -5  10    0.43    0.16
   7  -5  10    0.66    0.25
   7  -6  10    0.15    0.20
   7  -6  10    0.26    0.17
   8   4  12    0.21    0.28
   8   3  12   -0.04    0.21
   8   2  12   -0.09    0.22
   8   2  12    0.49    0.20
   8   1  12    1.40    0.34
   8   0  12    1.07    0.29
   8  -1  12    0.75    0.27
   4  -1  13    0.71    0.29
   4   0  13   -0.06    0.20
   4   1  13   -0.11    0.14
   4   1  13    0.64    0.28
   4   2  13    0.91    0.31
   4   3  13   -0.01    0.20
   3  -5  11    0.21    0.15
   3  -5  11   -0.09    0.16
   3  -4  11    0.77    0.23
   3  -4  11    0.44    0.19
   3  -3  11    0.80    0.21
   3  -3  11    0.42    0.19
   3  -2  11    0.68    0.22
   3  -2  11    0.39    0.18
   3  -1  11    3.30    0.36
   3  -1  11    3.53    0.40
   3   0  11    0.39    0.16
   3   0  11    0.26    0.20
   3   0  11   -0.03    0.13
   3   1  11    2.94    0.39
   3   2  11    0.23    0.20
   3   3  11    1.78    0.34
  -3  -4 -11    0.03    0.13
   3   4  11    0.03    0.18
   3   4  11    0.09    0.11
  -3  -5 -11    0.08    0.24
   3   5  11   -0.12    0.10
   3   5  11   -0.09    0.20
  -3  -6 -11    1.64    0.36
   3   6  11    2.06    0.40
   3   6  11    1.43    0.22
  -3  -7 -11    0.37    0.23
   3   7  11    0.22    0.15
  -3  -8 -11   -0.18    0.24
   2  -8   9    0.11    0.13
   2  -8   9   -0.05    0.11
   2  -7   9    0.20    0.14
   2  -7   9   -0.12    0.09
   2  -6   9    1.03    0.17
   2  -6   9    0.72    0.15
   2  -6   9    0.46    0.15
   2  -6   9    0.67    0.18
   2  -5   9    1.13    0.19
   2  -5   9    1.73    0.22
   2  -5   9    1.31    0.22
   2  -4   9    0.72    0.17
   2  -4   9    0.92    0.20
   2  -4   9    0.77    0.17
   2  -3   9   -0.05    0.10
   2  -3   9   -0.16    0.12
   2  -3   9    0.00    0.10
   2  -2   9    1.92    0.28
   2  -2   9    1.57    0.22
   2  -2   9    1.66    0.23
   2  -1   9    2.30    0.28
   2  -1   9    1.34    0.22
   2  -1   9    2.13    0.28
   2   0   9   -0.01    0.10
   2   0   9    0.24    0.14
   2   0   9   -0.17    0.10
  -2  -1  -9    3.27    0.33
   2   1   9    2.23    0.27
   2   1   9    2.08    0.27
  -2  -2  -9    5.13    0.43
   2   2   9    5.24    0.24
   2   2   9    5.05    0.23
   2   2   9    5.21    0.46
   2   2   9    5.34    0.49
  -2  -3  -9    2.96    0.35
   2   3   9    3.06    0.23
   2   3   9    3.08    0.35
  -2  -4  -9    0.68    0.22
   2   4   9    0.58    0.21
   2   4   9    0.49    0.13
  -2  -5  -9    7.06    0.41
  -2  -5  -9    7.21    0.54
   2   5   9    7.81    0.39
   2   5   9    8.49    0.56
  -2  -6  -9    0.54    0.23
   2   6   9    0.68    0.16
   2   6   9    0.73    0.22
  -2  -7  -9    0.86    0.25
   2   7   9    0.65    0.17
  -2  -8  -9    0.81    0.28
  -2  -9  -9    2.92    0.41
  -2 -10  -9   -0.10    0.20
   1  -8   7    0.09    0.08
   1  -7   7    1.32    0.16
   1  -7   7    1.31    0.15
   1  -6   7    2.81    0.24
   1  -6   7    2.93    0.21
   1  -6   7    2.87    0.22
   1  -6   7    2.80    0.20
   1  -5   7    4.11    0.27
   1  -5   7    4.27    0.26
   1  -5   7    4.58    0.26
   1  -5   7    4.45    0.26
   1  -4   7    2.08    0.17
   1  -4   7    1.97    0.20
   1  -4   7    2.08    0.21
   1  -4   7    2.19    0.21
   1  -4   7    1.97    0.21
  -1   3  -7    4.86    0.28
   1  -3   7    5.18    0.31
   1  -3   7    4.61    0.28
   1  -3   7    5.07    0.30
   1  -3   7    4.68    0.27
   1  -3   7    4.46    0.29
  -1   2  -7    7.01    0.36
   1  -2   7    6.99    0.35
   1  -2   7    6.59    0.36
   1  -2   7    6.37    0.35
   1  -2   7    5.90    0.35
   1  -2   7    7.14    0.35
  -1   1  -7    6.87    0.37
   1  -1   7    5.81    0.36
   1  -1   7    6.57    0.36
   1  -1   7    6.90    0.38
   1  -1   7    7.17    0.36
  -1   0  -7    1.69    0.22
   1   0   7    1.54    0.21
   1   0   7    1.56    0.22
   1   0   7    1.42    0.17
   1   0   7    2.11    0.24
  -1  -1  -7    0.10    0.10
  -1  -1  -7    0.21    0.12
   1   1   7    0.07    0.09
   1   1   7    0.17    0.12
   1   1   7    0.24    0.06
   1   1   7    0.20    0.06
   1   1   7    0.21    0.10
   1   1   7    0.04    0.10
  -1  -2  -7    2.98    0.29
  -1  -2  -7    2.87    0.26
   1   2   7    2.79    0.20
   1   2   7    2.29    0.24
   1   2   7    2.33    0.24
  -1  -3  -7    0.71    0.17
  -1  -3  -7    0.64    0.14
   1   3   7    0.59    0.15
   1   3   7    0.63    0.15
   1   3   7    0.46    0.15
   1   3   7    0.77    0.13
  -1  -4  -7    5.24    0.35
  -1  -4  -7    5.40    0.39
   1   4   7    5.10    0.29
   1   4   7    5.16    0.44
   1   4   7    4.65    0.33
  -1  -5  -7    2.00    0.28
  -1  -5  -7    2.61    0.25
  -1  -5  -7    1.83    0.23
   1   5   7    2.54    0.33
   1   5   7    2.63    0.24
  -1  -6  -7    0.09    0.15
  -1  -6  -7    0.01    0.11
   1   6   7    0.06    0.12
  -1  -7  -7    0.09    0.13
  -1  -7  -7    0.16    0.16
   1   7   7    0.79    0.22
  -1  -8  -7    5.69    0.51
  -1  -9  -7    0.46    0.24
  -1 -10  -7   -0.01    0.19
  -1 -11  -7   -0.01    0.20
  -1 -11  -7    0.04    0.22
   0  -6   5    0.22    0.07
   0  -5   5    9.20    0.35
   0  -5   5    8.69    0.34
   0  -5   5    8.66    0.34
   0  -5   5    9.02    0.35
   0   4  -5    5.32    0.24
   0  -4   5    5.31    0.26
   0  -4   5    5.43    0.26
   0  -4   5    5.59    0.25
   0  -4   5    5.72    0.27
   0  -4   5    5.79    0.27
   0   3  -5   14.91    0.53
   0  -3   5   15.40    0.54
   0  -3   5   14.72    0.55
   0  -3   5   15.50    0.53
   0  -3   5   15.66    0.55
   0  -3   5   14.55    0.53
   0   2  -5    1.60    0.10
   0   2  -5    1.68    0.16
   0  -2   5    1.43    0.15
   0  -2   5    1.63    0.17
   0  -2   5    1.35    0.15
   0  -2   5    1.17    0.14
   0  -2   5    1.85    0.17
   0   1  -5    3.27    0.17
   0   1  -5    3.78    0.23
   0  -1   5    3.61    0.23
   0  -1   5    3.84    0.22
   0  -1   5    3.68    0.24
   0  -1   5    3.66    0.24
   0  -1   5    3.27    0.22
   0   0  -5   11.94    0.49
   0   0  -5   12.31    0.45
   0   0  -5   11.78    0.40
   0   0   5   11.74    0.49
   0   0   5   11.79    0.46
   0   0   5   10.98    0.48
   0   0   5   11.92    0.46
   0  -1  -5    0.20    0.10
   0  -1  -5    0.23    0.08
   0  -1  -5    0.38    0.10
   0   1   5    0.10    0.08
   0   1   5    0.21    0.10
   0   1   5    0.16    0.06
   0   1   5    0.17    0.08
   0   1   5    0.35    0.11
   0  -2  -5   18.37    0.68
   0  -2  -5   18.54    0.72
   0  -2  -5   19.95    0.69
   0   2   5   19.33    0.59
   0   2   5   19.88    0.73
   0   2   5   19.75    0.69
   0   2   5   18.14    0.72
   0   2   5   19.85    0.69
   0  -3  -5   10.13    0.48
   0  -3  -5   10.27    0.44
   0  -3  -5    9.73    0.44
   0   3   5    9.76    0.43
   0   3   5    9.95    0.38
   0  -4  -5    2.83    0.25
   0  -4  -5    3.60    0.32
   0  -4  -5    2.54    0.23
   0  -4  -5    2.34    0.25
   0   4   5    2.43    0.23
   0   4   5    2.77    0.19
   0   4   5    3.23    0.23
   0  -5  -5    2.96    0.28
   0  -5  -5    2.04    0.23
   0  -5  -5    2.86    0.29
   0  -5  -5    2.51    0.23
   0   5   5    3.45    0.24
   0   5   5    2.51    0.25
   0  -6  -5    5.64    0.35
   0  -6  -5    5.45    0.38
   0  -6  -5    5.33    0.36
   0  -6  -5    4.44    0.33
   0   6   5    4.65    0.35
   0  -7  -5   13.74    0.62
   0  -7  -5   13.11    0.64
   0  -7  -5   13.71    0.62
   0   7   5   12.54    0.62
   0  -8  -5   -0.07    0.11
   0  -8  -5   -0.05    0.13
   0  -8  -5    0.33    0.15
   0  -9  -5    0.50    0.20
   0  -9  -5    0.34    0.17
   0 -10  -5    2.44    0.32
   0 -10  -5    2.32    0.33
   0 -10  -5    1.66    0.32
   0 -11  -5    0.04    0.17
   0 -11  -5    0.32    0.22
   0 -11  -5    0.03    0.17
   0 -12  -5    0.69    0.29
   0 -12  -5    1.03    0.26
   0 -12  -5    0.67    0.25
  -1 -12   3    0.67    0.30
  -1 -11   3   -0.05    0.21
  -1 -10   3    0.16    0.20
  -1  -9   3    1.48    0.29
  -1  -8   3   10.46    0.59
   1   7  -3    1.82    0.12
  -1  -7   3    1.82    0.27
   1   6  -3    6.15    0.25
  -1  -6   3    6.21    0.25
  -1  -6   3    5.82    0.24
  -1  -6   3    6.16    0.39
   1   5  -3    1.66    0.13
  -1  -5   3    1.52    0.13
  -1  -5   3    1.42    0.11
  -1  -5   3    1.40    0.22
  -1  -5   3    1.63    0.13
  -1  -5   3    1.58    0.11
   1   4  -3    5.87    0.26
   1   4  -3    6.12    0.24
  -1  -4   3    6.11    0.24
  -1  -4   3    6.06    0.26
  -1  -4   3    5.83    0.24
  -1  -4   3    6.24    0.26
   1   3  -3   11.07    0.40
   1   3  -3   11.54    0.42
  -1  -3   3   11.56    0.39
  -1  -3   3   12.17    0.42
  -1  -3   3   11.55    0.39
  -1  -3   3   11.32    0.41
   1   2  -3   24.09    0.76
  -1  -2   3   24.81    0.74
  -1  -2   3   23.77    0.78
  -1  -2   3   23.51    0.74
  -1  -2   3   23.73    0.77
  -1  -2   3   24.73    0.78
   1   1  -3   18.10    0.56
   1   1  -3   17.74    0.50
   1   1  -3   17.61    0.60
  -1  -1   3   17.30    0.60
  -1  -1   3   17.76    0.61
  -1  -1   3   17.71    0.61
  -1  -1   3   17.74    0.58
  -1  -1   3   17.66    0.58
   1   0  -3   71.11    1.84
   1   0  -3   70.28    2.00
   1   0  -3   70.08    2.00
   1   0  -3   71.64    2.07
   1   0  -3   71.78    2.07
  -1   0   3   69.13    2.07
  -1   0   3   69.95    2.01
  -1   0   3   69.21    2.00
  -1   0   3   69.16    1.82
  -1   0   3   71.62    2.10
  -1   0   3   72.35    2.08
   1  -1  -3   88.27    2.47
   1  -1  -3   86.64    2.56
   1  -1  -3   90.07    2.56
   1  -1  -3   86.41    2.28
   1  -1  -3   88.40    2.47
  -1   1   3   86.63    2.27
  -1   1   3   86.86    2.48
  -1   1   3   90.07    2.60
  -1   1   3   90.21    2.56
  -1   1   3   87.05    2.47
  -1   1   3   84.21    2.55
   1  -2  -3   83.83    2.38
   1  -2  -3   82.09    2.46
   1  -2  -3   87.75    2.47
   1  -2  -3   80.15    2.38
  -1   2   3   83.01    2.19
  -1   2   3   85.28    2.46
  -1   2   3   83.50    2.38
  -1   2   3   84.02    2.46
   1  -3  -3   -0.10    0.07
   1  -3  -3    0.01    0.07
   1  -3  -3    0.00    0.08
   1  -3  -3    0.03    0.07
  -1   3   3    0.03    0.07
  -1   3   3    0.05    0.06
  -1   3   3    0.03    0.06
  -1   3   3    0.00    0.05
   1  -4  -3    4.14    0.25
   1  -4  -3    4.28    0.27
   1  -4  -3    4.29    0.27
   1  -4  -3    3.95    0.25
  -1   4   3    4.07    0.26
  -1   4   3    4.40    0.23
   1  -5  -3    8.43    0.42
   1  -5  -3    8.43    0.38
   1  -5  -3    8.19    0.39
   1  -5  -3    8.69    0.41
   1  -5  -3    8.89    0.39
  -1   5   3    8.64    0.41
   1  -6  -3    4.98    0.30
   1  -6  -3    4.77    0.32
   1  -6  -3    4.78    0.30
   1  -6  -3    4.84    0.31
  -1   6   3    4.56    0.30
   1  -7  -3    0.11    0.11
   1  -7  -3    0.18    0.10
   1  -7  -3    0.04    0.11
   1  -7  -3   -0.01    0.09
  -1   7   3    0.09    0.10
   1  -8  -3    0.52    0.15
   1  -8  -3    0.25    0.16
   1  -8  -3    0.35    0.14
   1  -8  -3    0.42    0.14
   1  -8  -3   -0.01    0.06
   1  -9  -3    3.88    0.35
   1  -9  -3    4.32    0.43
   1  -9  -3    3.87    0.35
   1  -9  -3    3.93    0.34
   1 -10  -3    0.03    0.12
   1 -10  -3    0.13    0.15
   1 -10  -3    0.03    0.14
   1 -10  -3   -0.12    0.17
   1 -11  -3    2.04    0.34
   1 -11  -3    2.28    0.31
   1 -11  -3    2.78    0.32
   1 -12  -3    0.56    0.22
   1 -12  -3    0.19    0.15
   1 -12  -3   -0.28    0.19
  -2 -12   1    0.80    0.18
  -2 -12   1    0.52    0.27
  -2 -11   1    0.37    0.23
  -2 -11   1    0.47    0.14
  -2 -11   1    0.62    0.16
  -2 -10   1    1.58    0.19
  -2 -10   1    1.83    0.20
  -2 -10   1    1.84    0.31
  -2  -9   1    2.43    0.19
  -2  -9   1    2.30    0.18
  -2  -9   1    2.71    0.34
  -2  -9   1    1.95    0.19
  -2  -9   1    2.20    0.20
  -2  -8   1    0.27    0.17
  -2  -8   1    0.32    0.10
  -2  -8   1    0.49    0.11
  -2  -8   1    0.66    0.12
  -2  -8   1    0.44    0.09
  -2  -7   1    2.11    0.26
  -2  -7   1    2.48    0.18
  -2  -7   1    2.54    0.17
  -2  -7   1    2.29    0.19
  -2  -7   1    2.21    0.17
   2   6  -1    3.69    0.18
  -2  -6   1    3.12    0.19
  -2  -6   1    3.61    0.21
  -2  -6   1    3.01    0.18
  -2  -6   1    3.14    0.29
  -2  -6   1    3.15    0.19
   2   5  -1    0.50    0.08
  -2  -5   1    0.45    0.08
  -2  -5   1    0.52    0.09
  -2  -5   1    0.59    0.14
  -2  -5   1    0.41    0.09
  -2  -5   1    0.58    0.09
   2   4  -1   21.59    0.69
  -2  -4   1   22.70    0.70
  -2  -4   1   21.42    0.73
  -2  -4   1   21.72    0.67
  -2  -4   1   20.77    0.70
  -2  -4   1   21.27    0.66
   2   3  -1   12.19    0.43
   2   3  -1   12.76    0.45
  -2  -3   1   12.09    0.44
  -2  -3   1   12.23    0.41
  -2  -3   1   12.91    0.44
  -2  -3   1   12.20    0.42
  -2  -3   1   12.07    0.45
   2   2  -1   17.35    0.58
   2   2  -1   16.97    0.57
   2   2  -1   18.16    0.57
   2   2  -1   17.05    0.53
   2   2  -1   16.92    0.54
  -2  -2   1   16.34    0.54
  -2  -2   1   16.22    0.54
  -2  -2   1   16.31    0.57
   2   1  -1    9.95    0.37
   2   1  -1    9.68    0.31
   2   1  -1    9.08    0.36
   2   1  -1    9.75    0.39
   2   1  -1   10.30    0.35
   2   1  -1   10.34    0.35
   2   1  -1    9.77    0.33
  -2  -1   1    9.45    0.37
  -2  -1   1    9.09    0.35
  -2  -1   1    9.75    0.35
  -2  -1   1    9.91    0.38
  -2  -1   1   10.28    0.38
   2   0  -1    9.11    0.33
   2   0  -1    9.35    0.36
   2   0  -1    9.19    0.36
   2   0  -1    8.57    0.35
   2   0  -1    8.79    0.33
   2   0  -1    8.93    0.29
  -2   0   1    9.58    0.36
  -2   0   1    9.23    0.34
  -2   0   1    9.13    0.36
  -2   0   1    9.11    0.34
  -2   0   1    9.27    0.36
  -2   0   1    8.53    0.29
   2  -1  -1    5.28    0.26
   2  -1  -1    5.34    0.25
   2  -1  -1    5.32    0.24
   2  -1  -1    5.28    0.25
   2  -1  -1    5.28    0.25
   2  -1  -1    5.44    0.24
  -2   1   1    5.31    0.26
  -2   1   1    4.98    0.20
  -2   1   1    4.91    0.25
  -2   1   1    5.16    0.23
  -2   1   1    5.43    0.27
   2  -2  -1    6.18    0.29
   2  -2  -1    6.22    0.27
   2  -2  -1    6.22    0.27
   2  -2  -1    6.18    0.29
  -2   2   1    6.33    0.26
  -2   2   1    6.17    0.29
  -2   2   1    6.36    0.23
  -2   2   1    6.25    0.28
  -2   2   1    6.27    0.29
  -2   2   1    6.07    0.26
   2  -3  -1   25.73    0.83
   2  -3  -1   25.27    0.79
   2  -3  -1   24.59    0.83
   2  -3  -1   26.26    0.80
  -2   3   1   25.34    0.78
  -2   3   1   24.28    0.82
  -2   3   1   25.68    0.85
  -2   3   1   25.17    0.71
   2  -4  -1    8.36    0.34
   2  -4  -1    8.01    0.36
   2  -4  -1    8.90    0.35
   2  -4  -1    6.96    0.34
  -2   4   1    8.19    0.35
  -2   4   1    8.75    0.37
   2  -5  -1    5.29    0.28
   2  -5  -1    5.67    0.31
   2  -5  -1    5.05    0.26
   2  -5  -1    5.18    0.27
  -2   5   1    5.01    0.27
   2  -6  -1    6.31    0.36
   2  -6  -1    6.25    0.33
   2  -6  -1    6.19    0.32
   2  -6  -1    6.56    0.32
   2  -6  -1    6.96    0.34
  -2   6   1    6.38    0.31
   2  -7  -1    3.97    0.26
   2  -7  -1    4.08    0.35
   2  -7  -1    3.72    0.26
   2  -7  -1    3.57    0.25
   2  -7  -1    3.61    0.25
  -2   7   1    3.73    0.24
   2  -8  -1    8.28    0.47
   2  -8  -1    8.38    0.42
   2  -8  -1    9.20    0.43
   2  -8  -1    8.77    0.41
   2  -8  -1    8.64    0.42
   2  -9  -1    0.32    0.13
   2  -9  -1    0.35    0.14
   2  -9  -1    0.38    0.14
   2  -9  -1    0.06    0.16
   2 -10  -1    2.86    0.28
   2 -10  -1    2.27    0.27
   2 -10  -1    2.32    0.33
   2 -10  -1    2.56    0.27
   2 -11  -1    1.22    0.21
   2 -11  -1    0.91    0.29
   2 -11  -1    1.64    0.26
   2 -11  -1    1.46    0.23
   2 -12  -1   -0.01    0.14
   2 -12  -1    0.09    0.20
   2 -12  -1    0.04    0.13
   2 -12  -1   -0.03    0.16
  -3 -12  -1   -0.29    0.18
  -3 -12  -1    0.10    0.14
  -3 -12  -1   -0.22    0.11
  -3 -11  -1    0.05    0.12
  -3 -11  -1   -0.11    0.19
  -3 -11  -1   -0.12    0.12
  -3 -10  -1    2.06    0.24
  -3 -10  -1    2.53    0.28
  -3 -10  -1    2.42    0.34
  -3 -10  -1    2.22    0.27
  -3  -9  -1    2.13    0.24
  -3  -9  -1    1.13    0.24
  -3  -9  -1    1.92    0.23
  -3  -9  -1    1.73    0.21
  -3  -9  -1    1.63    0.21
  -3  -8  -1    0.61    0.15
  -3  -8  -1    0.94    0.15
  -3  -8  -1    0.60    0.14
  -3  -8  -1    0.97    0.22
  -3  -8  -1    0.67    0.14
   3   7   1   10.16    0.44
  -3  -7  -1   11.12    0.52
  -3  -7  -1   11.39    0.47
  -3  -7  -1   10.72    0.47
  -3  -7  -1   10.55    0.45
  -3  -7  -1   10.45    0.48
   3   6   1   21.12    0.73
  -3  -6  -1   21.38    0.73
  -3  -6  -1   21.11    0.75
  -3  -6  -1   22.12    0.73
  -3  -6  -1   20.36    0.76
  -3  -6  -1   20.85    0.77
   3   5   1   59.94    1.74
  -3  -5  -1   57.02    1.69
  -3  -5  -1   56.15    1.75
  -3  -5  -1   57.10    1.70
  -3  -5  -1   59.43    1.76
  -3  -5  -1   56.49    1.69
   3   4   1    8.55    0.38
  -3  -4  -1    9.61    0.38
  -3  -4  -1    8.96    0.37
  -3  -4  -1    9.18    0.40
  -3  -4  -1    9.83    0.38
   3   3   1   32.38    1.04
   3   3   1   33.35    1.00
  -3  -3  -1   32.45    1.01
  -3  -3  -1   32.47    1.05
  -3  -3  -1   33.63    0.97
  -3  -3  -1   32.51    1.05
  -3  -3  -1   33.39    1.01
   3   2   1   41.80    1.19
   3   2   1   41.83    1.24
   3   2   1   40.68    1.19
   3   2   1   39.43    1.09
   3   2   1   40.29    1.24
  -3  -2  -1   39.72    1.24
  -3  -2  -1   38.96    1.20
  -3  -2  -1   39.28    1.24
  -3  -2  -1   39.54    1.12
  -3  -2  -1   40.15    1.19
   3   1   1    1.57    0.15
   3   1   1    1.54    0.13
   3   1   1    1.68    0.12
  -3  -1  -1    1.71    0.09
  -3  -1  -1    2.37    0.19
  -3  -1  -1    1.32    0.12
  -3  -1  -1    1.54    0.11
  -3  -1  -1    1.70    0.16
  -3  -1  -1    1.77    0.16
   3   0   1    2.92    0.19
   3   0   1    2.89    0.18
   3   0   1    2.58    0.18
   3   0   1    2.44    0.19
   3   0   1    2.49    0.17
  -3   0  -1    3.29    0.20
  -3   0  -1    2.86    0.19
  -3   0  -1    2.68    0.15
  -3   0  -1    2.86    0.17
   3  -1   1   16.31    0.60
   3  -1   1   17.14    0.48
   3  -1   1   16.67    0.56
   3  -1   1   17.25    0.48
   3  -1   1   17.15    0.57
   3  -1   1   16.99    0.59
   3  -1   1   17.23    0.59
  -3   1  -1   17.08    0.50
  -3   1  -1   16.66    0.59
  -3   1  -1   16.83    0.55
  -3   1  -1   16.88    0.55
  -3   1  -1   17.43    0.59
   3  -2   1    5.68    0.28
   3  -2   1    5.85    0.28
   3  -2   1    6.20    0.26
   3  -2   1    5.79    0.22
   3  -2   1    5.38    0.26
   3  -2   1    5.78    0.28
  -3   2  -1    6.20    0.29
  -3   2  -1    6.21    0.25
  -3   2  -1    5.58    0.27
  -3   2  -1    5.74    0.21
   3  -3   1   21.82    0.69
   3  -3   1   20.75    0.72
   3  -3   1   20.43    0.72
   3  -3   1   21.10    0.69
   3  -3   1   21.90    0.67
  -3   3  -1   22.05    0.74
  -3   3  -1   21.90    0.72
  -3   3  -1   22.49    0.60
   3  -4   1   10.03    0.40
   3  -4   1   10.80    0.41
   3  -4   1   10.16    0.39
   3  -4   1   10.33    0.39
   3  -4   1    9.77    0.40
  -3   4  -1    9.71    0.39
  -3   4  -1   10.24    0.41
   3  -5   1   11.37    0.44
   3  -5   1   10.59    0.40
   3  -5   1   10.78    0.45
   3  -5   1   10.28    0.42
   3  -5   1   10.26    0.40
  -3   5  -1   10.39    0.41
   3  -6   1    7.36    0.33
   3  -6   1    7.06    0.39
   3  -6   1    7.26    0.34
   3  -6   1    7.73    0.33
   3  -6   1    8.47    0.36
  -3   6  -1    7.49    0.32
   3  -7   1    8.62    0.39
   3  -7   1    8.00    0.45
   3  -7   1    9.08    0.38
   3  -7   1    9.58    0.40
   3  -7   1    8.88    0.38
   3  -8   1    2.10    0.21
   3  -8   1    1.50    0.25
   3  -8   1    1.60    0.18
   3  -8   1    1.71    0.19
   3  -8   1    1.70    0.19
   3  -9   1   -0.03    0.10
   3  -9   1    0.24    0.10
   3  -9   1    0.14    0.10
   3  -9   1    0.29    0.12
   3  -9   1   -0.03    0.15
   3 -10   1    0.48    0.14
   3 -10   1    0.48    0.13
   3 -10   1    0.71    0.16
   3 -10   1    0.48    0.21
   3 -11   1    0.00    0.14
   3 -11   1    0.14    0.21
   3 -11   1    0.15    0.12
   3 -11   1   -0.01    0.10
   3 -12   1    0.06    0.14
   3 -12   1    0.07    0.16
   3 -12   1    0.23    0.22
  -4 -12  -3    0.36    0.19
  -4 -12  -3    0.34    0.26
  -4 -11  -3    0.82    0.21
  -4 -11  -3    0.73    0.25
  -4 -10  -3    3.87    0.39
  -4 -10  -3    3.89    0.37
  -4 -10  -3    4.18    0.44
  -4  -9  -3    3.50    0.39
  -4  -9  -3    4.04    0.38
  -4  -9  -3    3.54    0.35
  -4  -8  -3    0.26    0.15
  -4  -8  -3    0.25    0.13
  -4  -8  -3   -0.02    0.10
  -4  -8  -3   -0.01    0.12
   4   7   3    2.00    0.24
  -4  -7  -3    1.86    0.25
  -4  -7  -3    2.29    0.26
  -4  -7  -3    1.92    0.24
  -4  -7  -3    2.26    0.26
  -4  -7  -3    2.12    0.23
   4   6   3    5.27    0.32
  -4  -6  -3    4.93    0.32
  -4  -6  -3    4.38    0.30
  -4  -6  -3    4.38    0.33
  -4  -6  -3    4.59    0.32
  -4  -6  -3    4.76    0.31
   4   5   3    1.90    0.21
  -4  -5  -3    2.37    0.23
  -4  -5  -3    2.20    0.23
  -4  -5  -3    1.90    0.22
  -4  -5  -3    2.02    0.24
  -4  -5  -3    2.18    0.22
   4   4   3    1.17    0.15
   4   4   3    1.38    0.18
  -4  -4  -3    1.43    0.19
  -4  -4  -3    0.99    0.17
  -4  -4  -3    1.16    0.18
  -4  -4  -3    1.12    0.14
  -4  -4  -3    1.12    0.16
   4   3   3    6.46    0.32
   4   3   3    6.21    0.35
   4   3   3    7.36    0.33
  -4  -3  -3    6.73    0.33
  -4  -3  -3    6.44    0.35
  -4  -3  -3    6.71    0.36
   4   2   3   18.36    0.70
   4   2   3   19.12    0.60
  -4  -2  -3   19.12    0.68
  -4  -2  -3   19.53    0.67
  -4  -2  -3   19.12    0.71
  -4  -2  -3   19.95    0.71
   4   1   3   10.86    0.43
   4   1   3   11.30    0.46
   4   1   3    9.57    0.44
   4   1   3   10.38    0.42
  -4  -1  -3    8.03    0.38
  -4  -1  -3   10.75    0.45
  -4  -1  -3   11.09    0.46
  -4  -1  -3   10.78    0.42
   4   0   3  103.90    2.94
   4   0   3  103.51    2.68
   4   0   3  102.26    3.03
   4   0   3  104.78    2.95
   4   0   3  107.96    3.05
  -4   0  -3  102.22    3.03
  -4   0  -3  106.99    2.94
  -4   0  -3  102.94    2.71
  -4   0  -3  102.28    2.92
   4  -1   3   28.38    0.93
   4  -1   3   28.97    0.97
   4  -1   3   28.69    0.96
   4  -1   3   28.93    0.92
  -4   1  -3   28.23    0.95
  -4   1  -3   29.22    0.90
  -4   1  -3   29.97    0.83
  -4   1  -3   29.97    0.82
   4  -2   3    0.07    0.07
   4  -2   3    0.03    0.06
   4  -2   3    0.18    0.09
   4  -2   3    0.06    0.07
   4  -2   3    0.03    0.07
  -4   2  -3    0.19    0.06
  -4   2  -3    0.16    0.06
  -4   2  -3    0.08    0.07
   4  -3   3    8.02    0.34
   4  -3   3    8.79    0.38
   4  -3   3    8.20    0.35
   4  -3   3    8.34    0.38
   4  -3   3    8.25    0.35
   4  -3   3    8.78    0.38
  -4   3  -3    8.65    0.37
  -4   3  -3    8.51    0.28
   4  -4   3    1.81    0.17
   4  -4   3    2.36    0.18
   4  -4   3    2.33    0.19
   4  -4   3    2.31    0.20
   4  -4   3    2.15    0.20
   4  -4   3    2.34    0.20
  -4   4  -3    2.59    0.21
   4  -5   3    1.67    0.18
   4  -5   3    1.88    0.18
   4  -5   3    1.97    0.17
   4  -5   3    1.67    0.16
   4  -5   3    1.87    0.21
   4  -5   3    1.96    0.18
  -4   5  -3    1.86    0.17
   4  -6   3    1.70    0.18
   4  -6   3    1.49    0.16
   4  -6   3    1.60    0.17
   4  -6   3    1.76    0.23
   4  -6   3    1.52    0.17
   4  -7   3    0.34    0.10
   4  -7   3    0.34    0.11
   4  -7   3    0.49    0.11
   4  -7   3    0.62    0.13
   4  -7   3    0.30    0.15
   4  -8   3    2.74    0.20
   4  -8   3    2.46    0.32
   4  -8   3    2.47    0.22
   4  -8   3    3.06    0.23
   4  -8   3    2.87    0.24
   4  -9   3    0.83    0.12
   4  -9   3    0.84    0.13
   4  -9   3    1.22    0.27
   4  -9   3    0.67    0.15
   4  -9   3    1.07    0.16
   4 -10   3    0.14    0.11
   4 -10   3    0.27    0.21
   4 -10   3    0.13    0.12
   4 -11   3    0.74    0.17
   4 -11   3    0.82    0.28
   4 -11   3    0.70    0.17
  -5 -11  -5    1.25    0.27
  -5 -11  -5    1.00    0.29
  -5 -11  -5    1.66    0.31
  -5 -10  -5    1.06    0.27
  -5 -10  -5    0.94    0.25
  -5  -9  -5   -0.12    0.14
  -5  -9  -5    0.16    0.18
  -5  -8  -5    0.85    0.23
  -5  -8  -5    1.39    0.25
   5   7   5   10.51    0.57
  -5  -7  -5   10.67    0.53
  -5  -7  -5   10.87    0.56
  -5  -7  -5   10.60    0.60
   5   6   5    0.46    0.16
  -5  -6  -5    0.21    0.15
  -5  -6  -5    0.44    0.14
  -5  -6  -5    0.27    0.14
  -5  -6  -5    0.37    0.17
   5   5   5    1.08    0.18
   5   5   5    1.18    0.20
  -5  -5  -5    1.49    0.24
  -5  -5  -5    1.47    0.22
   5   4   5    2.48    0.29
   5   4   5    2.31    0.24
  -5  -4  -5    1.83    0.24
  -5  -4  -5    2.05    0.27
   5   3   5    9.73    0.44
   5   3   5    9.53    0.38
   5   3   5    9.52    0.49
   5   3   5    7.58    0.42
  -5  -3  -5    9.41    0.45
  -5  -3  -5    9.77    0.49
   5   2   5    5.14    0.35
   5   2   5    6.02    0.33
   5   2   5    5.79    0.34
  -5  -2  -5    5.87    0.37
  -5  -2  -5    5.67    0.33
   5   1   5   19.79    0.61
   5   1   5   20.41    0.77
   5   1   5   18.98    0.76
   5   1   5   19.87    0.74
   5   1   5   19.01    0.72
  -5  -1  -5   19.15    0.76
   5   0   5    8.00    0.42
   5   0   5    8.76    0.44
   5   0   5    8.51    0.29
   5   0   5    8.54    0.42
   5   0   5    8.19    0.40
  -5   0  -5    8.21    0.43
  -5   0  -5    8.53    0.35
   5  -1   5    2.23    0.23
   5  -1   5    2.32    0.21
   5  -1   5    3.01    0.28
   5  -1   5    2.65    0.24
  -5   1  -5    2.67    0.25
  -5   1  -5    2.59    0.18
   5  -2   5   21.52    0.81
   5  -2   5   22.65    0.78
   5  -2   5   21.85    0.79
   5  -2   5   22.12    0.82
  -5   2  -5   22.21    0.67
  -5   2  -5   21.15    0.80
   5  -3   5    4.13    0.28
   5  -3   5    3.77    0.28
   5  -3   5    3.97    0.27
   5  -3   5    4.35    0.27
   5  -3   5    4.16    0.28
  -5   3  -5    3.57    0.26
  -5   3  -5    3.93    0.20
   5  -4   5    8.65    0.43
   5  -4   5    9.52    0.44
   5  -4   5    8.64    0.42
   5  -4   5    8.73    0.41
   5  -4   5    9.12    0.42
  -5   4  -5    9.73    0.42
  -5   4  -5    9.18    0.32
   5  -5   5    2.08    0.21
   5  -5   5    2.20    0.23
   5  -5   5    2.05    0.22
   5  -5   5    2.25    0.20
   5  -5   5    2.02    0.22
   5  -6   5    1.45    0.19
   5  -6   5    1.38    0.19
   5  -6   5    1.23    0.17
   5  -6   5    1.53    0.19
   5  -7   5    1.95    0.21
   5  -7   5    1.37    0.19
   5  -7   5    1.38    0.19
   5  -7   5    1.51    0.20
   5  -8   5    1.45    0.17
   5  -8   5    1.41    0.16
   5  -8   5    1.85    0.21
   5  -8   5    1.64    0.28
   5  -8   5    1.36    0.19
   5  -9   5    0.31    0.14
   5  -9   5    0.58    0.16
   5  -9   5    0.78    0.24
   5 -10   5    0.13    0.20
   5 -10   5    0.16    0.13
   5 -10   5    0.13    0.13
  -6 -10  -7    0.01    0.21
  -6 -10  -7    0.04    0.18
  -6  -9  -7    0.40    0.21
  -6  -9  -7    0.56    0.25
  -6  -8  -7    0.78    0.22
  -6  -8  -7    1.81    0.33
  -6  -7  -7    3.24    0.42
   6   6   7    7.29    0.60
  -6  -6  -7    6.20    0.56
   6   5   7    0.21    0.16
  -6  -5  -7    0.02    0.14
   6   4   7    3.24    0.26
   6   4   7    3.33    0.38
  -6  -4  -7    3.87    0.40
   6   3   7   22.07    0.90
   6   3   7   20.92    0.70
   6   3   7   20.52    0.84
  -6  -3  -7   19.97    0.88
   6   2   7    2.43    0.20
   6   2   7    2.44    0.30
   6   2   7    2.71    0.31
   6   2   7    1.88    0.22
  -6  -2  -7    3.21    0.33
   6   1   7    2.51    0.16
   6   1   7    2.01    0.28
   6   1   7    2.03    0.25
   6   1   7    1.90    0.23
  -6  -1  -7    2.43    0.29
   6   0   7    1.69    0.22
   6   0   7    2.62    0.30
   6   0   7    2.28    0.27
   6   0   7    3.33    0.36
  -6   0  -7    3.01    0.31
   6  -1   7   15.29    0.65
   6  -1   7   15.58    0.66
   6  -1   7   15.39    0.69
   6  -1   7   14.41    0.67
  -6   1  -7   14.73    0.56
  -6   1  -7   13.52    0.64
   6  -2   7    0.10    0.11
   6  -2   7    0.19    0.14
   6  -2   7    0.15    0.13
  -6   2  -7   -0.06    0.08
   6  -3   7    0.13    0.12
   6  -3   7   -0.01    0.12
   6  -3   7   -0.03    0.13
   6  -4   7    2.84    0.29
   6  -4   7    2.68    0.27
   6  -4   7    2.58    0.29
   6  -4   7    3.17    0.31
   6  -5   7    0.99    0.17
   6  -5   7    0.83    0.19
   6  -5   7    0.89    0.18
   6  -5   7    0.90    0.19
   6  -6   7    1.88    0.25
   6  -6   7    1.65    0.25
   6  -6   7    1.58    0.22
   6  -6   7    1.91    0.15
   6  -7   7    0.68    0.17
   6  -7   7    0.93    0.20
   6  -7   7    0.64    0.16
   6  -8   7    0.32    0.13
   6  -8   7    0.22    0.16
   6  -8   7    0.43    0.16
   6  -9   7    0.19    0.15
   6  -9   7    0.12    0.16
  -7  -9  -9    0.64    0.23
  -7  -9  -9    1.10    0.31
  -7  -8  -9    1.43    0.36
  -7  -8  -9    0.54    0.22
  -7  -7  -9    0.79    0.28
   7   6   9    0.99    0.28
  -7  -6  -9    1.45    0.33
   7   5   9   -0.01    0.17
  -7  -5  -9   -0.04    0.17
   7   4   9    3.24    0.41
  -7  -4  -9    3.47    0.45
   7   3   9    1.09    0.27
   7   3   9    0.95    0.16
  -7  -3  -9    0.78    0.24
   7   2   9    0.31    0.09
   7   2   9    0.02    0.17
   7   2   9    0.24    0.09
  -7  -2  -9    0.19    0.15
   7   1   9    0.58    0.16
   7   1   9    0.59    0.21
   7   0   9    4.62    0.46
   7   0   9    3.25    0.33
   7  -1   9    1.22    0.22
   7  -1   9    1.92    0.31
   7  -2   9    0.43    0.16
   7  -2   9    0.63    0.21
   7  -3   9    1.06    0.25
   7  -3   9    1.53    0.27
   7  -4   9    0.63    0.20
   7  -4   9    0.68    0.20
   7  -4   9    0.47    0.17
   7  -5   9    0.42    0.15
   7  -5   9    0.54    0.21
   7  -5   9    0.77    0.23
   7  -6   9    0.02    0.18
   7  -6   9    0.28    0.17
   7  -7   9    0.24    0.16
   7  -7   9   -0.01    0.20
   8   5  11    0.19    0.25
   8   4  11    0.25    0.13
   8   4  11    0.48    0.28
   8   3  11    0.12    0.26
   8   2  11    0.63    0.22
   8   2  11    1.27    0.33
   8   1  11    3.89    0.50
   8   0  11    0.50    0.22
   8  -1  11    0.64    0.26
   8  -2  11    0.45    0.24
   8  -3  11    0.08    0.17
   8  -3  11    0.06    0.20
   3  -4  12    0.18    0.18
   3  -4  12    0.47    0.22
   3  -3  12    0.59    0.23
   3  -3  12    0.51    0.22
   3  -2  12    0.19    0.20
   3  -2  12    0.46    0.20
   3  -1  12    1.19    0.29
   3   0  12    0.55    0.25
   3   1  12    0.48    0.26
   3   2  12   -0.05    0.20
   3   3  12    1.02    0.28
  -3  -4 -12    0.07    0.15
   3   4  12    0.16    0.23
   3   5  12    0.21    0.22
   2  -7  10    0.10    0.13
   2  -7  10    0.31    0.17
   2  -6  10    0.08    0.12
   2  -6  10   -0.01    0.12
   2  -6  10    0.12    0.15
   2  -5  10    0.11    0.16
   2  -5  10    0.27    0.15
   2  -5  10    0.20    0.14
   2  -4  10    0.88    0.21
   2  -4  10    0.97    0.22
   2  -4  10    1.10    0.21
   2  -3  10    0.26    0.16
   2  -3  10    0.00    0.12
   2  -3  10    0.32    0.15
   2  -2  10    1.90    0.28
   2  -2  10    1.91    0.29
   2  -2  10    2.28    0.29
   2  -1  10    2.57    0.31
   2  -1  10    2.59    0.33
   2   0  10    2.47    0.32
   2   0  10    2.62    0.35
   2   1  10    1.41    0.28
   2   1  10    1.39    0.26
   2   2  10    3.42    0.41
  -2  -3 -10    5.17    0.49
   2   3  10    4.94    0.27
   2   3  10    5.84    0.54
   2   3  10    4.34    0.25
  -2  -4 -10    1.45    0.28
   2   4  10    0.71    0.24
   2   4  10    0.43    0.13
  -2  -5 -10    1.04    0.28
  -2  -5 -10    0.59    0.18
   2   5  10    0.86    0.28
   2   5  10    0.59    0.15
  -2  -6 -10    1.21    0.29
   2   6  10    1.74    0.32
   2   6  10    1.53    0.22
  -2  -7 -10    0.02    0.22
   2   7  10    0.36    0.15
  -2  -8 -10    0.86    0.26
  -2  -9 -10   -0.21    0.17
   1  -8   8    0.37    0.14
   1  -8   8    0.17    0.11
   1  -7   8    1.12    0.17
   1  -7   8    1.30    0.19
   1  -6   8    1.56    0.20
   1  -6   8    1.84    0.19
   1  -6   8    1.74    0.22
   1  -6   8    2.08    0.21
   1  -5   8    5.00    0.32
   1  -5   8    5.43    0.34
   1  -5   8    6.30    0.34
   1  -5   8    5.32    0.33
   1  -5   8    5.64    0.33
   1  -4   8    1.18    0.18
   1  -4   8    0.96    0.17
   1  -4   8    1.16    0.19
   1  -4   8    0.76    0.15
   1  -3   8    0.42    0.13
   1  -3   8    0.46    0.14
   1  -3   8    0.56    0.13
   1  -3   8    0.71    0.16
   1  -3   8    0.69    0.15
   1  -2   8    0.42    0.14
   1  -2   8    0.17    0.10
   1  -2   8    0.21    0.13
   1  -2   8    0.19    0.12
   1  -2   8    0.13    0.10
  -1   1  -8    1.48    0.21
   1  -1   8    2.07    0.18
   1  -1   8    1.94    0.25
   1  -1   8    1.61    0.22
   1  -1   8    2.06    0.26
   1  -1   8    1.45    0.21
  -1   0  -8    1.41    0.21
   1   0   8    1.34    0.21
   1   0   8    0.88    0.17
   1   0   8    1.43    0.21
   1   0   8    1.69    0.23
  -1  -1  -8    0.28    0.15
   1   1   8    0.32    0.14
   1   1   8    0.24    0.11
   1   1   8    0.24    0.13
   1   1   8    0.64    0.19
  -1  -2  -8    0.46    0.16
   1   2   8    0.43    0.17
   1   2   8    0.52    0.13
   1   2   8    0.48    0.10
   1   2   8    0.93    0.19
  -1  -3  -8    3.67    0.37
   1   3   8    3.47    0.35
   1   3   8    3.29    0.23
   1   3   8    3.86    0.39
  -1  -4  -8    8.41    0.53
   1   4   8    8.79    0.53
   1   4   8    8.67    0.40
  -1  -5  -8    4.84    0.45
   1   5   8    5.06    0.31
   1   5   8    4.03    0.40
  -1  -6  -8    2.61    0.28
  -1  -6  -8    3.11    0.37
   1   6   8    1.84    0.30
   1   6   8    2.29    0.24
  -1  -7  -8   -0.08    0.15
   1   7   8   -0.04    0.11
   1   7   8   -0.12    0.16
  -1  -8  -8    2.64    0.38
  -1  -9  -8    0.31    0.22
  -1 -10  -8    0.31    0.23
   0  -8   6    0.05    0.08
   0  -7   6    0.71    0.11
   0  -7   6    0.72    0.12
   0  -6   6    2.09    0.17
   0  -6   6    2.02    0.18
   0  -6   6    2.09    0.19
   0  -6   6    2.28    0.18
   0  -5   6    0.20    0.09
   0  -5   6    0.15    0.09
   0  -5   6    0.22    0.09
   0  -5   6    0.28    0.10
   0   4  -6    1.12    0.14
   0  -4   6    0.78    0.13
   0  -4   6    1.04    0.15
   0  -4   6    0.98    0.14
   0  -4   6    1.03    0.14
   0  -4   6    1.10    0.13
   0  -4   6    0.90    0.14
   0   3  -6    2.92    0.21
   0  -3   6    3.12    0.23
   0  -3   6    2.86    0.21
   0  -3   6    3.16    0.22
   0  -3   6    3.38    0.23
   0  -3   6    2.87    0.25
   0   2  -6   24.67    0.87
   0  -2   6   25.47    0.85
   0  -2   6   25.46    0.88
   0  -2   6   25.49    0.89
   0  -2   6   24.91    0.85
   0  -2   6   26.58    0.89
   0   1  -6    1.55    0.19
   0  -1   6    2.26    0.23
   0  -1   6    1.11    0.16
   0  -1   6    2.16    0.21
   0  -1   6    1.69    0.19
   0  -1   6    2.09    0.22
   0   0  -6   13.26    0.57
   0   0  -6   14.49    0.47
   0   0   6   13.47    0.55
   0   0   6   14.84    0.59
   0   0   6   12.58    0.57
   0   0   6   13.75    0.55
   0  -1  -6    4.08    0.26
   0  -1  -6    4.03    0.30
   0   1   6    4.54    0.29
   0   1   6    4.56    0.31
   0   1   6    4.76    0.31
   0   1   6    4.75    0.29
   0   1   6    4.27    0.20
   0  -2  -6    6.00    0.36
   0  -2  -6    6.22    0.33
   0   2   6    5.57    0.33
   0   2   6    5.84    0.36
   0   2   6    5.78    0.26
   0   2   6    5.67    0.33
   0  -3  -6    5.95    0.38
   0  -3  -6    6.35    0.36
   0   3   6    5.76    0.34
   0   3   6    5.91    0.28
   0   3   6    5.59    0.37
   0  -4  -6    0.39    0.13
   0  -4  -6    0.32    0.12
   0  -4  -6    0.40    0.15
   0   4   6    0.43    0.13
   0   4   6    0.17    0.11
   0   4   6    0.42    0.12
   0   4   6    0.24    0.10
   0  -5  -6   -0.03    0.08
   0  -5  -6    0.02    0.09
   0  -5  -6    0.06    0.13
   0   5   6    0.13    0.13
   0   5   6    0.14    0.09
   0   5   6    0.09    0.10
   0  -6  -6    2.29    0.29
   0  -6  -6    1.59    0.20
   0  -6  -6    1.86    0.24
   0  -6  -6    1.81    0.27
   0   6   6    2.13    0.28
   0  -7  -6    0.40    0.16
   0  -7  -6    0.78    0.21
   0   7   6    0.65    0.19
   0  -8  -6    2.18    0.31
   0  -8  -6    1.87    0.28
   0  -9  -6    1.29    0.24
   0  -9  -6    1.40    0.28
   0 -10  -6    2.24    0.33
   0 -10  -6    1.82    0.31
   0 -11  -6    0.66    0.27
   0 -11  -6    0.39    0.23
  -1 -11   4    0.16    0.23
  -1 -10   4    0.19    0.22
  -1  -9   4    1.48    0.30
  -1  -8   4    3.90    0.43
  -1  -7   4    0.08    0.07
  -1  -7   4    0.10    0.07
  -1  -6   4    7.74    0.30
  -1  -6   4    7.61    0.30
  -1  -6   4    6.96    0.30
  -1  -6   4    7.31    0.30
  -1  -5   4    0.54    0.09
  -1  -5   4    0.52    0.10
  -1  -5   4    0.53    0.09
  -1  -5   4    0.58    0.09
   1   4  -4    6.00    0.26
  -1  -4   4    5.79    0.28
  -1  -4   4    5.99    0.26
  -1  -4   4    5.75    0.26
  -1  -4   4    5.92    0.28
   1   3  -4   44.88    1.31
  -1  -3   4   42.23    1.32
  -1  -3   4   42.26    1.32
  -1  -3   4   43.24    1.32
  -1  -3   4   42.99    1.28
  -1  -3   4   43.32    1.28
   1   2  -4   41.18    1.07
   1   2  -4   40.26    1.24
  -1  -2   4   38.41    1.25
  -1  -2   4   41.70    1.27
  -1  -2   4   40.35    1.26
  -1  -2   4   39.79    1.21
  -1  -2   4   40.04    1.25
  -1  -2   4   40.84    1.21
   1   1  -4    0.96    0.13
   1   1  -4    1.09    0.10
  -1  -1   4    0.79    0.12
  -1  -1   4    0.89    0.13
  -1  -1   4    0.91    0.14
  -1  -1   4    0.75    0.11
  -1  -1   4    0.77    0.12
   1   0  -4    5.81    0.24
   1   0  -4    5.56    0.30
   1   0  -4    5.80    0.27
  -1   0   4    5.58    0.28
  -1   0   4    6.05    0.31
  -1   0   4    5.92    0.31
  -1   0   4    6.28    0.31
  -1   0   4    5.65    0.20
   1  -1  -4   17.88    0.62
   1  -1  -4   18.21    0.63
   1  -1  -4   17.77    0.66
   1  -1  -4   17.06    0.55
  -1   1   4   17.49    0.63
  -1   1   4   18.69    0.67
  -1   1   4   18.27    0.54
  -1   1   4   18.13    0.68
   1  -2  -4  108.02    3.17
  -1   2   4  104.48    3.06
  -1   2   4  105.21    3.16
  -1   2   4  108.91    3.06
  -1   2   4  107.92    2.82
  -1   2   4  113.74    3.18
   1  -3  -4   49.69    1.57
   1  -3  -4   50.73    1.52
   1  -3  -4   49.18    1.58
   1  -3  -4   50.88    1.52
  -1   3   4   48.06    1.50
  -1   3   4   50.01    1.37
  -1   3   4   49.01    1.58
  -1   3   4   50.50    1.51
   1  -4  -4    1.72    0.18
   1  -4  -4    2.20    0.21
   1  -4  -4    2.34    0.24
   1  -4  -4    2.10    0.24
  -1   4   4    2.11    0.21
  -1   4   4    2.40    0.21
  -1   4   4    2.22    0.18
   1  -5  -4    4.49    0.37
   1  -5  -4    3.35    0.28
   1  -5  -4    2.95    0.26
   1  -5  -4    2.99    0.28
  -1   5   4    3.16    0.23
  -1   5   4    3.20    0.30
   1  -6  -4    6.71    0.42
   1  -6  -4    7.78    0.42
   1  -6  -4    6.87    0.37
   1  -6  -4    6.85    0.39
   1  -6  -4    7.71    0.40
  -1   6   4    7.68    0.42
   1  -7  -4    0.16    0.12
   1  -7  -4    0.11    0.13
   1  -7  -4    0.12    0.13
   1  -7  -4    0.12    0.12
  -1   7   4    0.12    0.12
   1  -8  -4    0.52    0.16
   1  -8  -4    0.40    0.16
   1  -8  -4    0.32    0.16
   1  -9  -4    1.22    0.23
   1  -9  -4    1.42    0.25
   1  -9  -4    1.38    0.27
   1  -9  -4    1.59    0.24
   1 -10  -4    0.20    0.15
   1 -10  -4    0.50    0.25
   1 -10  -4    0.81    0.21
   1 -11  -4    0.01    0.16
   1 -11  -4    0.01    0.21
   1 -11  -4   -0.22    0.14
   1 -12  -4    0.45    0.22
   1 -12  -4    0.38    0.20
   1 -12  -4    0.13    0.22
  -2 -12   2    0.12    0.14
  -2 -12   2   -0.06    0.11
  -2 -12   2    0.23    0.25
  -2 -11   2    0.22    0.12
  -2 -11   2    0.01    0.12
  -2 -11   2    0.19    0.21
  -2 -10   2    0.94    0.15
  -2 -10   2    0.97    0.15
  -2 -10   2    1.51    0.33
  -2  -9   2    0.48    0.22
  -2  -9   2    0.25    0.10
  -2  -9   2    0.15    0.09
  -2  -8   2    1.66    0.15
  -2  -8   2    1.23    0.15
  -2  -8   2    2.03    0.30
  -2  -8   2    1.49    0.15
  -2  -8   2    1.42    0.15
   2   7  -2    1.08    0.14
  -2  -7   2    1.06    0.13
  -2  -7   2    1.39    0.25
  -2  -7   2    1.13    0.14
  -2  -7   2    1.39    0.14
  -2  -7   2    0.88    0.11
   2   6  -2    9.35    0.39
  -2  -6   2   10.07    0.38
  -2  -6   2    9.61    0.37
  -2  -6   2    9.73    0.39
  -2  -6   2    9.68    0.36
  -2  -6   2   10.96    0.51
   2   5  -2    1.81    0.16
   2   5  -2    1.80    0.15
  -2  -5   2    1.95    0.16
  -2  -5   2    1.80    0.21
  -2  -5   2    1.74    0.15
  -2  -5   2    1.66    0.16
  -2  -5   2    1.79    0.14
   2   4  -2   11.78    0.42
   2   4  -2   11.59    0.45
  -2  -4   2   12.30    0.44
  -2  -4   2   11.88    0.44
  -2  -4   2   11.12    0.41
  -2  -4   2   12.00    0.49
  -2  -4   2   11.90    0.42
   2   3  -2    3.01    0.18
   2   3  -2    2.81    0.19
  -2  -3   2    2.97    0.19
  -2  -3   2    2.58    0.17
  -2  -3   2    2.90    0.19
  -2  -3   2    3.01    0.17
   2   2  -2    0.18    0.05
   2   2  -2    0.32    0.08
   2   2  -2    0.30    0.08
   2   2  -2    0.12    0.06
  -2  -2   2    0.18    0.06
  -2  -2   2    0.23    0.08
  -2  -2   2    0.16    0.07
  -2  -2   2    0.11    0.07
   2   1  -2    4.23    0.18
   2   1  -2    4.18    0.21
   2   1  -2    4.16    0.24
   2   1  -2    4.12    0.23
   2   1  -2    4.11    0.20
  -2  -1   2    3.71    0.22
  -2  -1   2    4.36    0.21
  -2  -1   2    4.10    0.23
  -2  -1   2    4.81    0.24
  -2  -1   2    4.33    0.22
   2   0  -2    1.00    0.10
   2   0  -2    1.23    0.13
   2   0  -2    1.20    0.15
   2   0  -2    1.19    0.12
   2   0  -2    1.34    0.15
  -2   0   2    1.46    0.16
  -2   0   2    1.33    0.14
  -2   0   2    1.11    0.13
  -2   0   2    0.93    0.11
  -2   0   2    1.18    0.12
  -2   0   2    1.27    0.10
   2  -1  -2   60.11    1.56
   2  -1  -2   60.55    1.71
   2  -1  -2   55.78    1.78
   2  -1  -2   57.21    1.76
   2  -1  -2   61.93    1.77
  -2   1   2   59.41    1.79
  -2   1   2   58.16    1.76
  -2   1   2   58.68    1.70
  -2   1   2   57.56    1.56
  -2   1   2   57.22    1.70
  -2   1   2   60.75    1.77
   2  -2  -2   30.22    0.99
   2  -2  -2   30.29    0.99
   2  -2  -2   30.17    0.94
   2  -2  -2   28.83    0.94
  -2   2   2   30.64    0.94
  -2   2   2   31.60    0.99
  -2   2   2   30.01    0.85
  -2   2   2   30.49    1.00
  -2   2   2   30.44    0.94
  -2   2   2   29.63    0.98
   2  -3  -2    9.43    0.43
   2  -3  -2   10.00    0.41
   2  -3  -2   10.22    0.41
   2  -3  -2   11.00    0.45
  -2   3   2   10.39    0.40
  -2   3   2    9.97    0.39
  -2   3   2   10.00    0.43
  -2   3   2   10.16    0.35
  -2   3   2   10.97    0.45
   2  -4  -2   25.95    0.86
   2  -4  -2   26.40    0.86
   2  -4  -2   25.08    0.89
   2  -4  -2   26.83    0.90
  -2   4   2   26.71    0.91
  -2   4   2   26.88    0.83
  -2   4   2   25.35    0.88
  -2   4   2   25.84    0.76
   2  -5  -2   13.04    0.51
   2  -5  -2   13.18    0.51
   2  -5  -2   12.80    0.54
   2  -5  -2   12.40    0.54
   2  -5  -2   12.57    0.51
  -2   5   2   13.49    0.53
   2  -6  -2   22.22    0.85
   2  -6  -2   24.12    0.83
   2  -6  -2   24.17    0.83
  -2   6   2   24.46    0.85
   2  -7  -2    1.48    0.19
   2  -7  -2    0.63    0.13
   2  -7  -2    1.55    0.23
   2  -7  -2    1.34    0.19
   2  -7  -2    1.48    0.19
  -2   7   2    1.56    0.20
   2  -8  -2    0.09    0.11
   2  -8  -2    0.12    0.10
   2  -8  -2    0.01    0.10
   2  -8  -2   -0.11    0.10
   2  -8  -2   -0.01    0.13
   2  -9  -2    3.03    0.30
   2  -9  -2    2.65    0.28
   2  -9  -2    2.73    0.34
   2  -9  -2    3.21    0.30
   2 -10  -2    0.50    0.19
   2 -10  -2    0.60    0.18
   2 -10  -2    0.49    0.18
   2 -10  -2    0.20    0.18
   2 -11  -2    0.43    0.23
   2 -11  -2    0.12    0.15
   2 -11  -2    0.15    0.17
   2 -11  -2    0.32    0.16
   2 -12  -2    0.24    0.17
   2 -12  -2    0.32    0.24
   2 -12  -2    0.55    0.21
  -3 -12   0    0.57    0.19
  -3 -12   0    0.82    0.28
  -3 -12   0    0.69    0.15
  -3 -11   0    1.04    0.17
  -3 -11   0    0.80    0.18
  -3 -11   0    1.44    0.30
  -3 -11   0    1.07    0.21
  -3 -10   0    2.37    0.24
  -3 -10   0    2.54    0.27
  -3 -10   0    2.31    0.36
  -3 -10   0    2.50    0.27
  -3  -9   0    1.61    0.20
  -3  -9   0    2.08    0.22
  -3  -9   0    1.96    0.29
  -3  -9   0    2.20    0.23
  -3  -9   0    1.83    0.21
  -3  -8   0    3.36    0.35
  -3  -8   0    3.00    0.26
  -3  -8   0    3.12    0.26
  -3  -8   0    3.45    0.24
  -3  -8   0    3.22    0.26
   3   7   0    0.85    0.13
  -3  -7   0    0.54    0.12
  -3  -7   0    0.49    0.12
  -3  -7   0    0.43    0.15
  -3  -7   0    0.50    0.12
  -3  -7   0    0.43    0.12
   3   6   0   16.81    0.61
  -3  -6   0   16.48    0.60
  -3  -6   0   16.74    0.64
  -3  -6   0   17.47    0.62
  -3  -6   0   17.71    0.68
  -3  -6   0   17.69    0.64
   3   5   0    8.90    0.37
  -3  -5   0    8.56    0.37
  -3  -5   0    9.30    0.41
  -3  -5   0    9.05    0.39
  -3  -5   0    8.74    0.39
  -3  -5   0    8.36    0.36
   3   4   0   -0.04    0.06
  -3  -4   0    0.03    0.07
  -3  -4   0    0.23    0.09
  -3  -4   0   -0.04    0.04
  -3  -4   0    0.13    0.07
  -3  -4   0    0.11    0.08
   3   3   0    0.10    0.07
   3   3   0    0.23    0.07
  -3  -3   0    0.10    0.07
  -3  -3   0    0.17    0.08
  -3  -3   0    0.15    0.09
  -3  -3   0    0.12    0.07
  -3  -3   0    0.15    0.07
   3   2   0   15.65    0.53
   3   2   0   16.01    0.48
   3   2   0   15.65    0.50
   3   2   0   15.47    0.56
   3   2   0   16.58    0.53
   3   2   0   15.35    0.58
  -3  -2   0   15.44    0.53
  -3  -2   0   15.18    0.54
  -3  -2   0   15.27    0.56
  -3  -2   0   16.01    0.50
  -3  -2   0   16.01    0.57
   3   1   0   15.79    0.53
   3   1   0   15.79    0.56
   3   1   0   14.75    0.55
   3   1   0   15.05    0.52
   3   1   0   15.63    0.57
   3   1   0   15.72    0.46
   3   1   0   15.11    0.47
  -3  -1   0   14.61    0.52
  -3  -1   0   14.86    0.55
  -3  -1   0   15.18    0.46
  -3  -1   0   16.38    0.54
  -3  -1   0   16.98    0.57
   3   0   0    7.76    0.34
   3   0   0    8.26    0.35
   3   0   0    7.86    0.32
   3   0   0    7.90    0.28
   3   0   0    7.68    0.36
  -3   0   0    8.66    0.33
  -3   0   0    8.00    0.35
  -3   0   0    7.50    0.28
  -3   0   0    8.48    0.33
  -3   0   0    8.35    0.36
   3  -1   0   11.86    0.43
   3  -1   0   11.22    0.47
   3  -1   0   11.33    0.45
   3  -1   0   11.85    0.37
   3  -1   0   12.27    0.44
  -3   1   0   12.38    0.47
  -3   1   0   11.79    0.43
  -3   1   0   11.86    0.43
  -3   1   0   11.61    0.46
  -3   1   0   11.73    0.38
  -3   1   0   11.98    0.46
   3  -2   0   13.41    0.51
   3  -2   0   13.70    0.49
   3  -2   0   13.54    0.52
   3  -2   0   13.61    0.51
   3  -2   0   13.38    0.48
  -3   2   0   13.91    0.47
  -3   2   0   14.37    0.53
  -3   2   0   13.67    0.47
  -3   2   0   12.90    0.51
  -3   2   0   13.57    0.42
   3  -3   0   27.60    0.88
   3  -3   0   25.21    0.87
   3  -3   0   26.83    0.84
   3  -3   0   26.53    0.80
   3  -3   0   25.49    0.83
   3  -3   0   25.45    0.88
  -3   3   0   27.61    0.89
  -3   3   0   26.69    0.81
  -3   3   0   25.82    0.74
  -3   3   0   25.40    0.86
   3  -4   0    0.90    0.14
   3  -4   0    0.97    0.12
   3  -4   0    0.98    0.14
   3  -4   0    1.02    0.12
  -3   4   0    0.99    0.14
  -3   4   0    1.00    0.09
  -3   4   0    1.04    0.14
   3  -5   0   31.33    1.00
   3  -5   0   28.54    0.99
   3  -5   0   31.14    0.96
   3  -5   0   29.97    0.96
   3  -5   0   28.91    0.96
  -3   5   0   30.23    0.98
   3  -6   0    0.26    0.10
   3  -6   0    0.64    0.13
   3  -6   0    0.36    0.14
   3  -6   0    0.49    0.12
   3  -6   0    0.57    0.12
  -3   6   0    0.66    0.12
   3  -7   0    0.78    0.18
   3  -7   0    0.63    0.13
   3  -7   0    0.60    0.14
   3  -7   0    0.87    0.14
   3  -7   0    0.93    0.15
  -3   7   0    0.73    0.13
   3  -8   0    0.20    0.12
   3  -8   0    0.55    0.18
   3  -8   0    0.59    0.14
   3  -8   0    0.52    0.13
   3  -8   0    0.62    0.15
   3  -9   0    4.98    0.45
   3  -9   0    4.87    0.33
   3  -9   0    4.96    0.33
   3  -9   0    5.21    0.34
   3 -10   0    0.28    0.15
   3 -10   0    0.01    0.10
   3 -10   0   -0.06    0.11
   3 -10   0   -0.07    0.16
   3 -11   0    0.27    0.16
   3 -11   0    0.36    0.18
   3 -11   0    0.13    0.13
   3 -11   0   -0.11    0.18
   3 -12   0    0.03    0.20
   3 -12   0    0.19    0.13
   3 -12   0    0.18    0.15
   3 -12   0    0.29    0.17
  -4 -12  -2    0.36    0.17
  -4 -12  -2    0.86    0.30
  -4 -11  -2    0.07    0.14
  -4 -11  -2    0.16    0.16
  -4 -11  -2    0.10    0.19
  -4 -10  -2    0.44    0.17
  -4 -10  -2    0.20    0.14
  -4 -10  -2    0.24    0.14
  -4 -10  -2    0.41    0.23
  -4  -9  -2    7.42    0.45
  -4  -9  -2    6.76    0.47
  -4  -9  -2    8.03    0.45
  -4  -9  -2    7.49    0.45
  -4  -8  -2   -0.03    0.11
  -4  -8  -2    0.04    0.12
  -4  -8  -2    0.03    0.10
  -4  -8  -2    0.19    0.15
   4   7   2    0.88    0.16
  -4  -7  -2    0.89    0.19
  -4  -7  -2    0.79    0.17
  -4  -7  -2    1.00    0.18
  -4  -7  -2    0.80    0.16
  -4  -7  -2    0.70    0.15
   4   6   2    5.46    0.32
  -4  -6  -2    5.19    0.34
  -4  -6  -2    5.24    0.31
  -4  -6  -2    4.76    0.31
  -4  -6  -2    4.91    0.32
  -4  -6  -2    5.16    0.23
   4   5   2   19.93    0.74
  -4  -5  -2   19.56    0.76
  -4  -5  -2   18.99    0.74
  -4  -5  -2   20.49    0.72
  -4  -5  -2   19.72    0.70
  -4  -5  -2   20.92    0.74
   4   4   2    3.77    0.30
   4   4   2    2.90    0.20
  -4  -4  -2    2.27    0.20
  -4  -4  -2    3.29    0.27
  -4  -4  -2    2.85    0.20
  -4  -4  -2    2.73    0.22
  -4  -4  -2    2.73    0.26
   4   3   2   12.65    0.43
   4   3   2   13.20    0.53
   4   3   2   12.83    0.49
  -4  -3  -2   11.64    0.48
  -4  -3  -2   12.79    0.43
  -4  -3  -2   13.06    0.53
  -4  -3  -2   11.99    0.50
  -4  -3  -2   13.37    0.53
   4   2   2   19.66    0.70
   4   2   2   20.26    0.63
   4   2   2   21.75    0.71
   4   2   2   20.57    0.74
  -4  -2  -2   21.06    0.72
  -4  -2  -2   21.38    0.75
  -4  -2  -2   21.37    0.71
  -4  -2  -2   20.81    0.61
  -4  -2  -2   20.63    0.75
   4   1   2   26.89    0.96
   4   1   2   28.27    0.92
   4   1   2   28.86    0.83
   4   1   2   30.20    0.97
  -4  -1  -2   28.56    0.97
  -4  -1  -2   29.12    0.83
  -4  -1  -2   29.07    0.93
  -4  -1  -2   30.34    0.98
  -4  -1  -2   29.28    0.78
   4   0   2    0.46    0.10
   4   0   2    0.51    0.12
   4   0   2    0.49    0.08
   4   0   2    0.62    0.11
   4   0   2    0.49    0.10
  -4   0  -2    0.44    0.10
  -4   0  -2    0.59    0.11
  -4   0  -2    0.44    0.11
  -4   0  -2    0.49    0.09
   4  -1   2   17.76    0.61
   4  -1   2   16.69    0.65
   4  -1   2   18.37    0.65
   4  -1   2   17.59    0.61
   4  -1   2   17.63    0.64
   4  -1   2   17.78    0.51
  -4   1  -2   17.13    0.64
  -4   1  -2   17.10    0.53
  -4   1  -2   17.76    0.60
  -4   1  -2   17.94    0.60
   4  -2   2    4.92    0.27
   4  -2   2    4.95    0.25
   4  -2   2    4.36    0.25
   4  -2   2    4.42    0.19
   4  -2   2    4.38    0.26
   4  -2   2    4.74    0.27
  -4   2  -2    4.78    0.27
  -4   2  -2    4.77    0.23
  -4   2  -2    4.56    0.20
   4  -3   2    4.73    0.27
   4  -3   2    4.40    0.27
   4  -3   2    4.28    0.21
   4  -3   2    4.28    0.24
   4  -3   2    4.35    0.24
  -4   3  -2    4.54    0.19
  -4   3  -2    4.22    0.25
   4  -4   2    2.75    0.21
   4  -4   2    3.06    0.23
   4  -4   2    3.27    0.22
   4  -4   2    3.25    0.22
   4  -4   2    3.30    0.22
   4  -4   2    3.26    0.21
  -4   4  -2    3.53    0.22
  -4   4  -2    3.01    0.15
   4  -5   2   11.97    0.46
   4  -5   2   11.82    0.46
   4  -5   2   11.12    0.47
   4  -5   2   11.74    0.48
   4  -5   2   11.49    0.48
  -4   5  -2   11.39    0.46
   4  -6   2    1.49    0.17
   4  -6   2    1.59    0.19
   4  -6   2    1.32    0.16
   4  -6   2    1.31    0.20
   4  -6   2    1.45    0.18
   4  -6   2    1.20    0.16
  -4   6  -2    1.34    0.16
   4  -7   2    2.90    0.30
   4  -7   2    3.04    0.25
   4  -7   2    2.65    0.24
   4  -7   2    2.64    0.23
   4  -7   2    2.68    0.23
   4  -8   2    7.25    0.46
   4  -8   2    8.12    0.39
   4  -8   2    7.66    0.38
   4  -8   2    7.83    0.39
   4  -8   2    7.36    0.39
   4  -9   2    2.73    0.25
   4  -9   2    2.20    0.24
   4  -9   2    2.67    0.33
   4  -9   2    2.32    0.23
   4 -10   2    0.50    0.22
   4 -10   2    0.44    0.16
   4 -10   2    0.41    0.13
   4 -10   2    0.80    0.17
   4 -11   2    0.66    0.18
   4 -11   2    0.39    0.15
   4 -11   2    0.22    0.22
  -5 -12  -4    0.16    0.18
  -5 -12  -4   -0.15    0.20
  -5 -11  -4    0.58    0.24
  -5 -11  -4    0.33    0.20
  -5 -10  -4    1.59    0.29
  -5 -10  -4    1.63    0.32
  -5  -9  -4    1.39    0.27
  -5  -9  -4    1.16    0.25
  -5  -8  -4    0.76    0.21
  -5  -8  -4    0.31    0.15
  -5  -8  -4    0.25    0.17
   5   7   4   12.49    0.62
  -5  -7  -4   13.60    0.60
  -5  -7  -4   12.85    0.64
  -5  -7  -4   13.04    0.62
  -5  -7  -4   12.61    0.58
   5   6   4    0.45    0.15
  -5  -6  -4    0.36    0.16
  -5  -6  -4    0.15    0.12
  -5  -6  -4    0.33    0.13
  -5  -6  -4    0.54    0.17
  -5  -6  -4    0.21    0.13
   5   5   4   22.23    0.87
  -5  -5  -4   21.82    0.88
  -5  -5  -4   22.31    0.78
  -5  -5  -4   22.73    0.88
  -5  -5  -4   23.10    0.84
  -5  -5  -4   22.96    0.85
   5   4   4    0.89    0.15
   5   4   4    0.52    0.15
   5   4   4    0.63    0.12
  -5  -4  -4    0.43    0.11
  -5  -4  -4    0.87    0.19
  -5  -4  -4    0.68    0.12
  -5  -4  -4    0.69    0.13
  -5  -4  -4    0.78    0.17
   5   3   4   25.93    0.88
   5   3   4   25.67    0.79
   5   3   4   25.77    0.89
   5   3   4   24.41    0.93
  -5  -3  -4   25.48    0.89
  -5  -3  -4   26.06    0.95
   5   2   4    1.87    0.16
   5   2   4    0.87    0.15
   5   2   4    1.81    0.23
   5   2   4    1.94    0.21
  -5  -2  -4    2.28    0.23
  -5  -2  -4    1.90    0.23
   5   1   4   26.21    0.78
   5   1   4   25.63    0.89
   5   1   4   25.80    0.94
   5   1   4   27.51    0.96
   5   1   4   27.38    0.92
  -5  -1  -4   26.51    0.89
  -5  -1  -4   25.73    0.95
  -5  -1  -4   27.00    0.90
   5   0   4   35.32    1.20
   5   0   4   36.50    0.98
   5   0   4   34.95    1.19
   5   0   4   35.12    1.14
   5   0   4   36.31    1.15
  -5   0  -4   35.96    1.19
  -5   0  -4   35.40    1.11
  -5   0  -4   34.75    0.99
  -5   0  -4   34.10    1.02
   5  -1   4    8.09    0.39
   5  -1   4    8.93    0.43
   5  -1   4    8.66    0.42
   5  -1   4    8.56    0.40
  -5   1  -4    8.21    0.41
  -5   1  -4    8.35    0.33
  -5   1  -4    8.32    0.30
   5  -2   4    3.59    0.31
   5  -2   4    3.37    0.29
   5  -2   4    2.50    0.24
   5  -2   4    2.66    0.24
   5  -2   4    2.60    0.25
  -5   2  -4    3.05    0.18
  -5   2  -4    3.02    0.27
   5  -3   4   36.07    1.22
   5  -3   4   36.74    1.18
   5  -3   4   36.92    1.17
   5  -3   4   37.01    1.22
  -5   3  -4   37.38    1.20
  -5   3  -4   36.96    1.03
   5  -4   4    1.72    0.19
   5  -4   4    2.17    0.23
   5  -4   4    1.73    0.20
   5  -4   4    1.62    0.20
   5  -4   4    1.62    0.18
  -5   4  -4    1.77    0.19
  -5   4  -4    1.77    0.14
   5  -5   4    2.51    0.22
   5  -5   4    2.04    0.21
   5  -5   4    2.63    0.25
   5  -5   4    2.48    0.24
   5  -5   4    2.24    0.23
   5  -5   4    2.65    0.25
  -5   5  -4    3.10    0.25
   5  -6   4    0.03    0.08
   5  -6   4    0.03    0.09
   5  -6   4    0.02    0.12
   5  -6   4    0.08    0.11
   5  -6   4   -0.01    0.09
   5  -7   4    2.61    0.26
   5  -7   4    2.96    0.26
   5  -7   4    2.24    0.23
   5  -7   4    2.45    0.23
   5  -7   4    2.58    0.30
   5  -8   4    0.29    0.13
   5  -8   4    0.00    0.10
   5  -8   4    0.21    0.12
   5  -8   4    0.11    0.09
   5  -8   4    0.31    0.17
   5  -9   4   -0.05    0.10
   5  -9   4   -0.05    0.11
   5  -9   4    0.11    0.12
   5  -9   4    0.21    0.18
   5 -10   4    0.58    0.24
   5 -10   4    0.17    0.15
   5 -10   4    0.21    0.13
  -6 -11  -6   -0.05    0.19
  -6 -11  -6   -0.12    0.19
  -6 -10  -6    0.22    0.19
  -6 -10  -6    0.21    0.23
  -6  -9  -6    0.39    0.23
  -6  -9  -6    0.20    0.18
  -6  -8  -6    3.40    0.41
  -6  -8  -6    3.53    0.38
  -6  -7  -6    2.13    0.33
  -6  -7  -6    1.84    0.27
   6   6   6    5.30    0.48
  -6  -6  -6    6.34    0.51
  -6  -6  -6    5.11    0.35
   6   5   6    1.96    0.21
   6   5   6    2.04    0.29
  -6  -5  -6    2.34    0.31
   6   4   6   -0.04    0.11
   6   4   6    0.03    0.13
   6   4   6    0.12    0.09
  -6  -4  -6    0.08    0.14
   6   3   6    8.35    0.45
   6   3   6    8.57    0.51
  -6  -3  -6    8.32    0.47
  -6  -3  -6    9.39    0.52
   6   2   6    0.79    0.12
   6   2   6    0.65    0.19
   6   2   6    0.57    0.15
   6   2   6    0.88    0.19
  -6  -2  -6    0.90    0.20
   6   1   6    0.24    0.08
   6   1   6    0.32    0.11
   6   1   6    0.23    0.13
   6   1   6    0.50    0.15
   6   1   6    0.14    0.10
  -6  -1  -6    0.35    0.15
   6   0   6    0.05    0.11
   6   0   6   -0.02    0.11
   6   0   6    0.10    0.13
   6   0   6    0.15    0.11
  -6   0  -6    0.01    0.10
   6  -1   6    0.17    0.12
   6  -1   6    0.19    0.13
   6  -1   6    0.11    0.10
   6  -1   6    0.23    0.13
  -6   1  -6    0.39    0.11
  -6   1  -6    0.33    0.14
   6  -2   6    9.33    0.50
   6  -2   6   10.07    0.51
   6  -2   6   10.52    0.51
   6  -2   6   10.07    0.48
  -6   2  -6    9.73    0.40
  -6   2  -6    9.36    0.48
   6  -3   6    2.29    0.27
   6  -3   6    1.84    0.23
   6  -3   6    2.49    0.27
   6  -3   6    2.10    0.24
  -6   3  -6    2.37    0.20
   6  -4   6    1.84    0.24
   6  -4   6    2.17    0.26
   6  -4   6    1.31    0.20
   6  -4   6    2.32    0.25
  -6   4  -6    1.78    0.18
   6  -5   6    2.28    0.26
   6  -5   6    2.56    0.28
   6  -5   6    2.20    0.27
   6  -5   6    1.73    0.21
   6  -6   6    1.67    0.17
   6  -6   6    1.60    0.24
   6  -6   6    1.62    0.23
   6  -6   6    1.32    0.20
   6  -7   6    0.90    0.18
   6  -7   6    1.25    0.21
   6  -7   6    1.08    0.19
   6  -8   6    0.50    0.16
   6  -8   6    0.49    0.17
   6  -8   6    0.28    0.14
   6  -9   6    0.03    0.13
   6  -9   6    0.14    0.15
  -7  -9  -8    0.44    0.20
  -7  -9  -8    0.37    0.28
  -7  -8  -8    0.20    0.19
  -7  -8  -8    0.33    0.26
  -7  -7  -8    0.99    0.28
  -7  -7  -8    1.36    0.25
   7   6   8    0.60    0.23
  -7  -6  -8    1.29    0.31
   7   5   8    0.35    0.21
  -7  -5  -8    0.20    0.19
   7   4   8    4.32    0.46
  -7  -4  -8    4.92    0.49
   7   3   8    1.40    0.18
   7   3   8    1.29    0.26
  -7  -3  -8    1.29    0.28
   7   2   8    7.90    0.54
   7   2   8    7.81    0.33
  -7  -2  -8    7.28    0.52
   7   1   8    1.21    0.26
   7   1   8    1.44    0.22
   7   1   8    1.70    0.29
  -7  -1  -8    1.43    0.27
   7   0   8    1.38    0.21
   7   0   8    2.37    0.32
   7  -1   8    2.02    0.29
   7  -1   8    2.00    0.27
   7  -2   8    2.22    0.28
   7  -2   8    2.13    0.30
   7  -3   8    0.29    0.18
   7  -3   8    0.16    0.15
   7  -3   8    0.39    0.19
   7  -3   8    0.56    0.17
   7  -4   8    1.07    0.23
   7  -4   8    1.02    0.20
   7  -4   8    0.70    0.20
   7  -4   8    0.82    0.20
   7  -5   8   -0.03    0.16
   7  -5   8    0.00    0.14
   7  -5   8   -0.04    0.13
   7  -5   8    0.06    0.13
   7  -6   8    0.79    0.19
   7  -6   8    1.10    0.25
   7  -6   8    0.76    0.20
   7  -6   8    0.85    0.14
   7  -7   8    0.37    0.17
   7  -7   8    0.64    0.20
   7  -7   8    0.44    0.22
  -8  -7 -10    0.84    0.29
  -8  -6 -10    0.55    0.28
   8   5  10   -0.22    0.19
  -8  -5 -10    0.06    0.23
   8   4  10    0.54    0.26
   8   3  10    0.19    0.23
   8   3  10    0.26    0.11
   8   2  10    0.38    0.18
   8   2  10    0.07    0.21
   8   1  10    0.49    0.24
   8   0  10    1.47    0.30
   8  -1  10    0.89    0.27
   8  -2  10    0.18    0.19
   8  -2  10   -0.09    0.17
   8  -3  10    0.16    0.17
   8  -3  10    0.22    0.19
   8  -3  10    0.23    0.20
   8  -4  10   -0.08    0.14
   8  -4  10    0.36    0.20
   8  -4  10    0.20    0.19
   8  -5  10   -0.10    0.16
   8  -5  10   -0.16    0.17
   8  -5  10   -0.01    0.15
   3   0  13   -0.09    0.22
   3   1  13    0.00    0.13
   3   1  13    0.15    0.22
   3   2  13    0.73    0.30
   3   3  13    0.66    0.28
   2  -5  11    0.65    0.20
   2  -5  11    1.24    0.25
   2  -5  11    0.69    0.20
   2  -4  11    0.50    0.20
   2  -4  11    0.32    0.18
   2  -3  11    0.19    0.16
   2  -3  11    0.28    0.18
   2  -2  11    0.55    0.22
   2  -2  11    0.81    0.25
   2  -1  11    2.33    0.34
   2  -1  11    1.99    0.28
   2   0  11    0.96    0.25
   2   0  11    0.74    0.17
   2   0  11    1.23    0.28
   2   1  11    1.00    0.28
   2   2  11    0.77    0.26
   2   3  11    1.51    0.32
   2   4  11    1.84    0.36
   2   4  11    1.96    0.20
  -2  -5 -11    0.34    0.16
   2   5  11    0.46    0.24
   2   5  11    0.11    0.13
  -2  -6 -11    0.05    0.21
   2   6  11   -0.06    0.12
   2   6  11   -0.04    0.20
  -2  -7 -11   -0.12    0.24
   2   7  11    0.03    0.14
  -2  -8 -11    0.15    0.27
   1  -8   9    0.72    0.19
   1  -8   9    0.40    0.15
   1  -7   9   -0.03    0.13
   1  -7   9   -0.18    0.11
   1  -6   9    0.48    0.17
   1  -6   9   -0.02    0.11
   1  -6   9    0.28    0.13
   1  -5   9    1.16    0.20
   1  -5   9    0.98    0.19
   1  -5   9    1.21    0.23
   1  -5   9    1.03    0.20
   1  -4   9    0.10    0.12
   1  -4   9    0.14    0.14
   1  -4   9    0.33    0.13
   1  -3   9   -0.01    0.12
   1  -3   9    0.33    0.14
   1  -3   9    0.09    0.12
   1  -2   9    0.93    0.21
   1  -2   9    0.74    0.19
   1  -2   9    0.76    0.17
   1  -1   9    3.75    0.36
   1  -1   9    3.80    0.39
   1  -1   9    4.26    0.40
   1   0   9    1.16    0.24
   1   0   9    1.18    0.21
   1   0   9    1.35    0.25
  -1  -1  -9    0.47    0.18
   1   1   9    0.56    0.16
   1   1   9    0.26    0.15
  -1  -2  -9    2.70    0.33
   1   2   9    3.08    0.38
   1   2   9    2.12    0.27
   1   2   9    2.71    0.18
   1   2   9    2.65    0.18
  -1  -3  -9   11.05    0.63
   1   3   9   10.56    0.43
   1   3   9   11.32    0.64
  -1  -4  -9    0.45    0.19
   1   4   9    0.35    0.18
   1   4   9    0.95    0.16
  -1  -5  -9    1.89    0.31
   1   5   9    1.86    0.31
   1   5   9    2.64    0.26
  -1  -6  -9    0.12    0.19
  -1  -6  -9    0.21    0.14
   1   6   9    0.09    0.12
   1   6   9    0.10    0.18
  -1  -7  -9    0.06    0.16
   1   7   9    0.33    0.15
  -1  -8  -9   -0.11    0.19
  -1  -9  -9    1.10    0.31
  -1 -10  -9    0.04    0.19
   0  -9   7    0.12    0.10
   0  -9   7    0.20    0.12
   0  -8   7    0.13    0.10
   0  -8   7    0.10    0.10
   0  -7   7    2.50    0.24
   0  -7   7    2.80    0.24
   0  -6   7    0.24    0.10
   0  -6   7    0.22    0.12
   0  -6   7    0.26    0.11
   0  -6   7    0.46    0.12
   0  -5   7    0.74    0.14
   0  -5   7    0.88    0.15
   0  -5   7    0.89    0.16
   0  -5   7    0.65    0.14
   0  -4   7    7.60    0.38
   0  -4   7    7.91    0.35
   0  -4   7    7.10    0.38
   0  -4   7    7.91    0.39
   0  -4   7    7.96    0.40
   0  -4   7    7.22    0.38
   0  -3   7    4.94    0.32
   0  -3   7    5.67    0.33
   0  -3   7    5.68    0.32
   0  -3   7    5.47    0.33
   0   2  -7    1.86    0.22
   0  -2   7    1.36    0.18
   0  -2   7    1.84    0.22
   0  -2   7    1.71    0.20
   0  -2   7    1.58    0.20
   0   1  -7    0.86    0.17
   0  -1   7    1.21    0.19
   0  -1   7    0.98    0.18
   0  -1   7    0.77    0.16
   0  -1   7    0.96    0.17
   0  -1   7    1.17    0.18
   0   0  -7    2.52    0.20
   0   0  -7    3.20    0.28
   0   0   7    2.45    0.25
   0   0   7    2.65    0.25
   0   0   7    2.87    0.30
   0   0   7    3.05    0.30
   0   0   7    2.24    0.25
   0  -1  -7    0.60    0.16
   0   1   7    0.38    0.08
   0   1   7    0.29    0.11
   0   1   7    0.70    0.16
   0   1   7    0.34    0.13
   0   1   7    0.14    0.11
   0  -2  -7    0.45    0.15
   0  -2  -7    0.45    0.12
   0   2   7    0.45    0.14
   0   2   7    0.70    0.11
   0   2   7    0.27    0.11
   0   2   7    0.38    0.15
   0  -3  -7    4.80    0.41
   0  -3  -7    4.30    0.31
   0   3   7    4.68    0.32
   0   3   7    5.01    0.34
   0   3   7    4.77    0.42
   0   3   7    4.75    0.26
   0  -4  -7    0.00    0.04
   0  -4  -7    0.16    0.13
   0   4   7    0.05    0.12
   0   4   7    0.14    0.09
   0   4   7   -0.06    0.08
   0  -5  -7    6.29    0.45
   0  -5  -7    5.91    0.39
   0   5   7    5.87    0.43
   0   5   7    5.31    0.32
   0  -6  -7    8.67    0.54
   0  -6  -7    7.20    0.42
   0  -6  -7    8.21    0.50
   0   6   7    8.86    0.54
   0   6   7    8.16    0.41
   0  -7  -7    3.02    0.38
   0   7   7    4.37    0.46
   0   7   7    3.47    0.31
   0  -8  -7    4.61    0.47
   0  -9  -7    0.96    0.29
   0 -10  -7    1.64    0.33
   0 -11  -7    0.15    0.24
   0 -11  -7    0.54    0.26
  -1  -9   5    0.89    0.13
  -1  -9   5    0.88    0.13
  -1  -8   5    1.64    0.16
  -1  -8   5    2.13    0.19
  -1  -7   5    4.89    0.25
  -1  -7   5    4.34    0.25
  -1  -6   5    2.08    0.19
  -1  -6   5    2.50    0.20
  -1  -6   5    2.37    0.18
  -1  -6   5    2.50    0.20
  -1  -5   5   15.34    0.55
  -1  -5   5   15.46    0.56
  -1  -5   5   14.99    0.55
  -1  -5   5   15.06    0.56
   1   4  -5    0.91    0.12
  -1  -4   5    0.76    0.13
  -1  -4   5    0.69    0.13
  -1  -4   5    0.81    0.13
  -1  -4   5    0.78    0.13
   1   3  -5    3.45    0.22
  -1  -3   5    3.30    0.22
  -1  -3   5    3.19    0.23
  -1  -3   5    3.33    0.22
  -1  -3   5    3.70    0.24
   1   2  -5    8.89    0.41
  -1  -2   5    9.52    0.40
  -1  -2   5    9.54    0.40
  -1  -2   5    8.65    0.41
  -1  -2   5    9.46    0.42
  -1  -2   5    9.41    0.42
   1   1  -5    7.95    0.30
   1   1  -5    7.40    0.38
  -1  -1   5    8.14    0.37
  -1  -1   5    8.53    0.40
  -1  -1   5    8.90    0.40
  -1  -1   5    7.92    0.39
  -1  -1   5    7.75    0.36
   1   0  -5    3.43    0.20
   1   0  -5    3.57    0.23
   1   0  -5    4.26    0.27
  -1   0   5    3.78    0.24
  -1   0   5    3.66    0.26
  -1   0   5    3.92    0.27
  -1   0   5    3.75    0.24
   1  -1  -5    9.05    0.44
   1  -1  -5    9.36    0.41
   1  -1  -5    9.66    0.36
  -1   1   5    9.00    0.33
  -1   1   5    9.48    0.42
  -1   1   5    9.06    0.45
  -1   1   5    9.45    0.45
  -1   1   5    8.83    0.41
  -1   1   5    9.55    0.45
   1  -2  -5    4.30    0.30
   1  -2  -5    4.94    0.29
   1  -2  -5    4.53    0.28
  -1   2   5    4.79    0.29
  -1   2   5    4.39    0.23
  -1   2   5    5.19    0.32
  -1   2   5    4.27    0.28
   1  -3  -5   -0.08    0.09
   1  -3  -5    0.29    0.10
   1  -3  -5    0.26    0.11
  -1   3   5    0.29    0.11
  -1   3   5    0.12    0.07
  -1   3   5    0.00    0.03
  -1   3   5    0.08    0.10
   1  -4  -5    0.48    0.12
   1  -4  -5    0.39    0.14
   1  -4  -5    0.80    0.15
  -1   4   5    0.73    0.14
  -1   4   5    0.46    0.11
  -1   4   5    0.53    0.15
   1  -5  -5    6.09    0.36
   1  -5  -5    6.09    0.40
   1  -5  -5    5.48    0.36
  -1   5   5    6.15    0.34
  -1   5   5    5.21    0.29
  -1   5   5    5.39    0.37
   1  -6  -5    0.42    0.17
   1  -6  -5    0.75    0.17
   1  -6  -5    0.60    0.15
   1  -6  -5    0.77    0.19
   1  -6  -5    0.39    0.13
  -1   6   5    0.59    0.13
  -1   6   5    0.60    0.17
   1  -7  -5    0.25    0.13
   1  -7  -5    0.26    0.16
   1  -7  -5    0.33    0.14
  -1   7   5    0.29    0.16
   1  -8  -5    0.33    0.18
   1  -8  -5    0.37    0.16
   1  -9  -5    0.73    0.20
   1  -9  -5    0.76    0.23
   1 -10  -5    1.26    0.30
   1 -10  -5    1.29    0.27
   1 -10  -5    1.60    0.27
   1 -11  -5    0.11    0.19
   1 -11  -5    0.04    0.17
   1 -11  -5    0.05    0.21
  -2 -11   3    0.08    0.11
  -2 -11   3    0.31    0.23
  -2 -11   3    0.16    0.11
  -2 -10   3    0.01    0.09
  -2 -10   3    0.13    0.10
  -2 -10   3   -0.16    0.17
  -2  -9   3    0.87    0.14
  -2  -9   3    1.12    0.15
  -2  -9   3    0.74    0.24
  -2  -8   3    3.87    0.24
  -2  -8   3    4.00    0.24
  -2  -8   3    3.89    0.40
   2   7  -3    0.83    0.13
  -2  -7   3    0.99    0.22
  -2  -7   3    0.89    0.13
  -2  -7   3    0.86    0.13
  -2  -7   3    1.00    0.12
  -2  -7   3    0.95    0.12
   2   6  -3    6.47    0.31
  -2  -6   3    6.55    0.31
  -2  -6   3    6.60    0.30
  -2  -6   3    6.06    0.40
  -2  -6   3    6.41    0.29
  -2  -6   3    6.04    0.29
   2   5  -3    3.02    0.18
   2   5  -3    3.62    0.22
  -2  -5   3    3.13    0.20
  -2  -5   3    2.85    0.18
  -2  -5   3    3.06    0.20
  -2  -5   3    2.93    0.20
   2   4  -3    0.74    0.11
   2   4  -3    0.83    0.12
  -2  -4   3    0.74    0.12
  -2  -4   3    0.62    0.11
  -2  -4   3    0.75    0.12
  -2  -4   3    0.64    0.10
   2   3  -3   16.46    0.61
   2   3  -3   16.67    0.59
   2   3  -3   17.26    0.48
  -2  -3   3   16.34    0.60
  -2  -3   3   16.98    0.58
  -2  -3   3   17.05    0.58
  -2  -3   3   16.71    0.60
   2   2  -3    7.39    0.27
   2   2  -3    7.93    0.35
   2   2  -3    7.24    0.33
  -2  -2   3    7.46    0.32
  -2  -2   3    7.10    0.34
  -2  -2   3    7.73    0.35
  -2  -2   3    7.82    0.33
   2   1  -3    8.55    0.37
   2   1  -3    8.92    0.35
   2   1  -3    8.75    0.31
   2   1  -3    8.30    0.38
  -2  -1   3    8.32    0.36
  -2  -1   3    8.68    0.38
  -2  -1   3    7.94    0.35
  -2  -1   3    8.78    0.39
  -2  -1   3    8.70    0.38
   2   0  -3    7.97    0.34
   2   0  -3    8.19    0.30
   2   0  -3    8.20    0.37
   2   0  -3    7.62    0.33
  -2   0   3    8.16    0.35
  -2   0   3    7.68    0.37
  -2   0   3    7.78    0.35
  -2   0   3    8.16    0.37
  -2   0   3    7.39    0.36
  -2   0   3    8.28    0.28
   2  -1  -3   21.03    0.76
   2  -1  -3   22.13    0.65
   2  -1  -3   21.90    0.72
   2  -1  -3   21.65    0.72
  -2   1   3   20.93    0.63
  -2   1   3   21.41    0.76
  -2   1   3   20.89    0.72
  -2   1   3   20.58    0.75
  -2   1   3   21.63    0.76
  -2   1   3   21.46    0.72
  -2   1   3   21.71    0.77
   2  -2  -3   25.49    0.86
   2  -2  -3   25.00    0.82
   2  -2  -3   24.90    0.86
   2  -2  -3   25.26    0.83
  -2   2   3   24.53    0.81
  -2   2   3   23.66    0.85
  -2   2   3   23.12    0.85
  -2   2   3   24.39    0.72
  -2   2   3   24.81    0.87
   2  -3  -3   36.35    1.16
   2  -3  -3   34.95    1.20
   2  -3  -3   37.11    1.21
  -2   3   3   37.12    1.04
  -2   3   3   36.19    1.20
  -2   3   3   38.19    1.23
  -2   3   3   37.06    1.15
  -2   3   3   35.66    1.20
  -2   3   3   36.48    1.14
   2  -4  -3   15.50    0.61
   2  -4  -3   14.06    0.56
   2  -4  -3   14.55    0.57
   2  -4  -3   14.20    0.60
  -2   4   3   14.86    0.54
  -2   4   3   13.09    0.48
  -2   4   3   14.09    0.58
  -2   4   3   14.15    0.59
   2  -5  -3    1.39    0.19
   2  -5  -3    1.30    0.17
   2  -5  -3    1.28    0.17
   2  -5  -3    0.91    0.16
  -2   5   3    1.23    0.14
  -2   5   3    1.54    0.20
  -2   5   3    1.13    0.18
   2  -6  -3    6.87    0.38
   2  -6  -3    6.15    0.33
   2  -6  -3    6.27    0.37
   2  -6  -3    5.75    0.37
   2  -6  -3    5.62    0.35
  -2   6   3    6.09    0.37
  -2   6   3    6.42    0.37
   2  -7  -3    5.40    0.37
   2  -7  -3    5.81    0.37
   2  -7  -3    5.14    0.35
   2  -7  -3    5.11    0.35
  -2   7   3    5.32    0.35
   2  -8  -3    0.85    0.18
   2  -8  -3    0.72    0.21
   2  -8  -3    0.71    0.19
   2  -8  -3    0.86    0.19
   2  -9  -3    0.18    0.16
   2  -9  -3    0.01    0.14
   2  -9  -3    0.43    0.19
   2  -9  -3    0.25    0.15
   2 -10  -3    0.25    0.20
   2 -10  -3    0.21    0.17
   2 -10  -3    0.25    0.16
   2 -11  -3    2.20    0.36
   2 -11  -3    2.13    0.30
   2 -11  -3    2.95    0.36
   2 -12  -3    0.24    0.23
   2 -12  -3    0.45    0.23
   2 -12  -3    0.18    0.17
  -3 -12   1    0.05    0.13
  -3 -12   1   -0.10    0.15
  -3 -12   1    0.04    0.22
  -3 -11   1    0.38    0.23
  -3 -11   1    0.00    0.12
  -3 -11   1    0.00    0.14
  -3 -10   1    0.46    0.12
  -3 -10   1    0.38    0.15
  -3 -10   1    0.56    0.16
  -3 -10   1    0.67    0.24
  -3  -9   1    2.16    0.23
  -3  -9   1    2.82    0.25
  -3  -9   1    2.10    0.31
  -3  -9   1    3.02    0.24
  -3  -9   1    2.31    0.22
  -3  -8   1    0.38    0.12
  -3  -8   1    0.41    0.12
  -3  -8   1    0.23    0.10
  -3  -8   1    0.59    0.12
  -3  -8   1    0.39    0.17
  -3  -7   1    1.78    0.25
  -3  -7   1    1.77    0.19
  -3  -7   1    1.81    0.19
  -3  -7   1    2.16    0.21
  -3  -7   1    1.67    0.18
   3   6  -1    7.09    0.35
   3   6  -1    6.88    0.32
  -3  -6   1    6.70    0.33
  -3  -6   1    6.99    0.39
  -3  -6   1    6.40    0.34
  -3  -6   1    6.15    0.31
  -3  -6   1    7.29    0.34
   3   5  -1    0.40    0.10
   3   5  -1    0.66    0.12
  -3  -5   1    0.29    0.09
  -3  -5   1    0.64    0.13
  -3  -5   1    0.29    0.12
  -3  -5   1    0.46    0.10
  -3  -5   1    0.43    0.10
   3   4  -1   66.03    1.98
   3   4  -1   67.36    2.03
  -3  -4   1   67.65    1.93
  -3  -4   1   66.62    1.93
  -3  -4   1   66.90    2.00
  -3  -4   1   67.49    1.94
  -3  -4   1   66.37    2.00
   3   3  -1    1.40    0.16
   3   3  -1    1.42    0.15
   3   3  -1    1.46    0.12
  -3  -3   1    1.44    0.15
  -3  -3   1    1.67    0.18
  -3  -3   1    1.31    0.14
   3   2  -1    3.00    0.19
   3   2  -1    3.21    0.23
   3   2  -1    3.41    0.17
   3   2  -1    2.94    0.21
  -3  -2   1    3.04    0.19
  -3  -2   1    3.21    0.22
  -3  -2   1    3.09    0.17
  -3  -2   1    2.95    0.21
  -3  -2   1    3.20    0.20
   3   1  -1    5.15    0.22
   3   1  -1    4.62    0.21
   3   1  -1    4.66    0.24
   3   1  -1    4.82    0.26
   3   1  -1    5.44    0.29
   3   1  -1    5.05    0.24
  -3  -1   1    4.86    0.24
  -3  -1   1    4.99    0.27
  -3  -1   1    4.72    0.19
  -3  -1   1    5.09    0.25
  -3  -1   1    4.99    0.27
  -3  -1   1    4.35    0.26
   3   0  -1   34.72    1.06
   3   0  -1   35.10    1.13
   3   0  -1   33.08    1.10
   3   0  -1   34.81    1.11
   3   0  -1   33.61    1.05
   3   0  -1   34.64    0.96
  -3   0   1   33.14    1.10
  -3   0   1   35.03    1.06
  -3   0   1   35.98    1.11
  -3   0   1   34.99    0.96
  -3   0   1   35.62    1.13
  -3   0   1   34.76    1.06
   3  -1  -1    5.08    0.28
   3  -1  -1    5.81    0.27
   3  -1  -1    5.31    0.22
   3  -1  -1    5.66    0.28
   3  -1  -1    5.97    0.31
   3  -1  -1    5.44    0.29
  -3   1   1    6.03    0.30
  -3   1   1    4.95    0.28
  -3   1   1    5.35    0.23
  -3   1   1    5.35    0.30
  -3   1   1    5.54    0.27
   3  -2  -1    5.29    0.29
   3  -2  -1    4.31    0.25
   3  -2  -1    4.78    0.25
   3  -2  -1    4.08    0.26
   3  -2  -1    4.84    0.20
   3  -2  -1    4.77    0.28
  -3   2   1    4.96    0.25
  -3   2   1    4.61    0.24
  -3   2   1    4.85    0.28
  -3   2   1    4.48    0.26
  -3   2   1    4.48    0.21
   3  -3  -1    6.66    0.34
   3  -3  -1    5.93    0.30
   3  -3  -1    6.49    0.32
   3  -3  -1    5.66    0.32
  -3   3   1    6.57    0.26
  -3   3   1    6.89    0.33
  -3   3   1    6.64    0.34
  -3   3   1    6.59    0.29
   3  -4  -1   13.48    0.57
   3  -4  -1   14.42    0.55
   3  -4  -1   15.06    0.56
   3  -4  -1   15.27    0.59
  -3   4   1   15.39    0.48
  -3   4   1   14.20    0.57
   3  -5  -1    0.99    0.16
   3  -5  -1    0.81    0.14
   3  -5  -1    0.67    0.13
   3  -5  -1    0.93    0.13
   3  -5  -1    1.13    0.17
  -3   5   1    0.99    0.15
  -3   5   1    0.88    0.11
   3  -6  -1   13.03    0.53
   3  -6  -1   12.55    0.55
   3  -6  -1   12.27    0.54
   3  -6  -1   12.70    0.53
  -3   6   1   12.85    0.53
   3  -7  -1    1.33    0.20
   3  -7  -1    1.26    0.21
   3  -7  -1    1.42    0.20
   3  -7  -1    1.42    0.19
   3  -7  -1    1.08    0.18
  -3   7   1    1.47    0.19
   3  -8  -1    2.17    0.24
   3  -8  -1    1.51    0.24
   3  -8  -1    1.42    0.21
   3  -8  -1    2.06    0.23
   3  -9  -1    0.10    0.12
   3  -9  -1   -0.04    0.12
   3  -9  -1   -0.04    0.16
   3  -9  -1    0.06    0.12
   3 -10  -1    0.92    0.20
   3 -10  -1    0.71    0.18
   3 -10  -1    0.90    0.21
   3 -10  -1    0.88    0.26
   3 -11  -1    0.90    0.21
   3 -11  -1    1.03    0.21
   3 -11  -1    0.57    0.26
   3 -11  -1    0.32    0.19
   3 -12  -1    0.01    0.14
   3 -12  -1    0.20    0.19
   3 -12  -1    0.05    0.21
  -4 -12  -1    0.23    0.18
  -4 -12  -1    0.35    0.23
  -4 -12  -1    0.25    0.15
  -4 -11  -1    0.37    0.16
  -4 -11  -1    0.52    0.18
  -4 -11  -1    0.38    0.23
  -4 -11  -1    0.89    0.22
  -4 -10  -1    2.70    0.30
  -4 -10  -1    3.03    0.32
  -4 -10  -1    2.26    0.28
  -4 -10  -1    2.85    0.38
  -4  -9  -1    4.01    0.35
  -4  -9  -1    4.44    0.37
  -4  -9  -1    5.20    0.47
  -4  -9  -1    4.84    0.35
  -4  -8  -1    0.77    0.21
  -4  -8  -1    0.87    0.17
  -4  -8  -1    0.99    0.17
  -4  -8  -1    0.88    0.17
  -4  -8  -1    0.98    0.18
   4   7   1    2.04    0.22
  -4  -7  -1    2.27    0.28
  -4  -7  -1    2.22    0.25
  -4  -7  -1    2.34    0.25
  -4  -7  -1    1.77    0.23
  -4  -7  -1    2.17    0.23
   4   6   1    5.32    0.31
  -4  -6  -1    4.74    0.30
  -4  -6  -1    3.99    0.33
  -4  -6  -1    4.62    0.29
  -4  -6  -1    4.62    0.32
  -4  -6  -1    4.38    0.29
   4   5   1   14.39    0.56
  -4  -5  -1   11.40    0.54
  -4  -5  -1   14.13    0.55
  -4  -5  -1   14.61    0.49
  -4  -5  -1   14.43    0.56
  -4  -5  -1   14.39    0.55
  -4  -5  -1   13.79    0.58
   4   4   1    1.16    0.16
  -4  -4  -1    1.18    0.18
  -4  -4  -1    1.05    0.14
  -4  -4  -1    1.16    0.17
  -4  -4  -1    1.15    0.15
  -4  -4  -1    0.94    0.14
   4   3   1   14.01    0.56
   4   3   1   14.74    0.48
   4   3   1   14.11    0.53
  -4  -3  -1   15.03    0.55
  -4  -3  -1   14.22    0.49
  -4  -3  -1   14.01    0.53
  -4  -3  -1   13.95    0.57
  -4  -3  -1   15.36    0.58
   4   2   1   24.58    0.86
   4   2   1   25.36    0.83
   4   2   1   24.84    0.74
   4   2   1   25.68    0.82
  -4  -2  -1   25.67    0.87
  -4  -2  -1   25.02    0.83
  -4  -2  -1   25.47    0.83
  -4  -2  -1   24.92    0.87
  -4  -2  -1   24.81    0.73
   4   1   1   51.66    1.53
   4   1   1   52.44    1.63
   4   1   1   47.73    1.53
   4   1   1   54.24    1.60
   4   1   1   52.04    1.40
   4   1   1   49.84    1.59
  -4  -1  -1   51.24    1.53
  -4  -1  -1   51.63    1.60
  -4  -1  -1   51.15    1.40
  -4  -1  -1   54.58    1.60
   4   0   1    0.65    0.11
   4   0   1    0.72    0.11
   4   0   1    1.28    0.17
   4   0   1    0.81    0.13
   4   0   1    0.50    0.11
  -4   0  -1    0.84    0.13
  -4   0  -1    0.90    0.11
  -4   0  -1    1.39    0.18
  -4   0  -1    0.92    0.14
   4  -1   1   30.70    1.00
   4  -1   1   33.21    0.88
   4  -1   1   32.13    0.85
   4  -1   1   33.64    1.06
   4  -1   1   29.96    1.04
   4  -1   1   33.16    1.01
   4  -1   1   31.15    1.06
  -4   1  -1   31.59    0.99
  -4   1  -1   30.97    0.90
  -4   1  -1   31.22    1.04
  -4   1  -1   31.35    0.99
   4  -2   1    0.61    0.12
   4  -2   1    0.67    0.08
   4  -2   1    0.68    0.10
   4  -2   1    0.74    0.11
   4  -2   1    0.63    0.12
   4  -2   1    0.65    0.13
  -4   2  -1    0.56    0.12
  -4   2  -1    0.98    0.12
  -4   2  -1    0.71    0.10
   4  -3   1    0.34    0.10
   4  -3   1    0.09    0.09
   4  -3   1    0.25    0.08
   4  -3   1    0.05    0.07
   4  -3   1    0.26    0.08
   4  -3   1    0.30    0.10
  -4   3  -1    0.17    0.06
  -4   3  -1    0.11    0.08
   4  -4   1   20.14    0.70
   4  -4   1   21.64    0.69
   4  -4   1   20.26    0.67
   4  -4   1   20.24    0.74
   4  -4   1   20.27    0.71
   4  -4   1   19.41    0.73
  -4   4  -1   20.28    0.72
  -4   4  -1   20.38    0.60
   4  -5   1    8.27    0.40
   4  -5   1    8.52    0.41
   4  -5   1    8.96    0.40
   4  -5   1    8.08    0.38
   4  -5   1    7.97    0.38
   4  -5   1    7.76    0.37
  -4   5  -1    8.52    0.30
  -4   5  -1    8.43    0.39
   4  -6   1    1.86    0.23
   4  -6   1    2.34    0.22
   4  -6   1    2.26    0.22
   4  -6   1    2.08    0.22
   4  -6   1    3.21    0.27
  -4   6  -1    2.27    0.22
   4  -7   1    0.05    0.10
   4  -7   1   -0.10    0.08
   4  -7   1    0.00    0.09
   4  -7   1    0.16    0.11
   4  -7   1   -0.05    0.11
   4  -8   1    5.52    0.34
   4  -8   1    5.67    0.34
   4  -8   1    4.72    0.32
   4  -8   1    5.28    0.35
   4  -8   1    5.36    0.45
   4  -9   1    4.01    0.42
   4  -9   1    5.30    0.35
   4  -9   1    5.76    0.38
   4  -9   1    5.87    0.36
   4 -10   1    0.20    0.20
   4 -10   1    0.07    0.12
   4 -10   1    0.08    0.13
   4 -10   1   -0.11    0.12
   4 -11   1    0.13    0.13
   4 -11   1   -0.12    0.18
   4 -11   1   -0.13    0.15
   4 -11   1    0.02    0.14
  -5 -12  -3    0.66    0.22
  -5 -12  -3    0.36    0.25
  -5 -11  -3    0.11    0.21
  -5 -11  -3    0.45    0.19
  -5 -10  -3    2.22    0.34
  -5 -10  -3    2.29    0.32
  -5  -9  -3    1.01    0.24
  -5  -9  -3    1.02    0.21
  -5  -9  -3    0.75    0.20
  -5  -9  -3    0.62    0.19
  -5  -8  -3    1.14    0.21
  -5  -8  -3    1.26    0.25
  -5  -8  -3    0.95    0.19
  -5  -8  -3    1.19    0.23
  -5  -7  -3    7.70    0.45
  -5  -7  -3    8.27    0.46
  -5  -7  -3    8.15    0.45
  -5  -7  -3    7.79    0.48
  -5  -7  -3    8.19    0.34
   5   6   3   24.70    0.93
  -5  -6  -3   25.83    0.93
  -5  -6  -3   25.43    0.92
  -5  -6  -3   23.54    0.86
  -5  -6  -3   25.29    0.95
  -5  -6  -3   25.64    0.97
   5   5   3    1.16    0.19
  -5  -5  -3    0.98    0.16
  -5  -5  -3    0.99    0.15
  -5  -5  -3    0.98    0.16
  -5  -5  -3    1.48    0.22
  -5  -5  -3    1.27    0.21
   5   4   3    7.91    0.34
   5   4   3    7.38    0.41
   5   4   3    7.81    0.38
  -5  -4  -3    7.83    0.39
  -5  -4  -3    8.10    0.41
  -5  -4  -3    7.58    0.33
  -5  -4  -3    7.02    0.42
   5   3   3   20.11    0.73
   5   3   3   19.36    0.77
   5   3   3   20.01    0.65
  -5  -3  -3   19.49    0.78
  -5  -3  -3   20.79    0.63
  -5  -3  -3   19.43    0.73
  -5  -3  -3   20.43    0.75
  -5  -3  -3   20.87    0.78
   5   2   3   34.21    1.18
   5   2   3   38.32    1.19
   5   2   3   37.07    1.07
  -5  -2  -3   37.95    1.21
  -5  -2  -3   37.60    1.19
  -5  -2  -3   37.87    1.26
  -5  -2  -3   38.20    1.04
   5   1   3    0.59    0.14
   5   1   3    0.40    0.13
   5   1   3    0.61    0.10
   5   1   3    0.45    0.11
  -5  -1  -3    0.73    0.14
  -5  -1  -3    0.56    0.14
  -5  -1  -3    0.42    0.10
   5   0   3    5.11    0.32
   5   0   3    4.90    0.22
   5   0   3    5.19    0.30
   5   0   3    5.02    0.29
  -5   0  -3    5.29    0.29
  -5   0  -3    5.07    0.28
  -5   0  -3    5.01    0.25
  -5   0  -3    4.68    0.31
   5  -1   3    6.80    0.38
   5  -1   3    8.18    0.37
   5  -1   3    7.19    0.39
   5  -1   3    7.54    0.37
   5  -1   3    7.07    0.38
   5  -1   3    7.74    0.26
  -5   1  -3    7.08    0.34
  -5   1  -3    7.40    0.31
  -5   1  -3    7.73    0.39
   5  -2   3    1.12    0.17
   5  -2   3    0.84    0.13
   5  -2   3    0.96    0.15
   5  -2   3    1.15    0.16
   5  -2   3    0.86    0.15
  -5   2  -3    1.37    0.17
  -5   2  -3    1.05    0.12
   5  -3   3    5.29    0.30
   5  -3   3    4.70    0.30
   5  -3   3    5.16    0.32
   5  -3   3    4.89    0.28
   5  -3   3    4.38    0.30
  -5   3  -3    4.94    0.30
  -5   3  -3    4.91    0.23
   5  -4   3    0.12    0.09
   5  -4   3    0.26    0.10
   5  -4   3    0.11    0.10
   5  -4   3    0.27    0.11
   5  -4   3    0.12    0.08
   5  -4   3    0.27    0.11
  -5   4  -3    0.17    0.10
  -5   4  -3    0.20    0.07
   5  -5   3    2.23    0.23
   5  -5   3    2.17    0.23
   5  -5   3    1.39    0.18
   5  -5   3    2.10    0.22
   5  -5   3    2.03    0.21
   5  -5   3    2.02    0.22
  -5   5  -3    2.09    0.21
  -5   5  -3    2.10    0.15
   5  -6   3    0.20    0.11
   5  -6   3    0.35    0.13
   5  -6   3    0.29    0.10
   5  -6   3    0.19    0.11
   5  -6   3    0.15    0.11
   5  -7   3    0.21    0.12
   5  -7   3    0.30    0.13
   5  -7   3    0.38    0.16
   5  -7   3    0.25    0.12
   5  -7   3    0.36    0.12
   5  -8   3    1.67    0.22
   5  -8   3    1.62    0.26
   5  -8   3    1.67    0.23
   5  -8   3    1.55    0.21
   5  -9   3    0.47    0.14
   5  -9   3    0.76    0.18
   5  -9   3    0.67    0.18
   5  -9   3    0.26    0.18
   5 -10   3   -0.01    0.17
   5 -10   3   -0.04    0.13
   5 -10   3    0.14    0.12
   5 -10   3   -0.05    0.11
   5 -11   3    0.22    0.16
   5 -11   3    0.32    0.17
   5 -11   3   -0.12    0.20
  -6 -11  -5   -0.25    0.16
  -6 -11  -5   -0.01    0.19
  -6 -10  -5    1.13    0.27
  -6 -10  -5    0.98    0.28
  -6  -9  -5    0.36    0.20
  -6  -9  -5    0.11    0.17
  -6  -8  -5    2.14    0.33
  -6  -8  -5    1.85    0.28
  -6  -7  -5    5.31    0.47
  -6  -7  -5    4.66    0.39
   6   6   5    2.30    0.31
  -6  -6  -5    2.53    0.27
  -6  -6  -5    2.80    0.35
   6   5   5    1.51    0.19
   6   5   5    1.53    0.25
  -6  -5  -5    1.15    0.18
  -6  -5  -5    1.48    0.19
  -6  -5  -5    1.54    0.25
   6   4   5    0.11    0.09
   6   4   5    0.16    0.15
   6   4   5    0.28    0.12
  -6  -4  -5    0.08    0.12
  -6  -4  -5    0.04    0.09
  -6  -4  -5    0.24    0.13
  -6  -4  -5    0.21    0.12
   6   3   5   16.60    0.67
   6   3   5   16.19    0.72
   6   3   5   15.85    0.56
  -6  -3  -5   14.35    0.70
  -6  -3  -5   15.95    0.65
  -6  -3  -5   16.66    0.69
   6   2   5    2.37    0.28
   6   2   5    1.47    0.18
   6   2   5    2.42    0.20
   6   2   5    2.65    0.29
  -6  -2  -5    2.21    0.27
  -6  -2  -5    2.14    0.22
   6   1   5    0.11    0.11
   6   1   5    0.31    0.11
   6   1   5    0.15    0.07
   6   1   5    0.16    0.10
   6   1   5    0.15    0.10
  -6  -1  -5    0.22    0.13
   6   0   5    1.85    0.20
   6   0   5    3.21    0.33
   6   0   5    1.68    0.22
   6   0   5    2.04    0.25
   6   0   5    1.93    0.14
  -6   0  -5    2.38    0.27
  -6   0  -5    2.36    0.20
  -6   0  -5    2.14    0.14
   6  -1   5    7.30    0.43
   6  -1   5    8.32    0.42
   6  -1   5    7.19    0.43
   6  -1   5    8.10    0.42
  -6   1  -5    7.75    0.35
  -6   1  -5    7.83    0.30
  -6   1  -5    7.50    0.43
   6  -2   5   21.00    0.79
   6  -2   5   19.30    0.81
   6  -2   5   21.24    0.80
   6  -2   5   19.92    0.81
   6  -2   5   21.36    0.82
  -6   2  -5   21.35    0.68
  -6   2  -5   21.12    0.81
   6  -3   5    0.02    0.10
   6  -3   5    0.06    0.12
   6  -3   5    0.22    0.10
   6  -3   5    0.03    0.08
   6  -3   5    0.04    0.11
  -6   3  -5    0.29    0.13
  -6   3  -5   -0.02    0.07
   6  -4   5    5.66    0.35
   6  -4   5    5.40    0.36
   6  -4   5    5.00    0.35
   6  -4   5    5.69    0.36
   6  -4   5    5.76    0.36
  -6   4  -5    5.93    0.28
   6  -5   5    4.18    0.31
   6  -5   5    4.23    0.30
   6  -5   5    4.35    0.36
   6  -5   5    4.22    0.31
   6  -6   5    0.79    0.18
   6  -6   5    0.99    0.16
   6  -6   5    0.62    0.16
   6  -6   5    1.07    0.19
   6  -7   5    0.80    0.19
   6  -7   5    0.68    0.17
   6  -7   5    0.59    0.16
   6  -8   5    0.02    0.11
   6  -8   5    0.10    0.14
   6  -8   5    0.17    0.13
   6  -9   5    0.15    0.12
   6  -9   5   -0.05    0.12
   6  -9   5   -0.07    0.13
   6 -10   5    0.22    0.15
   6 -10   5    0.24    0.18
  -7 -10  -7    0.20    0.21
  -7 -10  -7    0.22    0.22
  -7  -9  -7    0.48    0.21
  -7  -9  -7    0.39    0.25
  -7  -8  -7    0.20    0.20
  -7  -8  -7    0.42    0.19
  -7  -7  -7    0.67    0.20
  -7  -7  -7    0.44    0.24
   7   6   7    3.82    0.46
  -7  -6  -7    3.41    0.33
  -7  -6  -7    3.43    0.44
   7   5   7    3.14    0.40
  -7  -5  -7    3.13    0.39
   7   4   7    0.03    0.14
  -7  -4  -7   -0.13    0.14
   7   3   7    8.03    0.53
   7   3   7    7.44    0.37
  -7  -3  -7    7.68    0.53
   7   2   7    4.62    0.26
   7   2   7    5.62    0.49
   7   2   7    4.97    0.46
  -7  -2  -7    5.86    0.50
   7   1   7    7.35    0.46
   7   1   7    7.86    0.31
   7   1   7    6.92    0.38
   7   1   7    8.00    0.52
  -7  -1  -7    7.95    0.51
   7   0   7    0.65    0.21
   7   0   7    0.46    0.14
  -7   0  -7    0.70    0.19
   7  -1   7    4.82    0.43
   7  -1   7    5.39    0.38
   7  -1   7    5.58    0.39
   7  -2   7    1.56    0.23
   7  -2   7    1.63    0.27
   7  -2   7    1.69    0.26
   7  -3   7    0.23    0.15
   7  -3   7    0.37    0.17
   7  -3   7    0.33    0.17
   7  -3   7    0.32    0.15
   7  -4   7    1.94    0.28
   7  -4   7    1.60    0.25
   7  -4   7    1.39    0.24
   7  -4   7    1.52    0.23
   7  -5   7    0.53    0.18
   7  -5   7    0.38    0.17
   7  -5   7    0.39    0.17
   7  -5   7    0.31    0.15
   7  -6   7    0.39    0.13
   7  -6   7    0.44    0.18
   7  -6   7    0.57    0.18
   7  -6   7    0.46    0.18
   7  -7   7    0.40    0.20
   7  -7   7    0.42    0.18
   7  -7   7    0.23    0.16
   7  -8   7    0.89    0.22
   7  -8   7    0.37    0.16
   7  -8   7    0.66    0.23
  -8  -8  -9    0.59    0.32
  -8  -8  -9    0.30    0.20
  -8  -7  -9    0.07    0.17
  -8  -7  -9    0.55    0.30
  -8  -6  -9    0.23    0.24
   8   5   9    0.01    0.20
  -8  -5  -9   -0.06    0.20
   8   4   9    0.79    0.26
  -8  -4  -9    0.83    0.27
   8   3   9    2.01    0.36
  -8  -3  -9    1.69    0.33
   8   2   9    0.58    0.11
   8   2   9    0.41    0.17
   8   2   9    0.48    0.11
   8   2   9    0.34    0.20
   8   1   9    0.58    0.22
   8   0   9    1.53    0.30
   8  -1   9    0.21    0.13
   8  -1   9   -0.02    0.17
   8  -2   9    0.71    0.19
   8  -2   9    0.34    0.19
   8  -3   9    0.14    0.18
   8  -3   9    0.17    0.17
   8  -3   9    0.27    0.17
   8  -4   9    0.02    0.16
   8  -4   9    0.20    0.15
   8  -4   9    0.21    0.19
   8  -5   9    0.19    0.19
   8  -5   9    0.28    0.17
   8  -5   9   -0.07    0.17
   8  -6   9    0.20    0.21
   8  -6   9    0.17    0.17
   8  -6   9   -0.06    0.11
   9   4  11    0.70    0.29
   9   3  11   -0.15    0.15
   9   3  11    0.12    0.21
   9   2  11   -0.02    0.24
   9   1  11    0.00    0.23
   9   0  11    0.31    0.26
   9  -1  11    0.98    0.30
   9  -2  11    0.10    0.20
   2  -3  12    0.43    0.22
   2  -3  12    0.07    0.18
   2  -2  12   -0.01    0.16
   2  -2  12    0.05    0.18
   2  -1  12    0.84    0.26
   2   0  12    0.60    0.25
   2   1  12    1.33    0.33
   2   2  12    0.13    0.22
   2   3  12    0.62    0.27
   2   4  12    0.38    0.28
  -2  -5 -12   -0.03    0.15
   2   5  12   -0.09    0.26
   1  -6  10    0.29    0.15
   1  -6  10    0.35    0.19
   1  -6  10    0.26    0.15
   1  -5  10    1.18    0.24
   1  -5  10    0.83    0.19
   1  -5  10    0.91    0.21
   1  -4  10    0.82    0.19
   1  -4  10    0.55    0.18
   1  -4  10    0.60    0.21
   1  -3  10   -0.05    0.14
   1  -3  10    0.39    0.19
   1  -2  10    0.21    0.16
   1  -2  10   -0.01    0.14
   1  -1  10    3.50    0.39
   1  -1  10    3.88    0.37
   1   0  10    0.83    0.21
   1   0  10    1.16    0.26
   1   1  10    0.02    0.17
   1   1  10    0.00    0.13
   1   2  10    1.01    0.27
   1   3  10    1.62    0.17
   1   3  10    1.33    0.29
  -1  -4 -10    0.88    0.26
   1   4  10    1.72    0.20
   1   4  10    1.67    0.32
  -1  -5 -10    1.96    0.36
   1   5  10    1.22    0.20
   1   5  10    1.63    0.35
  -1  -6 -10    0.37    0.24
  -1  -6 -10    0.04    0.15
   1   6  10    0.39    0.25
   1   6  10    0.04    0.12
  -1  -7 -10   -0.24    0.16
   1   7  10    0.15    0.14
  -1  -8 -10    0.05    0.23
   0  -8   8    0.19    0.11
   0  -8   8    0.00    0.12
   0  -7   8    0.48    0.14
   0  -7   8    0.58    0.17
   0  -6   8    0.42    0.15
   0  -6   8    0.60    0.15
   0  -6   8    0.86    0.17
   0  -5   8    0.30    0.14
   0  -5   8    0.31    0.14
   0  -5   8    0.32    0.14
   0  -4   8    0.16    0.13
   0  -4   8    0.08    0.11
   0  -4   8    0.05    0.10
   0  -4   8    0.17    0.12
   0  -3   8    2.40    0.27
   0  -3   8    3.18    0.31
   0  -3   8    3.39    0.32
   0  -2   8    1.34    0.20
   0  -2   8    1.76    0.25
   0  -2   8    1.85    0.24
   0  -1   8    6.41    0.42
   0  -1   8    6.85    0.41
   0  -1   8    6.46    0.29
   0  -1   8    6.20    0.39
   0   0  -8    0.40    0.15
   0   0   8    0.42    0.17
   0   0   8    0.14    0.12
   0   0   8    0.24    0.14
   0   0   8    0.36    0.14
   0  -1  -8    8.06    0.49
   0   1   8    9.23    0.49
   0   1   8    8.44    0.47
   0   1   8    9.02    0.53
   0   1   8   10.51    0.55
   0  -2  -8    0.42    0.17
   0   2   8    0.55    0.11
   0   2   8    0.34    0.16
   0   2   8    0.41    0.12
   0  -3  -8    4.66    0.43
   0   3   8    4.15    0.26
   0   3   8    4.43    0.41
   0   3   8    3.54    0.39
   0  -4  -8    8.05    0.52
   0   4   8    8.06    0.54
   0   4   8    7.49    0.37
   0  -5  -8    0.48    0.20
   0   5   8    0.60    0.14
   0   5   8    1.33    0.29
   0  -6  -8    1.76    0.31
   0   6   8    1.58    0.22
   0   6   8    1.60    0.31
   0  -7  -8    2.60    0.37
   0   7   8    2.16    0.27
   0  -8  -8    0.35    0.22
   0  -9  -8    0.76    0.27
   0 -10  -8    0.12    0.20
  -1 -10   6   -0.11    0.10
  -1  -9   6    0.26    0.12
  -1  -9   6    0.37    0.12
  -1  -8   6    0.65    0.14
  -1  -8   6    0.55    0.13
  -1  -7   6    0.73    0.14
  -1  -7   6    0.69    0.11
  -1  -7   6    0.93    0.15
  -1  -6   6    0.03    0.08
  -1  -6   6    0.07    0.10
  -1  -6   6    0.17    0.10
  -1  -6   6    0.16    0.10
  -1  -5   6    2.59    0.24
  -1  -5   6    2.67    0.24
  -1  -5   6    2.65    0.24
  -1  -5   6    2.99    0.25
  -1  -4   6    2.39    0.23
  -1  -4   6    2.18    0.22
  -1  -4   6    1.92    0.20
  -1  -4   6    1.89    0.20
  -1  -4   6    2.08    0.19
   1   3  -6    4.75    0.30
  -1  -3   6    5.86    0.33
  -1  -3   6    5.90    0.34
  -1  -3   6    6.01    0.33
  -1  -3   6    5.70    0.32
   1   2  -6    5.90    0.34
  -1  -2   6    5.39    0.34
  -1  -2   6    6.01    0.34
  -1  -2   6    7.09    0.35
  -1  -2   6    6.96    0.36
  -1  -2   6    5.57    0.34
   1   1  -6    1.12    0.17
  -1  -1   6    0.65    0.13
  -1  -1   6    1.16    0.18
  -1  -1   6    0.97    0.17
  -1  -1   6    0.85    0.14
  -1  -1   6    1.06    0.19
   1   0  -6    0.04    0.07
   1   0  -6    0.05    0.09
  -1   0   6    0.06    0.08
  -1   0   6   -0.03    0.09
  -1   0   6   -0.07    0.08
  -1   0   6    0.21    0.11
  -1   0   6    0.11    0.11
   1  -1  -6    0.20    0.10
   1  -1  -6   -0.03    0.09
   1  -1  -6   -0.03    0.07
  -1   1   6    0.05    0.09
  -1   1   6    0.11    0.10
  -1   1   6    0.02    0.11
  -1   1   6    0.00    0.08
  -1   1   6   -0.04    0.06
  -1   1   6   -0.02    0.10
   1  -2  -6    0.82    0.16
   1  -2  -6    0.99    0.19
  -1   2   6    0.78    0.12
  -1   2   6    0.82    0.15
  -1   2   6    0.94    0.20
  -1   2   6    0.69    0.16
  -1   2   6    0.72    0.18
   1  -3  -6    3.70    0.33
   1  -3  -6    4.44    0.29
   1  -3  -6    4.61    0.32
  -1   3   6    4.45    0.30
  -1   3   6    4.10    0.25
  -1   3   6    4.09    0.36
  -1   3   6    4.47    0.30
   1  -4  -6    7.39    0.45
   1  -4  -6    6.63    0.39
   1  -4  -6    6.47    0.39
  -1   4   6    5.67    0.41
  -1   4   6    6.92    0.33
   1  -5  -6    3.04    0.34
   1  -5  -6    2.25    0.29
   1  -5  -6    3.10    0.32
  -1   5   6    2.74    0.32
  -1   5   6    3.48    0.27
   1  -6  -6    7.25    0.49
   1  -6  -6    6.98    0.43
  -1   6   6    6.29    0.45
  -1   6   6    7.30    0.38
   1  -7  -6    4.89    0.34
   1  -7  -6    4.11    0.42
   1  -7  -6    4.87    0.43
  -1   7   6    5.54    0.50
   1  -8  -6    1.00    0.23
   1  -8  -6    0.96    0.26
   1  -9  -6    2.05    0.32
   1 -10  -6    1.75    0.32
   1 -11  -6   -0.22    0.18
   1 -11  -6    0.18    0.19
  -2 -11   4   -0.03    0.11
  -2 -11   4    0.03    0.11
  -2 -10   4    0.96    0.17
  -2 -10   4    1.22    0.18
  -2  -9   4    1.01    0.16
  -2  -9   4    1.43    0.18
  -2  -8   4    2.99    0.23
  -2  -8   4    2.61    0.23
  -2  -7   4    0.94    0.15
  -2  -7   4    1.08    0.14
  -2  -7   4    1.32    0.16
  -2  -7   4    1.31    0.16
   2   6  -4    4.62    0.27
  -2  -6   4    4.34    0.25
  -2  -6   4    4.19    0.26
  -2  -6   4    4.37    0.25
  -2  -6   4    3.72    0.25
   2   5  -4    7.96    0.38
   2   5  -4    7.68    0.34
  -2  -5   4    7.42    0.35
  -2  -5   4    8.05    0.35
  -2  -5   4    8.37    0.37
  -2  -5   4    8.10    0.37
   2   4  -4   -0.01    0.08
   2   4  -4   -0.01    0.07
  -2  -4   4    0.19    0.09
  -2  -4   4   -0.03    0.07
  -2  -4   4    0.16    0.08
  -2  -4   4    0.05    0.07
   2   3  -4    1.00    0.14
   2   3  -4    0.94    0.15
  -2  -3   4    1.12    0.16
  -2  -3   4    0.97    0.13
  -2  -3   4    0.78    0.13
  -2  -3   4    0.91    0.14
  -2  -3   4    0.80    0.13
   2   2  -4    9.66    0.34
   2   2  -4    8.94    0.41
  -2  -2   4    9.14    0.40
  -2  -2   4    9.36    0.42
  -2  -2   4    9.03    0.42
  -2  -2   4    9.32    0.40
   2   1  -4   11.23    0.39
   2   1  -4   10.78    0.47
  -2  -1   4   11.93    0.50
  -2  -1   4   11.71    0.46
  -2  -1   4   11.34    0.46
  -2  -1   4   10.45    0.47
  -2  -1   4   10.38    0.47
   2   0  -4    2.64    0.18
   2   0  -4    2.81    0.25
   2   0  -4    3.01    0.24
  -2   0   4    2.63    0.23
  -2   0   4    3.24    0.24
  -2   0   4    2.74    0.23
  -2   0   4    3.04    0.15
  -2   0   4    2.71    0.24
  -2   0   4    2.83    0.25
   2  -1  -4    0.00    0.08
   2  -1  -4    0.00    0.09
   2  -1  -4    0.16    0.09
   2  -1  -4    0.16    0.07
  -2   1   4    0.03    0.07
  -2   1   4    0.06    0.09
  -2   1   4    0.05    0.06
  -2   1   4    0.06    0.10
  -2   1   4    0.08    0.06
  -2   1   4    0.09    0.08
  -2   1   4    0.07    0.09
   2  -2  -4  178.09    5.13
  -2   2   4  175.14    4.96
  -2   2   4  180.74    5.20
  -2   2   4  179.43    4.97
  -2   2   4  180.32    4.58
  -2   2   4  173.88    5.12
  -2   2   4  178.25    5.13
   2  -3  -4    0.73    0.16
   2  -3  -4    1.03    0.16
   2  -3  -4    0.77    0.14
  -2   3   4    0.59    0.11
  -2   3   4    0.62    0.13
  -2   3   4    0.84    0.14
  -2   3   4    0.80    0.15
  -2   3   4    0.75    0.14
   2  -4  -4    0.77    0.17
   2  -4  -4    0.91    0.18
   2  -4  -4    1.02    0.16
   2  -4  -4    1.19    0.19
  -2   4   4    0.80    0.16
  -2   4   4    1.00    0.14
  -2   4   4    0.96    0.17
  -2   4   4    0.83    0.13
   2  -5  -4    5.56    0.39
   2  -5  -4    6.44    0.40
   2  -5  -4    7.42    0.40
   2  -5  -4    7.07    0.39
  -2   5   4    5.88    0.39
  -2   5   4    6.32    0.32
  -2   5   4    8.33    0.43
   2  -6  -4    3.83    0.34
   2  -6  -4    3.73    0.32
   2  -6  -4    3.65    0.32
   2  -6  -4    2.90    0.31
  -2   6   4    3.53    0.33
  -2   6   4    3.92    0.25
  -2   6   4    4.89    0.39
   2  -7  -4    0.00    0.12
   2  -7  -4    0.03    0.11
   2  -7  -4   -0.01    0.11
  -2   7   4    0.16    0.10
  -2   7   4   -0.03    0.11
  -2   7   4    0.05    0.11
   2  -8  -4    0.29    0.16
   2  -8  -4    0.14    0.14
   2  -8  -4    0.42    0.17
   2  -9  -4    0.15    0.15
   2  -9  -4   -0.09    0.16
   2  -9  -4    0.33    0.17
   2 -10  -4    0.30    0.23
   2 -10  -4    0.79    0.22
   2 -10  -4    0.83    0.22
   2 -11  -4   -0.09    0.15
   2 -11  -4    0.17    0.23
   2 -11  -4    0.06    0.17
  -3 -11   2    0.34    0.14
  -3 -11   2    0.03    0.14
  -3 -11   2    0.21    0.24
  -3 -10   2    0.86    0.26
  -3 -10   2    0.79    0.16
  -3 -10   2    1.22    0.20
  -3  -9   2    0.88    0.15
  -3  -9   2    0.82    0.16
  -3  -9   2    0.87    0.13
  -3  -9   2    0.61    0.23
  -3  -9   2    0.99    0.17
  -3  -8   2    1.62    0.19
  -3  -8   2    1.80    0.20
  -3  -8   2    1.49    0.28
  -3  -8   2    1.65    0.19
  -3  -8   2    2.21    0.20
   3   7  -2    2.16    0.22
  -3  -7   2    2.04    0.28
  -3  -7   2    1.97    0.20
  -3  -7   2    2.34    0.21
  -3  -7   2    2.12    0.21
  -3  -7   2    1.98    0.20
   3   6  -2    6.21    0.30
   3   6  -2    6.04    0.33
  -3  -6   2    6.43    0.33
  -3  -6   2    6.38    0.32
  -3  -6   2    6.37    0.32
  -3  -6   2    6.45    0.40
  -3  -6   2    5.65    0.31
   3   5  -2    7.61    0.38
   3   5  -2    8.20    0.36
  -3  -5   2    7.91    0.35
  -3  -5   2    8.12    0.36
  -3  -5   2    7.38    0.37
  -3  -5   2    7.68    0.36
  -3  -5   2    7.75    0.41
   3   4  -2    3.52    0.25
   3   4  -2    3.59    0.23
  -3  -4   2    3.93    0.25
  -3  -4   2    4.21    0.26
  -3  -4   2    3.96    0.24
  -3  -4   2    4.17    0.23
   3   3  -2   12.13    0.39
   3   3  -2   11.31    0.49
   3   3  -2   11.67    0.47
  -3  -3   2   11.60    0.45
  -3  -3   2   11.36    0.48
  -3  -3   2   11.88    0.46
   3   2  -2   22.19    0.79
   3   2  -2   20.63    0.75
   3   2  -2   22.93    0.65
  -3  -2   2   23.77    0.78
  -3  -2   2   21.52    0.73
  -3  -2   2   20.98    0.73
  -3  -2   2   21.35    0.77
   3   1  -2    1.56    0.18
   3   1  -2    1.76    0.17
   3   1  -2    1.67    0.14
   3   1  -2    1.48    0.17
  -3  -1   2    1.96    0.20
  -3  -1   2    1.92    0.19
  -3  -1   2    1.84    0.14
  -3  -1   2    1.58    0.11
  -3  -1   2    2.06    0.18
  -3  -1   2    1.74    0.17
  -3  -1   2    1.95    0.19
   3   0  -2    8.41    0.40
   3   0  -2    9.25    0.38
   3   0  -2    8.74    0.38
   3   0  -2    8.90    0.42
   3   0  -2    8.84    0.33
  -3   0   2    9.50    0.42
  -3   0   2    8.52    0.32
  -3   0   2    8.90    0.41
  -3   0   2    9.77    0.42
  -3   0   2    8.63    0.38
  -3   0   2    9.30    0.39
   3  -1  -2   14.61    0.47
   3  -1  -2   14.14    0.58
   3  -1  -2   14.99    0.57
   3  -1  -2   15.24    0.59
   3  -1  -2   13.39    0.53
  -3   1   2   13.11    0.57
  -3   1   2   13.00    0.52
  -3   1   2   14.71    0.53
  -3   1   2   14.18    0.56
  -3   1   2   15.84    0.59
  -3   1   2   14.45    0.47
   3  -2  -2    8.16    0.38
   3  -2  -2    7.82    0.40
   3  -2  -2    8.54    0.31
   3  -2  -2    9.11    0.42
   3  -2  -2    8.41    0.38
  -3   2   2    7.74    0.39
  -3   2   2    8.73    0.37
  -3   2   2    8.43    0.37
  -3   2   2    8.55    0.42
  -3   2   2    8.26    0.32
   3  -3  -2    0.62    0.13
   3  -3  -2    0.59    0.12
   3  -3  -2    0.51    0.14
   3  -3  -2    0.63    0.14
  -3   3   2    0.59    0.11
  -3   3   2    0.75    0.15
  -3   3   2    0.63    0.14
  -3   3   2    0.47    0.10
   3  -4  -2   14.35    0.57
   3  -4  -2   15.93    0.62
   3  -4  -2   13.74    0.56
   3  -4  -2   13.53    0.59
  -3   4   2   14.01    0.54
  -3   4   2   14.70    0.49
  -3   4   2   14.78    0.59
   3  -5  -2   -0.02    0.09
   3  -5  -2   -0.03    0.08
   3  -5  -2   -0.01    0.09
   3  -5  -2    0.22    0.11
  -3   5   2    0.20    0.08
  -3   5   2    0.15    0.10
   3  -6  -2    5.98    0.36
   3  -6  -2    6.23    0.38
   3  -6  -2    5.55    0.32
   3  -6  -2    5.98    0.36
   3  -6  -2    6.22    0.38
  -3   6   2    6.08    0.36
  -3   6   2    5.40    0.28
   3  -7  -2    0.64    0.15
   3  -7  -2    0.49    0.16
   3  -7  -2    0.65    0.16
   3  -7  -2    0.65    0.16
   3  -7  -2    0.68    0.18
   3  -8  -2    1.03    0.20
   3  -8  -2    0.91    0.19
   3  -8  -2    0.92    0.21
   3  -8  -2    1.39    0.21
   3  -9  -2   -0.01    0.13
   3  -9  -2    0.05    0.13
   3  -9  -2    0.18    0.16
   3  -9  -2    0.12    0.18
   3 -10  -2    1.63    0.26
   3 -10  -2    2.26    0.31
   3 -10  -2    2.37    0.36
   3 -10  -2    1.69    0.27
   3 -11  -2   -0.08    0.14
   3 -11  -2    0.35    0.20
   3 -11  -2   -0.06    0.19
   3 -12  -2    0.25    0.18
   3 -12  -2    0.33    0.21
  -4 -12   0    0.84    0.22
  -4 -12   0    1.35    0.21
  -4 -12   0    1.40    0.27
  -4 -12   0    1.41    0.34
  -4 -11   0    0.30    0.24
  -4 -11   0    0.04    0.12
  -4 -11   0   -0.07    0.15
  -4 -11   0    0.00    0.14
  -4 -10   0    0.23    0.15
  -4 -10   0   -0.16    0.16
  -4 -10   0    0.06    0.12
  -4 -10   0    0.01    0.13
  -4  -9   0    0.49    0.20
  -4  -9   0    0.17    0.13
  -4  -9   0    0.28    0.14
  -4  -9   0    0.57    0.17
  -4  -8   0    2.14    0.24
  -4  -8   0    2.04    0.25
  -4  -8   0    2.54    0.26
  -4  -8   0    2.46    0.26
  -4  -8   0    2.15    0.30
  -4  -7   0    5.55    0.34
  -4  -7   0    5.86    0.36
  -4  -7   0    4.74    0.39
  -4  -7   0    5.81    0.34
  -4  -7   0    5.34    0.32
   4   6   0    2.22    0.23
  -4  -6   0    2.07    0.22
  -4  -6   0    2.65    0.25
  -4  -6   0    2.50    0.27
  -4  -6   0    2.47    0.24
  -4  -6   0    2.14    0.23
   4   5   0   11.08    0.47
  -4  -5   0   10.93    0.47
  -4  -5   0   10.52    0.46
  -4  -5   0   10.69    0.45
  -4  -5   0   10.47    0.48
   4   4   0   18.37    0.57
   4   4   0   17.63    0.67
  -4  -4   0   18.49    0.66
  -4  -4   0   17.73    0.61
  -4  -4   0   18.26    0.68
  -4  -4   0   18.21    0.65
  -4  -4   0   18.54    0.69
  -4  -4   0   17.88    0.63
   4   3   0    4.55    0.28
   4   3   0    4.32    0.22
   4   3   0    4.64    0.29
  -4  -3   0    5.10    0.29
  -4  -3   0    5.08    0.27
  -4  -3   0    5.12    0.25
  -4  -3   0    4.65    0.29
  -4  -3   0    4.39    0.26
   4   2   0   33.79    1.12
   4   2   0   34.28    0.99
   4   2   0   33.53    1.07
   4   2   0   35.66    1.15
   4   2   0   34.52    0.97
  -4  -2   0   33.67    1.12
  -4  -2   0   34.76    1.12
  -4  -2   0   33.75    1.09
  -4  -2   0   33.54    1.07
   4   1   0   21.12    0.73
   4   1   0   21.99    0.67
   4   1   0   22.47    0.65
   4   1   0   22.50    0.75
   4   1   0   22.19    0.81
   4   1   0   21.56    0.78
  -4  -1   0   22.86    0.76
  -4  -1   0   20.95    0.65
  -4  -1   0   23.20    0.79
  -4  -1   0   21.53    0.78
  -4  -1   0   22.68    0.75
   4   0   0   53.84    1.43
   4   0   0   51.98    1.57
   4   0   0   51.76    1.64
   4   0   0   53.84    1.64
   4   0   0   53.36    1.67
  -4   0   0   53.33    1.58
  -4   0   0   53.28    1.64
  -4   0   0   51.62    1.43
  -4   0   0   52.69    1.57
  -4   0   0   52.79    1.64
   4  -1   0    1.29    0.12
   4  -1   0    1.77    0.20
   4  -1   0    1.13    0.14
   4  -1   0    1.25    0.17
   4  -1   0    1.16    0.14
   4  -1   0    1.41    0.17
  -4   1   0    1.56    0.19
  -4   1   0    0.80    0.11
  -4   1   0    1.16    0.12
  -4   1   0    1.47    0.16
  -4   1   0    1.22    0.16
   4  -2   0    6.39    0.32
   4  -2   0    6.21    0.24
   4  -2   0    6.72    0.32
   4  -2   0    6.10    0.34
   4  -2   0    6.49    0.34
   4  -2   0    6.72    0.34
  -4   2   0    6.49    0.31
  -4   2   0    5.96    0.33
  -4   2   0    6.34    0.27
  -4   2   0    6.77    0.35
   4  -3   0    2.32    0.23
   4  -3   0    1.90    0.21
   4  -3   0    1.42    0.17
   4  -3   0    2.18    0.20
   4  -3   0    1.62    0.18
  -4   3   0    2.12    0.17
  -4   3   0    1.75    0.19
  -4   3   0    1.77    0.15
   4  -4   0    1.57    0.18
   4  -4   0    2.09    0.19
   4  -4   0    2.37    0.23
   4  -4   0    1.80    0.21
   4  -4   0    1.66    0.18
   4  -4   0    1.67    0.20
  -4   4   0    1.61    0.20
  -4   4   0    2.00    0.16
   4  -5   0   15.64    0.57
   4  -5   0   14.91    0.60
   4  -5   0   15.45    0.60
   4  -5   0   15.50    0.62
   4  -5   0   14.51    0.62
   4  -5   0   15.41    0.58
  -4   5   0   15.64    0.50
  -4   5   0   14.54    0.60
   4  -6   0    6.87    0.39
   4  -6   0    7.54    0.40
   4  -6   0    7.62    0.39
   4  -6   0    7.06    0.38
   4  -6   0    8.36    0.41
  -4   6   0    7.23    0.39
  -4   6   0    7.78    0.31
   4  -7   0    0.82    0.17
   4  -7   0    0.74    0.18
   4  -7   0    1.20    0.19
   4  -7   0    1.07    0.18
   4  -7   0    0.78    0.16
  -4   7   0    0.48    0.10
   4  -8   0    2.87    0.30
   4  -8   0    3.48    0.30
   4  -8   0    3.56    0.31
   4  -8   0    2.87    0.33
   4  -9   0    4.49    0.37
   4  -9   0    4.80    0.45
   4  -9   0    5.02    0.40
   4  -9   0    4.01    0.35
   4 -10   0    0.53    0.19
   4 -10   0    0.51    0.23
   4 -10   0    0.32    0.16
   4 -10   0    0.22    0.15
   4 -11   0    0.11    0.14
   4 -11   0    0.21    0.16
   4 -11   0   -0.41    0.15
   4 -11   0    0.33    0.18
  -5 -11  -2    0.49    0.21
  -5 -11  -2    1.06    0.24
  -5 -11  -2    0.49    0.23
  -5 -10  -2    3.11    0.35
  -5 -10  -2    3.03    0.35
  -5 -10  -2    2.71    0.34
  -5 -10  -2    3.22    0.41
  -5  -9  -2    3.43    0.39
  -5  -9  -2    3.24    0.35
  -5  -9  -2    3.69    0.37
  -5  -9  -2    3.43    0.35
  -5  -8  -2    3.47    0.33
  -5  -8  -2    3.15    0.31
  -5  -8  -2    3.71    0.37
  -5  -8  -2    3.78    0.35
  -5  -7  -2    6.46    0.40
  -5  -7  -2    6.43    0.40
  -5  -7  -2    6.26    0.42
  -5  -7  -2    6.53    0.40
   5   6   2    9.02    0.47
  -5  -6  -2    8.98    0.50
  -5  -6  -2    9.47    0.46
  -5  -6  -2    8.92    0.47
  -5  -6  -2    9.86    0.47
  -5  -6  -2    8.50    0.46
   5   5   2    0.15    0.10
  -5  -5  -2    0.10    0.12
  -5  -5  -2    0.05    0.09
  -5  -5  -2    0.30    0.12
  -5  -5  -2    0.26    0.13
  -5  -5  -2    0.08    0.10
   5   4   2   16.55    0.69
   5   4   2   17.21    0.58
  -5  -4  -2   17.25    0.59
  -5  -4  -2   17.63    0.67
  -5  -4  -2   17.37    0.70
  -5  -4  -2   16.74    0.70
  -5  -4  -2   16.99    0.65
   5   3   2    5.20    0.31
   5   3   2    5.91    0.27
   5   3   2    5.19    0.33
  -5  -3  -2    5.31    0.34
  -5  -3  -2    5.00    0.31
  -5  -3  -2    5.74    0.24
  -5  -3  -2    5.63    0.34
  -5  -3  -2    5.40    0.31
   5   2   2    0.27    0.12
   5   2   2    0.13    0.07
   5   2   2    0.15    0.09
   5   2   2    0.05    0.08
  -5  -2  -2   -0.01    0.09
  -5  -2  -2    0.18    0.09
  -5  -2  -2    0.11    0.09
  -5  -2  -2    0.31    0.12
  -5  -2  -2    0.07    0.05
   5   1   2    1.11    0.12
   5   1   2    0.78    0.14
   5   1   2    0.91    0.15
  -5  -1  -2    0.88    0.17
  -5  -1  -2    0.77    0.13
  -5  -1  -2    0.87    0.11
  -5  -1  -2    0.39    0.10
   5   0   2    8.90    0.39
   5   0   2    8.75    0.32
   5   0   2    7.95    0.41
   5   0   2    8.27    0.43
   5   0   2    8.85    0.40
   5   0   2    9.43    0.43
  -5   0  -2    8.31    0.37
  -5   0  -2    8.24    0.33
  -5   0  -2    7.57    0.41
  -5   0  -2    7.84    0.38
   5  -1   2    4.16    0.28
   5  -1   2    3.57    0.24
   5  -1   2    3.84    0.26
   5  -1   2    3.63    0.28
   5  -1   2    3.58    0.27
   5  -1   2    3.94    0.19
  -5   1  -2    3.98    0.28
  -5   1  -2    4.06    0.24
  -5   1  -2    3.88    0.21
   5  -2   2    3.38    0.30
   5  -2   2    2.98    0.27
   5  -2   2    3.81    0.27
   5  -2   2    3.58    0.15
   5  -2   2    3.50    0.24
   5  -2   2    3.49    0.25
  -5   2  -2    3.72    0.30
  -5   2  -2    3.50    0.23
  -5   2  -2    3.88    0.21
   5  -3   2    7.04    0.36
   5  -3   2    6.96    0.39
   5  -3   2    7.36    0.39
   5  -3   2    7.62    0.29
   5  -3   2    7.39    0.37
   5  -3   2    7.10    0.39
  -5   3  -2    8.05    0.31
  -5   3  -2    7.67    0.39
   5  -4   2    6.33    0.30
   5  -4   2    6.84    0.36
   5  -4   2    7.18    0.36
   5  -4   2    7.08    0.38
   5  -4   2    6.64    0.38
  -5   4  -2    6.55    0.36
  -5   4  -2    6.73    0.28
   5  -5   2    6.31    0.32
   5  -5   2    5.14    0.33
   5  -5   2    5.98    0.33
   5  -5   2    5.67    0.33
   5  -5   2    5.91    0.36
   5  -5   2    5.38    0.33
  -5   5  -2    5.41    0.33
  -5   5  -2    5.67    0.26
   5  -6   2    1.29    0.20
   5  -6   2    0.94    0.17
   5  -6   2    1.25    0.19
   5  -6   2    1.38    0.19
   5  -6   2    1.42    0.20
   5  -6   2    1.22    0.19
  -5   6  -2    0.96    0.12
   5  -7   2    0.10    0.11
   5  -7   2    0.21    0.14
   5  -7   2    0.08    0.12
   5  -7   2   -0.05    0.11
   5  -8   2    0.93    0.23
   5  -8   2    0.80    0.18
   5  -8   2    0.96    0.19
   5  -8   2    0.91    0.18
   5  -9   2    0.06    0.12
   5  -9   2    0.05    0.13
   5  -9   2    0.16    0.18
   5  -9   2    0.13    0.14
   5 -10   2    0.19    0.14
   5 -10   2   -0.15    0.17
   5 -10   2    0.10    0.14
   5 -10   2    0.27    0.16
   5 -11   2    0.24    0.18
   5 -11   2    0.32    0.17
   5 -11   2    0.03    0.22
   5 -11   2    0.31    0.14
  -6 -11  -4    0.23    0.19
  -6 -11  -4    0.26    0.22
  -6 -10  -4    0.09    0.19
  -6 -10  -4    0.24    0.19
  -6  -9  -4    0.42    0.20
  -6  -9  -4    0.81    0.24
  -6  -8  -4    1.61    0.28
  -6  -8  -4    1.28    0.27
  -6  -8  -4    1.26    0.24
  -6  -7  -4    9.84    0.58
  -6  -7  -4    9.58    0.54
  -6  -7  -4   10.19    0.51
   6   6   4    0.01    0.13
  -6  -6  -4    0.04    0.15
  -6  -6  -4    0.16    0.11
  -6  -6  -4    0.11    0.13
  -6  -6  -4    0.08    0.11
   6   5   4   13.78    0.65
  -6  -5  -4   13.89    0.62
  -6  -5  -4   14.09    0.64
  -6  -5  -4   13.48    0.67
  -6  -5  -4   13.24    0.53
   6   4   4    0.68    0.15
   6   4   4    0.59    0.18
   6   4   4    0.63    0.14
  -6  -4  -4    0.53    0.15
  -6  -4  -4    0.43    0.11
  -6  -4  -4    0.45    0.13
  -6  -4  -4    0.33    0.16
   6   3   4    3.95    0.35
   6   3   4    4.13    0.30
   6   3   4    3.81    0.24
  -6  -3  -4    4.02    0.30
  -6  -3  -4    4.02    0.21
  -6  -3  -4    3.73    0.34
  -6  -3  -4    4.23    0.37
   6   2   4   15.02    0.61
   6   2   4   14.50    0.65
   6   2   4   14.31    0.52
  -6  -2  -4   14.73    0.45
  -6  -2  -4   15.33    0.62
  -6  -2  -4   13.99    0.65
   6   1   4    2.78    0.24
   6   1   4    3.68    0.22
   6   1   4    3.60    0.30
   6   1   4    3.99    0.36
  -6  -1  -4    4.07    0.37
  -6  -1  -4    4.14    0.27
   6   0   4    4.29    0.30
   6   0   4    3.82    0.21
   6   0   4    4.25    0.32
   6   0   4    4.52    0.30
  -6   0  -4    4.46    0.33
  -6   0  -4    4.40    0.25
   6  -1   4    7.35    0.40
   6  -1   4    7.47    0.42
   6  -1   4    6.90    0.38
   6  -1   4    6.67    0.41
   6  -1   4    7.50    0.42
  -6   1  -4    6.70    0.32
  -6   1  -4    8.02    0.42
   6  -2   4    0.31    0.13
   6  -2   4    0.28    0.12
   6  -2   4    0.31    0.12
   6  -2   4    0.30    0.11
   6  -2   4    0.20    0.13
  -6   2  -4    0.38    0.10
  -6   2  -4    0.22    0.11
   6  -3   4   14.15    0.60
   6  -3   4   14.58    0.60
   6  -3   4   14.92    0.63
   6  -3   4   12.99    0.61
   6  -3   4   13.93    0.62
  -6   3  -4   12.99    0.59
  -6   3  -4   14.75    0.50
   6  -4   4    0.02    0.04
   6  -4   4    0.07    0.11
   6  -4   4    0.11    0.11
   6  -4   4    0.10    0.12
   6  -4   4   -0.16    0.10
  -6   4  -4   -0.11    0.09
  -6   4  -4    0.06    0.08
   6  -5   4    1.44    0.21
   6  -5   4    2.17    0.25
   6  -5   4    1.68    0.22
   6  -5   4    1.95    0.25
   6  -5   4    1.55    0.22
  -6   5  -4    2.12    0.18
   6  -6   4   -0.01    0.11
   6  -6   4    0.03    0.11
   6  -6   4    0.13    0.12
   6  -6   4    0.08    0.11
   6  -6   4    0.06    0.12
   6  -7   4    1.86    0.25
   6  -7   4    1.62    0.23
   6  -7   4    2.05    0.27
   6  -7   4    1.58    0.25
   6  -8   4    0.62    0.17
   6  -8   4    0.78    0.19
   6  -8   4    1.44    0.25
   6  -8   4    0.73    0.18
   6  -9   4    0.11    0.14
   6  -9   4    0.16    0.15
   6  -9   4    0.01    0.14
   6  -9   4    0.07    0.17
   6 -10   4    0.49    0.18
   6 -10   4    0.22    0.14
   6 -10   4    0.10    0.19
   6 -10   4    0.47    0.21
  -7 -10  -6    0.17    0.20
  -7 -10  -6   -0.16    0.19
  -7  -9  -6    0.59    0.26
  -7  -9  -6    0.93    0.24
  -7  -8  -6    0.62    0.25
  -7  -8  -6    0.50    0.19
  -7  -7  -6    0.30    0.15
  -7  -7  -6    0.10    0.19
   7   6   6    3.56    0.42
  -7  -6  -6    3.39    0.32
  -7  -6  -6    3.91    0.45
   7   5   6    5.10    0.47
  -7  -5  -6    4.70    0.31
  -7  -5  -6    5.07    0.49
   7   4   6    0.20    0.16
  -7  -4  -6   -0.16    0.08
  -7  -4  -6    0.10    0.16
   7   3   6   14.75    0.71
   7   3   6   11.82    0.50
  -7  -3  -6   14.71    0.71
   7   2   6   11.23    0.44
   7   2   6   11.18    0.56
   7   2   6   10.19    0.59
  -7  -2  -6   10.88    0.60
   7   1   6    7.62    0.46
   7   1   6    8.15    0.51
   7   1   6    7.97    0.33
  -7  -1  -6    7.28    0.49
   7   0   6    0.18    0.11
   7   0   6    0.14    0.11
   7   0   6    0.23    0.15
  -7   0  -6    0.12    0.12
   7  -1   6    2.26    0.29
   7  -1   6    2.75    0.31
   7  -1   6    2.17    0.26
  -7   1  -6    2.68    0.31
  -7   1  -6    2.68    0.24
   7  -2   6    1.44    0.23
   7  -2   6    1.72    0.23
   7  -2   6    1.32    0.23
   7  -2   6    1.17    0.22
   7  -3   6    2.02    0.27
   7  -3   6    1.84    0.26
   7  -3   6    2.02    0.25
   7  -3   6    2.54    0.32
   7  -4   6    0.03    0.12
   7  -4   6   -0.01    0.13
   7  -4   6    0.31    0.16
   7  -4   6   -0.04    0.12
   7  -5   6    0.95    0.22
   7  -5   6    0.63    0.18
   7  -5   6    0.70    0.20
   7  -5   6    1.05    0.19
   7  -6   6    0.05    0.13
   7  -6   6   -0.03    0.11
   7  -6   6    0.20    0.16
   7  -6   6    0.04    0.14
   7  -7   6    1.95    0.28
   7  -7   6    2.01    0.27
   7  -7   6    1.79    0.25
   7  -8   6    0.46    0.17
   7  -8   6    0.40    0.16
   7  -8   6    0.55    0.20
   7  -9   6   -0.01    0.15
  -8  -9  -8    0.74    0.23
  -8  -9  -8    0.16    0.28
  -8  -8  -8    0.16    0.26
  -8  -8  -8    0.03    0.17
  -8  -7  -8    1.93    0.28
  -8  -7  -8    2.59    0.43
  -8  -6  -8    0.02    0.20
  -8  -6  -8    0.26    0.15
   8   5   8   -0.23    0.15
  -8  -5  -8   -0.11    0.18
   8   4   8    2.41    0.38
  -8  -4  -8    1.93    0.35
   8   3   8    2.72    0.38
  -8  -3  -8    2.66    0.38
   8   2   8    0.04    0.12
   8   2   8    0.12    0.08
   8   2   8    0.09    0.17
  -8  -2  -8    0.01    0.15
   8   1   8    1.15    0.27
   8   0   8    1.39    0.29
   8  -1   8    1.94    0.31
   8  -1   8    2.02    0.33
   8  -2   8    0.08    0.17
   8  -2   8    0.19    0.18
   8  -3   8    0.63    0.21
   8  -3   8    0.67    0.21
   8  -3   8    0.80    0.24
   8  -4   8    1.33    0.24
   8  -4   8    1.48    0.29
   8  -4   8    1.14    0.26
   8  -5   8    0.07    0.15
   8  -5   8    0.24    0.19
   8  -5   8    0.03    0.17
   8  -6   8    0.81    0.26
   8  -6   8    0.54    0.21
   8  -6   8    0.85    0.18
   8  -7   8    0.25    0.22
   8  -7   8    0.55    0.21
   9   4  10    0.15    0.20
   9   3  10    0.32    0.26
   9   3  10    0.21    0.15
   9   2  10   -0.19    0.20
   9   1  10    0.36    0.23
   9   0  10    0.70    0.26
   9  -1  10    1.64    0.36
   9  -2  10    0.38    0.24
   9  -3  10    0.36    0.24
   9  -3  10   -0.17    0.16
   1  -5  11    0.54    0.22
   1  -5  11    0.54    0.21
   1  -4  11    0.76    0.24
   1  -4  11    0.84    0.23
   1  -4  11    0.83    0.24
   1  -3  11    0.09    0.17
   1  -3  11    0.15    0.18
   1  -2  11   -0.01    0.16
   1  -2  11    0.17    0.19
   1  -1  11    1.62    0.27
   1  -1  11    1.09    0.27
   1   0  11    1.82    0.34
   1   1  11    0.11    0.22
   1   2  11    1.25    0.30
   1   3  11    1.12    0.29
   1   4  11    0.24    0.22
   1   4  11    0.52    0.13
   1   5  11    0.03    0.12
   1   5  11   -0.18    0.17
  -1  -6 -11    1.14    0.25
   1   6  11    1.10    0.20
  -1  -7 -11    0.50    0.27
   1   7  11    0.19    0.16
   0  -7   9    0.04    0.15
   0  -7   9    0.10    0.12
   0  -7   9    0.09    0.13
   0  -6   9    1.25    0.21
   0  -6   9    1.08    0.22
   0  -6   9    0.94    0.19
   0  -5   9    1.51    0.25
   0  -5   9    1.26    0.23
   0  -5   9    1.23    0.22
   0  -4   9    3.56    0.35
   0  -4   9    3.38    0.34
   0  -4   9    2.79    0.30
   0  -3   9    2.67    0.31
   0  -3   9    2.69    0.31
   0  -3   9    1.93    0.27
   0  -3   9    2.23    0.27
   0  -2   9    1.76    0.25
   0  -2   9    1.59    0.24
   0  -2   9    1.39    0.24
   0  -1   9    0.45    0.19
   0  -1   9    1.03    0.21
   0   0   9    2.60    0.33
   0   0   9    1.81    0.28
   0   1   9    1.08    0.22
   0   1   9    1.25    0.25
   0  -2  -9   -0.03    0.15
   0   2   9    0.15    0.17
   0   2   9   -0.07    0.07
   0  -3  -9    0.25    0.18
   0   3   9    0.18    0.18
   0   3   9    0.24    0.11
   0  -4  -9    0.95    0.25
   0   4   9    0.81    0.15
   0   4   9    0.55    0.22
   0  -5  -9    2.37    0.35
   0   5   9    1.92    0.24
   0   5   9    1.86    0.34
   0  -6  -9    2.13    0.36
   0   6   9    2.83    0.42
   0   6   9    2.26    0.26
   0  -7  -9    0.15    0.19
   0  -7  -9    0.09    0.15
   0   7   9    0.06    0.13
   0  -8  -9   -0.14    0.18
   0  -9  -9    0.87    0.32
  -1  -9   7    0.16    0.13
  -1  -9   7    0.13    0.11
  -1  -8   7    0.35    0.13
  -1  -8   7    0.16    0.13
  -1  -7   7    0.77    0.16
  -1  -7   7    1.16    0.17
  -1  -7   7    0.91    0.18
  -1  -6   7    1.13    0.17
  -1  -6   7    1.11    0.18
  -1  -6   7    0.89    0.18
  -1  -5   7    0.36    0.14
  -1  -5   7    0.90    0.17
  -1  -5   7    0.86    0.17
  -1  -4   7    1.93    0.22
  -1  -4   7    2.47    0.26
  -1  -4   7    2.59    0.26
  -1  -3   7    0.35    0.13
  -1  -3   7    0.08    0.10
  -1  -3   7    0.23    0.12
  -1  -3   7    0.18    0.13
  -1  -3   7    0.25    0.12
  -1  -2   7    0.67    0.15
  -1  -2   7    1.63    0.22
  -1  -2   7    1.51    0.20
  -1  -2   7    1.44    0.22
  -1  -2   7    1.81    0.22
  -1  -2   7    1.90    0.23
   1   1  -7    0.66    0.17
  -1  -1   7    0.63    0.16
  -1  -1   7    0.53    0.16
  -1  -1   7    0.47    0.13
  -1  -1   7    0.75    0.15
  -1  -1   7    0.86    0.18
  -1  -1   7    0.63    0.09
   1   0  -7    2.63    0.29
  -1   0   7    2.95    0.31
  -1   0   7    2.86    0.30
  -1   0   7    2.59    0.32
  -1   0   7    2.71    0.29
  -1   0   7    2.94    0.32
   1  -1  -7    4.04    0.36
  -1   1   7    3.69    0.37
  -1   1   7    4.27    0.37
  -1   1   7    4.33    0.20
  -1   1   7    3.74    0.36
  -1   1   7    4.03    0.34
   1  -2  -7    1.31    0.23
  -1   2   7    1.03    0.19
  -1   2   7    0.96    0.17
  -1   2   7    1.04    0.14
  -1   2   7    1.26    0.24
   1  -3  -7   10.02    0.56
  -1   3   7    9.15    0.40
  -1   3   7   10.16    0.56
  -1   3   7    9.13    0.49
   1  -4  -7    5.24    0.45
  -1   4   7    6.56    0.53
  -1   4   7    6.63    0.34
   1  -5  -7    2.26    0.31
  -1   5   7    2.03    0.29
  -1   5   7    1.74    0.20
   1  -6  -7    1.63    0.29
  -1   6   7    1.76    0.28
  -1   6   7    1.82    0.22
   1  -7  -7    0.26    0.19
   1  -7  -7    0.53    0.17
   1  -8  -7    3.45    0.42
   1  -9  -7    0.09    0.18
   1 -10  -7    0.19    0.23
  -2 -10   5    0.11    0.13
  -2 -10   5    0.15    0.11
  -2  -9   5    0.26    0.12
  -2  -9   5    0.28    0.13
  -2  -8   5    1.31    0.18
  -2  -8   5    1.31    0.19
  -2  -7   5    6.71    0.34
  -2  -7   5    6.55    0.35
  -2  -7   5    6.31    0.35
  -2  -7   5    6.51    0.32
  -2  -6   5    0.73    0.13
  -2  -6   5    0.48    0.13
  -2  -6   5    0.65    0.14
  -2  -6   5    0.51    0.13
  -2  -5   5    2.28    0.23
  -2  -5   5    1.80    0.21
  -2  -5   5    2.22    0.22
  -2  -5   5    2.30    0.22
   2   4  -5    1.23    0.16
  -2  -4   5    1.15    0.17
  -2  -4   5    1.69    0.21
  -2  -4   5    1.31    0.18
  -2  -4   5    1.09    0.16
   2   3  -5    4.75    0.29
  -2  -3   5    4.27    0.28
  -2  -3   5    4.36    0.28
  -2  -3   5    4.81    0.30
  -2  -3   5    4.39    0.29
  -2  -3   5    4.34    0.28
   2   2  -5   11.23    0.49
  -2  -2   5   11.94    0.51
  -2  -2   5   11.05    0.48
  -2  -2   5   10.64    0.50
  -2  -2   5   11.12    0.51
  -2  -2   5   11.12    0.48
   2   1  -5    8.30    0.34
   2   1  -5    9.22    0.44
  -2  -1   5    8.65    0.43
  -2  -1   5    8.44    0.41
  -2  -1   5    8.99    0.45
  -2  -1   5    8.18    0.43
  -2  -1   5    8.66    0.41
   2   0  -5    1.79    0.22
   2   0  -5    2.01    0.20
   2   0  -5    1.38    0.15
  -2   0   5    1.56    0.21
  -2   0   5    1.75    0.23
  -2   0   5    1.51    0.23
  -2   0   5    1.32    0.17
  -2   0   5    1.74    0.20
  -2   0   5    1.92    0.23
  -2   0   5    1.87    0.12
   2  -1  -5    5.93    0.37
   2  -1  -5    6.27    0.34
  -2   1   5    6.49    0.38
  -2   1   5    6.57    0.28
  -2   1   5    6.68    0.40
  -2   1   5    6.61    0.38
  -2   1   5    5.98    0.34
  -2   1   5    6.11    0.35
   2  -2  -5   11.29    0.54
   2  -2  -5   11.59    0.50
   2  -2  -5   10.84    0.49
  -2   2   5   10.26    0.48
  -2   2   5   10.40    0.52
  -2   2   5   10.90    0.54
  -2   2   5   10.90    0.41
  -2   2   5   10.77    0.53
  -2   2   5   11.61    0.50
   2  -3  -5   12.55    0.60
   2  -3  -5   13.09    0.56
  -2   3   5   12.28    0.46
  -2   3   5   12.93    0.60
  -2   3   5   12.41    0.55
  -2   3   5   12.24    0.59
   2  -4  -5    1.88    0.25
   2  -4  -5    1.86    0.22
  -2   4   5    1.86    0.25
  -2   4   5    1.99    0.27
  -2   4   5    1.74    0.20
  -2   4   5    1.59    0.18
   2  -5  -5    0.03    0.12
   2  -5  -5    0.07    0.09
   2  -5  -5    0.19    0.10
  -2   5   5    0.34    0.15
  -2   5   5    0.03    0.12
  -2   5   5    0.15    0.09
   2  -6  -5    0.95    0.21
   2  -6  -5    1.96    0.24
  -2   6   5    1.35    0.18
  -2   6   5    1.06    0.23
  -2   6   5    1.47    0.26
   2  -7  -5    3.89    0.31
   2  -7  -5    4.14    0.40
   2  -7  -5    4.10    0.37
   2  -8  -5    0.23    0.16
   2  -8  -5    0.36    0.18
   2  -9  -5    0.32    0.19
   2  -9  -5    0.03    0.17
   2 -10  -5    1.66    0.30
   2 -10  -5    1.59    0.32
   2 -10  -5    1.33    0.31
   2 -11  -5    0.05    0.22
   2 -11  -5    0.37    0.22
  -3 -11   3   -0.02    0.13
  -3 -11   3    0.16    0.15
  -3 -11   3    0.40    0.27
  -3 -10   3    0.21    0.13
  -3 -10   3    0.59    0.25
  -3 -10   3    0.18    0.13
  -3  -9   3    1.90    0.18
  -3  -9   3    1.70    0.21
  -3  -9   3    1.63    0.18
  -3  -9   3    2.26    0.36
  -3  -9   3    1.45    0.20
  -3  -8   3    1.96    0.21
  -3  -8   3    1.83    0.21
  -3  -8   3    1.92    0.21
  -3  -8   3    1.79    0.19
  -3  -7   3    1.00    0.15
  -3  -7   3    1.07    0.16
  -3  -7   3    0.95    0.16
  -3  -7   3    0.76    0.15
   3   6  -3    1.74    0.20
  -3  -6   3    2.13    0.22
  -3  -6   3    2.00    0.21
  -3  -6   3    2.13    0.20
  -3  -6   3    1.96    0.21
   3   5  -3    7.56    0.39
   3   5  -3    8.19    0.36
  -3  -5   3    8.01    0.38
  -3  -5   3    7.37    0.36
  -3  -5   3    7.44    0.37
  -3  -5   3    7.69    0.38
   3   4  -3    5.24    0.29
   3   4  -3    4.93    0.31
  -3  -4   3    5.07    0.30
  -3  -4   3    4.85    0.29
  -3  -4   3    5.21    0.28
  -3  -4   3    4.90    0.28
   3   3  -3   24.22    0.84
   3   3  -3   25.12    0.88
  -3  -3   3   23.89    0.82
  -3  -3   3   24.67    0.83
  -3  -3   3   24.44    0.86
   3   2  -3    5.34    0.32
   3   2  -3    4.65    0.29
   3   2  -3    5.50    0.25
  -3  -2   3    5.84    0.32
  -3  -2   3    4.95    0.28
  -3  -2   3    6.11    0.33
  -3  -2   3    5.36    0.30
  -3  -2   3    5.15    0.31
   3   1  -3    3.47    0.27
   3   1  -3    4.09    0.24
   3   1  -3    4.02    0.27
   3   1  -3    3.66    0.20
  -3  -1   3    3.62    0.26
  -3  -1   3    3.71    0.25
  -3  -1   3    4.14    0.25
  -3  -1   3    3.86    0.27
  -3  -1   3    3.79    0.27
   3   0  -3    3.00    0.22
   3   0  -3    3.24    0.28
   3   0  -3    3.39    0.20
   3   0  -3    2.81    0.26
  -3   0   3    3.15    0.17
  -3   0   3    3.18    0.28
  -3   0   3    2.71    0.22
  -3   0   3    2.47    0.23
  -3   0   3    3.11    0.23
  -3   0   3    2.95    0.26
   3  -1  -3    9.00    0.35
   3  -1  -3    9.66    0.42
   3  -1  -3    9.03    0.41
   3  -1  -3    9.35    0.44
  -3   1   3    8.81    0.35
  -3   1   3    8.24    0.40
  -3   1   3    9.23    0.45
  -3   1   3    9.12    0.44
  -3   1   3    9.24    0.41
  -3   1   3    9.47    0.46
   3  -2  -3    1.64    0.19
   3  -2  -3    1.20    0.16
   3  -2  -3    1.41    0.20
   3  -2  -3    1.42    0.13
  -3   2   3    1.20    0.14
  -3   2   3    1.70    0.14
  -3   2   3    1.71    0.21
  -3   2   3    1.48    0.21
  -3   2   3    0.87    0.14
   3  -3  -3    2.41    0.26
   3  -3  -3    2.41    0.23
  -3   3   3    2.15    0.21
  -3   3   3    2.36    0.15
  -3   3   3    2.33    0.25
  -3   3   3    2.47    0.19
   3  -4  -3    5.15    0.35
   3  -4  -3    5.28    0.33
   3  -4  -3    5.70    0.34
   3  -4  -3    5.97    0.37
  -3   4   3    4.82    0.30
  -3   4   3    5.42    0.28
  -3   4   3    5.49    0.35
   3  -5  -3    5.24    0.37
   3  -5  -3    6.12    0.39
   3  -5  -3    5.80    0.36
   3  -5  -3    5.33    0.35
  -3   5   3    5.86    0.37
  -3   5   3    5.26    0.29
   3  -6  -3    1.78    0.24
   3  -6  -3    2.02    0.28
   3  -6  -3    1.64    0.22
   3  -6  -3    2.10    0.26
  -3   6   3    1.80    0.19
  -3   6   3    1.96    0.25
   3  -7  -3    1.97    0.25
   3  -7  -3    2.40    0.28
   3  -7  -3    2.61    0.30
   3  -8  -3   -0.18    0.11
   3  -8  -3   -0.06    0.12
   3  -8  -3    0.20    0.15
   3  -8  -3    0.15    0.15
   3  -9  -3    1.61    0.28
   3  -9  -3    2.05    0.29
   3  -9  -3    1.86    0.30
   3 -10  -3    0.28    0.18
   3 -10  -3    0.45    0.22
   3 -10  -3    0.30    0.19
   3 -11  -3    1.54    0.31
   3 -11  -3    1.00    0.25
   3 -11  -3    0.60    0.23
  -4 -11   1    0.21    0.22
  -4 -11   1    0.26    0.13
  -4 -11   1    0.19    0.16
  -4 -11   1    0.26    0.15
  -4 -10   1    0.11    0.18
  -4 -10   1    0.18    0.14
  -4 -10   1    0.02    0.11
  -4 -10   1    0.01    0.14
  -4  -9   1    3.28    0.41
  -4  -9   1    2.63    0.28
  -4  -9   1    2.57    0.27
  -4  -9   1    2.25    0.27
  -4  -8   1    0.70    0.16
  -4  -8   1    0.98    0.18
  -4  -8   1    0.45    0.19
  -4  -8   1    0.91    0.17
   4   7  -1    0.16    0.12
  -4  -7   1    0.17    0.10
  -4  -7   1    0.10    0.14
  -4  -7   1    0.20    0.10
  -4  -7   1    0.12    0.13
  -4  -7   1   -0.05    0.10
   4   6  -1    3.91    0.27
   4   6  -1    3.87    0.29
  -4  -6   1    3.76    0.26
  -4  -6   1    3.72    0.27
  -4  -6   1    3.28    0.28
  -4  -6   1    3.43    0.30
  -4  -6   1    3.79    0.33
   4   5  -1   26.15    0.90
   4   5  -1   25.90    0.93
  -4  -5   1   24.27    0.89
  -4  -5   1   26.45    0.88
  -4  -5   1   25.58    0.89
  -4  -5   1   25.45    0.91
  -4  -5   1   26.38    0.92
   4   4  -1   20.35    0.75
   4   4  -1   20.60    0.78
  -4  -4   1   20.63    0.74
  -4  -4   1   21.05    0.77
  -4  -4   1   20.96    0.73
   4   3  -1    1.17    0.18
   4   3  -1    0.97    0.12
   4   3  -1    0.94    0.15
  -4  -3   1    1.08    0.17
  -4  -3   1    1.09    0.16
  -4  -3   1    1.11    0.14
  -4  -3   1    1.00    0.14
  -4  -3   1    1.40    0.18
   4   2  -1    9.36    0.44
   4   2  -1    8.62    0.41
   4   2  -1    8.88    0.39
   4   2  -1    8.41    0.34
  -4  -2   1    9.00    0.40
  -4  -2   1    8.84    0.40
  -4  -2   1    9.24    0.43
  -4  -2   1    8.24    0.41
   4   1  -1   60.77    1.92
   4   1  -1   62.43    1.85
   4   1  -1   63.44    1.85
   4   1  -1   63.90    1.70
   4   1  -1   61.60    1.96
  -4  -1   1   60.55    1.92
  -4  -1   1   63.08    1.86
  -4  -1   1   65.00    1.93
  -4  -1   1   62.15    1.67
  -4  -1   1   63.22    1.86
   4   0  -1    7.45    0.36
   4   0  -1    7.52    0.38
   4   0  -1    7.29    0.35
   4   0  -1    7.93    0.41
  -4   0   1    7.56    0.36
  -4   0   1    7.30    0.36
  -4   0   1    7.78    0.39
  -4   0   1    7.49    0.39
  -4   0   1    7.51    0.30
  -4   0   1    7.57    0.38
   4  -1  -1    1.27    0.14
   4  -1  -1    0.84    0.15
   4  -1  -1    0.95    0.11
   4  -1  -1    1.56    0.18
   4  -1  -1    1.19    0.17
  -4   1   1    1.38    0.18
  -4   1   1    1.43    0.19
  -4   1   1    1.20    0.16
  -4   1   1    1.06    0.13
   4  -2  -1   16.36    0.62
   4  -2  -1   16.45    0.66
   4  -2  -1   16.81    0.66
   4  -2  -1   15.45    0.65
   4  -2  -1   18.36    0.68
   4  -2  -1   16.52    0.52
   4  -2  -1   17.24    0.62
  -4   2   1   16.68    0.66
  -4   2   1   16.50    0.61
  -4   2   1   16.53    0.54
  -4   2   1   15.25    0.64
   4  -3  -1    0.35    0.13
   4  -3  -1    0.43    0.11
   4  -3  -1    0.37    0.12
   4  -3  -1    0.19    0.09
   4  -3  -1    0.23    0.11
   4  -3  -1    0.14    0.10
  -4   3   1    0.30    0.09
  -4   3   1    0.26    0.09
  -4   3   1    0.24    0.11
   4  -4  -1   15.32    0.65
   4  -4  -1   15.64    0.62
   4  -4  -1   17.87    0.68
   4  -4  -1   15.81    0.62
  -4   4   1   15.98    0.53
  -4   4   1   15.04    0.64
   4  -5  -1   10.00    0.50
   4  -5  -1    9.57    0.47
   4  -5  -1   10.10    0.47
   4  -5  -1   10.33    0.50
  -4   5   1   10.24    0.49
  -4   5   1   10.48    0.40
   4  -6  -1    1.13    0.19
   4  -6  -1    1.81    0.23
   4  -6  -1    1.53    0.18
   4  -6  -1    1.13    0.19
   4  -6  -1    1.56    0.21
   4  -6  -1    1.54    0.22
  -4   6   1    1.37    0.16
  -4   6   1    1.23    0.19
   4  -7  -1    0.79    0.17
   4  -7  -1    0.48    0.15
   4  -7  -1    0.69    0.17
   4  -7  -1    1.22    0.22
   4  -8  -1    2.77    0.29
   4  -8  -1    1.89    0.26
   4  -8  -1    2.35    0.29
   4  -8  -1    1.79    0.25
   4  -9  -1    1.29    0.24
   4  -9  -1    1.24    0.23
   4  -9  -1    1.07    0.23
   4  -9  -1    1.43    0.27
   4 -10  -1    0.05    0.14
   4 -10  -1    0.06    0.18
   4 -10  -1   -0.12    0.15
   4 -11  -1   -0.10    0.17
   4 -11  -1    0.13    0.15
   4 -11  -1   -0.10    0.20
  -5 -11  -1    1.55    0.28
  -5 -11  -1    1.50    0.32
  -5 -11  -1    1.39    0.26
  -5 -10  -1    0.32    0.17
  -5 -10  -1    0.32    0.17
  -5 -10  -1    0.52    0.20
  -5 -10  -1    0.61    0.24
  -5  -9  -1    1.90    0.27
  -5  -9  -1    2.22    0.29
  -5  -9  -1    1.65    0.29
  -5  -9  -1    2.14    0.29
  -5  -8  -1    1.03    0.20
  -5  -8  -1    1.17    0.21
  -5  -8  -1    1.69    0.28
  -5  -8  -1    1.49    0.23
  -5  -7  -1    0.24    0.14
  -5  -7  -1    0.08    0.12
  -5  -7  -1    0.06    0.12
  -5  -7  -1    0.11    0.14
   5   6   1    1.71    0.22
  -5  -6  -1    1.22    0.19
  -5  -6  -1    1.43    0.20
  -5  -6  -1    1.30    0.19
  -5  -6  -1    1.37    0.21
  -5  -6  -1    1.60    0.24
   5   5   1    0.20    0.12
  -5  -5  -1    0.36    0.12
  -5  -5  -1    0.43    0.14
  -5  -5  -1    0.25    0.11
  -5  -5  -1    0.57    0.16
  -5  -5  -1    0.30    0.13
   5   4   1    0.15    0.11
   5   4   1    0.05    0.08
  -5  -4  -1    0.12    0.11
  -5  -4  -1    0.32    0.11
  -5  -4  -1    0.44    0.12
  -5  -4  -1    0.13    0.09
  -5  -4  -1    0.32    0.12
   5   3   1    4.64    0.24
   5   3   1    4.38    0.31
   5   3   1    4.78    0.28
  -5  -3  -1    4.50    0.31
  -5  -3  -1    4.43    0.22
  -5  -3  -1    4.29    0.28
  -5  -3  -1    4.32    0.29
  -5  -3  -1    4.32    0.31
   5   2   1    7.40    0.42
   5   2   1    8.29    0.34
   5   2   1    8.27    0.42
   5   2   1    8.51    0.40
  -5  -2  -1    8.10    0.42
  -5  -2  -1    8.69    0.40
  -5  -2  -1    7.99    0.42
  -5  -2  -1    8.88    0.41
   5   1   1    8.90    0.45
   5   1   1   10.48    0.44
   5   1   1   10.23    0.43
   5   1   1    8.88    0.46
   5   1   1    9.02    0.36
  -5  -1  -1    8.83    0.42
  -5  -1  -1    9.87    0.37
  -5  -1  -1    9.04    0.45
  -5  -1  -1    9.52    0.42
   5   0   1    1.40    0.20
   5   0   1    0.96    0.15
   5   0   1    1.16    0.19
   5   0   1    1.42    0.18
  -5   0  -1    0.98    0.16
  -5   0  -1    1.35    0.18
  -5   0  -1    1.18    0.13
   5  -1   1   39.09    1.25
   5  -1   1   38.48    1.24
   5  -1   1   37.67    1.32
   5  -1   1   40.00    1.31
   5  -1   1   40.57    1.31
   5  -1   1   39.64    1.09
  -5   1  -1   37.40    1.29
  -5   1  -1   40.43    1.24
  -5   1  -1   38.84    1.12
  -5   1  -1   40.43    1.23
   5  -2   1   14.79    0.64
   5  -2   1   14.79    0.62
   5  -2   1   15.77    0.63
   5  -2   1   15.11    0.46
   5  -2   1   14.84    0.59
   5  -2   1   15.01    0.59
   5  -2   1   15.45    0.46
  -5   2  -1   15.54    0.52
  -5   2  -1   14.69    0.61
  -5   2  -1   14.47    0.56
   5  -3   1    0.16    0.10
   5  -3   1    0.04    0.10
   5  -3   1    0.10    0.10
   5  -3   1    0.12    0.07
   5  -3   1   -0.01    0.09
   5  -3   1   -0.05    0.07
  -5   3  -1    0.03    0.09
  -5   3  -1    0.10    0.07
   5  -4   1    4.77    0.31
   5  -4   1    4.85    0.30
   5  -4   1    4.78    0.25
   5  -4   1    4.67    0.32
   5  -4   1    4.48    0.31
   5  -4   1    4.70    0.33
  -5   4  -1    4.41    0.31
  -5   4  -1    4.95    0.24
   5  -5   1   -0.09    0.09
   5  -5   1    0.14    0.11
   5  -5   1   -0.03    0.07
   5  -5   1    0.12    0.10
   5  -5   1   -0.03    0.09
   5  -5   1    0.10    0.11
  -5   5  -1    0.06    0.10
  -5   5  -1   -0.04    0.07
   5  -6   1    2.82    0.28
   5  -6   1    2.39    0.25
   5  -6   1    2.32    0.24
   5  -6   1    2.28    0.25
   5  -6   1    2.11    0.25
  -5   6  -1    2.41    0.20
   5  -7   1   -0.05    0.11
   5  -7   1    0.02    0.12
   5  -7   1    0.15    0.11
   5  -7   1    0.17    0.13
   5  -8   1    0.08    0.12
   5  -8   1   -0.21    0.11
   5  -8   1   -0.05    0.11
   5  -8   1    0.11    0.15
   5  -9   1    1.63    0.25
   5  -9   1    1.50    0.28
   5  -9   1    1.49    0.24
   5  -9   1    1.75    0.27
   5 -10   1    0.63    0.20
   5 -10   1    1.11    0.26
   5 -10   1    0.68    0.18
   5 -10   1    0.66    0.20
   5 -11   1    0.14    0.22
   5 -11   1    0.21    0.15
   5 -11   1   -0.15    0.15
  -6 -11  -3    0.11    0.18
  -6 -11  -3   -0.03    0.20
  -6 -10  -3    0.77    0.23
  -6 -10  -3    0.90    0.25
  -6 -10  -3    1.02    0.26
  -6  -9  -3    2.60    0.33
  -6  -9  -3    2.03    0.31
  -6  -9  -3    2.76    0.35
  -6  -8  -3    1.29    0.25
  -6  -8  -3    1.36    0.25
  -6  -8  -3    1.52    0.27
  -6  -7  -3    2.26    0.31
  -6  -7  -3    2.65    0.23
  -6  -7  -3    1.71    0.27
  -6  -7  -3    2.60    0.30
  -6  -7  -3    2.14    0.28
   6   6   3   13.36    0.63
  -6  -6  -3   12.20    0.59
  -6  -6  -3   12.61    0.62
  -6  -6  -3   13.36    0.67
  -6  -6  -3   13.04    0.56
   6   5   3    0.82    0.20
  -6  -5  -3    0.85    0.17
  -6  -5  -3    0.88    0.15
  -6  -5  -3    1.14    0.24
  -6  -5  -3    0.72    0.17
  -6  -5  -3    0.92    0.21
   6   4   3    4.40    0.27
   6   4   3    4.59    0.31
   6   4   3    5.03    0.40
  -6  -4  -3    4.77    0.33
  -6  -4  -3    4.27    0.24
  -6  -4  -3    4.79    0.40
  -6  -4  -3    4.67    0.39
  -6  -4  -3    3.39    0.30
   6   3   3    1.00    0.19
   6   3   3    0.96    0.14
   6   3   3    0.66    0.14
  -6  -3  -3    0.76    0.10
  -6  -3  -3    0.71    0.16
  -6  -3  -3    0.61    0.17
  -6  -3  -3    0.61    0.13
   6   2   3    4.62    0.31
   6   2   3    5.19    0.32
   6   2   3    4.45    0.34
   6   2   3    4.66    0.24
   6   2   3    4.97    0.27
  -6  -2  -3    4.57    0.17
  -6  -2  -3    4.70    0.31
  -6  -2  -3    5.12    0.32
  -6  -2  -3    4.28    0.36
   6   1   3    0.01    0.08
   6   1   3    0.12    0.09
   6   1   3    0.07    0.12
   6   1   3   -0.01    0.03
  -6  -1  -3   -0.01    0.11
  -6  -1  -3    0.15    0.09
  -6  -1  -3    0.03    0.07
  -6  -1  -3    0.13    0.10
   6   0   3    5.78    0.35
   6   0   3    5.94    0.27
   6   0   3    5.92    0.38
   6   0   3    5.40    0.37
   6   0   3    6.02    0.35
  -6   0  -3    6.00    0.38
  -6   0  -3    6.03    0.29
  -6   0  -3    5.78    0.33
   6  -1   3    3.31    0.28
   6  -1   3    3.94    0.34
   6  -1   3    3.29    0.17
   6  -1   3    2.56    0.27
   6  -1   3    3.46    0.31
   6  -1   3    3.34    0.28
  -6   1  -3    3.80    0.22
  -6   1  -3    2.97    0.29
  -6   1  -3    3.46    0.25
   6  -2   3    2.31    0.24
   6  -2   3    2.04    0.23
   6  -2   3    2.16    0.26
   6  -2   3    1.72    0.21
   6  -2   3    2.42    0.27
  -6   2  -3    2.41    0.27
  -6   2  -3    1.69    0.17
   6  -3   3   10.16    0.52
   6  -3   3   10.18    0.49
   6  -3   3   10.48    0.51
   6  -3   3   10.00    0.49
   6  -3   3   10.42    0.51
  -6   3  -3   10.69    0.41
  -6   3  -3   10.55    0.51
   6  -4   3    1.62    0.16
   6  -4   3    1.04    0.20
   6  -4   3    1.40    0.21
   6  -4   3    1.55    0.19
   6  -4   3    0.88    0.17
   6  -4   3    1.35    0.21
  -6   4  -3    1.34    0.16
  -6   4  -3    1.20    0.20
   6  -5   3    7.26    0.35
   6  -5   3    7.21    0.40
   6  -5   3    6.67    0.41
   6  -5   3    6.37    0.39
   6  -5   3    6.85    0.42
  -6   5  -3    6.91    0.31
   6  -6   3    3.37    0.32
   6  -6   3    3.97    0.35
   6  -6   3    3.22    0.31
   6  -6   3    3.10    0.28
   6  -7   3    0.32    0.15
   6  -7   3    0.67    0.17
   6  -7   3    0.46    0.17
   6  -7   3    0.69    0.18
   6  -8   3    0.25    0.15
   6  -8   3    0.50    0.17
   6  -8   3    0.53    0.18
   6  -8   3    0.90    0.21
   6  -9   3    0.62    0.18
   6  -9   3    0.22    0.18
   6  -9   3    0.52    0.18
   6  -9   3    0.40    0.19
   6 -10   3   -0.01    0.17
   6 -10   3    0.31    0.21
   6 -10   3    0.27    0.17
   6 -10   3    0.30    0.16
  -7 -10  -5    0.73    0.26
  -7 -10  -5    2.04    0.37
  -7  -9  -5   -0.11    0.16
  -7  -9  -5    0.07    0.19
  -7  -8  -5    0.81    0.21
  -7  -8  -5    1.03    0.29
  -7  -7  -5    0.94    0.26
  -7  -7  -5    1.20    0.22
   7   6   5    6.71    0.49
  -7  -6  -5    5.59    0.35
  -7  -6  -5    5.93    0.42
  -7  -6  -5    5.85    0.52
   7   5   5    9.90    0.58
  -7  -5  -5    9.93    0.61
  -7  -5  -5    9.08    0.52
  -7  -5  -5    9.94    0.43
   7   4   5    0.68    0.22
   7   4   5    0.98    0.16
  -7  -4  -5    0.89    0.22
  -7  -4  -5    0.61    0.17
  -7  -4  -5    0.72    0.13
   7   3   5    2.01    0.29
   7   3   5    1.73    0.19
  -7  -3  -5    1.57    0.15
  -7  -3  -5    1.40    0.21
  -7  -3  -5    2.31    0.31
   7   2   5   25.33    0.89
   7   2   5   24.82    1.02
   7   2   5   27.14    0.83
   7   2   5   25.62    0.98
  -7  -2  -5   26.87    0.75
  -7  -2  -5   26.26    1.04
  -7  -2  -5   26.19    0.96
   7   1   5    6.47    0.40
   7   1   5    6.30    0.39
   7   1   5    6.48    0.52
   7   1   5    5.59    0.28
  -7  -1  -5    6.02    0.43
   7   0   5    0.06    0.12
   7   0   5    0.28    0.08
   7   0   5    0.35    0.15
   7   0   5    0.31    0.16
  -7   0  -5    0.25    0.15
  -7   0  -5    0.29    0.11
   7  -1   5    1.74    0.25
   7  -1   5    1.98    0.23
   7  -1   5    1.41    0.20
   7  -1   5    2.37    0.30
   7  -1   5    1.77    0.26
  -7   1  -5    2.06    0.21
  -7   1  -5    2.20    0.29
   7  -2   5   12.70    0.61
   7  -2   5   12.03    0.62
   7  -2   5   12.93    0.63
   7  -2   5   12.68    0.59
  -7   2  -5   13.03    0.50
  -7   2  -5   12.31    0.61
   7  -3   5    0.10    0.13
   7  -3   5   -0.23    0.10
   7  -3   5    0.13    0.12
   7  -3   5    0.23    0.13
   7  -4   5    0.08    0.12
   7  -4   5    0.16    0.13
   7  -4   5    0.29    0.15
   7  -4   5    0.15    0.13
   7  -5   5    1.67    0.26
   7  -5   5    1.52    0.25
   7  -5   5    1.38    0.24
   7  -5   5    1.60    0.24
   7  -6   5    0.11    0.12
   7  -6   5    0.10    0.15
   7  -6   5    0.10    0.13
   7  -6   5    0.08    0.13
   7  -7   5   -0.05    0.14
   7  -7   5    0.26    0.18
   7  -7   5    0.19    0.15
   7  -8   5    0.14    0.17
   7  -8   5    0.36    0.16
   7  -8   5    0.06    0.17
   7  -9   5    0.34    0.16
   7  -9   5    0.18    0.16
   7  -9   5   -0.09    0.18
  -8  -9  -7    0.29    0.23
  -8  -9  -7    0.04    0.18
  -8  -8  -7    0.50    0.20
  -8  -8  -7    1.06    0.32
  -8  -7  -7    0.82    0.27
  -8  -7  -7    0.97    0.21
  -8  -6  -7    0.16    0.14
  -8  -6  -7    0.17    0.21
   8   5   7    0.29    0.20
  -8  -5  -7    0.09    0.18
  -8  -5  -7    0.36    0.14
   8   4   7    0.21    0.19
  -8  -4  -7    0.02    0.17
   8   3   7    5.38    0.50
  -8  -3  -7    6.83    0.56
   8   2   7    2.60    0.22
   8   2   7    2.28    0.26
   8   2   7    2.29    0.34
  -8  -2  -7    2.50    0.35
   8   1   7    0.56    0.22
   8   1   7    0.29    0.09
  -8  -1  -7    0.24    0.18
   8   0   7    1.66    0.24
   8   0   7    2.08    0.32
   8  -1   7    4.89    0.48
   8  -1   7    4.30    0.40
   8  -2   7    2.33    0.32
   8  -2   7    2.54    0.34
   8  -2   7    2.19    0.32
   8  -3   7    0.74    0.22
   8  -3   7    1.05    0.24
   8  -3   7    0.55    0.19
   8  -4   7    1.16    0.25
   8  -4   7    0.89    0.24
   8  -4   7    1.02    0.23
   8  -5   7    0.27    0.17
   8  -5   7    0.34    0.19
   8  -5   7    0.16    0.19
   8  -6   7    0.59    0.23
   8  -6   7    0.13    0.17
   8  -6   7    0.51    0.16
   8  -7   7    0.34    0.19
   8  -7   7    0.53    0.25
  -9  -7  -9    0.50    0.26
  -9  -6  -9    0.43    0.29
  -9  -5  -9    1.52    0.35
   9   4   9    0.82    0.29
   9   3   9    0.55    0.26
   9   3   9    0.40    0.17
   9   2   9    0.04    0.18
   9   1   9    0.12    0.18
   9   0   9    2.30    0.36
   9  -1   9    0.82    0.26
   9  -2   9    0.60    0.25
   9  -2   9    0.24    0.20
   9  -3   9    0.29    0.20
   9  -3   9    0.33    0.21
   9  -4   9   -0.23    0.15
   9  -4   9    0.29    0.23
   9  -4   9   -0.03    0.19
   9  -5   9    0.48    0.22
   9  -5   9    0.21    0.20
   9  -5   9    0.26    0.21
   1  -2  12   -0.07    0.19
   1  -1  12    0.56    0.26
   1   0  12    0.86    0.28
   1   1  12    0.47    0.27
   1   2  12    0.07    0.25
   1   3  12    0.30    0.28
   1   4  12    1.29    0.35
   1   5  12    0.15    0.26
   0  -6  10    0.54    0.21
   0  -6  10    0.41    0.18
   0  -5  10    0.38    0.19
   0  -5  10    0.30    0.17
   0  -4  10    0.69    0.20
   0  -4  10    0.88    0.24
   0  -3  10    0.06    0.15
   0  -3  10    0.43    0.19
   0  -3  10    0.43    0.18
   0  -2  10    0.16    0.16
   0  -2  10    0.00    0.14
   0  -1  10    0.14    0.13
   0  -1  10    0.16    0.18
   0   0  10    1.05    0.23
   0   0  10    1.68    0.32
   0   1  10    0.14    0.19
   0   2  10    0.45    0.21
   0   3  10    0.19    0.10
   0   3  10   -0.07    0.18
   0   4  10    0.72    0.26
   0   4  10    0.86    0.16
   0  -5 -10    0.64    0.26
   0   5  10    0.54    0.16
   0   5  10    0.02    0.20
   0  -6 -10    0.22    0.24
   0   6  10    0.19    0.14
   0  -7 -10    0.27    0.22
   0  -7 -10    0.22    0.18
   0   7  10    0.42    0.17
   0  -8 -10    0.50    0.32
  -1  -8   8   -0.04    0.12
  -1  -8   8    0.25    0.16
  -1  -7   8    0.19    0.14
  -1  -7   8   -0.04    0.12
  -1  -7   8    0.01    0.12
  -1  -6   8   -0.03    0.14
  -1  -6   8   -0.01    0.12
  -1  -6   8   -0.04    0.12
  -1  -5   8    0.42    0.16
  -1  -5   8    0.51    0.16
  -1  -5   8    0.35    0.16
  -1  -4   8    0.74    0.18
  -1  -4   8    1.04    0.20
  -1  -4   8    0.81    0.19
  -1  -3   8    1.91    0.26
  -1  -3   8    1.90    0.26
  -1  -3   8    2.44    0.30
  -1  -2   8    3.10    0.35
  -1  -2   8    3.98    0.35
  -1  -2   8    3.16    0.32
  -1  -2   8    2.73    0.31
  -1  -1   8    8.29    0.46
  -1  -1   8    7.52    0.45
  -1  -1   8    7.45    0.47
  -1  -1   8    6.87    0.46
  -1   0   8    0.45    0.16
  -1   0   8    0.78    0.17
   1  -1  -8    4.48    0.41
  -1   1   8    3.68    0.39
  -1   1   8    4.26    0.41
   1  -2  -8    3.88    0.40
  -1   2   8    2.91    0.34
  -1   2   8    2.48    0.28
  -1   2   8    2.72    0.21
   1  -3  -8    0.87    0.23
  -1   3   8    0.84    0.14
  -1   3   8    1.00    0.23
   1  -4  -8    1.06    0.26
  -1   4   8    1.05    0.17
  -1   4   8    1.15    0.26
   1  -5  -8    0.15    0.18
  -1   5   8    0.01    0.17
  -1   5   8   -0.05    0.10
   1  -6  -8    1.16    0.28
  -1   6   8    1.56    0.33
  -1   6   8    0.95    0.19
   1  -7  -8    1.42    0.32
   1  -7  -8    1.11    0.23
   1  -8  -8    1.06    0.31
   1  -9  -8    0.07    0.20
  -2  -9   6    0.48    0.15
  -2  -9   6    0.90    0.18
  -2  -8   6    0.74    0.16
  -2  -8   6    1.17    0.19
  -2  -7   6    1.86    0.21
  -2  -7   6    1.91    0.23
  -2  -7   6    1.73    0.22
  -2  -6   6    0.13    0.12
  -2  -6   6    0.04    0.11
  -2  -6   6    0.31    0.13
  -2  -5   6    3.40    0.29
  -2  -5   6    2.99    0.27
  -2  -5   6    3.35    0.30
  -2  -4   6   -0.01    0.09
  -2  -4   6    0.08    0.10
  -2  -4   6    0.03    0.10
  -2  -4   6    0.00    0.09
  -2  -3   6   -0.01    0.09
  -2  -3   6    0.14    0.10
  -2  -3   6    0.04    0.09
  -2  -3   6    0.05    0.10
  -2  -3   6    0.04    0.10
   2   2  -6    3.90    0.33
  -2  -2   6    3.94    0.30
  -2  -2   6    5.00    0.32
  -2  -2   6    4.47    0.31
  -2  -2   6    4.37    0.33
  -2  -2   6    4.41    0.32
   2   1  -6    5.33    0.36
  -2  -1   6    5.85    0.35
  -2  -1   6    6.12    0.37
  -2  -1   6    5.74    0.35
  -2  -1   6    5.66    0.38
  -2  -1   6    5.27    0.36
   2   0  -6    0.31    0.10
   2   0  -6    0.47    0.16
  -2   0   6    0.37    0.14
  -2   0   6    0.41    0.13
  -2   0   6    0.16    0.11
  -2   0   6    0.35    0.13
  -2   0   6    0.28    0.13
  -2   0   6    0.44    0.13
   2  -1  -6    1.77    0.19
   2  -1  -6    1.70    0.21
   2  -1  -6    1.51    0.24
  -2   1   6    1.33    0.20
  -2   1   6    2.38    0.29
  -2   1   6    1.61    0.15
  -2   1   6    1.75    0.24
  -2   1   6    1.30    0.19
  -2   1   6    1.79    0.20
   2  -2  -6    4.61    0.32
   2  -2  -6    4.14    0.38
  -2   2   6    3.36    0.30
  -2   2   6    3.96    0.38
  -2   2   6    4.43    0.25
  -2   2   6    5.50    0.39
  -2   2   6    4.22    0.31
   2  -3  -6   32.14    1.22
   2  -3  -6   33.22    1.15
  -2   3   6   32.08    1.00
  -2   3   6   33.14    1.22
  -2   3   6   34.97    1.24
  -2   3   6   33.04    1.23
   2  -4  -6    4.74    0.42
   2  -4  -6    4.03    0.34
  -2   4   6    3.96    0.30
  -2   4   6    4.74    0.44
  -2   4   6    3.91    0.39
   2  -5  -6    4.15    0.40
   2  -5  -6    3.42    0.35
  -2   5   6    3.55    0.37
  -2   5   6    3.87    0.30
  -2   5   6    4.33    0.43
   2  -6  -6    2.19    0.32
  -2   6   6    2.34    0.34
  -2   6   6    2.19    0.23
  -2   6   6    1.62    0.26
   2  -7  -6    1.78    0.25
   2  -7  -6    1.66    0.29
   2  -8  -6    0.05    0.17
   2  -9  -6    0.21    0.22
   2 -10  -6    0.28    0.20
  -3 -10   4    0.31    0.14
  -3 -10   4    0.59    0.17
  -3  -9   4    0.50    0.13
  -3  -9   4    0.78    0.17
  -3  -9   4    0.41    0.14
  -3  -8   4    0.23    0.13
  -3  -8   4    0.25    0.13
  -3  -8   4    0.33    0.13
  -3  -7   4    1.07    0.18
  -3  -7   4    0.87    0.16
  -3  -7   4    0.90    0.15
  -3  -7   4    1.15    0.18
  -3  -6   4    1.46    0.19
  -3  -6   4    1.35    0.19
  -3  -6   4    0.98    0.16
  -3  -6   4    1.25    0.18
   3   5  -4    2.63    0.26
  -3  -5   4    3.13    0.27
  -3  -5   4    2.81    0.25
  -3  -5   4    2.77    0.25
  -3  -5   4    2.82    0.26
   3   4  -4    0.37    0.12
   3   4  -4    0.48    0.14
  -3  -4   4    0.25    0.11
  -3  -4   4    0.38    0.11
  -3  -4   4    0.35    0.12
   3   3  -4    4.94    0.30
   3   3  -4    4.09    0.30
  -3  -3   4    4.90    0.30
  -3  -3   4    4.62    0.29
  -3  -3   4    4.57    0.30
   3   2  -4    3.35    0.29
   3   2  -4    2.56    0.27
  -3  -2   4    3.56    0.26
  -3  -2   4    3.21    0.28
  -3  -2   4    3.40    0.29
  -3  -2   4    3.31    0.24
  -3  -2   4    3.64    0.27
   3   1  -4    0.59    0.15
   3   1  -4    0.66    0.11
  -3  -1   4    0.76    0.15
  -3  -1   4    0.89    0.15
  -3  -1   4    0.65    0.16
  -3  -1   4    0.71    0.15
  -3  -1   4    0.77    0.16
   3   0  -4    2.44    0.22
   3   0  -4    2.33    0.19
   3   0  -4    2.26    0.25
  -3   0   4    2.24    0.23
  -3   0   4    2.06    0.23
  -3   0   4    2.47    0.27
  -3   0   4    1.98    0.23
  -3   0   4    2.31    0.25
  -3   0   4    2.22    0.15
   3  -1  -4    0.03    0.10
   3  -1  -4   -0.01    0.09
   3  -1  -4   -0.02    0.06
  -3   1   4   -0.04    0.09
  -3   1   4    0.05    0.07
  -3   1   4    0.11    0.12
  -3   1   4   -0.03    0.08
  -3   1   4    0.00    0.09
   3  -2  -4    4.87    0.32
   3  -2  -4    4.59    0.35
   3  -2  -4    5.46    0.26
  -3   2   4    5.18    0.32
  -3   2   4    4.73    0.26
  -3   2   4    5.65    0.37
  -3   2   4    5.48    0.32
   3  -3  -4    4.39    0.31
   3  -3  -4    4.48    0.31
   3  -3  -4    3.10    0.32
  -3   3   4    4.44    0.30
  -3   3   4    4.44    0.37
  -3   3   4    4.79    0.30
  -3   3   4    5.10    0.27
   3  -4  -4    0.76    0.16
   3  -4  -4    0.69    0.16
   3  -4  -4    0.54    0.16
  -3   4   4    0.46    0.12
  -3   4   4    0.73    0.16
  -3   4   4    0.61    0.17
   3  -5  -4    3.05    0.34
   3  -5  -4    2.67    0.28
   3  -5  -4    3.00    0.30
  -3   5   4    3.09    0.24
  -3   5   4    3.23    0.32
   3  -6  -4    0.34    0.14
   3  -6  -4    0.48    0.17
   3  -6  -4    0.39    0.16
  -3   6   4    0.54    0.18
  -3   6   4    0.69    0.15
   3  -7  -4    7.32    0.46
   3  -7  -4    6.58    0.40
   3  -7  -4    6.38    0.47
   3  -8  -4    0.64    0.22
   3  -8  -4    0.59    0.20
   3  -9  -4    0.19    0.19
   3  -9  -4    0.36    0.19
   3  -9  -4    0.26    0.17
   3 -10  -4    1.26    0.27
   3 -10  -4    0.85    0.27
   3 -10  -4    1.48    0.29
   3 -11  -4    0.00    0.19
   3 -11  -4    0.76    0.28
  -4 -11   2    0.33    0.18
  -4 -11   2    0.54    0.26
  -4 -11   2    0.46    0.18
  -4 -10   2    0.42    0.16
  -4 -10   2    0.56    0.24
  -4 -10   2    0.14    0.13
  -4 -10   2    0.13    0.15
  -4  -9   2    2.06    0.25
  -4  -9   2    1.61    0.22
  -4  -9   2    2.13    0.34
  -4  -9   2    1.33    0.22
  -4  -8   2    2.38    0.33
  -4  -8   2    2.26    0.25
  -4  -8   2    1.86    0.23
  -4  -8   2    1.85    0.24
  -4  -7   2    3.69    0.31
  -4  -7   2    3.66    0.31
  -4  -7   2    4.40    0.30
  -4  -7   2    3.39    0.30
   4   6  -2    0.02    0.11
  -4  -6   2    0.01    0.09
  -4  -6   2    0.16    0.10
  -4  -6   2    0.09    0.09
  -4  -6   2   -0.02    0.10
   4   5  -2   19.05    0.77
   4   5  -2   18.81    0.72
  -4  -5   2   19.79    0.76
  -4  -5   2   19.59    0.73
  -4  -5   2   20.62    0.76
  -4  -5   2   20.00    0.73
   4   4  -2   16.67    0.64
   4   4  -2   16.58    0.68
  -4  -4   2   15.73    0.62
  -4  -4   2   16.62    0.64
  -4  -4   2   16.39    0.66
   4   3  -2    5.20    0.33
   4   3  -2    5.10    0.31
  -4  -3   2    4.50    0.30
  -4  -3   2    4.40    0.28
  -4  -3   2    4.95    0.32
  -4  -3   2    5.03    0.30
   4   2  -2    1.90    0.22
   4   2  -2    1.97    0.22
   4   2  -2    2.72    0.20
  -4  -2   2    2.18    0.20
  -4  -2   2    2.24    0.22
  -4  -2   2    2.62    0.25
  -4  -2   2    2.10    0.24
   4   1  -2   13.08    0.52
   4   1  -2   13.50    0.46
   4   1  -2   12.12    0.54
   4   1  -2   12.88    0.57
  -4  -1   2   12.57    0.41
  -4  -1   2   12.56    0.55
  -4  -1   2   12.34    0.47
  -4  -1   2   13.08    0.56
  -4  -1   2   12.55    0.52
  -4  -1   2   13.02    0.56
  -4  -1   2   13.11    0.52
   4   0  -2    3.92    0.29
   4   0  -2    4.43    0.24
   4   0  -2    4.43    0.31
   4   0  -2    4.51    0.27
   4   0  -2    4.20    0.27
  -4   0   2    4.20    0.27
  -4   0   2    4.22    0.30
  -4   0   2    4.12    0.27
  -4   0   2    4.19    0.22
  -4   0   2    4.30    0.30
  -4   0   2    4.11    0.29
   4  -1  -2    2.13    0.20
   4  -1  -2    2.41    0.26
   4  -1  -2    2.42    0.18
   4  -1  -2    2.29    0.25
  -4   1   2    2.08    0.21
  -4   1   2    2.36    0.19
  -4   1   2    3.09    0.28
  -4   1   2    3.46    0.31
   4  -2  -2    2.78    0.24
   4  -2  -2    2.47    0.27
   4  -2  -2    2.53    0.27
   4  -2  -2    3.13    0.19
   4  -2  -2    2.75    0.27
  -4   2   2    3.43    0.29
  -4   2   2    2.90    0.26
  -4   2   2    2.88    0.25
  -4   2   2    2.68    0.21
   4  -3  -2    3.76    0.27
   4  -3  -2    3.70    0.34
   4  -3  -2    4.11    0.28
   4  -3  -2    3.45    0.31
  -4   3   2    4.12    0.24
  -4   3   2    3.86    0.33
  -4   3   2    3.96    0.26
   4  -4  -2    0.72    0.16
   4  -4  -2    1.34    0.20
   4  -4  -2    1.21    0.20
   4  -4  -2    1.60    0.19
  -4   4   2    0.94    0.13
  -4   4   2    0.95    0.18
   4  -5  -2    0.71    0.16
   4  -5  -2    0.65    0.16
   4  -5  -2    0.76    0.16
   4  -5  -2    0.86    0.18
  -4   5   2    0.88    0.17
  -4   5   2    1.04    0.16
   4  -6  -2   10.88    0.55
   4  -6  -2   10.57    0.54
   4  -6  -2   11.13    0.54
  -4   6   2    9.97    0.53
  -4   6   2   10.45    0.44
   4  -7  -2    0.30    0.15
   4  -7  -2   -0.03    0.13
   4  -7  -2    0.17    0.14
   4  -7  -2    0.33    0.15
   4  -8  -2   -0.11    0.12
   4  -8  -2    0.01    0.13
   4  -8  -2   -0.03    0.13
   4  -8  -2    0.19    0.16
   4  -9  -2    0.23    0.16
   4  -9  -2    0.19    0.18
   4  -9  -2    0.17    0.17
   4 -10  -2    1.66    0.29
   4 -10  -2    1.41    0.29
   4 -10  -2    1.05    0.24
   4 -11  -2    0.50    0.21
   4 -11  -2    0.19    0.21
   4 -11  -2    0.10    0.20
  -5 -11   0    0.80    0.27
  -5 -11   0    0.45    0.22
  -5 -11   0    0.59    0.19
  -5 -10   0    0.20    0.16
  -5 -10   0    0.10    0.15
  -5 -10   0    0.31    0.21
  -5 -10   0    0.18    0.16
  -5  -9   0    1.09    0.22
  -5  -9   0    0.70    0.24
  -5  -9   0    0.78    0.19
  -5  -9   0    0.72    0.19
  -5  -8   0    2.98    0.31
  -5  -8   0    3.21    0.33
  -5  -8   0    2.72    0.33
  -5  -8   0    4.03    0.34
   5   7   0    0.02    0.12
  -5  -7   0   -0.05    0.10
  -5  -7   0    0.17    0.14
  -5  -7   0   -0.15    0.10
  -5  -7   0    0.13    0.14
   5   6   0    0.38    0.16
  -5  -6   0    0.41    0.13
  -5  -6   0    0.33    0.14
  -5  -6   0    0.37    0.14
  -5  -6   0    0.45    0.16
   5   5   0    5.28    0.37
   5   5   0    6.33    0.37
  -5  -5   0    5.96    0.36
  -5  -5   0    5.39    0.33
  -5  -5   0    5.92    0.35
  -5  -5   0    6.32    0.38
  -5  -5   0    5.70    0.36
   5   4   0    5.07    0.33
   5   4   0    5.01    0.35
  -5  -4   0    4.34    0.33
  -5  -4   0    4.74    0.32
  -5  -4   0    5.52    0.33
  -5  -4   0    4.03    0.29
   5   3   0    1.91    0.25
   5   3   0    1.84    0.21
   5   3   0    2.28    0.19
  -5  -3   0    2.31    0.24
  -5  -3   0    2.08    0.24
  -5  -3   0    2.42    0.26
  -5  -3   0    2.03    0.22
   5   2   0    1.18    0.15
   5   2   0    1.01    0.15
   5   2   0    0.80    0.17
   5   2   0    0.85    0.18
  -5  -2   0    0.76    0.15
  -5  -2   0    0.99    0.15
  -5  -2   0    1.28    0.20
  -5  -2   0    1.11    0.16
   5   1   0   15.36    0.65
   5   1   0   14.99    0.59
   5   1   0   15.76    0.48
   5   1   0   14.70    0.52
   5   1   0   15.70    0.59
   5   1   0   14.14    0.62
  -5  -1   0   15.53    0.65
  -5  -1   0   14.61    0.59
  -5  -1   0   15.22    0.51
  -5  -1   0   15.00    0.63
  -5  -1   0   14.92    0.60
   5   0   0   22.27    0.64
   5   0   0   22.72    0.86
   5   0   0   22.45    0.69
   5   0   0   21.96    0.79
   5   0   0   22.65    0.84
  -5   0   0   20.81    0.77
  -5   0   0   22.74    0.84
  -5   0   0   22.53    0.79
  -5   0   0   22.08    0.69
   5  -1   0    7.36    0.39
   5  -1   0    7.37    0.38
   5  -1   0    7.81    0.43
   5  -1   0    7.81    0.32
   5  -1   0    7.18    0.42
  -5   1   0    8.14    0.39
  -5   1   0    8.09    0.42
  -5   1   0    8.16    0.34
  -5   1   0    8.20    0.38
   5  -2   0   12.33    0.56
   5  -2   0   11.86    0.41
   5  -2   0   12.34    0.55
   5  -2   0   12.33    0.52
   5  -2   0   12.04    0.55
   5  -2   0   11.41    0.52
  -5   2   0   12.17    0.45
  -5   2   0   11.82    0.49
  -5   2   0   11.98    0.54
   5  -3   0    0.31    0.08
   5  -3   0    0.19    0.11
   5  -3   0    0.15    0.12
   5  -3   0    0.07    0.11
   5  -3   0    0.17    0.11
   5  -3   0    0.29    0.11
  -5   3   0    0.16    0.08
  -5   3   0    0.18    0.11
   5  -4   0    0.39    0.14
   5  -4   0    0.34    0.14
   5  -4   0    0.41    0.14
   5  -4   0    0.41    0.14
   5  -4   0    0.26    0.11
   5  -4   0    0.51    0.14
   5  -4   0    0.49    0.11
  -5   4   0    0.59    0.15
  -5   4   0    0.41    0.10
   5  -5   0    5.72    0.36
   5  -5   0    5.02    0.31
   5  -5   0    5.38    0.36
   5  -5   0    5.71    0.38
   5  -5   0    5.71    0.38
  -5   5   0    5.72    0.37
  -5   5   0    4.85    0.27
   5  -6   0    4.47    0.31
   5  -6   0    4.81    0.35
   5  -6   0    3.84    0.32
   5  -6   0    5.07    0.36
  -5   6   0    4.68    0.27
   5  -7   0    0.96    0.19
   5  -7   0    1.00    0.20
   5  -7   0    0.97    0.19
   5  -7   0    0.70    0.19
   5  -8   0    0.21    0.15
   5  -8   0    0.11    0.14
   5  -8   0    0.33    0.16
   5  -8   0    0.15    0.15
   5  -9   0    2.69    0.35
   5  -9   0    2.56    0.31
   5  -9   0    2.42    0.30
   5  -9   0    2.32    0.30
   5 -10   0    0.73    0.22
   5 -10   0    0.57    0.20
   5 -10   0    0.59    0.24
   5 -11   0   -0.10    0.17
   5 -11   0    0.18    0.16
   5 -11   0   -0.21    0.19
  -6 -11  -2    1.13    0.29
  -6 -11  -2    0.81    0.29
  -6 -11  -2    0.96    0.25
  -6 -10  -2    0.35    0.22
  -6 -10  -2    0.50    0.21
  -6 -10  -2    0.47    0.21
  -6  -9  -2    0.90    0.24
  -6  -9  -2    1.31    0.24
  -6  -9  -2    1.38    0.27
  -6  -8  -2    0.67    0.19
  -6  -8  -2    0.51    0.19
  -6  -8  -2    0.37    0.18
  -6  -7  -2    0.92    0.20
  -6  -7  -2    0.66    0.17
  -6  -7  -2    0.83    0.21
  -6  -7  -2    0.74    0.21
  -6  -6  -2   10.22    0.53
  -6  -6  -2   10.20    0.52
  -6  -6  -2   10.20    0.48
  -6  -6  -2    9.37    0.55
   6   5   2    2.53    0.30
  -6  -5  -2    2.30    0.23
  -6  -5  -2    1.84    0.25
  -6  -5  -2    2.18    0.26
  -6  -5  -2    2.73    0.32
  -6  -5  -2    2.45    0.29
   6   4   2    8.89    0.39
   6   4   2    8.42    0.47
  -6  -4  -2    9.26    0.51
  -6  -4  -2    7.58    0.44
  -6  -4  -2    8.28    0.44
  -6  -4  -2    8.97    0.49
  -6  -4  -2    8.42    0.36
   6   3   2    0.07    0.08
   6   3   2   -0.04    0.11
   6   3   2    0.11    0.09
  -6  -3  -2    0.11    0.10
  -6  -3  -2    0.05    0.11
  -6  -3  -2   -0.04    0.09
  -6  -3  -2    0.04    0.06
   6   2   2   17.55    0.60
   6   2   2   17.62    0.74
   6   2   2   18.10    0.76
   6   2   2   17.79    0.69
  -6  -2  -2   17.54    0.70
  -6  -2  -2   17.61    0.69
  -6  -2  -2   16.80    0.73
   6   1   2    4.02    0.35
   6   1   2    4.48    0.33
   6   1   2    4.47    0.30
   6   1   2    4.18    0.24
  -6  -1  -2    4.16    0.25
  -6  -1  -2    4.86    0.31
  -6  -1  -2    4.03    0.35
   6   0   2   11.84    0.53
   6   0   2   10.53    0.55
   6   0   2   11.68    0.42
   6   0   2   12.04    0.56
   6   0   2   11.04    0.51
  -6   0  -2   11.12    0.55
  -6   0  -2   11.84    0.45
  -6   0  -2   12.25    0.51
  -6   0  -2   12.31    0.53
   6  -1   2   14.53    0.48
   6  -1   2   14.45    0.60
   6  -1   2   13.83    0.61
   6  -1   2   15.37    0.66
   6  -1   2   14.74    0.64
   6  -1   2   15.12    0.65
  -6   1  -2   14.49    0.52
  -6   1  -2   14.72    0.58
  -6   1  -2   14.34    0.64
   6  -2   2    5.45    0.38
   6  -2   2    5.70    0.35
   6  -2   2    5.22    0.33
   6  -2   2    5.61    0.21
   6  -2   2    5.24    0.36
   6  -2   2    4.61    0.34
  -6   2  -2    5.19    0.28
  -6   2  -2    5.08    0.36
   6  -3   2    2.22    0.23
   6  -3   2    2.49    0.26
   6  -3   2    2.88    0.29
   6  -3   2    2.61    0.29
   6  -3   2    2.70    0.15
   6  -3   2    3.64    0.33
  -6   3  -2    2.98    0.24
  -6   3  -2    2.83    0.29
   6  -4   2   20.22    0.80
   6  -4   2   22.74    0.86
   6  -4   2   19.84    0.83
   6  -4   2   21.69    0.68
   6  -4   2   20.69    0.84
   6  -4   2   21.71    0.81
  -6   4  -2   21.41    0.69
  -6   4  -2   20.19    0.82
   6  -5   2    0.02    0.12
   6  -5   2   -0.01    0.08
   6  -5   2    0.08    0.11
   6  -5   2    0.12    0.14
   6  -5   2   -0.03    0.12
  -6   5  -2   -0.02    0.08
   6  -6   2    1.29    0.23
   6  -6   2    0.99    0.18
   6  -6   2    1.03    0.21
   6  -6   2    0.89    0.19
   6  -7   2    0.22    0.15
   6  -7   2    0.13    0.13
   6  -7   2   -0.12    0.11
   6  -7   2    0.15    0.14
   6  -8   2    3.07    0.33
   6  -8   2    2.20    0.28
   6  -8   2    2.18    0.28
   6  -8   2    3.17    0.35
   6  -9   2   -0.07    0.15
   6  -9   2    0.06    0.17
   6  -9   2   -0.02    0.13
   6  -9   2   -0.17    0.12
   6 -10   2    0.18    0.20
   6 -10   2   -0.20    0.16
   6 -10   2   -0.18    0.13
  -7 -10  -4    0.00    0.19
  -7 -10  -4    0.07    0.20
  -7  -9  -4    0.26    0.18
  -7  -9  -4    0.15    0.17
  -7  -9  -4    0.22    0.20
  -7  -8  -4    1.84    0.27
  -7  -8  -4    1.94    0.33
  -7  -8  -4    1.66    0.31
  -7  -8  -4    1.72    0.21
  -7  -7  -4    5.17    0.40
  -7  -7  -4    4.47    0.46
  -7  -7  -4    3.32    0.36
  -7  -6  -4    2.64    0.30
  -7  -6  -4    2.78    0.28
  -7  -6  -4    2.60    0.35
   7   5   4    6.31    0.47
   7   5   4    6.62    0.37
  -7  -5  -4    6.32    0.34
  -7  -5  -4    7.29    0.52
  -7  -5  -4    6.35    0.43
   7   4   4    6.15    0.44
   7   4   4    5.20    0.31
  -7  -4  -4    5.40    0.38
  -7  -4  -4    6.44    0.47
  -7  -4  -4    5.15    0.27
   7   3   4    0.02    0.08
   7   3   4    0.15    0.14
  -7  -3  -4    0.09    0.06
  -7  -3  -4    0.01    0.13
  -7  -3  -4   -0.17    0.07
   7   2   4   10.57    0.52
   7   2   4    9.75    0.56
  -7  -2  -4    9.98    0.52
  -7  -2  -4    9.35    0.55
   7   1   4    0.19    0.12
   7   1   4   -0.05    0.10
   7   1   4    0.02    0.07
   7   1   4    0.10    0.14
  -7  -1  -4    0.05    0.10
  -7  -1  -4   -0.08    0.12
   7   0   4    0.76    0.16
   7   0   4    0.63    0.11
   7   0   4    0.50    0.18
   7   0   4    1.01    0.20
   7   0   4    0.44    0.17
  -7   0  -4    0.56    0.13
  -7   0  -4    0.78    0.17
  -7   0  -4    0.34    0.15
   7  -1   4    0.64    0.18
   7  -1   4    1.09    0.22
   7  -1   4    1.24    0.21
   7  -1   4    1.45    0.24
   7  -1   4    1.10    0.19
  -7   1  -4    1.05    0.16
  -7   1  -4    0.99    0.21
   7  -2   4    0.17    0.14
   7  -2   4    0.22    0.14
   7  -2   4    0.20    0.14
   7  -2   4   -0.01    0.10
  -7   2  -4    0.32    0.15
  -7   2  -4    0.09    0.10
   7  -3   4    4.07    0.38
   7  -3   4    4.27    0.39
   7  -3   4    4.32    0.38
   7  -3   4    3.59    0.33
  -7   3  -4    4.27    0.37
  -7   3  -4    3.95    0.29
   7  -4   4    0.65    0.19
   7  -4   4    0.82    0.20
   7  -4   4    0.81    0.20
   7  -4   4    0.72    0.19
   7  -5   4    0.38    0.16
   7  -5   4    0.28    0.15
   7  -5   4    0.28    0.16
   7  -5   4    0.53    0.17
   7  -6   4    3.39    0.35
   7  -6   4    3.52    0.33
   7  -6   4    2.02    0.27
   7  -6   4    2.91    0.34
   7  -7   4    1.71    0.25
   7  -7   4    1.42    0.23
   7  -7   4    1.77    0.27
   7  -7   4    1.06    0.23
   7  -8   4    0.84    0.20
   7  -8   4    1.03    0.24
   7  -8   4    1.60    0.27
   7  -9   4    0.10    0.16
   7  -9   4    0.02    0.18
  -8  -9  -6    0.88    0.24
  -8  -9  -6    0.69    0.30
  -8  -8  -6    1.18    0.31
  -8  -8  -6    1.18    0.25
  -8  -7  -6   -0.03    0.17
  -8  -7  -6   -0.21    0.12
  -8  -6  -6    3.21    0.29
  -8  -6  -6    2.51    0.39
   8   5   6    1.27    0.29
  -8  -5  -6    1.27    0.19
  -8  -5  -6    1.11    0.26
   8   4   6    1.71    0.32
  -8  -4  -6    1.88    0.32
   8   3   6    5.43    0.51
   8   3   6    4.76    0.31
  -8  -3  -6    4.98    0.49
   8   2   6    1.48    0.18
   8   2   6    1.90    0.32
  -8  -2  -6    2.05    0.33
   8   1   6    6.55    0.30
   8   1   6    5.27    0.49
  -8  -1  -6    6.09    0.53
   8   0   6    5.44    0.47
   8   0   6    4.29    0.43
  -8   0  -6    4.43    0.44
   8  -1   6    4.08    0.38
   8  -1   6    3.62    0.39
   8  -1   6    3.37    0.39
   8  -2   6    2.02    0.29
   8  -2   6    2.11    0.33
   8  -2   6    1.58    0.27
   8  -3   6    1.33    0.26
   8  -3   6    1.19    0.23
   8  -3   6    2.00    0.30
   8  -4   6    0.45    0.19
   8  -4   6    0.80    0.23
   8  -4   6    0.57    0.20
   8  -5   6    0.81    0.22
   8  -5   6    0.88    0.21
   8  -5   6    1.22    0.26
   8  -6   6    0.22    0.19
   8  -6   6    0.03    0.13
   8  -6   6    0.13    0.16
   8  -7   6   -0.13    0.15
   8  -7   6    0.29    0.23
   8  -8   6    0.05    0.16
   8  -8   6    0.07    0.20
  -9  -8  -8    0.33    0.27
  -9  -7  -8    0.27    0.27
  -9  -6  -8    0.39    0.27
  -9  -5  -8    0.78    0.28
   9   4   8   -0.21    0.18
  -9  -4  -8    0.08    0.20
   9   3   8    0.95    0.28
   9   3   8    0.26    0.16
  -9  -3  -8    0.43    0.24
   9   2   8    0.59    0.26
   9   1   8    1.79    0.33
   9   0   8    0.76    0.27
   9  -1   8    1.78    0.33
   9  -1   8    1.95    0.34
   9  -2   8    0.80    0.24
   9  -2   8    0.43    0.22
   9  -3   8    0.03    0.15
   9  -3   8    0.17    0.20
   9  -3   8    0.05    0.17
   9  -4   8    0.23    0.22
   9  -4   8    0.25    0.21
   9  -4   8   -0.08    0.16
   9  -5   8    0.39    0.25
   9  -5   8    0.34    0.19
   9  -5   8    0.39    0.23
  10   4  10    0.23    0.27
  10   4  10    0.26    0.18
  10   3  10    2.89    0.48
  10   2  10    0.06    0.25
  10   1  10    0.24    0.22
  10   0  10    0.05    0.24
  10  -1  10    1.42    0.35
   0  -4  11    0.21    0.19
   0  -4  11    0.55    0.23
   0  -3  11    0.13    0.17
   0  -3  11   -0.01    0.16
   0  -2  11    0.22    0.19
   0  -2  11    0.15    0.18
   0  -2  11    0.37    0.21
   0  -1  11    0.02    0.19
   0   0  11    0.75    0.26
   0   1  11    0.09    0.19
   0   2  11   -0.05    0.18
   0   3  11   -0.11    0.20
   0   4  11    1.69    0.38
   0   4  11    1.48    0.19
   0   5  11    0.71    0.27
   0   5  11    0.34    0.15
  -1  -7   9    0.14    0.16
  -1  -7   9    0.34    0.16
  -1  -7   9    0.09    0.17
  -1  -6   9    1.40    0.26
  -1  -6   9    1.54    0.25
  -1  -6   9    1.45    0.25
  -1  -5   9    0.27    0.17
  -1  -5   9    0.25    0.16
  -1  -5   9    0.15    0.14
  -1  -4   9    0.07    0.15
  -1  -4   9   -0.05    0.14
  -1  -3   9    2.74    0.35
  -1  -3   9    2.47    0.32
  -1  -2   9    1.41    0.25
  -1  -2   9    1.95    0.31
  -1  -2   9    1.26    0.25
  -1  -1   9    1.25    0.25
  -1  -1   9    1.65    0.27
  -1  -1   9    2.52    0.36
  -1   0   9    0.89    0.19
  -1   0   9    0.65    0.22
  -1   1   9    0.77    0.23
  -1   2   9    0.14    0.19
   1  -3  -9    0.87    0.26
  -1   3   9    0.53    0.23
  -1   3   9    0.51    0.13
   1  -4  -9    1.91    0.35
  -1   4   9    1.94    0.22
  -1   4   9    2.57    0.39
   1  -5  -9    0.26    0.23
  -1   5   9    0.09    0.12
  -1   5   9    0.25    0.21
   1  -6  -9    0.02    0.17
  -1   6   9    0.46    0.16
   1  -7  -9    0.98    0.24
   1  -7  -9    1.08    0.32
   1  -8  -9   -0.08    0.17
  -2  -8   7    0.23    0.14
  -2  -8   7    0.44    0.16
  -2  -8   7    0.30    0.14
  -2  -7   7    0.76    0.18
  -2  -7   7    0.88    0.18
  -2  -7   7    0.34    0.15
  -2  -6   7    0.76    0.18
  -2  -6   7    0.84    0.19
  -2  -6   7    0.99    0.20
  -2  -5   7    3.66    0.34
  -2  -5   7    3.17    0.33
  -2  -5   7    4.01    0.36
  -2  -4   7    5.66    0.39
  -2  -4   7    6.08    0.40
  -2  -4   7    5.95    0.39
  -2  -3   7    0.92    0.19
  -2  -3   7    0.95    0.20
  -2  -3   7    1.33    0.22
  -2  -2   7    4.74    0.39
  -2  -2   7    4.56    0.38
  -2  -2   7    5.04    0.38
  -2  -1   7    5.72    0.39
  -2  -1   7    6.14    0.42
  -2  -1   7    5.63    0.38
   2   0  -7    3.19    0.34
  -2   0   7    3.63    0.35
  -2   0   7    4.25    0.39
  -2   0   7    2.71    0.31
  -2   0   7    2.72    0.30
  -2   0   7    3.00    0.31
   2  -1  -7    0.98    0.16
   2  -1  -7    1.50    0.26
  -2   1   7    1.36    0.24
  -2   1   7    1.74    0.28
  -2   1   7    1.40    0.13
  -2   1   7    1.62    0.23
  -2   1   7    1.06    0.22
   2  -2  -7    7.21    0.48
  -2   2   7    7.11    0.43
  -2   2   7    5.83    0.49
  -2   2   7    6.38    0.47
  -2   2   7    6.82    0.32
   2  -3  -7    2.54    0.34
  -2   3   7    2.17    0.31
  -2   3   7    2.03    0.30
  -2   3   7    2.30    0.21
   2  -4  -7    0.10    0.16
  -2   4   7    0.08    0.17
  -2   4   7   -0.05    0.10
  -2   4   7    0.17    0.17
   2  -5  -7    1.58    0.29
  -2   5   7    2.00    0.31
  -2   5   7    1.99    0.33
  -2   5   7    1.30    0.19
   2  -6  -7    3.38    0.42
  -2   6   7    2.43    0.36
  -2   6   7    2.20    0.25
  -2   6   7    2.76    0.38
   2  -7  -7    0.00    0.17
   2  -8  -7    0.36    0.25
   2  -9  -7   -0.23    0.17
   2 -10  -7    0.32    0.22
  -3 -10   5    0.24    0.16
  -3 -10   5    0.13    0.14
  -3  -9   5    0.34    0.16
  -3  -9   5    0.29    0.13
  -3  -9   5    0.23    0.14
  -3  -8   5    1.25    0.19
  -3  -8   5    0.80    0.18
  -3  -8   5    1.10    0.20
  -3  -7   5    1.17    0.20
  -3  -7   5    1.03    0.19
  -3  -7   5    1.24    0.21
  -3  -6   5    0.65    0.16
  -3  -6   5    0.95    0.18
  -3  -6   5    0.71    0.16
  -3  -5   5    3.28    0.29
  -3  -5   5    2.59    0.26
  -3  -5   5    2.94    0.28
  -3  -4   5    3.64    0.31
  -3  -4   5    2.89    0.29
  -3  -4   5    2.56    0.27
  -3  -4   5    2.60    0.27
   3   3  -5    0.06    0.10
  -3  -3   5   -0.06    0.05
  -3  -3   5   -0.09    0.09
  -3  -3   5    0.07    0.09
  -3  -3   5    0.14    0.10
  -3  -3   5    0.03    0.09
   3   2  -5    1.10    0.18
  -3  -2   5    1.28    0.19
  -3  -2   5    1.05    0.19
  -3  -2   5    1.20    0.20
  -3  -2   5    0.91    0.16
  -3  -2   5    1.22    0.19
   3   1  -5    0.35    0.11
   3   1  -5    0.56    0.16
  -3  -1   5    0.59    0.14
  -3  -1   5    0.73    0.17
  -3  -1   5    0.84    0.17
  -3  -1   5    0.73    0.16
  -3  -1   5    0.60    0.14
   3   0  -5    1.65    0.23
  -3   0   5    2.40    0.25
  -3   0   5    1.96    0.26
  -3   0   5    1.19    0.21
  -3   0   5    1.93    0.25
  -3   0   5    1.54    0.24
  -3   0   5    1.67    0.13
   3  -1  -5    1.49    0.23
   3  -1  -5    2.10    0.23
   3  -1  -5    1.49    0.17
  -3   1   5    1.66    0.16
  -3   1   5    1.69    0.21
  -3   1   5    1.35    0.20
  -3   1   5    1.43    0.24
  -3   1   5    1.45    0.22
   3  -2  -5    4.10    0.35
   3  -2  -5    2.51    0.30
   3  -2  -5    2.72    0.23
  -3   2   5    3.07    0.23
  -3   2   5    2.78    0.26
  -3   2   5    2.85    0.28
  -3   2   5    3.68    0.35
   3  -3  -5    2.12    0.26
   3  -3  -5    2.07    0.29
  -3   3   5    1.89    0.24
  -3   3   5    2.67    0.24
  -3   3   5    1.65    0.21
  -3   3   5    2.74    0.32
   3  -4  -5   18.85    0.83
   3  -4  -5   18.81    0.78
  -3   4   5   18.78    0.66
  -3   4   5   18.62    0.82
   3  -5  -5   10.25    0.55
   3  -5  -5   10.60    0.60
  -3   5   5   10.48    0.46
  -3   5   5   10.98    0.60
   3  -6  -5    1.91    0.29
   3  -6  -5    2.63    0.31
  -3   6   5    2.83    0.27
  -3   6   5    2.69    0.32
   3  -7  -5    1.54    0.29
   3  -7  -5    1.92    0.28
   3  -8  -5    1.77    0.31
   3  -9  -5    0.23    0.19
   3 -10  -5   -0.01    0.20
   3 -10  -5    0.21    0.21
  -4 -10   3    0.28    0.15
  -4 -10   3    0.28    0.16
  -4 -10   3    0.35    0.13
  -4  -9   3    0.62    0.17
  -4  -9   3    0.34    0.16
  -4  -9   3    0.18    0.14
  -4  -8   3    2.67    0.28
  -4  -8   3    2.51    0.28
  -4  -8   3    2.30    0.26
  -4  -7   3    0.65    0.16
  -4  -7   3    0.74    0.17
  -4  -7   3    0.59    0.16
  -4  -6   3    1.47    0.22
  -4  -6   3    2.22    0.24
  -4  -6   3    1.37    0.20
   4   5  -3    4.06    0.34
  -4  -5   3    4.25    0.30
  -4  -5   3    4.48    0.31
  -4  -5   3    4.42    0.30
  -4  -5   3    3.88    0.33
   4   4  -3    0.88    0.19
   4   4  -3    1.11    0.18
  -4  -4   3    0.88    0.17
  -4  -4   3    1.01    0.17
  -4  -4   3    0.92    0.18
   4   3  -3   11.53    0.54
   4   3  -3   11.65    0.52
  -4  -3   3   11.25    0.50
  -4  -3   3   11.22    0.53
  -4  -3   3   10.70    0.52
  -4  -3   3   11.89    0.52
   4   2  -3    0.35    0.14
   4   2  -3    0.36    0.10
   4   2  -3    0.13    0.11
  -4  -2   3    0.30    0.12
  -4  -2   3    0.44    0.12
  -4  -2   3    0.25    0.12
  -4  -2   3    0.33    0.11
   4   1  -3    3.52    0.29
   4   1  -3    4.03    0.26
   4   1  -3    3.21    0.31
   4   1  -3    3.63    0.23
  -4  -1   3    3.58    0.29
  -4  -1   3    3.35    0.17
  -4  -1   3    3.24    0.30
  -4  -1   3    2.73    0.25
  -4  -1   3    4.26    0.37
  -4  -1   3    3.08    0.29
   4   0  -3    4.50    0.34
   4   0  -3    4.90    0.30
   4   0  -3    4.81    0.27
   4   0  -3    5.04    0.34
  -4   0   3    4.65    0.33
  -4   0   3    4.65    0.34
  -4   0   3    5.05    0.24
  -4   0   3    4.60    0.30
  -4   0   3    4.85    0.30
   4  -1  -3    3.60    0.33
   4  -1  -3    3.87    0.34
   4  -1  -3    3.88    0.24
   4  -1  -3    4.32    0.28
   4  -1  -3    3.92    0.28
  -4   1   3    3.67    0.32
  -4   1   3    4.15    0.28
  -4   1   3    3.71    0.22
  -4   1   3    4.38    0.24
  -4   1   3    4.08    0.36
  -4   1   3    3.88    0.34
   4  -2  -3    0.00    0.11
   4  -2  -3    0.00    0.03
   4  -2  -3    0.17    0.09
   4  -2  -3    0.07    0.09
  -4   2   3    0.09    0.07
  -4   2   3    0.22    0.09
  -4   2   3    0.03    0.05
  -4   2   3    0.14    0.12
  -4   2   3   -0.06    0.04
   4  -3  -3    2.61    0.25
   4  -3  -3    2.73    0.28
   4  -3  -3    2.73    0.27
  -4   3   3    2.75    0.30
  -4   3   3    2.35    0.20
  -4   3   3    2.67    0.24
   4  -4  -3    0.65    0.15
   4  -4  -3    0.90    0.19
   4  -4  -3    0.77    0.19
  -4   4   3    0.82    0.16
  -4   4   3    0.75    0.18
  -4   4   3    0.68    0.13
   4  -5  -3    1.98    0.26
   4  -5  -3    1.22    0.22
   4  -5  -3    1.99    0.26
  -4   5   3    2.21    0.29
  -4   5   3    1.76    0.20
   4  -6  -3    0.07    0.14
   4  -6  -3    0.13    0.14
  -4   6   3    0.30    0.12
  -4   6   3    0.06    0.12
   4  -7  -3    1.15    0.20
   4  -7  -3    1.29    0.25
   4  -7  -3    2.16    0.28
   4  -8  -3    0.39    0.18
   4  -8  -3    0.03    0.16
   4  -8  -3    0.13    0.16
   4  -9  -3    0.94    0.25
   4  -9  -3    1.34    0.27
   4  -9  -3    0.74    0.23
   4 -10  -3    0.02    0.17
   4 -10  -3   -0.06    0.19
   4 -10  -3    0.05    0.17
   4 -11  -3    0.39    0.23
   4 -11  -3    0.55    0.25
   4 -11  -3    0.35    0.23
  -5 -11   1    0.23    0.15
  -5 -11   1   -0.06    0.18
  -5 -11   1    0.41    0.25
  -5 -10   1    0.50    0.24
  -5 -10   1    0.16    0.16
  -5 -10   1    0.29    0.16
  -5 -10   1    0.23    0.17
  -5  -9   1    0.74    0.20
  -5  -9   1    0.85    0.25
  -5  -9   1    1.11    0.22
  -5  -9   1    0.96    0.22
  -5  -8   1    3.09    0.33
  -5  -8   1    3.18    0.34
  -5  -8   1    3.14    0.32
  -5  -8   1    3.41    0.39
  -5  -7   1    0.88    0.19
  -5  -7   1    1.39    0.25
  -5  -7   1    1.03    0.21
  -5  -7   1    1.01    0.19
   5   6  -1    1.71    0.25
  -5  -6   1    1.02    0.18
  -5  -6   1    1.24    0.21
  -5  -6   1    1.07    0.21
   5   5  -1    2.57    0.29
   5   5  -1    2.23    0.26
  -5  -5   1    3.55    0.33
  -5  -5   1    3.00    0.31
  -5  -5   1    2.73    0.29
  -5  -5   1    2.22    0.24
   5   4  -1   10.10    0.48
   5   4  -1    9.28    0.50
  -5  -4   1    9.03    0.45
  -5  -4   1   10.09    0.48
  -5  -4   1    9.22    0.49
  -5  -4   1   10.28    0.50
   5   3  -1    8.07    0.44
   5   3  -1    7.80    0.35
   5   3  -1    8.90    0.47
  -5  -3   1    8.27    0.45
  -5  -3   1    8.59    0.43
  -5  -3   1    8.65    0.45
  -5  -3   1    8.00    0.37
  -5  -3   1    8.17    0.41
   5   2  -1    0.05    0.09
   5   2  -1    0.18    0.12
   5   2  -1    0.01    0.11
   5   2  -1    0.14    0.08
  -5  -2   1    0.17    0.11
  -5  -2   1    0.08    0.09
  -5  -2   1    0.02    0.10
  -5  -2   1    0.16    0.11
   5   1  -1   17.35    0.70
   5   1  -1   17.07    0.58
   5   1  -1   17.71    0.66
   5   1  -1   16.22    0.72
  -5  -1   1   17.63    0.72
  -5  -1   1   16.61    0.55
  -5  -1   1   16.37    0.69
  -5  -1   1   17.50    0.67
  -5  -1   1   16.24    0.65
   5   0  -1   20.68    0.65
   5   0  -1   19.59    0.80
   5   0  -1   19.49    0.73
   5   0  -1   19.87    0.78
   5   0  -1   20.30    0.73
  -5   0   1   19.77    0.73
  -5   0   1   20.01    0.74
  -5   0   1   19.22    0.63
  -5   0   1   18.85    0.77
   5  -1  -1    1.70    0.23
   5  -1  -1    1.72    0.19
   5  -1  -1    1.80    0.20
   5  -1  -1    1.45    0.23
  -5   1   1    1.47    0.21
  -5   1   1    1.57    0.17
  -5   1   1    1.29    0.16
   5  -2  -1   15.42    0.67
   5  -2  -1   14.76    0.61
   5  -2  -1   14.99    0.62
   5  -2  -1   15.60    0.51
   5  -2  -1   14.86    0.65
  -5   2   1   14.04    0.53
  -5   2   1   15.11    0.65
  -5   2   1   15.19    0.60
   5  -3  -1    0.58    0.18
   5  -3  -1    0.35    0.14
   5  -3  -1    0.21    0.11
   5  -3  -1    0.69    0.16
   5  -3  -1    0.45    0.15
   5  -3  -1    0.27    0.14
  -5   3   1    0.49    0.12
  -5   3   1    0.59    0.16
  -5   3   1    0.61    0.13
   5  -4  -1    1.08    0.20
   5  -4  -1    1.12    0.18
   5  -4  -1    1.13    0.20
   5  -4  -1    1.27    0.20
  -5   4   1    1.33    0.22
  -5   4   1    1.30    0.16
   5  -5  -1    4.06    0.31
   5  -5  -1    3.58    0.31
   5  -5  -1    4.44    0.38
   5  -5  -1    3.91    0.34
  -5   5   1    4.71    0.27
  -5   5   1    5.09    0.40
   5  -6  -1    0.86    0.20
   5  -6  -1    1.53    0.25
   5  -6  -1    1.53    0.22
   5  -6  -1    1.09    0.20
   5  -7  -1    1.46    0.23
   5  -7  -1    1.59    0.25
   5  -7  -1    1.45    0.26
   5  -7  -1    1.29    0.22
   5  -8  -1   -0.18    0.13
   5  -8  -1    0.04    0.15
   5  -8  -1    0.05    0.14
   5  -9  -1    1.85    0.29
   5  -9  -1    1.57    0.28
   5  -9  -1    1.83    0.29
   5 -10  -1    1.22    0.26
   5 -10  -1    1.79    0.31
   5 -10  -1    1.25    0.29
  -6 -11  -1    0.52    0.22
  -6 -11  -1   -0.05    0.20
  -6 -11  -1   -0.15    0.20
  -6 -10  -1    0.31    0.19
  -6 -10  -1    0.31    0.21
  -6 -10  -1    0.04    0.19
  -6  -9  -1    2.99    0.37
  -6  -9  -1    1.34    0.26
  -6  -9  -1    2.49    0.35
  -6  -8  -1    0.04    0.17
  -6  -8  -1    0.40    0.18
  -6  -8  -1    0.25    0.16
  -6  -8  -1    0.48    0.18
  -6  -7  -1    0.45    0.17
  -6  -7  -1    0.48    0.17
  -6  -7  -1    1.03    0.23
  -6  -7  -1    0.38    0.15
  -6  -6  -1    4.14    0.35
  -6  -6  -1    4.49    0.32
  -6  -6  -1    3.83    0.36
  -6  -6  -1    4.22    0.37
   6   5   1   22.46    0.88
   6   5   1   23.00    0.93
  -6  -5  -1   21.54    0.78
  -6  -5  -1   21.76    0.87
  -6  -5  -1   23.47    0.87
  -6  -5  -1   22.13    0.90
   6   4   1    0.96    0.16
   6   4   1    0.58    0.18
   6   4   1    0.69    0.17
  -6  -4  -1    0.68    0.18
  -6  -4  -1    0.43    0.15
  -6  -4  -1    0.49    0.15
  -6  -4  -1    0.81    0.16
   6   3   1    6.52    0.43
   6   3   1    6.26    0.37
   6   3   1    7.02    0.34
   6   3   1    6.24    0.40
  -6  -3  -1    6.88    0.42
  -6  -3  -1    6.42    0.42
  -6  -3  -1    6.57    0.38
  -6  -3  -1    6.17    0.39
   6   2   1    3.81    0.37
   6   2   1    4.63    0.26
   6   2   1    4.56    0.34
   6   2   1    5.12    0.32
  -6  -2  -1    4.25    0.30
  -6  -2  -1    4.09    0.35
  -6  -2  -1    4.42    0.38
   6   1   1   20.62    0.76
   6   1   1   19.98    0.84
   6   1   1   21.48    0.79
   6   1   1   19.61    0.81
   6   1   1   20.76    0.67
  -6  -1  -1   19.88    0.66
  -6  -1  -1   20.17    0.76
  -6  -1  -1   20.00    0.82
  -6  -1  -1   19.95    0.77
   6   0   1    0.79    0.15
   6   0   1    0.61    0.15
   6   0   1    0.66    0.19
   6   0   1    0.41    0.12
  -6   0  -1    1.00    0.17
  -6   0  -1    0.78    0.18
  -6   0  -1    0.60    0.12
  -6   0  -1    0.74    0.15
   6  -1   1    6.58    0.37
   6  -1   1    6.12    0.29
   6  -1   1    6.30    0.41
   6  -1   1    6.90    0.38
   6  -1   1    6.40    0.41
  -6   1  -1    6.56    0.32
  -6   1  -1    6.98    0.36
  -6   1  -1    6.08    0.40
   6  -2   1    3.86    0.20
   6  -2   1    4.33    0.31
   6  -2   1    4.27    0.30
   6  -2   1    3.38    0.34
   6  -2   1    3.26    0.30
   6  -2   1    4.18    0.16
   6  -2   1    3.84    0.35
  -6   2  -1    4.40    0.37
  -6   2  -1    3.56    0.27
  -6   2  -1    4.05    0.28
   6  -3   1    1.29    0.21
   6  -3   1    1.16    0.21
   6  -3   1    1.42    0.23
   6  -3   1    1.07    0.20
   6  -3   1    1.14    0.18
   6  -3   1    1.42    0.13
  -6   3  -1    1.33    0.16
  -6   3  -1    1.59    0.23
   6  -4   1    5.55    0.39
   6  -4   1    6.76    0.41
   6  -4   1    6.52    0.39
   6  -4   1    6.95    0.43
   6  -4   1    6.41    0.40
   6  -4   1    6.16    0.29
  -6   4  -1    6.20    0.32
  -6   4  -1    5.77    0.39
   6  -5   1    1.92    0.20
   6  -5   1    1.58    0.22
   6  -5   1    1.78    0.27
   6  -5   1    1.54    0.25
   6  -5   1    1.43    0.23
   6  -6   1    1.89    0.27
   6  -6   1    2.14    0.23
   6  -6   1    2.15    0.27
   6  -6   1    2.20    0.28
   6  -7   1    0.17    0.16
   6  -7   1    0.39    0.15
   6  -7   1    0.28    0.16
   6  -7   1    0.14    0.13
   6  -8   1    0.04    0.16
   6  -8   1    0.06    0.15
   6  -8   1   -0.08    0.12
   6  -8   1    0.17    0.16
   6  -9   1    0.05    0.19
   6  -9   1    0.54    0.21
   6  -9   1    0.47    0.20
   6 -10   1    0.23    0.18
   6 -10   1    0.03    0.19
   6 -10   1    0.19    0.20
  -7 -10  -3   -0.02    0.18
  -7 -10  -3   -0.05    0.17
  -7 -10  -3   -0.12    0.17
  -7  -9  -3    0.54    0.20
  -7  -9  -3    0.72    0.25
  -7  -9  -3    0.52    0.23
  -7  -8  -3    0.09    0.17
  -7  -8  -3    0.27    0.16
  -7  -8  -3    0.13    0.15
  -7  -7  -3    1.76    0.26
  -7  -7  -3    2.08    0.34
  -7  -7  -3    2.23    0.28
  -7  -6  -3    3.31    0.30
  -7  -6  -3    2.92    0.38
  -7  -6  -3    3.68    0.38
   7   5   3    2.10    0.24
   7   5   3    3.03    0.34
  -7  -5  -3    2.78    0.33
  -7  -5  -3    2.44    0.34
  -7  -5  -3    2.67    0.24
   7   4   3   -0.06    0.09
   7   4   3    0.06    0.14
  -7  -4  -3   -0.01    0.09
  -7  -4  -3    0.09    0.16
  -7  -4  -3    0.03    0.08
   7   3   3    0.71    0.13
   7   3   3    0.96    0.22
   7   3   3    0.54    0.12
  -7  -3  -3    0.43    0.16
  -7  -3  -3    0.89    0.19
   7   2   3    7.82    0.44
   7   2   3    7.56    0.48
   7   2   3    7.23    0.35
  -7  -2  -3    7.76    0.48
  -7  -2  -3    7.64    0.43
  -7  -2  -3    7.31    0.44
   7   1   3    4.99    0.45
   7   1   3    5.53    0.36
   7   1   3    4.59    0.39
   7   1   3    4.98    0.27
   7   1   3    5.13    0.35
  -7  -1  -3    5.45    0.44
  -7  -1  -3    4.34    0.32
   7   0   3    0.74    0.12
   7   0   3    0.61    0.18
   7   0   3    0.83    0.17
   7   0   3    0.73    0.17
   7   0   3    0.39    0.16
  -7   0  -3    0.90    0.15
  -7   0  -3    0.37    0.16
  -7   0  -3    0.67    0.16
   7  -1   3    0.06    0.14
   7  -1   3    0.32    0.13
   7  -1   3    0.35    0.09
   7  -1   3    0.18    0.12
   7  -1   3    0.39    0.16
  -7   1  -3    0.11    0.15
  -7   1  -3    0.29    0.11
   7  -2   3    5.65    0.38
   7  -2   3    5.41    0.41
   7  -2   3    5.39    0.38
   7  -2   3    5.51    0.45
   7  -2   3    5.75    0.41
  -7   2  -3    6.60    0.42
  -7   2  -3    5.61    0.31
   7  -3   3   18.31    0.77
   7  -3   3   18.19    0.80
   7  -3   3   19.40    0.79
   7  -3   3   19.02    0.82
  -7   3  -3   18.53    0.66
  -7   3  -3   19.28    0.80
   7  -4   3   -0.10    0.11
   7  -4   3    0.16    0.15
   7  -4   3   -0.10    0.11
   7  -4   3   -0.04    0.12
   7  -5   3    3.32    0.36
   7  -5   3    3.62    0.23
   7  -5   3    2.55    0.31
   7  -5   3    2.81    0.32
   7  -5   3    2.71    0.31
   7  -6   3    2.75    0.25
   7  -6   3    2.23    0.28
   7  -6   3    2.03    0.28
   7  -6   3    1.96    0.28
   7  -7   3    0.18    0.16
   7  -7   3    0.19    0.15
   7  -7   3    0.27    0.14
   7  -7   3   -0.07    0.15
   7  -8   3    0.88    0.24
   7  -8   3    0.22    0.17
   7  -8   3    0.45    0.17
   7  -9   3    0.06    0.19
   7  -9   3   -0.09    0.15
  -8  -9  -5    0.97    0.25
  -8  -9  -5    1.38    0.33
  -8  -8  -5    1.28    0.24
  -8  -8  -5    0.80    0.29
  -8  -7  -5    0.95    0.26
  -8  -7  -5    1.21    0.21
  -8  -6  -5    1.30    0.21
  -8  -6  -5    1.35    0.27
   8   5   5    1.80    0.33
  -8  -5  -5    1.73    0.32
   8   4   5    2.96    0.38
  -8  -4  -5    3.09    0.39
   8   3   5    0.96    0.24
   8   3   5    1.27    0.19
  -8  -3  -5    1.22    0.27
   8   2   5    9.34    0.44
   8   2   5   10.09    0.62
  -8  -2  -5    9.89    0.60
   8   1   5    1.57    0.17
   8   1   5    1.44    0.29
  -8  -1  -5    2.00    0.32
   8   0   5    3.71    0.21
   8   0   5    3.42    0.38
   8   0   5    3.53    0.40
   8   0   5    4.28    0.38
  -8   0  -5    3.29    0.37
  -8   0  -5    2.96    0.27
   8  -1   5    0.05    0.16
   8  -1   5    0.34    0.18
   8  -1   5    0.05    0.14
  -8   1  -5    0.33    0.17
  -8   1  -5    0.12    0.12
   8  -2   5    2.34    0.33
   8  -2   5    2.01    0.29
   8  -2   5    3.07    0.33
   8  -3   5    0.36    0.18
   8  -3   5    0.39    0.18
   8  -3   5    0.21    0.18
   8  -4   5    0.20    0.17
   8  -4   5   -0.09    0.13
   8  -4   5    0.03    0.16
   8  -5   5    0.12    0.17
   8  -5   5    0.30    0.17
   8  -5   5    0.47    0.20
   8  -6   5    0.11    0.19
   8  -6   5    0.27    0.16
   8  -6   5    0.18    0.17
   8  -7   5   -0.08    0.15
   8  -7   5    0.49    0.21
   8  -8   5    0.32    0.19
   8  -8   5    0.42    0.23
  -9  -8  -7    0.21    0.22
  -9  -7  -7    0.08    0.21
  -9  -6  -7    0.18    0.24
  -9  -5  -7    1.38    0.34
   9   4   7    0.66    0.27
   9   4   7    0.90    0.20
  -9  -4  -7    0.46    0.25
   9   3   7    0.65    0.25
  -9  -3  -7    1.40    0.32
   9   2   7    2.46    0.40
  -9  -2  -7    2.33    0.37
   9   1   7    0.39    0.10
   9   1   7    0.22    0.20
   9   0   7    1.82    0.33
   9  -1   7    1.23    0.28
   9  -1   7    1.09    0.28
   9  -2   7    0.08    0.17
   9  -2   7    0.16    0.20
   9  -3   7    0.46    0.21
   9  -3   7    0.07    0.17
   9  -3   7    0.16    0.18
   9  -4   7   -0.13    0.16
   9  -4   7    0.23    0.19
   9  -4   7    0.15    0.19
   9  -5   7   -0.07    0.17
   9  -5   7    0.10    0.18
   9  -5   7    0.11    0.15
   9  -6   7    0.65    0.25
   9  -6   7    0.28    0.18
   9  -6   7    0.53    0.23
  10   5   9    0.73    0.22
  10   4   9    1.01    0.32
  10   4   9    1.31    0.25
  10   3   9    0.72    0.30
  10   2   9    0.16    0.20
  10   1   9   -0.07    0.19
  10   0   9   -0.21    0.20
  10  -1   9    0.60    0.26
  10  -1   9    0.51    0.26
  10  -2   9    1.39    0.34
  10  -3   9    0.23    0.24
   0   0  12    0.83    0.27
   0   0  12    0.69    0.29
   0   1  12    0.38    0.25
   0   2  12    0.31    0.26
   0   3  12    0.64    0.32
  -1  -5  10    0.45    0.23
  -1  -5  10    0.32    0.19
  -1  -4  10    0.25    0.19
  -1  -4  10   -0.11    0.17
  -1  -3  10    0.68    0.22
  -1  -3  10    0.38    0.19
  -1  -2  10    1.52    0.28
  -1  -2  10    1.54    0.30
  -1  -1  10    0.26    0.19
  -1  -1  10    0.36    0.21
  -1   0  10    0.72    0.26
  -1   0  10    1.26    0.29
  -1   1  10   -0.13    0.14
  -1   1  10   -0.02    0.18
  -1   2  10    1.24    0.31
  -1   3  10   -0.06    0.09
  -1   3  10   -0.09    0.20
  -1   4  10   -0.13    0.10
  -1   4  10    0.12    0.20
  -1   5  10    0.87    0.30
  -1   5  10    1.06    0.19
   1  -6 -10    0.42    0.26
  -1   6  10    0.00    0.13
   1  -7 -10    0.91    0.30
   1  -7 -10    0.95    0.25
  -1   7  10    1.24    0.24
  -2  -7   8    0.68    0.19
  -2  -7   8    0.68    0.19
  -2  -7   8    0.58    0.19
  -2  -6   8    0.58    0.20
  -2  -6   8    0.44    0.17
  -2  -6   8    1.14    0.22
  -2  -5   8    0.26    0.16
  -2  -5   8    0.25    0.16
  -2  -5   8    0.34    0.17
  -2  -4   8    1.31    0.25
  -2  -4   8    1.54    0.25
  -2  -4   8    1.47    0.25
  -2  -3   8    0.48    0.16
  -2  -3   8    0.66    0.20
  -2  -2   8    0.88    0.21
  -2  -2   8    0.60    0.19
  -2  -1   8    2.45    0.31
  -2  -1   8    3.25    0.36
  -2   0   8    1.05    0.21
  -2   0   8    0.60    0.20
  -2   1   8   -0.07    0.14
  -2   1   8    0.16    0.17
   2  -2  -8    0.11    0.18
  -2   2   8    0.00    0.08
  -2   2   8    0.11    0.18
  -2   2   8   -0.17    0.14
   2  -3  -8    0.92    0.23
  -2   3   8    0.50    0.22
  -2   3   8    0.53    0.21
  -2   3   8    0.49    0.13
   2  -4  -8    2.04    0.32
  -2   4   8    3.20    0.41
  -2   4   8    2.07    0.23
  -2   4   8    2.88    0.42
   2  -5  -8    1.95    0.37
  -2   5   8    2.27    0.33
  -2   5   8    2.01    0.25
  -2   5   8    1.99    0.34
   2  -6  -8    0.80    0.26
  -2   6   8    0.75    0.18
   2  -7  -8    0.94    0.30
   2  -8  -8    0.29    0.23
   2  -8  -8    0.27    0.19
   2  -9  -8    0.22    0.22
  -3  -9   6    0.80    0.21
  -3  -9   6    0.63    0.19
  -3  -8   6    0.19    0.16
  -3  -8   6    0.31    0.16
  -3  -8   6    0.33    0.15
  -3  -7   6    0.87    0.19
  -3  -7   6    0.45    0.17
  -3  -7   6    0.53    0.18
  -3  -6   6    0.12    0.13
  -3  -6   6    0.21    0.14
  -3  -6   6    0.23    0.15
  -3  -5   6    0.38    0.15
  -3  -5   6    0.36    0.15
  -3  -5   6    0.44    0.16
  -3  -4   6    0.72    0.17
  -3  -4   6    0.60    0.17
  -3  -4   6    0.97    0.18
  -3  -3   6   -0.07    0.10
  -3  -3   6   -0.04    0.11
  -3  -3   6    0.08    0.12
  -3  -2   6    2.45    0.28
  -3  -2   6    1.71    0.23
  -3  -2   6    1.75    0.25
   3   1  -6    5.02    0.38
  -3  -1   6    5.77    0.38
  -3  -1   6    5.12    0.43
  -3  -1   6    5.20    0.36
  -3  -1   6    5.12    0.43
   3   0  -6    5.05    0.43
   3   0  -6    5.83    0.32
  -3   0   6    5.04    0.37
  -3   0   6    5.76    0.42
  -3   0   6    5.04    0.42
  -3   0   6    5.17    0.36
   3  -1  -6    3.28    0.27
   3  -1  -6    3.72    0.37
  -3   1   6    3.83    0.22
  -3   1   6    3.48    0.34
  -3   1   6    4.38    0.36
   3  -2  -6    2.22    0.31
  -3   2   6    1.78    0.19
  -3   2   6    2.09    0.26
  -3   2   6    1.94    0.29
   3  -3  -6   41.36    1.49
  -3   3   6   40.96    1.48
  -3   3   6   39.76    1.21
   3  -4  -6    1.33    0.27
  -3   4   6    0.99    0.17
  -3   4   6    0.70    0.19
   3  -5  -6   -0.02    0.16
  -3   5   6   -0.04    0.10
  -3   5   6    0.09    0.16
   3  -6  -6    0.75    0.26
  -3   6   6    0.93    0.20
  -3   6   6    0.97    0.25
   3  -7  -6    0.52    0.21
   3  -8  -6    0.48    0.23
   3  -8  -6    0.04    0.16
   3  -9  -6   -0.02    0.20
   3 -10  -6   -0.01    0.24
  -4 -10   4    0.11    0.14
  -4 -10   4    0.42    0.18
  -4  -9   4    0.43    0.16
  -4  -9   4    0.33    0.16
  -4  -9   4    0.33    0.18
  -4  -8   4    0.91    0.20
  -4  -8   4    0.82    0.19
  -4  -8   4    0.65    0.18
  -4  -7   4    0.35    0.16
  -4  -7   4    0.51    0.16
  -4  -7   4    0.35    0.15
  -4  -6   4    0.64    0.16
  -4  -6   4    0.96    0.19
  -4  -6   4    0.84    0.17
  -4  -5   4    0.91    0.18
  -4  -5   4    1.20    0.20
  -4  -5   4    1.55    0.21
   4   4  -4    7.48    0.44
  -4  -4   4    6.62    0.41
  -4  -4   4    7.31    0.41
  -4  -4   4    6.87    0.40
   4   3  -4    0.89    0.19
   4   3  -4    1.29    0.20
  -4  -3   4    1.07    0.18
  -4  -3   4    1.47    0.23
  -4  -3   4    1.00    0.18
  -4  -3   4    1.05    0.18
   4   2  -4    1.08    0.21
   4   2  -4    0.97    0.18
  -4  -2   4    1.47    0.24
  -4  -2   4    1.17    0.19
  -4  -2   4    1.21    0.19
  -4  -2   4    1.27    0.20
  -4  -2   4    0.97    0.18
   4   1  -4    1.01    0.19
   4   1  -4    1.15    0.15
   4   1  -4    0.67    0.18
  -4  -1   4    1.05    0.20
  -4  -1   4    1.06    0.20
  -4  -1   4    0.75    0.18
  -4  -1   4    1.02    0.20
  -4  -1   4    0.83    0.16
   4   0  -4    0.09    0.09
   4   0  -4    0.16    0.13
   4   0  -4    0.27    0.12
  -4   0   4   -0.02    0.10
  -4   0   4    0.04    0.07
  -4   0   4    0.25    0.15
  -4   0   4    0.09    0.11
  -4   0   4    0.17    0.10
   4  -1  -4    0.62    0.17
   4  -1  -4    0.55    0.13
   4  -1  -4    0.54    0.12
  -4   1   4    0.68    0.12
  -4   1   4    0.46    0.15
  -4   1   4    0.95    0.18
  -4   1   4    0.62    0.18
   4  -2  -4    1.61    0.23
   4  -2  -4    1.22    0.18
   4  -2  -4    1.28    0.16
   4  -2  -4    1.17    0.22
  -4   2   4    0.67    0.15
  -4   2   4    1.25    0.16
  -4   2   4    0.61    0.14
  -4   2   4    1.11    0.21
   4  -3  -4    0.44    0.13
   4  -3  -4    0.89    0.21
  -4   3   4    0.47    0.13
  -4   3   4    0.51    0.15
  -4   3   4    0.45    0.16
   4  -4  -4    0.04    0.15
   4  -4  -4    0.05    0.11
  -4   4   4   -0.33    0.11
  -4   4   4    0.26    0.11
   4  -5  -4    5.82    0.42
   4  -5  -4    5.63    0.48
  -4   5   4    6.19    0.35
  -4   5   4    6.56    0.47
   4  -6  -4    1.96    0.30
   4  -6  -4    1.80    0.27
   4  -7  -4    3.26    0.37
   4  -7  -4    3.13    0.39
   4  -8  -4    0.37    0.20
   4  -9  -4    0.75    0.25
   4  -9  -4    0.61    0.23
   4 -10  -4    0.05    0.19
   4 -10  -4    0.66    0.25
  -5 -10   2    0.24    0.16
  -5 -10   2   -0.02    0.14
  -5 -10   2    0.26    0.17
  -5  -9   2    0.28    0.16
  -5  -9   2    0.19    0.14
  -5  -9   2    0.14    0.16
  -5  -8   2    0.75    0.20
  -5  -8   2    0.64    0.19
  -5  -8   2    0.73    0.19
  -5  -7   2    1.77    0.25
  -5  -7   2    2.29    0.27
  -5  -7   2    2.02    0.26
  -5  -6   2    0.80    0.18
  -5  -6   2    0.93    0.20
  -5  -6   2    0.94    0.21
   5   5  -2    2.32    0.28
  -5  -5   2    2.30    0.26
  -5  -5   2    2.03    0.25
  -5  -5   2    3.24    0.31
   5   4  -2    8.19    0.45
   5   4  -2    8.72    0.49
  -5  -4   2    7.95    0.45
  -5  -4   2    8.26    0.47
  -5  -4   2    8.75    0.45
  -5  -4   2    8.65    0.45
   5   3  -2    3.96    0.37
   5   3  -2    3.17    0.31
  -5  -3   2    3.52    0.33
  -5  -3   2    3.22    0.29
  -5  -3   2    3.50    0.35
  -5  -3   2    2.90    0.28
   5   2  -2    1.01    0.19
   5   2  -2    1.01    0.19
   5   2  -2    1.13    0.15
  -5  -2   2    0.94    0.17
  -5  -2   2    0.97    0.18
  -5  -2   2    1.11    0.19
  -5  -2   2    0.70    0.14
  -5  -2   2    0.72    0.17
   5   1  -2    9.29    0.44
   5   1  -2    8.29    0.46
   5   1  -2    8.51    0.37
   5   1  -2    7.37    0.46
  -5  -1   2    7.59    0.42
  -5  -1   2    8.58    0.44
  -5  -1   2    8.26    0.37
  -5  -1   2    8.56    0.33
  -5  -1   2    8.50    0.46
  -5  -1   2    8.54    0.51
   5   0  -2    9.81    0.40
   5   0  -2    9.60    0.46
   5   0  -2    8.87    0.48
   5   0  -2    9.79    0.52
  -5   0   2    9.28    0.37
  -5   0   2    9.32    0.50
  -5   0   2    9.57    0.50
  -5   0   2    8.60    0.45
  -5   0   2    9.48    0.47
   5  -1  -2   10.58    0.49
   5  -1  -2   10.71    0.53
   5  -1  -2   11.23    0.55
   5  -1  -2   10.35    0.41
  -5   1   2   11.48    0.50
  -5   1   2    7.56    0.43
  -5   1   2   10.41    0.54
  -5   1   2   10.35    0.41
   5  -2  -2   -0.07    0.12
   5  -2  -2    0.05    0.10
   5  -2  -2    0.00    0.09
   5  -2  -2   -0.02    0.07
   5  -2  -2   -0.10    0.10
  -5   2   2    0.02    0.08
  -5   2   2    0.08    0.09
  -5   2   2   -0.06    0.09
   5  -3  -2    1.73    0.22
   5  -3  -2    1.24    0.22
   5  -3  -2    1.75    0.24
  -5   3   2    1.58    0.23
  -5   3   2    1.33    0.19
  -5   3   2    1.65    0.19
   5  -4  -2    0.33    0.16
   5  -4  -2    0.20    0.13
   5  -4  -2    0.56    0.16
  -5   4   2    0.24    0.13
  -5   4   2    0.47    0.12
   5  -5  -2    0.53    0.19
   5  -5  -2    1.03    0.20
   5  -5  -2    1.02    0.21
  -5   5   2    0.65    0.18
  -5   5   2    0.53    0.14
   5  -6  -2    3.06    0.35
   5  -6  -2    2.29    0.28
   5  -7  -2    0.94    0.23
   5  -7  -2    0.72    0.19
   5  -7  -2    1.19    0.20
   5  -7  -2    1.13    0.23
   5  -8  -2    0.07    0.16
   5  -8  -2    0.08    0.15
   5  -8  -2   -0.04    0.15
   5  -9  -2    0.90    0.24
   5  -9  -2    1.05    0.26
   5  -9  -2    1.42    0.28
   5 -10  -2    2.05    0.34
   5 -10  -2    2.07    0.33
   5 -10  -2    1.53    0.32
  -6 -10   0    0.60    0.24
  -6 -10   0    0.72    0.22
  -6 -10   0    0.89    0.25
  -6  -9   0    1.54    0.28
  -6  -9   0    1.45    0.29
  -6  -9   0    1.40    0.27
  -6  -8   0    2.09    0.32
  -6  -8   0    1.68    0.28
  -6  -8   0    1.67    0.27
  -6  -8   0    2.25    0.28
  -6  -7   0    3.07    0.35
  -6  -7   0    3.39    0.38
  -6  -7   0    2.56    0.31
  -6  -7   0    2.61    0.30
   6   6   0    6.11    0.44
  -6  -6   0    5.99    0.41
  -6  -6   0    6.16    0.43
  -6  -6   0    6.17    0.42
   6   5   0    6.84    0.46
  -6  -5   0    6.16    0.42
  -6  -5   0    5.75    0.39
  -6  -5   0    6.76    0.42
   6   4   0    0.35    0.16
   6   4   0    0.11    0.15
  -6  -4   0    0.22    0.14
  -6  -4   0    0.12    0.11
  -6  -4   0    0.32    0.14
  -6  -4   0    0.20    0.12
   6   3   0   15.68    0.57
   6   3   0   14.64    0.70
   6   3   0   15.01    0.68
  -6  -3   0   14.63    0.63
  -6  -3   0   15.20    0.69
  -6  -3   0   14.81    0.65
  -6  -3   0   15.94    0.70
   6   2   0   -0.05    0.11
   6   2   0   -0.02    0.13
   6   2   0   -0.09    0.09
   6   2   0    0.10    0.10
  -6  -2   0    0.14    0.12
  -6  -2   0   -0.02    0.09
  -6  -2   0   -0.13    0.07
   6   1   0    4.06    0.19
   6   1   0    5.22    0.42
   6   1   0    4.32    0.31
   6   1   0    4.11    0.25
   6   1   0    3.71    0.37
  -6  -1   0    4.01    0.35
  -6  -1   0    3.73    0.32
  -6  -1   0    4.25    0.35
  -6  -1   0    3.98    0.24
   6   0   0    0.91    0.19
   6   0   0    1.03    0.22
   6   0   0    1.15    0.09
   6   0   0    0.97    0.14
   6   0   0    0.73    0.14
  -6   0   0    1.46    0.23
  -6   0   0    1.05    0.14
  -6   0   0    0.85    0.16
   6  -1   0    5.27    0.35
   6  -1   0    5.81    0.40
   6  -1   0    5.63    0.28
   6  -1   0    5.16    0.38
   6  -1   0    5.75    0.36
  -6   1   0    5.64    0.39
  -6   1   0    5.64    0.30
  -6   1   0    5.46    0.33
   6  -2   0    2.34    0.24
   6  -2   0    2.49    0.29
   6  -2   0    2.63    0.30
   6  -2   0    2.34    0.18
   6  -2   0    2.62    0.24
  -6   2   0    2.53    0.22
  -6   2   0    2.46    0.24
  -6   2   0    2.72    0.30
   6  -3   0    3.26    0.30
   6  -3   0    3.79    0.36
   6  -3   0    3.57    0.20
   6  -3   0    3.00    0.29
   6  -3   0    2.72    0.31
  -6   3   0    3.71    0.29
  -6   3   0    4.11    0.37
   6  -4   0    2.29    0.28
   6  -4   0    2.19    0.28
   6  -4   0    2.01    0.28
   6  -4   0    2.34    0.27
   6  -4   0    2.07    0.19
  -6   4   0    1.86    0.20
  -6   4   0    2.27    0.29
   6  -5   0    0.56    0.19
   6  -5   0    1.02    0.16
   6  -5   0    1.02    0.20
   6  -5   0    1.11    0.21
   6  -6   0    0.18    0.11
   6  -6   0   -0.13    0.13
   6  -6   0    0.13    0.11
   6  -6   0    0.09    0.13
   6  -7   0    0.59    0.19
   6  -7   0    0.79    0.21
   6  -7   0    0.70    0.17
   6  -8   0    0.04    0.16
   6  -8   0   -0.04    0.14
   6  -8   0    0.09    0.17
   6  -9   0    0.05    0.19
   6  -9   0    0.16    0.18
   6  -9   0    0.06    0.16
   6 -10   0    0.21    0.21
   6 -10   0   -0.19    0.17
   6 -10   0    0.11    0.18
  -7 -10  -2    0.23    0.21
  -7 -10  -2   -0.02    0.19
  -7 -10  -2    0.08    0.19
  -7  -9  -2   -0.30    0.15
  -7  -9  -2   -0.03    0.17
  -7  -9  -2    0.33    0.17
  -7  -8  -2    0.44    0.19
  -7  -8  -2    0.56    0.20
  -7  -8  -2    0.47    0.21
  -7  -7  -2    1.28    0.26
  -7  -7  -2    1.23    0.24
  -7  -7  -2    1.29    0.23
  -7  -6  -2    4.11    0.43
  -7  -6  -2    3.19    0.35
  -7  -6  -2    3.27    0.30
   7   5   2    0.07    0.14
  -7  -5  -2    0.10    0.18
  -7  -5  -2    0.09    0.10
  -7  -5  -2   -0.09    0.09
   7   4   2    9.73    0.59
   7   4   2   11.27    0.42
   7   4   2    9.52    0.56
   7   4   2   12.09    0.49
  -7  -4  -2   10.11    0.58
  -7  -4  -2    9.95    0.52
   7   3   2    1.62    0.20
   7   3   2    1.00    0.22
   7   3   2    1.48    0.26
  -7  -3  -2    1.58    0.22
  -7  -3  -2    1.94    0.27
   7   2   2    0.93    0.23
   7   2   2    0.95    0.16
   7   2   2    0.71    0.17
   7   2   2    0.84    0.20
  -7  -2  -2    0.92    0.17
  -7  -2  -2    0.73    0.16
  -7  -2  -2    0.78    0.20
   7   1   2   12.13    0.61
   7   1   2   11.09    0.45
   7   1   2   11.47    0.62
   7   1   2   12.14    0.56
  -7  -1  -2   12.54    0.58
  -7  -1  -2   11.65    0.61
  -7  -1  -2   12.33    0.48
   7   0   2    1.17    0.15
   7   0   2    1.75    0.29
   7   0   2    1.58    0.25
   7   0   2    1.25    0.20
   7   0   2    1.52    0.23
  -7   0  -2    1.97    0.28
  -7   0  -2    1.26    0.17
  -7   0  -2    1.41    0.21
   7  -1   2    2.25    0.26
   7  -1   2    2.51    0.19
   7  -1   2    2.47    0.28
   7  -1   2    2.33    0.29
   7  -1   2    2.53    0.32
  -7   1  -2    2.35    0.30
  -7   1  -2    2.46    0.23
   7  -2   2    4.85    0.36
   7  -2   2    4.41    0.41
   7  -2   2    5.36    0.44
   7  -2   2    5.34    0.22
   7  -2   2    5.60    0.37
  -7   2  -2    5.02    0.30
  -7   2  -2    5.33    0.44
   7  -3   2    1.21    0.20
   7  -3   2    0.85    0.20
   7  -3   2    1.16    0.20
   7  -3   2    0.93    0.21
  -7   3  -2    1.21    0.24
  -7   3  -2    0.85    0.15
   7  -4   2    6.08    0.45
   7  -4   2    7.24    0.45
   7  -4   2    6.76    0.28
   7  -4   2    6.85    0.43
   7  -4   2    6.18    0.45
   7  -5   2    0.43    0.19
   7  -5   2    0.71    0.13
   7  -5   2    0.25    0.16
   7  -5   2    0.30    0.17
   7  -5   2    0.34    0.16
   7  -6   2    2.29    0.23
   7  -6   2    2.64    0.33
   7  -6   2    2.99    0.33
   7  -7   2    0.08    0.15
   7  -7   2    0.20    0.14
   7  -7   2    0.47    0.20
   7  -8   2    0.71    0.21
   7  -8   2    1.05    0.25
   7  -8   2    0.71    0.20
   7  -9   2    0.31    0.19
   7  -9   2    0.57    0.23
  -8  -9  -4    1.17    0.32
  -8  -8  -4    0.89    0.18
  -8  -8  -4    0.64    0.22
  -8  -8  -4    0.70    0.26
  -8  -7  -4    0.66    0.19
  -8  -7  -4    0.27    0.23
  -8  -6  -4    0.33    0.22
  -8  -5  -4    3.19    0.42
   8   4   4    2.11    0.22
   8   4   4    2.18    0.33
  -8  -4  -4    1.87    0.32
   8   3   4    0.17    0.17
  -8  -3  -4   -0.10    0.16
   8   2   4    4.25    0.41
   8   2   4    4.58    0.46
  -8  -2  -4    5.77    0.51
   8   1   4    4.90    0.29
   8   1   4    5.13    0.48
   8   1   4    4.80    0.44
  -8  -1  -4    4.90    0.45
   8   0   4    3.19    0.32
   8   0   4    4.81    0.25
   8   0   4    5.42    0.49
   8   0   4    4.51    0.45
  -8   0  -4    5.11    0.44
  -8   0  -4    4.64    0.32
   8  -1   4   -0.18    0.15
   8  -1   4   -0.10    0.11
   8  -1   4    0.22    0.17
  -8   1  -4    0.13    0.11
  -8   1  -4    0.14    0.16
   8  -2   4    1.19    0.25
   8  -2   4    1.00    0.24
   8  -2   4    0.98    0.25
   8  -3   4    0.97    0.25
   8  -3   4    0.63    0.20
   8  -3   4    0.54    0.19
   8  -4   4    1.96    0.30
   8  -4   4    2.30    0.30
   8  -4   4    2.39    0.31
   8  -5   4   -0.01    0.15
   8  -5   4    0.08    0.16
   8  -5   4    0.09    0.16
   8  -6   4    0.51    0.20
   8  -6   4    0.42    0.19
   8  -6   4    0.49    0.22
   8  -7   4   -0.13    0.15
   8  -7   4    0.04    0.17
   8  -8   4    1.22    0.31
   8  -8   4    1.23    0.27
  -9  -8  -6    1.53    0.37
  -9  -7  -6    0.07    0.23
  -9  -6  -6    2.61    0.44
  -9  -5  -6    0.02    0.18
   9   4   6   -0.24    0.18
   9   4   6    0.09    0.12
  -9  -4  -6    0.09    0.19
   9   3   6    1.87    0.36
  -9  -3  -6    1.82    0.34
   9   2   6    3.99    0.46
  -9  -2  -6    4.11    0.47
   9   1   6    0.92    0.28
   9   1   6    0.07    0.08
  -9  -1  -6    0.14    0.19
   9   0   6    0.51    0.24
   9   0   6    0.20    0.20
   9  -1   6    0.25    0.21
   9  -1   6    0.13    0.19
   9  -2   6    0.96    0.26
   9  -2   6    1.28    0.27
   9  -3   6   -0.09    0.15
   9  -3   6    0.06    0.17
   9  -3   6   -0.03    0.19
   9  -4   6    0.04    0.19
   9  -4   6    0.04    0.16
   9  -4   6    0.37    0.22
   9  -5   6    0.08    0.18
   9  -5   6    0.57    0.24
   9  -5   6    0.08    0.19
   9  -6   6   -0.18    0.17
   9  -6   6   -0.14    0.17
   9  -6   6   -0.18    0.15
 -10  -6  -8    0.39    0.26
  10   5   8    0.57    0.19
 -10  -5  -8    1.13    0.36
  10   4   8    3.89    0.52
  10   3   8    0.13    0.23
  10   2   8    0.52    0.28
  10   1   8    0.19    0.21
  10   0   8    0.63    0.27
  10   0   8    0.55    0.26
  10  -1   8    0.85    0.27
  10  -1   8    0.45    0.25
  10  -2   8    2.03    0.36
  10  -2   8    2.14    0.37
  10  -3   8    0.22    0.21
  10  -3   8    0.03    0.23
  10  -4   8   -0.19    0.19
  -1  -2  11    0.64    0.24
  -1  -1  11    0.23    0.20
  -1   0  11   -0.01    0.19
  -1   0  11   -0.49    0.17
  -1   1  11    0.15    0.21
  -1   1  11   -0.07    0.19
  -1   2  11    0.19    0.24
  -1   2  11    0.72    0.31
  -1   3  11   -0.11    0.18
  -1   3  11    0.24    0.20
  -1   4  11   -0.16    0.23
  -1   4  11    0.13    0.27
  -1   5  11    0.16    0.25
  -1   5  11   -0.25    0.22
  -2  -6   9    0.30    0.18
  -2  -6   9   -0.03    0.16
  -2  -5   9    0.16    0.18
  -2  -5   9    0.21    0.18
  -2  -4   9    0.24    0.17
  -2  -4   9    0.31    0.19
  -2  -3   9    2.80    0.36
  -2  -3   9    1.96    0.30
  -2  -2   9    0.01    0.13
  -2  -2   9   -0.04    0.15
  -2  -1   9    1.15    0.27
  -2  -1   9    0.59    0.19
  -2   0   9    0.02    0.16
  -2   1   9    0.20    0.21
  -2   1   9    0.63    0.23
  -2   2   9    0.62    0.23
  -2   2   9    0.27    0.23
  -2   3   9    0.05    0.19
  -2   3   9    0.05    0.11
  -2   3   9    0.03    0.18
   2  -4  -9    0.52    0.25
  -2   4   9    0.57    0.25
  -2   4   9    0.52    0.24
  -2   4   9    0.21    0.13
   2  -5  -9    0.26    0.19
  -2   5   9    0.04    0.23
  -2   5   9   -0.04    0.12
  -2   5   9    0.21    0.25
   2  -6  -9    0.07    0.25
  -2   6   9   -0.01    0.15
   2  -7  -9    0.62    0.27
  -3  -8   7    0.19    0.15
  -3  -8   7    0.17    0.15
  -3  -8   7    0.28    0.18
  -3  -7   7    0.30    0.17
  -3  -7   7    0.64    0.19
  -3  -7   7    0.67    0.21
  -3  -6   7    3.37    0.35
  -3  -6   7    2.74    0.32
  -3  -6   7    2.71    0.31
  -3  -5   7    0.35    0.17
  -3  -5   7    0.06    0.13
  -3  -5   7    0.03    0.14
  -3  -4   7    1.81    0.27
  -3  -4   7    2.30    0.29
  -3  -4   7    2.14    0.29
  -3  -3   7    0.78    0.19
  -3  -3   7    0.83    0.20
  -3  -2   7    0.53    0.16
  -3  -2   7    0.57    0.19
  -3  -1   7    3.22    0.36
  -3  -1   7    3.44    0.36
  -3   0   7    2.30    0.29
  -3   0   7    2.82    0.34
   3  -1  -7    1.49    0.28
  -3   1   7    0.98    0.12
  -3   1   7    1.23    0.24
   3  -2  -7    0.50    0.21
  -3   2   7    0.55    0.13
  -3   2   7    0.24    0.19
   3  -3  -7    1.98    0.32
  -3   3   7    1.37    0.19
  -3   3   7    0.97    0.23
   3  -4  -7    3.11    0.41
  -3   4   7    4.15    0.46
  -3   4   7    4.03    0.31
   3  -5  -7   -0.11    0.14
  -3   5   7    0.26    0.23
  -3   5   7    0.10    0.12
   3  -6  -7    0.10    0.20
  -3   6   7    0.01    0.13
   3  -7  -7   -0.01    0.17
   3  -8  -7    0.47    0.24
   3  -8  -7    0.37    0.18
   3  -9  -7   -0.20    0.18
  -4  -9   5    0.10    0.14
  -4  -9   5    0.23    0.18
  -4  -9   5   -0.01    0.14
  -4  -8   5    0.58    0.20
  -4  -8   5    0.75    0.20
  -4  -8   5    0.73    0.19
  -4  -7   5    0.73    0.20
  -4  -7   5    0.76    0.20
  -4  -7   5    0.74    0.19
  -4  -6   5    0.28    0.15
  -4  -6   5    0.29    0.15
  -4  -6   5    0.04    0.12
  -4  -5   5   -0.01    0.12
  -4  -5   5    0.14    0.12
  -4  -5   5    0.04    0.12
  -4  -4   5    0.59    0.17
  -4  -4   5    0.62    0.18
  -4  -4   5    0.45    0.16
  -4  -3   5    0.30    0.14
  -4  -3   5    0.27    0.14
  -4  -3   5    0.60    0.16
  -4  -2   5    6.05    0.40
  -4  -2   5    7.16    0.42
  -4  -2   5    6.74    0.44
   4   1  -5    0.30    0.15
  -4  -1   5    0.50    0.17
  -4  -1   5    0.21    0.15
  -4  -1   5    0.35    0.14
  -4  -1   5    0.38    0.14
   4   0  -5    2.34    0.22
   4   0  -5    2.94    0.33
  -4   0   5    2.42    0.28
  -4   0   5    2.53    0.32
  -4   0   5    2.92    0.18
  -4   0   5    3.52    0.37
   4  -1  -5    1.55    0.26
   4  -1  -5    1.74    0.19
  -4   1   5    1.76    0.26
  -4   1   5    1.68    0.18
  -4   1   5    1.47    0.22
   4  -2  -5    7.05    0.35
   4  -2  -5    6.49    0.48
  -4   2   5    7.14    0.35
  -4   2   5    6.68    0.48
   4  -3  -5    0.25    0.19
  -4   3   5    0.33    0.13
  -4   3   5    0.04    0.15
   4  -4  -5    2.84    0.37
  -4   4   5    4.12    0.44
  -4   4   5    3.70    0.31
   4  -5  -5    0.75    0.23
  -4   5   5    0.98    0.25
  -4   5   5    1.05    0.19
   4  -6  -5    1.39    0.30
   4  -7  -5    0.17    0.19
   4  -8  -5    0.44    0.22
   4  -8  -5    0.64    0.21
   4  -9  -5   -0.22    0.17
  -5 -10   3    0.18    0.18
  -5 -10   3    0.02    0.14
  -5  -9   3   -0.16    0.14
  -5  -9   3    0.02    0.15
  -5  -9   3    0.06    0.15
  -5  -8   3    2.27    0.30
  -5  -8   3    2.29    0.30
  -5  -8   3    1.70    0.27
  -5  -7   3    0.32    0.16
  -5  -7   3    0.61    0.17
  -5  -7   3    0.56    0.17
  -5  -6   3    0.02    0.12
  -5  -6   3   -0.03    0.10
  -5  -6   3   -0.05    0.12
   5   5  -3    0.32    0.17
  -5  -5   3    0.01    0.12
  -5  -5   3    0.23    0.14
  -5  -5   3    0.32    0.16
   5   4  -3   14.59    0.68
  -5  -4   3   15.33    0.65
  -5  -4   3   13.60    0.64
  -5  -4   3   14.09    0.66
   5   3  -3    7.99    0.47
   5   3  -3    8.69    0.50
  -5  -3   3    8.36    0.45
  -5  -3   3    7.58    0.46
  -5  -3   3    8.25    0.46
   5   2  -3    0.35    0.16
   5   2  -3    0.62    0.13
   5   2  -3    0.56    0.17
  -5  -2   3    0.49    0.16
  -5  -2   3    0.48    0.14
  -5  -2   3    0.50    0.14
  -5  -2   3    0.77    0.20
   5   1  -3    0.03    0.12
   5   1  -3    0.37    0.17
   5   1  -3    0.35    0.11
  -5  -1   3    0.37    0.13
  -5  -1   3    0.44    0.16
  -5  -1   3    0.18    0.13
  -5  -1   3    0.38    0.15
   5   0  -3   13.53    0.64
   5   0  -3   14.42    0.53
   5   0  -3   12.70    0.65
   5   0  -3   14.22    0.61
  -5   0   3   13.59    0.48
  -5   0   3   12.92    0.60
  -5   0   3   12.58    0.64
  -5   0   3   12.91    0.59
   5  -1  -3    1.34    0.22
   5  -1  -3    1.72    0.28
   5  -1  -3    0.88    0.20
   5  -1  -3    0.92    0.14
  -5   1   3    0.91    0.14
  -5   1   3    0.86    0.21
  -5   1   3    1.18    0.17
  -5   1   3    1.32    0.23
  -5   1   3    1.08    0.18
   5  -2  -3    0.14    0.14
   5  -2  -3    0.03    0.07
   5  -2  -3   -0.02    0.04
  -5   2   3   -0.03    0.11
  -5   2   3   -0.03    0.08
  -5   2   3    0.15    0.10
  -5   2   3    0.03    0.09
   5  -3  -3    2.17    0.28
   5  -3  -3    2.20    0.31
  -5   3   3    2.11    0.22
  -5   3   3    1.72    0.26
   5  -4  -3    0.17    0.15
   5  -4  -3    0.14    0.14
  -5   4   3    0.18    0.11
  -5   4   3    0.03    0.12
   5  -5  -3    2.26    0.32
   5  -5  -3    2.27    0.28
  -5   5   3    2.29    0.24
  -5   5   3    2.78    0.36
   5  -6  -3    6.72    0.55
   5  -6  -3    6.50    0.46
   5  -7  -3    0.84    0.25
   5  -7  -3    1.25    0.26
   5  -8  -3    0.43    0.22
   5  -8  -3    0.79    0.23
   5  -9  -3    0.70    0.25
   5  -9  -3    1.26    0.27
   5 -10  -3    1.52    0.31
   5 -10  -3    1.63    0.34
  -6 -10   1    1.53    0.27
  -6 -10   1    2.14    0.32
  -6  -9   1    0.82    0.23
  -6  -9   1    0.83    0.23
  -6  -8   1    2.38    0.30
  -6  -8   1    2.20    0.31
  -6  -7   1    0.46    0.17
  -6  -7   1    0.37    0.17
  -6  -7   1    0.22    0.15
  -6  -6   1    1.12    0.21
  -6  -6   1    1.03    0.20
  -6  -6   1    0.88    0.21
   6   5  -1    3.51    0.38
  -6  -5   1    2.88    0.30
  -6  -5   1    3.40    0.32
  -6  -5   1    2.99    0.32
   6   4  -1    1.53    0.27
   6   4  -1    1.68    0.25
  -6  -4   1    1.16    0.20
  -6  -4   1    1.24    0.23
  -6  -4   1    1.82    0.25
   6   3  -1    0.72    0.20
   6   3  -1    1.18    0.21
   6   3  -1    0.82    0.15
  -6  -3   1    0.49    0.15
  -6  -3   1    0.54    0.14
  -6  -3   1    0.62    0.15
  -6  -3   1    0.87    0.19
   6   2  -1    2.16    0.21
   6   2  -1    2.16    0.27
   6   2  -1    1.96    0.27
  -6  -2   1    2.17    0.25
  -6  -2   1    2.20    0.25
  -6  -2   1    2.66    0.29
   6   1  -1    0.73    0.20
   6   1  -1    1.08    0.16
   6   1  -1    1.06    0.22
   6   1  -1    1.43    0.21
  -6  -1   1    1.22    0.22
  -6  -1   1    1.00    0.18
  -6  -1   1    1.02    0.19
  -6  -1   1    1.03    0.14
   6   0  -1    3.49    0.34
   6   0  -1    4.04    0.26
   6   0  -1    4.59    0.33
   6   0  -1    3.59    0.37
  -6   0   1    4.32    0.36
  -6   0   1    3.95    0.37
  -6   0   1    3.99    0.35
  -6   0   1    3.71    0.25
   6  -1  -1   -0.07    0.05
   6  -1  -1    0.06    0.12
   6  -1  -1   -0.07    0.12
   6  -1  -1    0.07    0.07
   6  -1  -1    0.16    0.15
  -6   1   1    0.10    0.09
  -6   1   1   -0.03    0.09
  -6   1   1    0.07    0.09
  -6   1   1   -0.02    0.10
   6  -2  -1    6.66    0.31
   6  -2  -1    6.13    0.44
   6  -2  -1    6.55    0.41
   6  -2  -1    7.19    0.46
   6  -2  -1    6.73    0.41
  -6   2   1    6.47    0.34
  -6   2   1    7.14    0.46
   6  -3  -1    1.66    0.27
   6  -3  -1    1.47    0.25
   6  -3  -1    1.64    0.25
  -6   3   1    1.63    0.25
  -6   3   1    1.47    0.19
   6  -4  -1    0.07    0.15
   6  -4  -1   -0.07    0.10
  -6   4   1    0.06    0.12
  -6   4   1    0.11    0.11
   6  -5  -1    3.24    0.37
   6  -5  -1    2.68    0.30
   6  -5  -1    3.25    0.28
   6  -6  -1   -0.20    0.12
   6  -6  -1   -0.05    0.14
   6  -6  -1    0.14    0.12
   6  -7  -1    0.41    0.16
   6  -7  -1    0.08    0.16
   6  -7  -1    0.64    0.20
   6  -8  -1   -0.09    0.15
   6  -8  -1    0.16    0.17
   6  -8  -1   -0.18    0.12
   6  -9  -1    0.05    0.16
   6  -9  -1   -0.05    0.17
   6  -9  -1   -0.16    0.15
   6 -10  -1    0.76    0.26
   6 -10  -1    0.24    0.22
   6 -10  -1    0.25    0.22
  -7 -10  -1    0.40    0.23
  -7 -10  -1    0.05    0.20
  -7 -10  -1    0.61    0.22
  -7  -9  -1    0.21    0.21
  -7  -9  -1    0.08    0.18
  -7  -9  -1    0.25    0.19
  -7  -8  -1    1.61    0.29
  -7  -8  -1    1.35    0.26
  -7  -8  -1    1.45    0.26
  -7  -7  -1    1.79    0.26
  -7  -7  -1    1.74    0.30
  -7  -7  -1    1.34    0.25
   7   6   1    3.37    0.38
  -7  -6  -1    3.12    0.33
  -7  -6  -1    3.14    0.36
  -7  -6  -1    3.69    0.26
   7   5   1    6.84    0.50
  -7  -5  -1    7.10    0.45
  -7  -5  -1    6.51    0.48
   7   4   1    0.12    0.17
   7   4   1    0.28    0.12
   7   4   1    0.23    0.15
  -7  -4  -1    0.05    0.14
  -7  -4  -1    0.23    0.14
   7   3   1    2.66    0.34
   7   3   1    2.08    0.29
   7   3   1    2.12    0.23
  -7  -3  -1    2.06    0.26
  -7  -3  -1    2.36    0.30
   7   2   1    1.78    0.27
   7   2   1    1.85    0.21
   7   2   1    2.14    0.30
  -7  -2  -1    1.92    0.28
  -7  -2  -1    2.08    0.25
   7   1   1    9.33    0.53
   7   1   1    8.60    0.39
   7   1   1    7.97    0.52
  -7  -1  -1    8.33    0.38
  -7  -1  -1    8.71    0.53
  -7  -1  -1    8.79    0.46
   7   0   1    0.94    0.22
   7   0   1    0.66    0.12
   7   0   1    0.59    0.15
   7   0   1    0.75    0.21
  -7   0  -1    0.97    0.17
  -7   0  -1    0.75    0.15
  -7   0  -1    0.85    0.21
   7  -1   1    1.68    0.17
   7  -1   1    2.12    0.29
   7  -1   1    1.80    0.24
   7  -1   1    1.54    0.28
  -7   1  -1    2.54    0.32
  -7   1  -1    1.91    0.21
   7  -2   1    3.31    0.20
   7  -2   1    3.29    0.35
   7  -2   1    3.45    0.35
   7  -2   1    3.05    0.36
  -7   2  -1    2.96    0.32
  -7   2  -1    4.04    0.27
   7  -3   1    4.69    0.44
   7  -3   1    5.46    0.39
   7  -3   1    5.30    0.45
   7  -3   1    4.84    0.22
  -7   3  -1    5.87    0.48
  -7   3  -1    5.52    0.32
   7  -4   1    6.33    0.43
   7  -4   1    5.83    0.50
   7  -4   1    5.56    0.27
   7  -4   1    6.18    0.45
   7  -5   1    0.06    0.15
   7  -5   1   -0.03    0.14
   7  -5   1   -0.07    0.09
   7  -5   1   -0.01    0.14
   7  -6   1    1.25    0.25
   7  -6   1    1.43    0.19
   7  -6   1    1.58    0.27
   7  -7   1    1.01    0.24
   7  -7   1    1.21    0.20
   7  -7   1    1.65    0.29
   7  -8   1   -0.18    0.16
   7  -8   1   -0.03    0.17
   7  -9   1    0.32    0.20
   7  -9   1    0.40    0.20
  -8  -9  -3    1.01    0.29
  -8  -8  -3    0.18    0.21
  -8  -7  -3    0.83    0.27
  -8  -6  -3   -0.17    0.18
  -8  -5  -3    2.84    0.36
   8   4   3    5.77    0.53
   8   4   3    6.58    0.55
  -8  -4  -3    5.08    0.47
   8   3   3    2.15    0.30
   8   3   3    1.87    0.30
  -8  -3  -3    1.98    0.31
   8   2   3    1.27    0.27
   8   2   3    0.70    0.21
  -8  -2  -3    0.79    0.23
   8   1   3   18.16    0.84
   8   1   3   17.78    0.85
   8   1   3   18.16    0.64
  -8  -1  -3   17.43    0.83
   8   0   3    2.57    0.34
   8   0   3    2.29    0.20
   8   0   3    1.85    0.31
  -8   0  -3    3.07    0.37
  -8   0  -3    2.67    0.26
   8  -1   3    0.08    0.08
   8  -1   3   -0.07    0.15
   8  -1   3    0.22    0.18
   8  -1   3    0.09    0.12
  -8   1  -3    0.19    0.15
  -8   1  -3    0.49    0.15
   8  -2   3    0.34    0.19
   8  -2   3    0.84    0.20
   8  -2   3    0.87    0.23
  -8   2  -3    0.70    0.21
  -8   2  -3    1.00    0.18
   8  -3   3    5.61    0.49
   8  -3   3    6.82    0.47
   8  -3   3    6.83    0.51
   8  -4   3    0.36    0.19
   8  -4   3    0.24    0.19
   8  -4   3    0.45    0.19
   8  -5   3   -0.17    0.14
   8  -5   3   -0.07    0.14
   8  -5   3    0.09    0.17
   8  -6   3    1.22    0.25
   8  -6   3    1.30    0.26
   8  -6   3    0.98    0.23
   8  -7   3    0.36    0.21
   8  -7   3    0.38    0.21
   8  -8   3    0.19    0.19
   8  -8   3    0.03    0.17
  -9  -8  -5    0.58    0.28
  -9  -7  -5    0.58    0.28
  -9  -6  -5    0.57    0.24
   9   5   5    0.62    0.17
  -9  -5  -5    0.63    0.23
   9   4   5    0.45    0.23
  -9  -4  -5    0.12    0.23
   9   3   5   -0.07    0.19
  -9  -3  -5    0.08    0.19
   9   2   5    1.79    0.33
   9   2   5    2.45    0.39
  -9  -2  -5    1.95    0.33
   9   1   5    1.13    0.29
   9   1   5    1.27    0.29
  -9  -1  -5    0.98    0.25
   9   0   5    0.30    0.20
   9   0   5    0.04    0.08
   9   0   5   -0.09    0.15
  -9   0  -5    0.10    0.17
   9  -1   5    1.46    0.30
   9  -1   5    1.57    0.31
   9  -2   5    2.63    0.37
   9  -2   5    2.52    0.37
   9  -3   5    0.47    0.21
   9  -3   5    1.15    0.29
   9  -4   5    0.85    0.25
   9  -4   5    0.98    0.27
   9  -4   5    0.41    0.22
   9  -5   5    1.23    0.27
   9  -5   5    1.44    0.30
   9  -5   5    1.77    0.34
   9  -6   5    0.70    0.25
   9  -6   5    0.94    0.23
   9  -6   5    0.30    0.20
   9  -7   5    0.20    0.22
   9  -7   5    0.19    0.20
 -10  -6  -7    0.70    0.33
  10   5   7    0.29    0.16
 -10  -5  -7    0.65    0.30
 -10  -4  -7    1.99    0.40
  10   3   7    0.31    0.26
 -10  -3  -7    0.80    0.27
  10   2   7    0.38    0.24
  10   1   7   -0.20    0.19
  10   1   7    0.03    0.19
  10   0   7    0.04    0.20
  10   0   7   -0.14    0.17
  10  -1   7    0.79    0.28
  10  -1   7    1.80    0.37
  10  -2   7    0.56    0.24
  10  -2   7    0.27    0.24
  10  -3   7    0.48    0.24
  10  -3   7    0.47    0.24
  10  -4   7    0.06    0.21
  10  -4   7    0.02    0.21
  -2  -4  10   -0.01    0.17
  -2  -4  10    0.12    0.18
  -2  -3  10    0.11    0.18
  -2  -2  10    0.32    0.21
  -2  -1  10    0.03    0.18
  -2   0  10    0.91    0.27
  -2   1  10   -0.09    0.17
  -2   2  10    0.20    0.22
  -2   3  10    1.04    0.30
  -2   3  10    1.00    0.29
  -2   4  10    0.59    0.30
  -2   4  10    0.70    0.31
  -3  -6   8    0.58    0.21
  -3  -6   8    0.77    0.23
  -3  -5   8   -0.11    0.15
  -3  -5   8   -0.10    0.13
  -3  -4   8    0.84    0.21
  -3  -4   8    0.42    0.18
  -3  -3   8    0.31    0.16
  -3  -3   8    0.21    0.17
  -3  -2   8    0.07    0.12
  -3  -2   8   -0.02    0.14
  -3  -1   8    1.62    0.28
  -3  -1   8    1.55    0.28
  -3   0   8    0.90    0.24
  -3   1   8    0.24    0.18
  -3   2   8    0.63    0.12
  -3   2   8    0.76    0.25
   3  -3  -8    0.81    0.27
  -3   3   8    0.60    0.15
  -3   3   8    0.73    0.25
   3  -4  -8    4.39    0.50
  -3   4   8    4.40    0.34
  -3   4   8    5.07    0.56
   3  -5  -8    2.30    0.39
  -3   5   8    2.22    0.39
  -3   5   8    2.31    0.27
   3  -6  -8    0.39    0.25
  -3   6   8   -0.03    0.13
   3  -7  -8    0.44    0.24
   3  -8  -8    0.44    0.20
   3  -8  -8   -0.08    0.20
  -4  -8   6    0.25    0.17
  -4  -8   6    0.06    0.16
  -4  -7   6    0.05    0.15
  -4  -7   6   -0.12    0.14
  -4  -6   6    0.12    0.15
  -4  -6   6    0.29    0.18
  -4  -5   6    1.37    0.25
  -4  -5   6    1.22    0.24
  -4  -4   6    2.99    0.35
  -4  -4   6    3.43    0.37
  -4  -3   6    1.83    0.25
  -4  -3   6    1.79    0.27
  -4  -2   6    2.03    0.26
  -4  -2   6    1.53    0.25
  -4  -1   6    1.14    0.23
  -4  -1   6    1.29    0.22
   4   0  -6    0.32    0.18
  -4   0   6    0.20    0.18
  -4   0   6    0.57    0.18
   4  -1  -6    2.06    0.30
  -4   1   6    2.04    0.19
  -4   1   6    2.46    0.35
   4  -2  -6   -0.13    0.13
  -4   2   6    0.00    0.10
  -4   2   6    0.13    0.18
   4  -3  -6    0.09    0.17
  -4   3   6   -0.03    0.15
  -4   3   6    0.09    0.11
   4  -4  -6    0.56    0.25
  -4   4   6    0.43    0.15
  -4   4   6    0.08    0.13
   4  -5  -6    0.32    0.22
  -4   5   6    0.73    0.17
  -4   5   6    0.47    0.20
   4  -6  -6    1.77    0.33
   4  -7  -6   -0.02    0.23
   4  -8  -6    1.73    0.38
   4  -8  -6    1.20    0.25
   4  -9  -6    0.09    0.25
  -5  -9   4   -0.07    0.16
  -5  -9   4   -0.10    0.16
  -5  -8   4    0.43    0.19
  -5  -8   4    0.38    0.18
  -5  -7   4    1.00    0.23
  -5  -7   4    1.13    0.22
  -5  -6   4    1.36    0.24
  -5  -6   4    1.37    0.24
  -5  -6   4    1.48    0.25
  -5  -5   4    0.23    0.15
  -5  -5   4    0.21    0.15
  -5  -5   4    0.22    0.15
   5   4  -4    4.86    0.43
  -5  -4   4    5.42    0.40
  -5  -4   4    5.60    0.39
  -5  -4   4    5.57    0.41
   5   3  -4    3.21    0.37
  -5  -3   4    3.10    0.36
  -5  -3   4    2.85    0.31
  -5  -3   4    3.91    0.35
   5   2  -4    0.37    0.17
   5   2  -4    0.03    0.14
  -5  -2   4    0.01    0.12
  -5  -2   4    0.29    0.13
   5   1  -4    0.80    0.15
   5   1  -4    0.40    0.19
   5   1  -4    0.98    0.21
  -5  -1   4    0.86    0.21
  -5  -1   4    0.76    0.21
  -5  -1   4    0.86    0.18
   5   0  -4    6.17    0.44
  -5   0   4    6.39    0.29
  -5   0   4    5.89    0.44
  -5   0   4    5.70    0.39
   5  -1  -4    1.92    0.29
   5  -1  -4    1.38    0.18
  -5   1   4    1.18    0.21
  -5   1   4    1.99    0.19
  -5   1   4    2.23    0.31
   5  -2  -4    1.13    0.24
  -5   2   4    1.10    0.17
  -5   2   4    0.91    0.23
   5  -3  -4    3.33    0.38
  -5   3   4    3.06    0.29
  -5   3   4    3.40    0.39
   5  -4  -4    5.42    0.49
  -5   4   4    6.15    0.36
  -5   4   4    6.20    0.55
   5  -5  -4    0.79    0.23
  -5   5   4    0.89    0.25
  -5   5   4    0.80    0.17
   5  -6  -4    0.36    0.21
   5  -7  -4    2.74    0.41
   5  -8  -4    0.09    0.16
   5  -8  -4   -0.03    0.20
   5  -9  -4   -0.13    0.18
   5  -9  -4    0.08    0.23
  -6  -9   2   -0.06    0.17
  -6  -9   2    0.12    0.17
  -6  -8   2    0.34    0.19
  -6  -8   2    0.51    0.20
  -6  -7   2    1.85    0.29
  -6  -7   2    2.00    0.28
  -6  -6   2    0.09    0.15
  -6  -6   2   -0.02    0.12
   6   5  -2    0.03    0.16
  -6  -5   2   -0.05    0.12
  -6  -5   2   -0.16    0.12
   6   4  -2    0.96    0.24
  -6  -4   2    0.64    0.18
  -6  -4   2    0.79    0.22
  -6  -4   2    0.92    0.19
   6   3  -2    0.13    0.15
   6   3  -2    0.12    0.14
  -6  -3   2    0.51    0.15
  -6  -3   2    0.26    0.15
   6   2  -2    3.02    0.36
   6   2  -2    2.81    0.25
   6   2  -2    2.37    0.30
  -6  -2   2    2.24    0.23
  -6  -2   2    3.23    0.32
  -6  -2   2    2.54    0.30
   6   1  -2   -0.06    0.12
   6   1  -2    0.11    0.10
   6   1  -2   -0.24    0.11
  -6  -1   2    0.14    0.12
  -6  -1   2    0.06    0.10
  -6  -1   2   -0.04    0.12
   6   0  -2    1.98    0.20
   6   0  -2    1.98    0.28
   6   0  -2    1.69    0.27
  -6   0   2    1.59    0.23
  -6   0   2    2.22    0.30
  -6   0   2    2.19    0.20
   6  -1  -2    2.74    0.34
   6  -1  -2    2.72    0.23
   6  -1  -2    2.92    0.34
  -6   1   2    3.17    0.26
  -6   1   2    3.03    0.34
   6  -2  -2    2.90    0.36
   6  -2  -2    3.60    0.24
   6  -2  -2    3.64    0.37
  -6   2   2    3.22    0.27
  -6   2   2    3.83    0.40
   6  -3  -2    2.53    0.32
   6  -3  -2    2.53    0.33
  -6   3   2    2.68    0.25
  -6   3   2    3.42    0.37
   6  -4  -2   -0.11    0.14
   6  -4  -2   -0.01    0.12
  -6   4   2   -0.07    0.10
  -6   4   2   -0.12    0.13
   6  -5  -2    0.05    0.14
   6  -5  -2   -0.04    0.12
   6  -6  -2    1.05    0.26
   6  -6  -2    1.22    0.21
   6  -7  -2    1.31    0.22
   6  -7  -2    1.80    0.27
   6  -7  -2    1.52    0.30
   6  -8  -2   -0.01    0.19
   6  -8  -2   -0.19    0.14
   6  -9  -2    0.34    0.22
   6  -9  -2   -0.05    0.17
  -7  -9   0    0.36    0.22
  -7  -9   0    0.20    0.19
  -7  -8   0    1.87    0.30
  -7  -8   0    1.17    0.27
  -7  -7   0    0.39    0.18
  -7  -7   0    0.52    0.21
  -7  -6   0    0.74    0.19
  -7  -6   0    1.02    0.24
   7   5   0    6.75    0.50
  -7  -5   0    6.94    0.46
  -7  -5   0    7.04    0.39
  -7  -5   0    7.84    0.51
   7   4   0   -0.07    0.15
  -7  -4   0   -0.05    0.10
  -7  -4   0   -0.03    0.14
   7   3   0    7.49    0.49
   7   3   0    8.00    0.40
   7   3   0    7.25    0.51
  -7  -3   0    6.97    0.44
  -7  -3   0    8.52    0.53
   7   2   0   -0.10    0.09
   7   2   0    0.04    0.16
   7   2   0    0.04    0.14
  -7  -2   0    0.24    0.12
  -7  -2   0    0.06    0.14
   7   1   0    4.09    0.39
   7   1   0    4.99    0.30
   7   1   0    4.78    0.46
  -7  -1   0    4.69    0.43
  -7  -1   0    4.89    0.34
  -7  -1   0    4.43    0.28
   7   0   0    3.42    0.40
   7   0   0    2.89    0.33
  -7   0   0    2.90    0.35
  -7   0   0    3.54    0.27
   7  -1   0    2.44    0.31
   7  -1   0    2.58    0.22
   7  -1   0    2.88    0.34
  -7   1   0    2.94    0.33
  -7   1   0    2.51    0.24
   7  -2   0    2.30    0.33
   7  -2   0    2.57    0.15
   7  -2   0    2.37    0.31
   7  -2   0    2.30    0.20
   7  -2   0    2.40    0.32
  -7   2   0    2.53    0.24
  -7   2   0    2.42    0.30
   7  -3   0    0.27    0.18
   7  -3   0    0.07    0.16
   7  -3   0    0.15    0.12
   7  -3   0    0.36    0.09
  -7   3   0    0.35    0.19
  -7   3   0    0.12    0.11
   7  -4   0    0.23    0.09
   7  -4   0    0.44    0.19
   7  -4   0   -0.05    0.16
   7  -4   0    0.23    0.16
   7  -5   0    6.53    0.33
   7  -5   0    7.59    0.49
   7  -5   0    5.50    0.49
   7  -6   0    0.09    0.11
   7  -6   0    0.12    0.17
   7  -6   0    0.18    0.18
   7  -7   0    0.47    0.19
   7  -7   0    0.58    0.23
   7  -7   0    0.39    0.18
   7  -8   0   -0.14    0.16
   7  -8   0   -0.01    0.16
   7  -9   0    0.94    0.28
   7  -9   0    1.18    0.30
  -8  -9  -2    0.28    0.23
  -8  -8  -2    0.03    0.20
  -8  -7  -2    1.25    0.32
   8   6   2    3.54    0.44
  -8  -6  -2    3.56    0.42
   8   5   2    1.92    0.33
  -8  -5  -2    2.19    0.32
   8   4   2    4.29    0.46
   8   4   2    3.68    0.45
  -8  -4  -2    5.07    0.46
   8   3   2    2.40    0.34
   8   3   2    2.98    0.38
  -8  -3  -2    2.29    0.32
   8   2   2    0.10    0.17
   8   2   2   -0.15    0.14
  -8  -2  -2    0.00    0.15
   8   1   2    7.53    0.54
   8   1   2    8.70    0.56
  -8  -1  -2    7.34    0.52
   8   0   2    0.64    0.22
   8   0   2    0.37    0.19
   8   0   2    0.80    0.14
  -8   0  -2    0.46    0.14
  -8   0  -2    0.39    0.20
   8  -1   2    0.20    0.18
   8  -1   2    0.13    0.08
   8  -1   2    0.18    0.17
  -8   1  -2    0.21    0.19
  -8   1  -2    0.04    0.11
   8  -2   2    0.70    0.22
   8  -2   2    0.62    0.22
  -8   2  -2    1.16    0.26
  -8   2  -2    0.93    0.19
   8  -3   2    0.96    0.24
   8  -3   2    0.89    0.24
   8  -3   2    1.04    0.26
   8  -4   2    3.74    0.41
   8  -4   2    2.98    0.35
   8  -4   2    1.97    0.31
   8  -5   2    0.58    0.21
   8  -5   2    0.33    0.20
   8  -5   2    0.43    0.18
   8  -6   2    0.15    0.18
   8  -6   2    0.00    0.17
   8  -7   2    1.08    0.26
   8  -7   2    1.11    0.28
   8  -8   2   -0.05    0.18
   8  -8   2    0.24    0.21
  -9  -8  -4    0.46    0.27
  -9  -8  -4    0.33    0.16
  -9  -7  -4    0.77    0.30
  -9  -6  -4   -0.25    0.21
  -9  -5  -4    0.98    0.27
   9   4   4   -0.16    0.18
  -9  -4  -4   -0.05    0.17
   9   3   4    1.13    0.30
   9   3   4    1.36    0.31
  -9  -3  -4    1.59    0.32
   9   2   4    5.07    0.51
   9   2   4    3.98    0.48
  -9  -2  -4    4.08    0.46
   9   1   4    1.35    0.29
   9   1   4    1.17    0.30
  -9  -1  -4    1.58    0.31
   9   0   4    1.97    0.34
   9   0   4    2.09    0.20
   9   0   4    2.85    0.41
  -9   0  -4    2.07    0.35
  -9   0  -4    2.73    0.30
   9  -1   4    3.85    0.44
   9  -1   4    4.52    0.50
   9  -2   4    3.33    0.42
   9  -2   4    3.72    0.46
   9  -3   4    1.27    0.30
   9  -3   4    1.33    0.30
   9  -4   4    0.74    0.25
   9  -4   4    0.17    0.18
   9  -5   4    0.21    0.20
   9  -5   4    0.23    0.19
   9  -6   4    0.33    0.21
   9  -6   4    0.50    0.24
   9  -6   4    0.16    0.20
   9  -7   4    0.06    0.20
   9  -7   4    0.29    0.23
 -10  -7  -6    1.41    0.33
  10   6   6    0.36    0.17
 -10  -6  -6    0.07    0.25
 -10  -5  -6    0.07    0.19
 -10  -4  -6    2.12    0.42
  10   3   6    0.04    0.19
  10   3   6    0.10    0.25
 -10  -3  -6    0.33    0.26
  10   2   6    0.09    0.19
  10   2   6   -0.10    0.19
  10   1   6    0.18    0.24
  10   1   6    0.13    0.20
  10   0   6    0.62    0.26
  10   0   6    0.70    0.24
  10  -1   6    0.32    0.22
  10  -1   6    0.49    0.25
  10  -2   6    0.48    0.24
  10  -2   6    0.48    0.25
  10  -3   6    0.64    0.25
  10  -3   6    0.87    0.30
  10  -4   6   -0.19    0.19
  10  -4   6    0.01    0.19
  10  -5   6    0.33    0.25
  11   3   8    0.29    0.27
  11   2   8    2.53    0.45
  11   2   8    2.27    0.46
  11   1   8   -0.13    0.25
  11   0   8    0.16    0.25
  -3  -4   9    0.49    0.20
  -3  -4   9    0.45    0.20
  -3  -3   9    1.30    0.28
  -3  -2   9    0.03    0.17
  -3  -1   9    0.38    0.22
  -3   0   9    0.68    0.23
  -3   1   9   -0.24    0.18
  -3   2   9    0.07    0.18
  -3   3   9    0.85    0.15
  -3   3   9    0.53    0.24
  -3   4   9    1.09    0.19
  -3   4   9    1.54    0.37
  -3   5   9    0.08    0.15
   3  -6  -9    0.54    0.32
  -3   6   9    0.60    0.20
  -4  -7   7    0.90    0.25
  -4  -7   7    0.65    0.22
  -4  -6   7    0.77    0.23
  -4  -6   7    0.52    0.20
  -4  -5   7    0.14    0.17
  -4  -5   7    0.31    0.19
  -4  -4   7    0.22    0.17
  -4  -4   7    0.03    0.14
  -4  -3   7    0.46    0.17
  -4  -3   7    1.22    0.25
  -4  -2   7   -0.19    0.11
  -4  -2   7    0.05    0.15
  -4  -1   7    0.37    0.18
  -4   0   7    0.82    0.23
  -4   1   7    0.42    0.19
   4  -2  -7    0.47    0.23
  -4   2   7    0.77    0.25
  -4   2   7    0.49    0.13
   4  -3  -7    1.80    0.33
  -4   3   7    1.88    0.35
  -4   3   7    1.24    0.20
   4  -4  -7    0.09    0.21
  -4   4   7   -0.25    0.10
  -4   4   7    0.08    0.19
   4  -5  -7    2.92    0.45
  -4   5   7    2.58    0.30
   4  -6  -7    0.27    0.22
   4  -7  -7    0.49    0.23
   4  -8  -7    0.03    0.19
   4  -8  -7    0.29    0.19
  -5  -8   5   -0.28    0.15
  -5  -8   5    0.32    0.18
  -5  -7   5    1.12    0.25
  -5  -7   5    1.35    0.28
  -5  -6   5   -0.12    0.14
  -5  -6   5    0.16    0.16
  -5  -5   5    0.38    0.19
  -5  -5   5    0.24    0.15
  -5  -4   5    3.09    0.35
  -5  -4   5    2.98    0.34
  -5  -3   5    3.87    0.37
  -5  -3   5    3.36    0.36
  -5  -2   5    2.95    0.35
  -5  -2   5    4.37    0.38
  -5  -1   5    0.35    0.14
  -5  -1   5    0.26    0.16
   5   0  -5    2.01    0.31
  -5   0   5    2.07    0.32
   5  -1  -5    5.16    0.48
  -5   1   5    4.19    0.42
  -5   1   5    3.97    0.26
   5  -2  -5    0.76    0.24
  -5   2   5    0.57    0.21
  -5   2   5    0.53    0.14
   5  -3  -5    0.03    0.19
  -5   3   5    0.18    0.12
  -5   3   5   -0.10    0.15
   5  -4  -5    0.52    0.21
  -5   4   5    0.10    0.12
  -5   4   5    0.15    0.20
   5  -5  -5    0.30    0.21
  -5   5   5   -0.01    0.12
   5  -6  -5    0.70    0.26
   5  -7  -5    0.15    0.22
   5  -8  -5    0.05    0.22
   5  -8  -5    0.20    0.17
  -6  -9   3    0.61    0.24
  -6  -9   3    0.42    0.21
  -6  -8   3    0.34    0.19
  -6  -8   3   -0.06    0.15
  -6  -7   3    0.61    0.20
  -6  -7   3    0.93    0.22
  -6  -6   3    0.34    0.18
  -6  -6   3    0.27    0.17
  -6  -5   3   -0.06    0.12
  -6  -5   3   -0.24    0.11
   6   4  -3    0.58    0.22
  -6  -4   3    0.31    0.18
  -6  -4   3    0.60    0.18
   6   3  -3    0.63    0.22
  -6  -3   3    0.75    0.20
  -6  -3   3    0.70    0.17
   6   2  -3    1.14    0.24
   6   2  -3    1.10    0.24
  -6  -2   3    0.89    0.22
  -6  -2   3    0.80    0.19
   6   1  -3    0.23    0.19
   6   1  -3    0.40    0.18
  -6  -1   3    0.17    0.16
  -6  -1   3    0.06    0.11
   6   0  -3    4.21    0.41
   6   0  -3    4.44    0.44
  -6   0   3    4.00    0.41
  -6   0   3    3.71    0.25
   6  -1  -3    5.38    0.50
   6  -1  -3    6.41    0.48
  -6   1   3    5.71    0.50
  -6   1   3    5.11    0.32
  -6   1   3    5.98    0.32
   6  -2  -3    0.44    0.19
  -6   2   3    0.67    0.23
  -6   2   3    0.82    0.16
  -6   2   3    0.60    0.15
   6  -3  -3    4.93    0.47
  -6   3   3    6.98    0.38
  -6   3   3    6.58    0.55
   6  -4  -3    1.99    0.32
  -6   4   3    1.25    0.21
  -6   4   3    1.69    0.32
   6  -5  -3    0.14    0.19
   6  -6  -3    2.34    0.38
   6  -7  -3    0.51    0.18
   6  -7  -3   -0.07    0.20
   6  -8  -3    0.49    0.25
   6  -8  -3    0.99    0.25
   6  -9  -3   -0.02    0.22
   6  -9  -3    0.01    0.19
  -7  -9   1    0.12    0.20
  -7  -9   1    0.51    0.24
  -7  -8   1    1.07    0.28
  -7  -8   1    1.16    0.27
  -7  -7   1    0.63    0.21
  -7  -7   1    0.83    0.24
  -7  -6   1    0.48    0.19
  -7  -6   1    0.23    0.16
   7   5  -1    1.05    0.27
  -7  -5   1    1.18    0.23
  -7  -5   1    1.55    0.28
   7   4  -1    6.72    0.50
  -7  -4   1    7.06    0.45
  -7  -4   1    6.40    0.49
   7   3  -1    0.12    0.18
  -7  -3   1    0.19    0.13
  -7  -3   1   -0.12    0.10
  -7  -3   1    0.12    0.16
   7   2  -1    2.56    0.36
   7   2  -1    2.36    0.31
  -7  -2   1    2.71    0.30
  -7  -2   1    2.40    0.33
   7   1  -1    1.15    0.25
   7   1  -1    0.74    0.21
  -7  -1   1    0.55    0.21
   7   0  -1    4.26    0.43
  -7   0   1    5.27    0.47
  -7   0   1    5.00    0.30
   7  -1  -1    0.20    0.16
   7  -1  -1   -0.04    0.16
  -7   1   1   -0.03    0.13
  -7   1   1    0.09    0.12
   7  -2  -1    1.22    0.26
   7  -2  -1    1.80    0.30
   7  -2  -1    1.71    0.18
  -7   2   1    1.50    0.28
  -7   2   1    1.85    0.22
   7  -3  -1    1.76    0.30
   7  -3  -1    1.39    0.28
  -7   3   1    1.53    0.29
  -7   3   1    1.85    0.23
   7  -4  -1    0.75    0.14
   7  -4  -1    0.61    0.20
   7  -5  -1    0.87    0.16
   7  -5  -1    1.10    0.27
   7  -6  -1   -0.04    0.19
   7  -6  -1    0.12    0.13
   7  -7  -1    0.40    0.16
   7  -7  -1    0.81    0.24
   7  -8  -1    0.37    0.22
   7  -9  -1   -0.09    0.18
  -8  -9  -1    0.10    0.22
  -8  -8  -1    1.05    0.28
  -8  -7  -1   -0.04    0.18
  -8  -6  -1    0.95    0.25
   8   5   1    1.15    0.29
  -8  -5  -1    0.96    0.25
   8   4   1    4.73    0.49
  -8  -4  -1    4.10    0.45
   8   3   1    0.28    0.20
   8   3   1    0.10    0.17
  -8  -3  -1    0.31    0.20
   8   2   1    0.26    0.20
   8   2   1    0.13    0.17
  -8  -2  -1    0.10    0.17
   8   1   1    2.28    0.37
   8   1   1    2.91    0.36
  -8  -1  -1    2.45    0.35
   8   0   1    4.56    0.45
   8   0   1    3.84    0.42
  -8   0  -1    3.95    0.43
  -8   0  -1    4.76    0.31
   8  -1   1    1.02    0.24
   8  -1   1    0.60    0.12
   8  -1   1    0.64    0.24
  -8   1  -1    0.83    0.17
  -8   1  -1    0.62    0.20
   8  -2   1   -0.01    0.16
   8  -2   1    0.09    0.08
   8  -2   1   -0.04    0.14
  -8   2  -1   -0.08    0.14
  -8   2  -1    0.18    0.14
   8  -3   1    0.59    0.22
   8  -3   1    0.76    0.24
   8  -4   1    5.79    0.54
   8  -4   1    6.93    0.58
   8  -5   1    0.22    0.18
   8  -5   1    0.14    0.18
   8  -6   1    0.69    0.26
   8  -7   1    1.13    0.28
   8  -8   1    0.07    0.20
  -9  -8  -3    1.33    0.34
  -9  -7  -3    0.60    0.18
  -9  -7  -3    0.23    0.20
  -9  -6  -3    1.52    0.35
   9   5   3    1.49    0.33
  -9  -5  -3    1.35    0.34
   9   4   3    1.03    0.29
  -9  -4  -3    1.50    0.32
   9   3   3    1.23    0.29
   9   3   3    1.45    0.30
  -9  -3  -3    1.63    0.33
   9   2   3    1.58    0.32
   9   2   3    1.18    0.28
  -9  -2  -3    1.26    0.30
   9   1   3    6.19    0.58
   9   1   3    6.82    0.62
  -9  -1  -3    7.34    0.62
   9   0   3    1.19    0.29
   9   0   3    0.30    0.21
  -9   0  -3    1.09    0.21
  -9   0  -3    0.92    0.26
   9  -1   3    2.32    0.37
   9  -1   3    2.07    0.18
   9  -1   3    1.23    0.31
  -9   1  -3    1.76    0.32
  -9   1  -3    1.85    0.25
   9  -2   3    0.54    0.24
   9  -2   3    0.16    0.19
   9  -3   3    1.30    0.30
   9  -3   3    1.27    0.28
   9  -4   3    0.20    0.19
   9  -4   3    0.15    0.18
   9  -5   3    0.18    0.20
   9  -5   3    0.47    0.21
   9  -6   3    0.11    0.21
   9  -7   3    0.11    0.21
 -10  -7  -5    0.35    0.26
 -10  -6  -5    0.50    0.31
  10   5   5    0.24    0.24
 -10  -5  -5   -0.06    0.21
  10   4   5    0.05    0.22
 -10  -4  -5    0.14    0.23
  10   3   5    0.60    0.27
  10   3   5    0.60    0.27
 -10  -3  -5    0.75    0.29
  10   2   5   -0.13    0.20
  10   2   5    0.07    0.24
 -10  -2  -5    0.20    0.22
  10   1   5    1.36    0.32
  10   1   5    1.25    0.31
  10   0   5   -0.17    0.19
  10   0   5    0.19    0.09
  10   0   5   -0.02    0.19
  10  -1   5    1.67    0.33
  10  -1   5    1.57    0.35
  10  -2   5    1.30    0.31
  10  -2   5    0.68    0.26
  10  -3   5    0.45    0.25
  10  -3   5    0.74    0.27
  10  -4   5    0.17    0.23
  10  -4   5    0.26    0.21
  10  -5   5    0.00    0.20
  11   4   7    0.81    0.35
  11   3   7    0.66    0.33
  11   2   7    0.74    0.33
  11   2   7    0.29    0.27
  11   1   7    0.08    0.24
  11   1   7   -0.01    0.24
  11   0   7    0.05    0.23
  11   0   7   -0.46    0.20
  11  -1   7   -0.29    0.21
  11  -2   7   -0.19    0.23
  -3  -1  10    0.28    0.22
  -3   0  10    0.62    0.28
  -3   1  10    0.38    0.24
  -3   2  10    0.17    0.26
  -3   3  10    0.07    0.20
  -4  -5   8    0.07    0.17
  -4  -5   8    0.06    0.18
  -4  -4   8    0.46    0.21
  -4  -4   8    0.40    0.20
  -4  -3   8    0.18    0.18
  -4  -2   8   -0.12    0.15
  -4  -1   8    0.14    0.17
  -4   0   8    0.38    0.22
  -4   1   8    0.67    0.25
  -4   2   8    0.36    0.18
  -4   2   8    0.34    0.11
  -4   3   8   -0.07    0.11
  -4   3   8    0.21    0.22
  -4   4   8    5.92    0.38
  -4   4   8    6.05    0.65
   4  -5  -8    0.51    0.27
  -4   5   8    0.52    0.19
   4  -6  -8    0.52    0.31
  -4   6   8    0.67    0.18
  -5  -7   6    0.88    0.25
  -5  -7   6    1.21    0.29
  -5  -6   6    1.10    0.25
  -5  -6   6    0.74    0.24
  -5  -5   6    0.08    0.16
  -5  -5   6    0.82    0.22
  -5  -4   6    0.19    0.16
  -5  -4   6    0.07    0.16
  -5  -3   6    1.87    0.29
  -5  -3   6    2.13    0.29
  -5  -2   6    0.16    0.18
  -5  -1   6    0.32    0.18
  -5   0   6    0.08    0.15
  -5   1   6    0.02    0.09
  -5   1   6   -0.18    0.15
   5  -2  -6    0.01    0.19
  -5   2   6    0.17    0.12
  -5   2   6   -0.09    0.17
   5  -3  -6    0.18    0.19
  -5   3   6    0.61    0.25
  -5   3   6    0.42    0.15
   5  -4  -6    0.47    0.25
  -5   4   6    0.10    0.19
  -5   4   6    0.16    0.14
   5  -5  -6   -0.09    0.21
  -5   5   6    0.14    0.15
   5  -6  -6    0.13    0.20
   5  -7  -6    0.09    0.18
  -6  -8   4    0.11    0.17
  -6  -8   4    0.09    0.18
  -6  -7   4    0.36    0.19
  -6  -7   4    0.45    0.21
  -6  -6   4    0.45    0.20
  -6  -6   4    0.38    0.20
  -6  -5   4    0.91    0.23
  -6  -5   4    0.60    0.22
  -6  -4   4    0.58    0.21
  -6  -4   4    0.46    0.19
   6   3  -4    5.48    0.50
  -6  -3   4    5.62    0.49
  -6  -3   4    5.72    0.48
   6   2  -4    1.97    0.31
  -6  -2   4    2.00    0.28
  -6  -2   4    1.71    0.29
   6   1  -4    1.93    0.32
  -6  -1   4    1.98    0.31
   6   0  -4    3.17    0.38
  -6   0   4    2.83    0.38
  -6   0   4    2.33    0.21
   6  -1  -4    6.40    0.55
  -6   1   4    5.80    0.53
  -6   1   4    6.51    0.34
   6  -2  -4    6.12    0.53
  -6   2   4    4.48    0.45
  -6   2   4    5.05    0.33
   6  -3  -4   -0.24    0.16
  -6   3   4    0.05    0.16
  -6   3   4    0.13    0.12
   6  -4  -4   -0.08    0.16
  -6   4   4   -0.03    0.16
  -6   4   4    0.08    0.12
   6  -5  -4    0.27    0.20
   6  -6  -4   -0.47    0.18
   6  -7  -4    0.73    0.30
   6  -8  -4    0.34    0.25
   6  -8  -4    0.25    0.19
   6  -8  -4    0.32    0.17
  -7  -8   2    0.36    0.22
  -7  -8   2    0.52    0.22
  -7  -7   2    0.60    0.21
  -7  -7   2    0.25    0.19
  -7  -6   2    0.44    0.22
  -7  -6   2    0.54    0.18
  -7  -5   2    2.30    0.31
  -7  -5   2    2.46    0.35
   7   4  -2    2.68    0.36
  -7  -4   2    2.26    0.32
  -7  -4   2    2.67    0.32
   7   3  -2    0.99    0.25
  -7  -3   2    0.61    0.18
  -7  -3   2    0.59    0.22
   7   2  -2    3.22    0.40
  -7  -2   2    2.81    0.36
   7   1  -2    0.18    0.18
   7   1  -2   -0.05    0.18
  -7  -1   2    0.14    0.13
  -7  -1   2    0.18    0.16
   7   0  -2    1.85    0.30
   7   0  -2    1.66    0.30
  -7   0   2    1.62    0.19
  -7   0   2    1.65    0.30
   7  -1  -2    0.79    0.24
   7  -1  -2    0.36    0.20
  -7   1   2    0.50    0.14
  -7   1   2    0.51    0.20
   7  -2  -2    0.45    0.22
   7  -2  -2    0.82    0.25
  -7   2   2    0.83    0.17
  -7   2   2    0.77    0.20
   7  -3  -2    0.28    0.20
  -7   3   2    0.26    0.14
  -7   3   2    0.40    0.21
   7  -4  -2    1.52    0.30
   7  -5  -2    1.78    0.33
   7  -6  -2    0.79    0.26
   7  -7  -2   -0.15    0.16
   7  -8  -2    0.07    0.19
  -8  -8   0    0.03    0.21
  -8  -7   0    0.51    0.23
  -8  -6   0    1.48    0.29
  -8  -5   0    1.71    0.32
   8   4   0   -0.05    0.16
  -8  -4   0   -0.10    0.11
  -8  -4   0    0.02    0.17
   8   3   0    2.88    0.41
  -8  -3   0    2.75    0.37
   8   2   0    0.29    0.19
   8   2   0    0.02    0.18
  -8  -2   0    0.38    0.23
   8   1   0    0.07    0.17
   8   1   0   -0.05    0.17
  -8  -1   0   -0.13    0.15
   8   0   0    2.76    0.38
   8   0   0    5.20    0.50
  -8   0   0    5.10    0.32
  -8   0   0    4.42    0.45
   8  -1   0   -0.13    0.15
   8  -1   0   -0.15    0.15
  -8   1   0   -0.07    0.11
  -8   1   0   -0.02    0.13
   8  -2   0    0.04    0.18
   8  -2   0   -0.01    0.15
   8  -2   0   -0.05    0.07
  -8   2   0   -0.05    0.17
  -8   2   0    0.03    0.12
   8  -3   0    2.33    0.35
   8  -3   0    2.34    0.36
   8  -4   0    1.65    0.33
   8  -4   0    1.76    0.33
   8  -5   0    1.51    0.30
   8  -6   0    0.12    0.22
   8  -7   0    0.51    0.25
   8  -8   0   -0.06    0.19
  -9  -8  -2    0.61    0.29
  -9  -7  -2    0.52    0.26
  -9  -6  -2    0.53    0.18
  -9  -6  -2    0.20    0.21
   9   5   2    0.06    0.21
  -9  -5  -2    0.02    0.19
   9   4   2    1.99    0.35
  -9  -4  -2    2.13    0.35
   9   3   2    1.08    0.30
  -9  -3  -2    1.86    0.33
   9   2   2    0.45    0.23
   9   2   2    0.26    0.21
  -9  -2  -2    0.23    0.20
   9   1   2    2.07    0.38
   9   1   2    2.38    0.36
  -9  -1  -2    1.76    0.34
   9   0   2    1.32    0.31
   9   0   2    1.77    0.32
  -9   0  -2    1.68    0.23
  -9   0  -2    1.77    0.33
   9  -1   2    2.43    0.38
   9  -1   2    1.88    0.35
  -9   1  -2    1.83    0.25
  -9   1  -2    2.97    0.39
   9  -2   2    0.33    0.22
   9  -2   2    0.15    0.19
   9  -3   2    0.12    0.18
   9  -3   2    0.01    0.17
   9  -4   2   -0.09    0.17
   9  -4   2    0.08    0.19
   9  -5   2    0.35    0.22
   9  -5   2    0.17    0.20
   9  -6   2    0.19    0.21
   9  -7   2    0.15    0.21
 -10  -7  -4    0.16    0.26
 -10  -6  -4    0.06    0.20
  10   5   4    1.24    0.34
 -10  -5  -4    1.10    0.29
  10   4   4    0.54    0.26
 -10  -4  -4    0.47    0.28
  10   3   4    0.09    0.24
 -10  -3  -4    0.37    0.24
  10   2   4    0.74    0.27
  10   2   4    0.95    0.29
 -10  -2  -4    1.26    0.32
  10   1   4    2.05    0.38
  10   1   4    1.72    0.37
 -10  -1  -4    1.90    0.37
  10   0   4    0.41    0.24
  10   0   4    0.15    0.20
  10  -1   4    0.24    0.24
  10  -1   4    0.49    0.24
  10  -2   4    0.42    0.25
  10  -2   4   -0.34    0.17
  10  -3   4    0.42    0.24
  10  -3   4    0.36    0.26
  10  -4   4    0.21    0.21
  10  -4   4   -0.13    0.22
  10  -5   4   -0.23    0.19
  11   4   6    0.12    0.26
 -11  -4  -6    0.51    0.28
  11   3   6    2.43    0.47
  11   2   6    0.01    0.26
  11   2   6    0.38    0.26
  11   1   6    0.62    0.31
  11   1   6    0.19    0.25
  11   0   6   -0.17    0.17
  11   0   6   -0.24    0.21
  11  -1   6    0.03    0.24
  11  -1   6    0.50    0.29
  11  -2   6    0.03    0.24
  -4  -2   9    0.08    0.20
  -4  -1   9    0.13    0.20
  -4   0   9    0.82    0.28
  -4   1   9    0.77    0.27
  -4   2   9    0.93    0.32
  -4   3   9    0.63    0.26
  -4   4   9    0.38    0.22
  -5  -5   7    0.03    0.16
  -5  -5   7    0.12    0.19
  -5  -4   7    0.20    0.19
  -5  -3   7    0.27    0.20
  -5  -2   7    0.05    0.15
  -5  -1   7    0.32    0.21
  -5   0   7    0.00    0.17
  -5   1   7    1.15    0.31
  -5   2   7   -0.09    0.15
  -5   2   7    0.28    0.12
  -5   3   7    0.29    0.22
  -5   3   7   -0.06    0.12
   5  -4  -7    0.05    0.23
  -5   4   7    0.11    0.24
  -5   4   7    0.14    0.14
   5  -5  -7    0.95    0.27
  -5   5   7    0.59    0.20
   5  -6  -7    0.07    0.22
  -6  -6   5    1.28    0.26
  -6  -6   5    0.84    0.25
  -6  -5   5   -0.03    0.15
  -6  -5   5    0.18    0.16
  -6  -4   5    0.08    0.18
  -6  -3   5    5.18    0.50
  -6  -2   5    2.29    0.36
  -6  -1   5    0.42    0.21
  -6   0   5    0.03    0.19
  -6   1   5    1.98    0.22
  -6   1   5    1.75    0.32
   6  -2  -5    0.01    0.19
  -6   2   5   -0.05    0.12
  -6   2   5    0.14    0.15
   6  -3  -5    0.06    0.23
  -6   3   5   -0.02    0.18
  -6   3   5   -0.07    0.12
   6  -4  -5    0.95    0.28
  -6   4   5    0.58    0.17
   6  -5  -5   -0.15    0.21
   6  -6  -5    0.19    0.26
   6  -7  -5    1.79    0.41
  -7  -7   3    0.43    0.21
  -7  -7   3    0.38    0.22
  -7  -6   3    0.12    0.17
  -7  -6   3   -0.23    0.15
  -7  -5   3    0.58    0.23
  -7  -4   3    0.88    0.24
   7   3  -3    0.62    0.23
  -7  -3   3    0.66    0.23
   7   2  -3   -0.09    0.17
  -7  -2   3    0.37    0.21
   7   1  -3    1.85    0.33
  -7  -1   3    2.88    0.39
   7   0  -3    0.41    0.21
   7   0  -3    0.01    0.17
  -7   0   3    0.29    0.12
  -7   0   3   -0.03    0.16
   7  -1  -3    1.98    0.36
   7  -1  -3    2.74    0.39
  -7   1   3    3.18    0.28
  -7   1   3    2.87    0.29
  -7   1   3    3.07    0.39
   7  -2  -3    0.21    0.19
  -7   2   3    0.41    0.15
  -7   2   3    0.18    0.21
  -7   2   3    0.20    0.14
   7  -3  -3    4.59    0.50
  -7   3   3    3.98    0.34
  -7   3   3    4.21    0.46
  -7   3   3    4.42    0.31
   7  -4  -3    0.47    0.22
  -7   4   3    0.51    0.17
  -7   4   3    0.45    0.15
   7  -5  -3   -0.20    0.18
   7  -6  -3    0.96    0.30
   7  -7  -3    0.12    0.24
  -8  -7   1    0.91    0.28
  -8  -6   1   -0.03    0.17
  -8  -5   1    0.88    0.26
   8   4  -1    2.17    0.37
  -8  -4   1    1.73    0.32
   8   3  -1    0.34    0.23
  -8  -3   1    0.24    0.16
  -8  -3   1    0.05    0.16
   8   2  -1   -0.07    0.18
  -8  -2   1    0.08    0.16
   8   1  -1    0.24    0.19
   8   1  -1    0.28    0.21
  -8  -1   1    0.23    0.17
   8   0  -1    2.92    0.39
   8   0  -1    2.44    0.37
  -8   0   1    3.79    0.42
  -8   0   1    3.15    0.28
   8  -1  -1    0.89    0.27
   8  -1  -1    0.56    0.23
  -8   1   1    1.01    0.28
  -8   1   1    0.83    0.18
   8  -2  -1    0.21    0.22
   8  -2  -1    0.30    0.20
  -8   2   1    0.21    0.14
  -8   2   1    0.28    0.16
   8  -3  -1    0.67    0.25
   8  -3  -1    0.96    0.27
  -8   3   1    1.02    0.21
   8  -4  -1    1.71    0.34
   8  -5  -1    3.79    0.48
   8  -6  -1   -0.24    0.19
   8  -7  -1    0.89    0.20
  -9  -7  -1    0.17    0.25
  -9  -6  -1    2.71    0.47
  -9  -5  -1    0.48    0.17
  -9  -5  -1    0.25    0.21
   9   4   1    1.11    0.31
  -9  -4  -1    1.39    0.31
   9   3   1    1.64    0.33
  -9  -3  -1    1.54    0.32
   9   2   1    0.65    0.26
   9   2   1    0.74    0.26
  -9  -2  -1    0.87    0.27
   9   1   1    0.33    0.22
   9   1   1    0.26    0.20
  -9  -1  -1   -0.08    0.20
   9   0   1    5.51    0.55
   9   0   1    5.89    0.55
  -9   0  -1    6.14    0.38
  -9   0  -1    5.39    0.54
   9  -1   1    0.19    0.20
   9  -1   1    0.44    0.23
  -9   1  -1   -0.03    0.15
  -9   1  -1   -0.03    0.14
   9  -2   1   -0.16    0.16
   9  -2   1   -0.04    0.17
  -9   2  -1   -0.02    0.13
   9  -3   1    0.38    0.22
   9  -3   1    0.57    0.25
   9  -4   1    2.97    0.43
   9  -4   1    2.92    0.41
   9  -5   1    0.27    0.24
   9  -6   1   -0.09    0.20
 -10  -6  -3    0.40    0.23
 -10  -5  -3    0.17    0.27
  10   4   3    0.03    0.26
 -10  -4  -3    0.22    0.21
  10   3   3    0.00    0.21
 -10  -3  -3    0.19    0.21
  10   2   3    0.52    0.26
  10   2   3    0.20    0.24
 -10  -2  -3    0.10    0.24
  10   1   3    0.71    0.30
  10   1   3    1.17    0.33
 -10  -1  -3    0.58    0.26
  10   0   3    0.87    0.31
  10   0   3    0.48    0.27
  10  -1   3    0.45    0.25
  10  -1   3    0.10    0.23
  10  -2   3    1.16    0.30
  10  -2   3    1.82    0.38
  10  -3   3    1.21    0.33
  10  -3   3    1.21    0.30
  10  -4   3    0.10    0.21
  10  -4   3    0.30    0.22
  10  -5   3   -0.02    0.21
  11   4   5    0.21    0.26
 -11  -4  -5    0.04    0.28
  11   3   5    1.59    0.41
 -11  -3  -5    1.37    0.42
  11   2   5    0.53    0.29
  11   2   5    0.71    0.29
  11   1   5    0.04    0.24
  11   1   5    0.44    0.30
  11   0   5    0.24    0.26
  11   0   5   -0.05    0.22
  11  -1   5    0.01    0.24
  11  -1   5   -0.21    0.21
  11  -2   5    0.06    0.26
  -5  -3   8    0.22    0.21
  -5  -2   8    0.81    0.26
  -5  -1   8    0.08    0.21
  -5   0   8   -0.11    0.20
  -5   1   8   -0.08    0.17
  -5   2   8    0.89    0.32
  -5   3   8    0.15    0.26
  -6  -5   6    0.10    0.19
  -6  -4   6    0.23    0.19
  -6  -3   6    1.80    0.32
  -6  -2   6    1.44    0.29
  -6  -1   6    0.02    0.19
  -6   0   6    0.26    0.23
  -6   1   6    1.60    0.30
  -6   1   6    1.35    0.17
  -6   2   6    0.08    0.21
  -6   2   6    0.43    0.15
  -6   3   6   -0.21    0.21
  -6   3   6    0.18    0.14
   6  -4  -6   -0.11    0.21
  -6   4   6   -0.12    0.14
   6  -5  -6    0.12    0.28
  -6   5   6    0.70    0.20
   6  -6  -6   -0.20    0.22
  -7  -6   4    0.48    0.25
  -7  -5   4    0.69    0.25
  -7  -4   4    0.43    0.22
  -7  -3   4    0.76    0.24
   7   2  -4   -0.03    0.20
  -7  -2   4    0.02    0.18
   7   1  -4    2.54    0.41
  -7  -1   4    1.67    0.31
  -7   0   4    0.07    0.18
  -7   1   4    0.20    0.20
  -7   1   4    0.32    0.14
   7  -2  -4   -0.17    0.18
  -7   2   4    0.01    0.22
  -7   2   4    0.30    0.14
   7  -3  -4    0.76    0.29
  -7   3   4    0.13    0.15
  -7   3   4    0.34    0.21
   7  -4  -4    0.29    0.21
  -7   4   4    0.19    0.16
   7  -5  -4   -0.04    0.21
   7  -6  -4    0.01    0.24
  -8  -7   2    0.36    0.23
  -8  -6   2    0.47    0.22
  -8  -5   2    0.57    0.24
  -8  -4   2    1.36    0.31
   8   3  -2    0.11    0.20
  -8  -3   2    0.15    0.19
   8   2  -2    3.02    0.44
  -8  -2   2    3.15    0.42
   8   1  -2    0.26    0.22
  -8  -1   2    0.06    0.13
  -8  -1   2   -0.05    0.17
   8   0  -2    1.54    0.33
   8   0  -2    1.71    0.34
  -8   0   2    1.21    0.22
  -8   0   2    1.32    0.31
  -8   0   2    1.17    0.19
   8  -1  -2    2.02    0.35
   8  -1  -2    1.92    0.36
  -8   1   2    2.33    0.26
  -8   1   2    2.37    0.36
   8  -2  -2    0.92    0.30
   8  -2  -2    1.11    0.31
  -8   2   2    1.19    0.28
  -8   2   2    0.72    0.18
   8  -3  -2    1.73    0.32
  -8   3   2    1.55    0.24
   8  -4  -2    0.51    0.27
   8  -5  -2    0.09    0.20
   8  -6  -2    1.70    0.38
  -9  -6   0    0.18    0.21
  -9  -5   0    1.37    0.33
  -9  -4   0    0.27    0.23
  -9  -4   0    0.34    0.17
   9   3   0    2.38    0.40
  -9  -3   0    1.81    0.35
   9   2   0    0.30    0.25
  -9  -2   0    1.12    0.28
   9   1   0    0.58    0.26
   9   1   0    0.11    0.21
  -9  -1   0    0.43    0.23
   9   0   0    1.77    0.34
   9   0   0    2.48    0.39
  -9   0   0    1.40    0.29
  -9   0   0    1.93    0.25
   9  -1   0    0.54    0.25
   9  -1   0    0.98    0.30
  -9   1   0    0.34    0.16
  -9   1   0    0.63    0.24
   9  -2   0    0.10    0.20
   9  -2   0   -0.22    0.18
  -9   2   0   -0.06    0.13
   9  -3   0    0.23    0.23
   9  -3   0    0.18    0.22
   9  -4   0    0.23    0.24
   9  -4   0    0.24    0.23
   9  -5   0    0.82    0.32
   9  -6   0    0.25    0.23
 -10  -6  -2    0.48    0.18
 -10  -6  -2   -0.18    0.23
 -10  -5  -2   -0.03    0.18
  10   4   2    0.50    0.27
 -10  -4  -2    0.81    0.28
  10   3   2   -0.04    0.21
 -10  -3  -2    0.02    0.20
  10   2   2    0.50    0.26
 -10  -2  -2    0.62    0.27
  10   1   2    1.86    0.36
  10   1   2    2.51    0.42
 -10  -1  -2    1.88    0.36
  10   0   2    0.39    0.27
  10   0   2    0.69    0.30
  10  -1   2    0.16    0.22
  10  -1   2    0.24    0.25
 -10   1  -2    0.19    0.16
  10  -2   2    1.06    0.32
  10  -2   2    1.23    0.32
  10  -3   2    0.56    0.25
  10  -3   2    0.81    0.30
  10  -4   2    0.54    0.29
  10  -4   2    0.22    0.24
  10  -5   2   -0.07    0.21
  11   4   4   -0.27    0.22
 -11  -4  -4   -0.15    0.22
  11   3   4    0.60    0.30
 -11  -3  -4    0.55    0.30
  11   2   4    0.73    0.30
  11   1   4    0.17    0.25
  11   1   4   -0.26    0.22
  11   0   4   -0.08    0.25
  11   0   4    0.34    0.28
  11  -1   4    0.09    0.24
  11  -1   4   -0.03    0.25
  11  -2   4   -0.05    0.26
  -6  -2   7    1.69    0.34
  -6  -1   7    0.13    0.22
  -6   0   7    0.00    0.23
  -6   1   7   -0.16    0.16
  -6   2   7    0.86    0.33
  -6   3   7   -0.15    0.21
  -7  -4   5   -0.04    0.19
  -7  -3   5   -0.03    0.19
  -7  -2   5   -0.17    0.18
  -7  -1   5    0.14    0.19
  -7   0   5    0.30    0.23
  -7   1   5    0.48    0.29
  -7   1   5    0.12    0.12
  -7   2   5    1.49    0.22
  -7   2   5    1.96    0.37
   7  -3  -5    0.12    0.29
  -7   3   5    0.23    0.15
   7  -4  -5    1.31    0.33
  -7   4   5    0.69    0.21
   7  -5  -5   -0.06    0.25
  -8  -5   3    0.46    0.24
  -8  -4   3    1.34    0.31
  -8  -3   3    2.40    0.39
   8   2  -3   -0.32    0.18
  -8  -2   3    0.10    0.19
   8   1  -3    1.12    0.32
  -8  -1   3    1.06    0.28
   8   0  -3    0.66    0.27
  -8   0   3    0.55    0.24
   8  -1  -3    1.34    0.33
  -8   1   3    1.95    0.38
  -8   1   3    2.08    0.24
   8  -2  -3    0.14    0.24
  -8   2   3    0.06    0.13
  -8   2   3    0.27    0.20
  -8   2   3    0.49    0.16
   8  -3  -3   -0.15    0.18
  -8   3   3    0.12    0.14
  -8   3   3    0.05    0.14
   8  -4  -3    0.41    0.24
  -8   4   3    0.11    0.15
   8  -5  -3   -0.07    0.21
  -8   5   3    0.01    0.14
  -9  -5   1    0.92    0.29
  -9  -4   1    0.06    0.22
   9   3  -1    1.25    0.33
  -9  -3   1    1.51    0.25
  -9  -3   1    1.47    0.32
   9   2  -1    0.03    0.21
  -9  -2   1   -0.15    0.14
  -9  -2   1    0.05    0.18
   9   1  -1   -0.05    0.21
  -9  -1   1   -0.17    0.18
   9   0  -1    0.49    0.25
  -9   0   1    1.37    0.34
  -9   0   1    0.47    0.17
   9  -1  -1    1.89    0.38
   9  -1  -1    2.16    0.40
  -9   1   1    2.32    0.27
  -9   1   1    1.94    0.40
   9  -2  -1    0.39    0.25
   9  -2  -1    0.42    0.25
  -9   2   1    0.03    0.14
   9  -3  -1    0.16    0.23
   9  -3  -1   -0.41    0.17
   9  -4  -1    0.57    0.26
   9  -5  -1    1.95    0.38
 -10  -5  -1    0.34    0.18
 -10  -5  -1    0.22    0.23
 -10  -4  -1    0.62    0.27
  10   3   1    0.20    0.24
 -10  -3  -1    0.13    0.24
  10   2   1    0.65    0.31
 -10  -2  -1    0.04    0.22
  10   1   1    0.39    0.26
 -10  -1  -1    0.74    0.29
  10   0   1    1.28    0.33
  10   0   1    1.02    0.31
  10  -1   1   -0.03    0.22
  10  -1   1   -0.10    0.21
 -10   1  -1    0.23    0.17
  10  -2   1    1.06    0.33
  10  -2   1    0.92    0.32
  10  -3   1    0.32    0.21
  10  -3   1    0.64    0.28
  10  -4   1    0.18    0.26
  11   3   3   -0.12    0.25
 -11  -3  -3    0.42    0.26
  11   2   3    0.01    0.26
  11   1   3    0.02    0.23
  11   0   3   -0.05    0.25
  11   0   3    0.60    0.32
  11  -1   3    0.03    0.22
  11  -1   3   -0.10    0.26
  11  -2   3    0.28    0.29
  -7  -2   6    1.14    0.32
  -7  -1   6    0.38    0.25
  -7   0   6    0.85    0.28
  -7   1   6   -0.19    0.21
  -7   2   6    1.22    0.34
  -8  -4   4    0.59    0.25
  -8  -3   4    0.65    0.27
  -8  -2   4    0.23    0.20
  -8  -1   4    0.46    0.23
  -8   0   4    0.26    0.19
  -8   1   4    0.10    0.21
  -8   1   4    0.16    0.15
  -8   2   4    0.28    0.15
  -8   2   4    0.00    0.24
   8  -3  -4    0.02    0.29
  -8   3   4    0.08    0.15
   8  -4  -4    0.33    0.25
  -8   4   4    0.06    0.16
  -9  -4   2    1.93    0.37
  -9  -3   2    0.06    0.19
   9   2  -2    1.14    0.31
  -9  -2   2    0.98    0.32
   9   1  -2   -0.15    0.21
  -9  -1   2   -0.20    0.15
   9   0  -2   -0.31    0.19
  -9   0   2    0.11    0.21
  -9   0   2   -0.18    0.13
   9  -1  -2    1.78    0.37
  -9   1   2    2.48    0.28
  -9   1   2    2.36    0.30
  -9   1   2    2.06    0.38
   9  -2  -2    0.01    0.25
   9  -2  -2   -0.08    0.23
  -9   2   2   -0.12    0.14
   9  -3  -2    0.30    0.26
  -9   3   2   -0.05    0.15
   9  -4  -2    0.57    0.31
 -10  -4   0    0.10    0.17
 -10  -4   0    0.03    0.22
 -10  -3   0    0.39    0.20
 -10  -3   0    0.00    0.22
  10   2   0    0.27    0.25
 -10  -2   0    0.37    0.26
  10   1   0    0.30    0.26
 -10  -1   0    0.63    0.29
  10   0   0    1.54    0.36
 -10   0   0    1.12    0.30
  10  -1   0    0.89    0.33
  10  -1   0    0.76    0.29
 -10   1   0    0.28    0.18
  10  -2   0    0.87    0.33
  10  -2   0    0.42    0.28
  10  -3   0    0.43    0.25
  11   2   2    0.24    0.30
 -11  -2  -2    0.28    0.26
  11   1   2   -0.05    0.25
  11   0   2    0.28    0.27
  -9  -2   3   -0.01    0.22
   9   1  -3    0.20    0.26
  -9  -1   3   -0.01    0.21
   9   0  -3    0.28    0.28
  -9   0   3    0.18    0.19
  -9   1   3    0.09    0.19
  10   2  -1    0.45    0.30
 -10  -2   1    1.03    0.31
  10   1  -1    0.17    0.27
 -10  -1   1    0.15    0.17
 -10  -1   1    0.34    0.26
  10   0  -1    0.46    0.27
  10  -1  -1    1.83    0.39
   0   0   0    0.00    0.00
;
_shelx_hkl_checksum              32656
_shelx_res_file
;
TITL sz55cg
CELL  0.71073    8.4211    9.5379    9.7491    83.531    66.048    85.922
ZERR     1    0.0011    0.0012    0.0012    0.0060    0.0040    0.0060
LATT   1
SFAC  C  H  N  ZN
UNIT    28   20  18   1
OMIT -2     65.00
TEMP    23.0
SIZE      0.25     0.20     0.12
ACTA
PLAN   30
BOND $H
CONF
HTAB
L.S.     10
OMIT 1 0 0
OMIT 0 1 0
OMIT 0 0 1
OMIT 1 0 1
MPLA N31 C32 C33 C34 C35 C36
MPLA N1 N2 C3 N4 C5
MPLA N51 C52 C53 C54 C55 C56
WGHT    0.058300    0.189600
FVAR       0.17117
ZN1   4    0.500000    0.500000    0.500000    10.50000    0.04104    0.04110 =
         0.04357   -0.00485   -0.02016   -0.00772
N1    3    0.495948    0.709949    0.416899    11.00000    0.03852    0.04418 =
         0.04147   -0.00547   -0.01918   -0.00719
N2    3    0.404022    0.788686    0.346133    11.00000    0.03738    0.04289 =
         0.04354   -0.00381   -0.01809   -0.00571
C3    1    0.482105    0.910542    0.296476    11.00000    0.03326    0.04121 =
         0.03507   -0.01123   -0.00972   -0.00295
N4    3    0.621311    0.911078    0.334561    11.00000    0.02971    0.03939 =
         0.03931   -0.01142   -0.01015   -0.00471
C5    1    0.625341    0.783876    0.410997    11.00000    0.03202    0.04090 =
         0.03419   -0.01105   -0.00967   -0.00468
N31   3    0.502122    1.147824    0.178662    11.00000    0.04284    0.04016 =
         0.05209   -0.01213   -0.01363   -0.00032
C32   1    0.423570    1.023803    0.210620    11.00000    0.03532    0.04115 =
         0.03566   -0.01227   -0.00739    0.00150
C33   1    0.293947    0.995822    0.164835    11.00000    0.04104    0.04360 =
         0.04420   -0.00917   -0.01477   -0.00013
AFIX  43
H33   2    0.241916    0.908444    0.190956    11.00000   -1.20000
AFIX   0
C34   1    0.244207    1.100578    0.079770    11.00000    0.05096    0.05398 =
         0.04795   -0.01290   -0.02084    0.00807
AFIX  43
H34   2    0.158175    1.085292    0.046736    11.00000   -1.20000
AFIX   0
C35   1    0.324588    1.228540    0.044620    11.00000    0.05759    0.04803 =
         0.05534   -0.00597   -0.01928    0.01335
AFIX  43
H35   2    0.293862    1.301027   -0.012941    11.00000   -1.20000
AFIX   0
C36   1    0.450820    1.247546    0.095824    11.00000    0.05382    0.03652 =
         0.06541   -0.00654   -0.01434    0.00110
AFIX  43
H36   2    0.503581    1.334551    0.071584    11.00000   -1.20000
AFIX   0
N41   3    0.744454    1.018204    0.300609    11.00000    0.04107    0.04282 =
         0.06054   -0.00522   -0.01854   -0.01297
AFIX   3
H41A  2    0.698762    1.097190    0.260540    11.00000   -1.20000
H41B  2    0.840262    0.986190    0.218742    11.00000   -1.20000
AFIX   0
N51   3    0.697134    0.593046    0.550296    11.00000    0.03494    0.04611 =
         0.03594   -0.01388   -0.01480    0.00056
C52   1    0.739001    0.725539    0.485843    11.00000    0.03184    0.04670 =
         0.03284   -0.01524   -0.00963   -0.00204
C53   1    0.870539    0.796710    0.497558    11.00000    0.03824    0.05668 =
         0.04393   -0.01615   -0.01298   -0.00969
AFIX  43
H53   2    0.899515    0.887116    0.450218    11.00000   -1.20000
AFIX   0
C54   1    0.957468    0.729632    0.581528    11.00000    0.03621    0.07551 =
         0.04824   -0.01986   -0.01974   -0.00498
AFIX  43
H54   2    1.046901    0.774418    0.590491    11.00000   -1.20000
AFIX   0
C55   1    0.911084    0.596894    0.651388    11.00000    0.04288    0.06990 =
         0.04697   -0.01622   -0.02328    0.00550
AFIX  43
H55   2    0.965807    0.551787    0.710771    11.00000   -1.20000
AFIX   0
C56   1    0.781258    0.531262    0.631878    11.00000    0.04236    0.05549 =
         0.04249   -0.01300   -0.01840    0.00309
AFIX  43
H56   2    0.751595    0.440421    0.677548    11.00000   -1.20000
AFIX   0
N11   3    0.164323    0.592132    0.990198    11.00000    0.10238    0.05819 =
         0.04923   -0.00252   -0.01620    0.00678
C12   1    0.231080    0.577885    0.845067    11.00000    0.03803    0.04448 =
         0.05114   -0.01002   -0.01125   -0.00672
N13   3    0.301704    0.546360    0.725259    11.00000    0.04516    0.05917 =
         0.04545   -0.01318   -0.01320   -0.00559
C14   1    0.080222    0.710388    1.042307    11.00000    0.04243    0.05455 =
         0.04338   -0.00854   -0.01208   -0.00740
N15   3    0.010036    0.801706    1.107103    11.00000    0.05988    0.07702 =
         0.06448   -0.02964   -0.02401    0.01245
HKLF 4
REM  sz55cg
REM R1 =  0.0445 for    2731 Fo > 4sig(Fo)  and  0.0695 for all    3716 data
REM    214 parameters refined using      0 restraints
END
WGHT      0.0583      0.1896
REM Instructions for potential hydrogen bonds
EQIV $1 x, y, z-1
HTAB C33 N15_$1
HTAB N41 N31
EQIV $2 x+1, y, z-1
HTAB N41 N15_$2
HTAB C53 N41
REM Highest difference peak  0.718,  deepest hole -0.331,  1-sigma level  0.059
Q1    1   0.1065  0.7100  0.8716  11.00000  0.05    0.72
Q2    1   0.2130  0.6321  0.7834  11.00000  0.05    0.40
Q3    1   0.4554  0.9572  0.2432  11.00000  0.05    0.33
Q4    1   0.0653  0.6072  0.9595  11.00000  0.05    0.33
Q5    1   0.7288  0.6557  0.5028  11.00000  0.05    0.25
Q6    1   0.0068  0.7192  1.1399  11.00000  0.05    0.23
Q7    1   0.7221  0.5811  0.6048  11.00000  0.05    0.23
Q8    1   0.5408  0.9286  0.3196  11.00000  0.05    0.21
Q9    1   0.6863  0.7543  0.4359  11.00000  0.05    0.21
Q10   1   0.5487  1.1630  0.2264  11.00000  0.05    0.20
Q11   1   0.4518  1.1978  0.1613  11.00000  0.05    0.20
Q12   1   0.4742  0.7219  0.3483  11.00000  0.05    0.20
Q13   1   0.5928  0.7373  0.3800  11.00000  0.05    0.20
Q14   1   0.3472  1.0262  0.2216  11.00000  0.05    0.19
Q15   1   0.0556  0.7985  1.0213  11.00000  0.05    0.19
Q16   1   0.4536  0.6533  0.4992  11.00000  0.05    0.19
Q17   1   0.3368  0.4873  0.7803  11.00000  0.05    0.19
Q18   1   0.2246  1.0368  0.1750  11.00000  0.05    0.18
Q19   1   0.4677  1.0614  0.1750  11.00000  0.05    0.18
Q20   1   0.2495  1.1566  0.1435  11.00000  0.05    0.18
Q21   1   0.3220  0.4853  0.6399  11.00000  0.05    0.18
Q22   1   0.2400  0.5285  0.8341  11.00000  0.05    0.18
Q23   1   0.5703  1.1179  0.1247  11.00000  0.05    0.18
Q24   1   0.7016  0.9819  0.3771  11.00000  0.05    0.17
Q25   1   0.4293  0.6193  0.4028  11.00000  0.05    0.17
Q26   1  -0.0625  0.7453  1.0958  11.00000  0.05    0.17
Q27   1   0.8833  0.9141  0.4317  11.00000  0.05    0.17
Q28   1   0.3434  1.1425  0.0464  11.00000  0.05    0.17
Q29   1   0.3138  0.5977  0.6937  11.00000  0.05    0.17
Q30   1   0.8134  0.9888  0.3194  11.00000  0.05    0.17
;
_shelx_res_checksum              53782
_shelxl_version_number           2.014
loop_
_space_group_symop_operation_xyz
'x, y, z'
'-x, -y, -z'
loop_
_atom_site_type_symbol
_atom_site_label
_atom_site_fract_x
_atom_site_fract_y
_atom_site_fract_z
_atom_site_U_iso_or_equiv
_atom_site_adp_type
_atom_site_calc_flag
_atom_site_occupancy
Zn Zn1 0.5000 0.5000 0.5000 0.04045(15) Uani d 1
N N1 0.4959(2) 0.7099(2) 0.4169(2) 0.0399(4) Uani d 1
N N2 0.4040(2) 0.7887(2) 0.3461(2) 0.0404(4) Uani d 1
C C3 0.4821(3) 0.9105(2) 0.2965(2) 0.0371(5) Uani d 1
N N4 0.6213(2) 0.91108(19) 0.3346(2) 0.0365(4) Uani d 1
C C5 0.6253(3) 0.7839(2) 0.4110(2) 0.0361(5) Uani d 1
N N31 0.5021(3) 1.1478(2) 0.1787(2) 0.0462(5) Uani d 1
C C32 0.4236(3) 1.0238(2) 0.2106(3) 0.0390(5) Uani d 1
C C33 0.2939(3) 0.9958(3) 0.1648(3) 0.0433(5) Uani d 1
H H33 0.2419 0.9084 0.1910 0.052 Uiso calc 1
C C34 0.2442(3) 1.1006(3) 0.0798(3) 0.0505(6) Uani d 1
H H34 0.1582 1.0853 0.0467 0.061 Uiso calc 1
C C35 0.3246(4) 1.2285(3) 0.0446(3) 0.0554(7) Uani d 1
H H35 0.2939 1.3010 -0.0129 0.067 Uiso calc 1
C C36 0.4508(4) 1.2475(3) 0.0958(3) 0.0550(7) Uani d 1
H H36 0.5036 1.3346 0.0716 0.066 Uiso calc 1
N N41 0.7445(3) 1.0182(2) 0.3006(2) 0.0481(5) Uani d 1
H H41A 0.6988 1.0972 0.2605 0.058 Uiso d 1
H H41B 0.8403 0.9862 0.2187 0.058 Uiso d 1
N N51 0.6971(2) 0.5930(2) 0.5503(2) 0.0381(4) Uani d 1
C C52 0.7390(3) 0.7255(2) 0.4858(2) 0.0372(5) Uani d 1
C C53 0.8705(3) 0.7967(3) 0.4976(3) 0.0460(6) Uani d 1
H H53 0.8995 0.8871 0.4502 0.055 Uiso calc 1
C C54 0.9575(3) 0.7296(3) 0.5815(3) 0.0511(6) Uani d 1
H H54 1.0469 0.7744 0.5905 0.061 Uiso calc 1
C C55 0.9111(3) 0.5969(3) 0.6514(3) 0.0510(6) Uani d 1
H H55 0.9658 0.5518 0.7108 0.061 Uiso calc 1
C C56 0.7813(3) 0.5313(3) 0.6319(3) 0.0459(6) Uani d 1
H H56 0.7516 0.4404 0.6775 0.055 Uiso calc 1
N N11 0.1643(4) 0.5921(3) 0.9902(3) 0.0752(8) Uani d 1
C C12 0.2311(3) 0.5779(3) 0.8451(3) 0.0460(6) Uani d 1
N N13 0.3017(3) 0.5464(2) 0.7253(2) 0.0506(5) Uani d 1
C C14 0.0802(3) 0.7104(3) 1.0423(3) 0.0478(6) Uani d 1
N N15 0.0100(3) 0.8017(3) 1.1071(3) 0.0663(7) Uani d 1
loop_
_atom_site_aniso_label
_atom_site_aniso_U_11
_atom_site_aniso_U_22
_atom_site_aniso_U_33
_atom_site_aniso_U_12
_atom_site_aniso_U_13
_atom_site_aniso_U_23
Zn1 0.0410(2) 0.0411(2) 0.0436(2) -0.00772(15) -0.02016(18) -0.00485(16)
N1 0.0385(10) 0.0442(11) 0.0415(11) -0.0072(8) -0.0192(9) -0.0055(8)
N2 0.0374(10) 0.0429(10) 0.0435(11) -0.0057(8) -0.0181(9) -0.0038(8)
C3 0.0333(11) 0.0412(12) 0.0351(11) -0.0029(9) -0.0097(9) -0.0112(9)
N4 0.0297(9) 0.0394(10) 0.0393(10) -0.0047(7) -0.0102(8) -0.0114(8)
C5 0.0320(11) 0.0409(12) 0.0342(11) -0.0047(9) -0.0097(9) -0.0110(9)
N31 0.0428(11) 0.0402(11) 0.0521(12) -0.0003(8) -0.0136(10) -0.0121(9)
C32 0.0353(12) 0.0411(12) 0.0357(12) 0.0015(9) -0.0074(10) -0.0123(9)
C33 0.0410(13) 0.0436(13) 0.0442(13) -0.0001(10) -0.0148(11) -0.0092(10)
C34 0.0510(15) 0.0540(15) 0.0480(14) 0.0081(12) -0.0208(12) -0.0129(12)
C35 0.0576(16) 0.0480(15) 0.0553(16) 0.0134(12) -0.0193(14) -0.0060(12)
C36 0.0538(16) 0.0365(12) 0.0654(17) 0.0011(11) -0.0143(14) -0.0065(12)
N41 0.0411(11) 0.0428(11) 0.0605(13) -0.0130(9) -0.0185(10) -0.0052(10)
N51 0.0349(10) 0.0461(10) 0.0359(10) 0.0006(8) -0.0148(8) -0.0139(8)
C52 0.0318(11) 0.0467(12) 0.0328(11) -0.0020(9) -0.0096(9) -0.0152(9)
C53 0.0382(13) 0.0567(15) 0.0439(13) -0.0097(11) -0.0130(11) -0.0161(11)
C54 0.0362(13) 0.0755(18) 0.0482(15) -0.0050(12) -0.0197(11) -0.0199(13)
C55 0.0429(14) 0.0699(18) 0.0470(14) 0.0055(12) -0.0233(12) -0.0162(13)
C56 0.0424(13) 0.0555(15) 0.0425(13) 0.0031(11) -0.0184(11) -0.0130(11)
N11 0.102(2) 0.0582(15) 0.0492(14) 0.0068(14) -0.0162(14) -0.0025(12)
C12 0.0380(13) 0.0445(13) 0.0511(16) -0.0067(10) -0.0112(12) -0.0100(11)
N13 0.0452(12) 0.0592(13) 0.0454(13) -0.0056(10) -0.0132(10) -0.0132(10)
C14 0.0424(13) 0.0546(15) 0.0434(14) -0.0074(11) -0.0121(11) -0.0085(12)
N15 0.0599(15) 0.0770(17) 0.0645(16) 0.0124(13) -0.0240(13) -0.0296(14)
loop_
_atom_type_symbol
_atom_type_description
_atom_type_scat_dispersion_real
_atom_type_scat_dispersion_imag
_atom_type_scat_source
C C 0.0033 0.0016 'International Tables Vol C Tables 4.2.6.8 and 6.1.1.4'
H H 0.0000 0.0000 'International Tables Vol C Tables 4.2.6.8 and 6.1.1.4'
N N 0.0061 0.0033 'International Tables Vol C Tables 4.2.6.8 and 6.1.1.4'
Zn Zn 0.2839 1.4301 'International Tables Vol C Tables 4.2.6.8 and 6.1.1.4'
loop_
_geom_angle_atom_site_label_1
_geom_angle_atom_site_label_2
_geom_angle_atom_site_label_3
_geom_angle_site_symmetry_1
_geom_angle_site_symmetry_3
_geom_angle
N1 Zn1 N1 2_666 . 180.00(12)
N1 Zn1 N51 2_666 . 103.20(7)
N1 Zn1 N51 . . 76.80(7)
N1 Zn1 N51 2_666 2_666 76.80(7)
N1 Zn1 N51 . 2_666 103.20(7)
N51 Zn1 N51 . 2_666 180.0
N1 Zn1 N13 2_666 2_666 91.26(8)
N1 Zn1 N13 . 2_666 88.74(8)
N51 Zn1 N13 . 2_666 90.42(7)
N51 Zn1 N13 2_666 2_666 89.58(7)
N1 Zn1 N13 2_666 . 88.74(8)
N1 Zn1 N13 . . 91.26(8)
N51 Zn1 N13 . . 89.58(7)
N51 Zn1 N13 2_666 . 90.42(7)
N13 Zn1 N13 2_666 . 180.0
C5 N1 N2 . . 109.48(19)
C5 N1 Zn1 . . 114.61(16)
N2 N1 Zn1 . . 135.19(15)
C3 N2 N1 . . 106.26(18)
N2 C3 N4 . . 109.8(2)
N2 C3 C32 . . 122.8(2)
N4 C3 C32 . . 127.4(2)
C5 N4 C3 . . 106.25(18)
C5 N4 N41 . . 124.68(19)
C3 N4 N41 . . 129.1(2)
N1 C5 N4 . . 108.2(2)
N1 C5 C52 . . 120.3(2)
N4 C5 C52 . . 131.5(2)
C32 N31 C36 . . 116.3(2)
N31 C32 C33 . . 123.8(2)
N31 C32 C3 . . 117.5(2)
C33 C32 C3 . . 118.7(2)
C34 C33 C32 . . 118.4(2)
C34 C33 H33 . . 120.8
C32 C33 H33 . . 120.8
C33 C34 C35 . . 118.6(3)
C33 C34 H34 . . 120.7
C35 C34 H34 . . 120.7
C36 C35 C34 . . 119.1(3)
C36 C35 H35 . . 120.5
C34 C35 H35 . . 120.5
N31 C36 C35 . . 123.7(2)
N31 C36 H36 . . 118.1
C35 C36 H36 . . 118.1
N4 N41 H41A . . 104.8
N4 N41 H41B . . 103.0
H41A N41 H41B . . 105.5
C56 N51 C52 . . 118.5(2)
C56 N51 Zn1 . . 126.87(17)
C52 N51 Zn1 . . 114.59(15)
N51 C52 C53 . . 122.1(2)
N51 C52 C5 . . 112.19(19)
C53 C52 C5 . . 125.7(2)
C54 C53 C52 . . 118.3(2)
C54 C53 H53 . . 120.9
C52 C53 H53 . . 120.9
C55 C54 C53 . . 119.7(2)
C55 C54 H54 . . 120.2
C53 C54 H54 . . 120.2
C54 C55 C56 . . 118.8(2)
C54 C55 H55 . . 120.6
C56 C55 H55 . . 120.6
N51 C56 C55 . . 122.6(2)
N51 C56 H56 . . 118.7
C55 C56 H56 . . 118.7
C12 N11 C14 . . 120.5(3)
N13 C12 N11 . . 168.9(3)
C12 N13 Zn1 . . 165.0(2)
N15 C14 N11 . . 169.1(3)
loop_
_geom_bond_atom_site_label_1
_geom_bond_atom_site_label_2
_geom_bond_site_symmetry_2
_geom_bond_distance
Zn1 N1 2_666 2.0771(19)
Zn1 N1 . 2.0772(19)
Zn1 N51 . 2.1800(19)
Zn1 N51 2_666 2.1800(19)
Zn1 N13 2_666 2.223(2)
Zn1 N13 . 2.223(2)
N1 C5 . 1.318(3)
N1 N2 . 1.369(3)
N2 C3 . 1.319(3)
C3 N4 . 1.366(3)
C3 C32 . 1.472(3)
N4 C5 . 1.356(3)
N4 N41 . 1.423(3)
C5 C52 . 1.469(3)
N31 C32 . 1.340(3)
N31 C36 . 1.340(3)
C32 C33 . 1.388(3)
C33 C34 . 1.377(4)
C33 H33 . 0.9300
C34 C35 . 1.378(4)
C34 H34 . 0.9300
C35 C36 . 1.375(4)
C35 H35 . 0.9300
C36 H36 . 0.9300
N41 H41A . 0.9395
N41 H41B . 0.9371
N51 C56 . 1.332(3)
N51 C52 . 1.349(3)
C52 C53 . 1.389(3)
C53 C54 . 1.385(4)
C53 H53 . 0.9300
C54 C55 . 1.371(4)
C54 H54 . 0.9300
C55 C56 . 1.384(4)
C55 H55 . 0.9300
C56 H56 . 0.9300
N11 C12 . 1.313(4)
N11 C14 . 1.325(4)
C12 N13 . 1.139(3)
C14 N15 . 1.120(3)
loop_
_geom_hbond_atom_site_label_D
_geom_hbond_atom_site_label_H
_geom_hbond_atom_site_label_A
_geom_hbond_site_symmetry_A
_geom_hbond_distance_DH
_geom_hbond_distance_HA
_geom_hbond_distance_DA
_geom_hbond_angle_DHA
_geom_hbond_publ_flag
N41 H41A N31 . 0.94 2.12 2.896(2) 139 no
N41 H41B N15 1_654 0.94 2.27 3.101(3) 148 no
C34 H34 N15 2_576 0.93 2.56 3.357(4) 144 no
loop_
_geom_torsion_atom_site_label_1
_geom_torsion_atom_site_label_2
_geom_torsion_atom_site_label_3
_geom_torsion_atom_site_label_4
_geom_torsion
C5 N1 N2 C3 0.6(2)
Zn1 N1 N2 C3 -168.76(16)
N1 N2 C3 N4 -0.2(2)
N1 N2 C3 C32 178.66(19)
N2 C3 N4 C5 -0.3(2)
C32 C3 N4 C5 -179.1(2)
N2 C3 N4 N41 178.0(2)
C32 C3 N4 N41 -0.7(4)
N2 N1 C5 N4 -0.8(2)
Zn1 N1 C5 N4 170.96(13)
N2 N1 C5 C52 176.91(18)
Zn1 N1 C5 C52 -11.3(3)
C3 N4 C5 N1 0.7(2)
N41 N4 C5 N1 -177.74(19)
C3 N4 C5 C52 -176.7(2)
N41 N4 C5 C52 4.9(4)
C36 N31 C32 C33 -0.9(3)
C36 N31 C32 C3 177.7(2)
N2 C3 C32 N31 173.7(2)
N4 C3 C32 N31 -7.7(3)
N2 C3 C32 C33 -7.7(3)
N4 C3 C32 C33 171.0(2)
N31 C32 C33 C34 0.9(3)
C3 C32 C33 C34 -177.6(2)
C32 C33 C34 C35 -0.3(4)
C33 C34 C35 C36 -0.2(4)
C32 N31 C36 C35 0.3(4)
C34 C35 C36 N31 0.3(4)
C56 N51 C52 C53 2.4(3)
Zn1 N51 C52 C53 -175.45(16)
C56 N51 C52 C5 -174.99(19)
Zn1 N51 C52 C5 7.2(2)
N1 C5 C52 N51 2.5(3)
N4 C5 C52 N51 179.6(2)
N1 C5 C52 C53 -174.8(2)
N4 C5 C52 C53 2.4(4)
N51 C52 C53 C54 -1.6(3)
C5 C52 C53 C54 175.4(2)
C52 C53 C54 C55 -0.6(4)
C53 C54 C55 C56 2.1(4)
C52 N51 C56 C55 -0.8(3)
Zn1 N51 C56 C55 176.68(17)
C54 C55 C56 N51 -1.4(4)
C14 N11 C12 N13 169.7(13)
N11 C12 N13 Zn1 -69.3(18)
C12 N11 C14 N15 -169.9(15)

_cod_database_fobs_code 2020845
