#------------------------------------------------------------------------------
#$Date: 2017-03-05 07:54:01 +0200 (Sun, 05 Mar 2017) $
#$Revision: 193921 $
#$URL: file:///home/coder/svn-repositories/cod/cif/2/02/07/2020724.cif $
#------------------------------------------------------------------------------
#
# This file is available in the Crystallography Open Database (COD),
# http://www.crystallography.net/. The original data for this entry
# were provided by IUCr Journals, http://journals.iucr.org/.
#
# The file may be used within the scientific community so long as
# proper attribution is given to the journal article from which the
# data were obtained.
#
data_2020724
loop_
_publ_author_name
'Girisha, Marisiddaiah'
'Sagar, Belakavadi K.'
'Yathirajan, Hemmige S.'
'Rathore, Ravindranath S.'
'Glidewell, Christopher'
_publ_section_title
;
 Three closely related 1-(naphthalen-2-yl)prop-2-en-1-ones:
 pseudosymmetry, disorder and supramoleular assembly mediated by
 C---H&#x00B7;&#x00B7;&#x00B7;\p and C---Br&#x00B7;&#x00B7;&#x00B7;\p
 interactions
;
_journal_coeditor_code           SK3650
_journal_issue                   2
_journal_name_full               'Acta Crystallographica Section C'
_journal_page_first              115
_journal_page_last               120
_journal_paper_doi               10.1107/S205322961700105X
_journal_volume                  73
_journal_year                    2017
_chemical_formula_iupac          'C19 H13 Br O'
_chemical_formula_moiety         'C19 H13 Br O'
_chemical_formula_sum            'C19 H13 Br O'
_chemical_formula_weight         337.19
_chemical_name_systematic
;
3-(4-Bromophenyl)-1-(naphthalen-2-yl)prop-2-en-1-one
;
_space_group_crystal_system      triclinic
_space_group_IT_number           2
_space_group_name_Hall           '-P 1'
_space_group_name_H-M_alt        'P -1'
_symmetry_space_group_name_Hall  '-P 1'
_symmetry_space_group_name_H-M   'P -1'
_atom_sites_solution_hydrogens   geom
_audit_creation_method           SHELXL-2014
_cell_angle_alpha                95.007(5)
_cell_angle_beta                 90.218(5)
_cell_angle_gamma                92.179(5)
_cell_formula_units_Z            2
_cell_length_a                   5.8714(5)
_cell_length_b                   7.8616(7)
_cell_length_c                   15.5954(13)
_cell_measurement_reflns_used    3816
_cell_measurement_temperature    296(2)
_cell_measurement_theta_max      29.773
_cell_measurement_theta_min      1.311
_cell_volume                     716.58(11)
_computing_cell_refinement
;
APEX2 (Bruker, 2012)
;
_computing_data_collection
;
APEX2 (Bruker, 2012)
;
_computing_data_reduction
;
SAINT-Plus (Bruker, 2012)
;
_computing_molecular_graphics
;
PLATON (Spek, 2009)
;
_computing_publication_material
;
SHELXL2014 (Sheldrick, 2015) and PLATON (Spek, 2009)
;
_computing_structure_refinement
;
SHELXL2014 (Sheldrick, 2015)
;
_computing_structure_solution
;
SHELXS86 (Sheldrick, 2008)
;
_diffrn_ambient_temperature      296(2)
_diffrn_measured_fraction_theta_full 0.990
_diffrn_measured_fraction_theta_max 0.985
_diffrn_measurement_device_type  'Bruker Kappa APEXII'
_diffrn_measurement_method       '\f and \w scans'
_diffrn_radiation_type           MoK\a
_diffrn_radiation_wavelength     0.71073
_diffrn_reflns_av_R_equivalents  0.0542
_diffrn_reflns_limit_h_max       7
_diffrn_reflns_limit_h_min       -7
_diffrn_reflns_limit_k_max       9
_diffrn_reflns_limit_k_min       -9
_diffrn_reflns_limit_l_max       19
_diffrn_reflns_limit_l_min       -19
_diffrn_reflns_number            12745
_diffrn_reflns_theta_full        25.242
_diffrn_reflns_theta_max         26.546
_diffrn_reflns_theta_min         2.603
_diffrn_standards_decay_%        0
_diffrn_standards_interval_count 0
_diffrn_standards_interval_time  0
_diffrn_standards_number         0
_exptl_absorpt_coefficient_mu    2.863
_exptl_absorpt_correction_T_max  0.462
_exptl_absorpt_correction_T_min  0.451
_exptl_absorpt_correction_type   multi-scan
_exptl_absorpt_process_details
;
(SADABS; Bruker, 2012)
;
_exptl_crystal_colour            colourless
_exptl_crystal_density_diffrn    1.563
_exptl_crystal_description       block
_exptl_crystal_F_000             340
_exptl_crystal_size_max          0.300
_exptl_crystal_size_mid          0.280
_exptl_crystal_size_min          0.270
_refine_diff_density_max         0.441
_refine_diff_density_min         -0.466
_refine_ls_extinction_method     none
_refine_ls_goodness_of_fit_ref   1.051
_refine_ls_hydrogen_treatment    constr
_refine_ls_matrix_type           full
_refine_ls_number_parameters     190
_refine_ls_number_reflns         2941
_refine_ls_number_restraints     0
_refine_ls_restrained_S_all      1.051
_refine_ls_R_factor_all          0.1039
_refine_ls_R_factor_gt           0.0489
_refine_ls_shift/su_max          0.001
_refine_ls_shift/su_mean         0.000
_refine_ls_structure_factor_coef Fsqd
_refine_ls_weighting_details
'w=1/[\s^2^(Fo^2^)+(0.0164P)^2^+0.6492P] where P=(Fo^2^+2Fc^2^)/3'
_refine_ls_weighting_scheme      calc
_refine_ls_wR_factor_gt          0.0705
_refine_ls_wR_factor_ref         0.0822
_reflns_number_gt                1842
_reflns_number_total             2941
_reflns_threshold_expression     'I > 2\s(I)'
_cod_data_source_file            sk3650sup1.cif
_cod_data_source_block           II
_cod_database_code               2020724
_shelx_space_group_comment
;
The symmetry employed for this shelxl refinement is uniquely defined
by the following loop, which should always be used as a source of
symmetry information in preference to the above space-group names.
They are only intended as comments.
;
_shelx_estimated_absorpt_t_min   0.480
_shelx_estimated_absorpt_t_max   0.512
_shelx_hkl_file
;
  -1   0   0    2.53    0.16
  -1   0   0    2.91    0.14
   1   0   0    2.61    0.13
  -2   0   0   36.97    1.28
  -2   0   0   37.01    1.14
   2   0   0   36.66    1.28
   2   0   0   36.68    0.97
  -3   0   0   16.71    0.68
  -3   0   0   17.57    0.64
  -3   0   0   17.81    0.71
  -3   0   0   16.93    0.54
   3   0   0   16.72    0.70
   3   0   0   17.63    0.55
  -4   0   0    0.24    0.38
  -4   0   0    0.04    0.16
  -4   0   0   -0.03    0.17
  -4   0   0   -0.05    0.19
   4   0   0    0.13    0.26
   4   0   0    0.13    0.05
   4   0   0    0.08    0.18
  -5   0   0    3.02    0.54
  -5   0   0    3.43    0.31
  -5   0   0    3.74    0.59
  -5   0   0    3.61    0.30
   5   0   0    4.92    0.53
   5   0   0    3.38    0.35
   5   0   0    3.61    0.48
   5   0   0    3.75    0.38
  -6   0   0    2.79    0.58
  -6   0   0    3.55    0.74
   6   0   0    2.51    0.53
   6   0   0    2.97    0.35
   6   0   0    3.11    0.52
  -7   0   0   -0.50    0.78
   7   0   0    0.27    0.59
  -8   0   0    0.09    0.82
   8   0   0    0.28    0.70
   8  -1   0    0.26    0.81
  -8   1   0   -0.42    0.90
  -8   1   0   -0.28    0.75
   7  -1   0    0.62    0.42
   7  -1   0    1.66    0.67
  -7   1   0    0.19    0.76
   6  -1   0    0.27    0.46
   6  -1   0    0.38    0.34
  -6   1   0    0.16    0.26
  -6   1   0   -0.42    0.61
  -6   1   0    0.10    0.56
   5  -1   0    9.03    0.48
   5  -1   0    8.47    0.44
   5  -1   0    8.39    0.58
   5  -1   0    8.89    0.54
  -5   1   0    8.24    0.71
  -5   1   0    8.97    0.87
  -5   1   0    7.59    0.45
   4  -1   0   14.46    0.61
   4  -1   0   14.47    0.48
   4  -1   0   15.37    0.60
   4  -1   0   15.11    0.66
  -4   1   0   14.55    0.82
  -4   1   0   15.33    0.73
  -4   1   0   15.29    0.58
   3  -1   0    0.99    0.17
   3  -1   0    1.30    0.23
   3  -1   0    1.30    0.12
   3  -1   0    1.21    0.21
  -3   1   0    1.06    0.17
  -3   1   0    0.90    0.16
  -3   1   0    0.86    0.26
  -3   1   0    0.69    0.27
   2  -1   0   52.06    1.10
   2  -1   0   49.69    1.74
   2  -1   0   51.29    1.32
  -2   1   0   51.93    1.73
  -2   1   0   51.51    1.51
  -2   1   0   51.83    1.57
  -2   1   0   48.24    1.75
   1  -1   0    8.15    0.33
   1  -1   0    7.97    0.31
   1  -1   0    8.28    0.32
   1  -1   0    8.33    0.21
  -1   1   0    8.43    0.21
  -1   1   0    8.18    0.27
  -1   1   0    8.38    0.32
  -1   1   0    8.21    0.32
  -1   1   0    8.27    0.32
   0  -1   0    3.17    0.15
   0  -1   0    3.47    0.15
   0  -1   0    2.68    0.11
   0  -1   0    3.29    0.14
   0   1   0    3.24    0.16
   0   1   0    3.41    0.17
  -1  -1   0  264.58    8.87
  -1  -1   0  258.71    7.39
  -1  -1   0  259.64    9.36
  -1  -1   0  256.36   10.78
  -1  -1   0  264.59    8.85
   1   1   0  264.40    8.84
   1   1   0  256.55    9.36
   1   1   0  260.52    8.85
  -2  -1   0   12.35    0.49
  -2  -1   0   12.24    0.57
  -2  -1   0   12.46    0.52
  -2  -1   0   12.21    0.50
   2   1   0   12.85    0.40
   2   1   0   12.33    0.50
  -3  -1   0    3.52    0.44
  -3  -1   0    2.57    0.26
  -3  -1   0    3.23    0.29
  -3  -1   0    3.18    0.42
   3   1   0    3.20    0.28
   3   1   0    3.17    0.29
   3   1   0    3.53    0.31
  -4  -1   0    9.63    0.70
  -4  -1   0    9.04    0.69
  -4  -1   0    9.51    0.52
   4   1   0    9.42    0.49
   4   1   0    9.85    0.57
   4   1   0    9.42    0.44
  -5  -1   0    1.16    0.40
  -5  -1   0    1.37    0.62
  -5  -1   0    1.02    0.32
   5   1   0    0.86    0.31
   5   1   0    0.50    0.46
   5   1   0    1.21    0.23
   5   1   0    1.22    0.36
  -6  -1   0    2.68    0.73
   6   1   0    1.57    0.57
   6   1   0    1.72    0.51
  -7  -1   0    0.16    0.84
   7   1   0    0.32    0.64
   8   1   0    0.74    0.72
   8  -2   0    0.69    0.81
  -8   2   0   -1.42    0.94
   7  -2   0    1.39    0.52
   7  -2   0    1.46    0.68
  -7   2   0    1.11    0.88
  -7   2   0    0.57    0.66
   6  -2   0    1.88    0.41
   6  -2   0    1.10    0.52
  -6   2   0    1.47    0.71
  -6   2   0    1.57    0.56
   5  -2   0    2.57    0.45
   5  -2   0    2.80    0.48
   5  -2   0    2.07    0.35
   5  -2   0    2.21    0.40
  -5   2   0    2.11    0.46
  -5   2   0    2.32    0.56
   4  -2   0    9.17    0.52
   4  -2   0    8.58    0.47
   4  -2   0    8.58    0.42
  -4   2   0    8.69    0.74
  -4   2   0    9.62    0.42
  -4   2   0    8.69    0.55
   3  -2   0   10.37    0.42
   3  -2   0   10.47    0.50
   3  -2   0   10.38    0.56
   3  -2   0   10.14    0.38
  -3   2   0   10.78    0.45
  -3   2   0   10.75    0.63
  -3   2   0    9.75    0.49
  -3   2   0   10.96    0.49
   2  -2   0    0.51    0.14
   2  -2   0    0.68    0.19
   2  -2   0    0.54    0.19
   2  -2   0    0.42    0.17
   2  -2   0    0.59    0.17
  -2   2   0    0.37    0.15
  -2   2   0    0.64    0.15
  -2   2   0    0.53    0.21
  -2   2   0    0.75    0.17
   1  -2   0  116.32    3.01
   1  -2   0  120.80    3.38
   1  -2   0  114.66    3.90
   1  -2   0  115.39    3.91
  -1   2   0  113.93    3.90
  -1   2   0  116.62    2.49
  -1   2   0  118.73    3.39
  -1   2   0  111.63    3.91
  -1   2   0  114.87    3.01
   0  -2   0    7.78    0.34
   0  -2   0    7.26    0.35
   0  -2   0    7.92    0.40
   0  -2   0    7.01    0.33
   0  -2   0    6.37    0.26
   0  -2   0    8.37    0.31
   0   2   0    7.31    0.32
   0   2   0    7.58    0.35
   0   2   0    7.55    0.34
   0   2   0    7.33    0.35
   0   2   0    8.04    0.38
  -1  -2   0  206.34    7.14
  -1  -2   0  217.92    6.80
  -1  -2   0  199.24    6.76
  -1  -2   0  195.43    5.68
  -1  -2   0  214.75    5.22
   1   2   0  200.86    6.78
   1   2   0  199.58    6.80
   1   2   0  201.79    7.19
   1   2   0  175.54    8.30
   1   2   0  199.11    5.15
  -2  -2   0   27.58    1.01
  -2  -2   0   26.39    1.06
  -2  -2   0   26.35    0.98
  -2  -2   0   28.38    0.84
  -2  -2   0   26.92    0.93
  -2  -2   0   26.35    1.17
   2   2   0   26.59    1.00
   2   2   0   26.70    1.01
   2   2   0   25.18    1.09
  -3  -2   0    3.56    0.41
  -3  -2   0    3.31    0.35
  -3  -2   0    3.26    0.37
  -3  -2   0    3.18    0.43
   3   2   0    3.38    0.27
   3   2   0    3.20    0.34
  -4  -2   0    0.24    0.47
  -4  -2   0    0.27    0.28
  -4  -2   0    0.59    0.28
  -4  -2   0    0.03    0.14
   4   2   0    0.64    0.34
   4   2   0    0.21    0.27
   4   2   0    0.35    0.30
  -5  -2   0    3.32    0.75
  -5  -2   0    2.85    0.55
   5   2   0    3.01    0.52
   5   2   0    2.29    0.42
  -6  -2   0    0.33    0.79
   6   2   0    0.26    0.45
   6   2   0    0.14    0.57
  -7  -2   0    0.58    0.94
   7   2   0   -0.01    0.63
   7   2   0   -0.09    0.54
   7  -3   0    0.40    0.59
   7  -3   0    0.18    0.54
  -7   3   0   -0.97    0.86
   6  -3   0    5.00    0.70
   6  -3   0    4.29    0.58
  -6   3   0    3.75    0.81
  -6   3   0    4.11    0.66
   5  -3   0    3.99    0.44
   5  -3   0    3.05    0.47
  -5   3   0    2.85    0.65
  -5   3   0    3.40    0.49
   4  -3   0    2.09    0.33
   4  -3   0    1.87    0.34
   4  -3   0    2.14    0.41
   4  -3   0    2.34    0.49
  -4   3   0    1.95    0.34
  -4   3   0    2.00    0.31
  -4   3   0    2.15    0.50
   3  -3   0   22.89    0.92
   3  -3   0   21.33    0.63
   3  -3   0   20.89    0.90
  -3   3   0   21.97    0.85
  -3   3   0   22.28    0.96
  -3   3   0   21.46    0.72
  -3   3   0   20.85    0.84
   2  -3   0   28.49    1.05
   2  -3   0   27.82    1.07
   2  -3   0   26.41    0.95
   2  -3   0   25.91    0.72
  -2   3   0   26.79    1.04
  -2   3   0   28.18    0.92
  -2   3   0   29.93    1.03
  -2   3   0   28.04    1.03
  -2   3   0   28.22    0.68
   1  -3   0    9.60    0.49
   1  -3   0    9.74    0.47
   1  -3   0    9.90    0.46
   1  -3   0   10.10    0.43
  -1   3   0    9.61    0.45
  -1   3   0    9.52    0.46
  -1   3   0    9.69    0.31
  -1   3   0    9.61    0.46
  -1   3   0    8.02    0.50
  -1   3   0   10.07    0.54
   0  -3   0   38.19    1.19
   0  -3   0   40.03    1.47
   0  -3   0   41.23    1.30
   0  -3   0   42.96    1.15
   0  -3   0   38.85    1.44
   0  -3   0   43.96    1.58
   0   3   0   40.32    1.56
   0   3   0   38.78    1.16
   0   3   0   39.37    0.93
   0   3   0   41.96    1.28
   0   3   0   39.54    1.45
   0   3   0   39.36    1.45
  -1  -3   0    0.98    0.21
  -1  -3   0    0.78    0.23
  -1  -3   0    1.11    0.19
  -1  -3   0    1.13    0.28
  -1  -3   0    1.65    0.35
   1   3   0    1.33    0.26
   1   3   0    0.89    0.21
   1   3   0    1.48    0.27
   1   3   0    1.46    0.28
   1   3   0    0.93    0.22
  -2  -3   0   10.97    0.57
  -2  -3   0   10.59    0.58
  -2  -3   0    9.95    0.49
  -2  -3   0   10.65    0.60
   2   3   0   10.01    0.56
   2   3   0    8.74    0.57
   2   3   0   10.68    0.55
  -3  -3   0   12.74    0.72
  -3  -3   0   15.61    0.77
  -3  -3   0   15.73    0.81
  -3  -3   0   14.74    0.71
   3   3   0   12.72    0.78
   3   3   0   14.26    0.69
   3   3   0   14.48    0.74
  -4  -3   0    6.04    0.84
  -4  -3   0    8.20    0.63
  -4  -3   0    7.07    0.57
  -4  -3   0    7.27    0.60
   4   3   0    6.90    0.47
   4   3   0    6.13    0.53
  -5  -3   0    0.41    0.38
  -5  -3   0   -0.44    0.73
   5   3   0    0.57    0.40
   5   3   0    0.95    0.50
  -6  -3   0    2.24    0.99
   6   3   0    1.93    0.55
   6   3   0    2.05    0.65
  -7  -3   0    0.62    1.15
   7   3   0   -0.35    0.70
   7   3   0    0.24    0.59
   7  -4   0    0.97    0.67
  -7   4   0   -0.06    0.96
  -7   4   0    0.87    0.94
  -6   4   0    2.49    0.89
  -6   4   0    2.50    0.82
   5  -4   0   12.94    0.63
  -5   4   0   12.90    0.69
  -5   4   0   13.13    1.21
  -5   4   0   14.03    1.05
   4  -4   0    8.65    0.52
   4  -4   0    8.51    0.69
   4  -4   0    8.96    0.73
  -4   4   0    8.33    0.98
  -4   4   0    7.30    0.82
  -4   4   0    7.94    0.48
   3  -4   0    2.19    0.39
   3  -4   0    1.87    0.43
   3  -4   0    1.79    0.31
  -3   4   0    1.47    0.36
  -3   4   0    1.80    0.33
  -3   4   0    1.89    0.46
   2  -4   0   12.97    0.46
   2  -4   0   12.76    0.69
   2  -4   0   13.75    0.66
  -2   4   0   13.31    0.63
  -2   4   0   13.64    0.45
  -2   4   0   12.97    0.75
  -2   4   0   13.57    0.67
   1  -4   0   19.34    0.79
   1  -4   0   19.21    0.80
   1  -4   0   18.87    0.84
   1  -4   0   17.85    0.53
  -1   4   0   18.94    0.53
  -1   4   0   18.35    0.83
  -1   4   0   18.74    0.74
  -1   4   0   19.18    0.81
   0  -4   0    1.41    0.25
   0  -4   0    0.56    0.20
   0  -4   0    0.99    0.26
   0  -4   0    1.18    0.26
   0  -4   0    1.07    0.33
   0   4   0    1.20    0.22
   0   4   0    1.21    0.29
   0   4   0    1.27    0.31
  -1  -4   0   10.23    0.56
  -1  -4   0    9.65    0.60
  -1  -4   0   11.04    0.66
  -1  -4   0    8.11    0.51
   1   4   0    8.72    0.59
   1   4   0    8.24    0.52
   1   4   0    9.83    0.35
   1   4   0   10.24    0.59
   1   4   0    9.18    0.58
   1   4   0    9.36    0.54
  -2  -4   0    5.72    0.57
  -2  -4   0    5.66    0.55
  -2  -4   0    5.54    0.57
   2   4   0    4.77    0.52
   2   4   0    4.86    0.57
   2   4   0    5.19    0.47
   2   4   0    4.19    0.49
  -3  -4   0    1.50    0.44
  -3  -4   0    1.20    0.37
  -3  -4   0    1.10    0.51
   3   4   0    1.07    0.38
   3   4   0    1.21    0.47
  -4  -4   0   14.95    0.88
  -4  -4   0   15.88    0.95
  -4  -4   0   15.97    1.10
   4   4   0   14.47    0.83
   4   4   0   15.14    0.52
   4   4   0   15.24    0.99
  -5  -4   0   -0.03    0.44
  -5  -4   0   -0.37    0.85
   5   4   0   -0.19    0.43
   6   4   0   -0.18    0.64
   6   4   0    0.51    0.54
   7   4   0    0.64    0.77
   7   4   0    0.74    0.65
   7  -5   0    1.03    0.74
  -7   5   0    0.55    1.03
  -7   5   0    0.94    0.99
   6  -5   0    0.87    0.62
  -6   5   0   -0.28    0.82
  -6   5   0    0.48    0.86
   5  -5   0    0.61    0.50
  -5   5   0    0.50    0.72
  -5   5   0    0.26    0.73
   4  -5   0    4.46    0.48
  -4   5   0    5.43    0.74
  -4   5   0    4.44    0.70
   3  -5   0    7.42    0.78
   3  -5   0    7.71    0.45
   3  -5   0    7.62    0.65
  -3   5   0    7.71    0.93
  -3   5   0    7.40    0.80
  -3   5   0    8.26    0.62
   2  -5   0    0.05    0.27
   2  -5   0    0.32    0.34
   2  -5   0    0.12    0.45
  -2   5   0   -0.01    0.36
  -2   5   0    0.22    0.37
  -2   5   0   -0.45    0.42
  -2   5   0   -0.11    0.25
   1  -5   0   13.01    0.79
   1  -5   0   13.87    0.47
  -1   5   0   13.19    0.69
  -1   5   0   13.95    0.49
  -1   5   0   13.45    0.77
  -1   5   0   14.25    0.75
   0  -5   0    9.52    0.48
   0  -5   0   10.70    0.38
   0  -5   0   11.01    0.73
   0   5   0   10.52    0.69
   0   5   0   10.99    0.43
   0   5   0   10.38    0.66
  -1  -5   0    1.29    0.36
  -1  -5   0    1.66    0.50
  -1  -5   0    1.67    0.41
   1   5   0    2.32    0.51
   1   5   0    1.17    0.37
   1   5   0    1.78    0.28
   1   5   0    1.84    0.45
  -2  -5   0    7.90    0.74
  -2  -5   0    7.53    0.71
  -2  -5   0    8.26    0.77
   2   5   0    7.24    0.75
   2   5   0    7.52    0.73
   2   5   0    8.14    0.41
  -3  -5   0    2.60    0.60
  -3  -5   0    3.66    0.72
  -3  -5   0    3.32    0.68
   3   5   0    2.73    0.64
   3   5   0    2.58    0.35
  -4  -5   0    0.19    0.54
  -4  -5   0    0.28    0.80
  -4  -5   0    0.58    0.49
   4   5   0    0.64    0.75
   4   5   0   -0.22    0.32
  -5  -5   0    4.78    1.09
   5   5   0    2.69    0.52
   6   5   0    0.09    0.74
   6   5   0   -0.39    0.54
   7   5   0    0.54    0.67
   7   5   0   -0.77    0.82
  -7   6   0    0.22    1.13
  -6   6   0    1.74    1.00
  -6   6   0    0.65    1.05
   5  -6   0    6.40    0.75
  -5   6   0    5.90    0.99
  -5   6   0    6.03    0.98
   4  -6   0    6.82    0.64
  -4   6   0    6.11    0.85
  -4   6   0    4.98    0.76
   3  -6   0    7.54    0.56
  -3   6   0    6.87    0.85
  -3   6   0    6.31    1.02
   2  -6   0    7.25    0.46
   2  -6   0    5.58    0.84
  -2   6   0    5.79    0.73
  -2   6   0    5.45    0.88
  -2   6   0    5.48    0.44
  -2   6   0    5.31    0.64
   1  -6   0    0.22    0.28
   1  -6   0    0.18    0.59
  -1   6   0   -0.03    0.47
  -1   6   0    0.23    0.46
  -1   6   0    0.17    0.43
  -1   6   0   -0.18    0.32
   0  -6   0    8.05    0.39
   0  -6   0    7.99    0.88
   0  -6   0    6.44    0.49
   0   6   0    7.33    0.76
   0   6   0    8.13    0.76
   0   6   0    8.42    0.46
  -1  -6   0    3.52    0.69
  -1  -6   0    3.62    0.61
   1   6   0    4.09    0.70
   1   6   0    2.30    0.51
   1   6   0    4.25    0.66
   1   6   0    4.07    0.43
  -2  -6   0    0.64    0.63
  -2  -6   0    0.14    0.54
  -2  -6   0    0.48    0.52
   2   6   0    0.13    0.53
   2   6   0    0.87    0.36
   2   6   0    0.73    0.64
  -3  -6   0    2.81    0.74
   3   6   0    3.50    0.48
   3   6   0    3.18    0.84
  -4  -6   0    0.48    0.88
  -4  -6   0   -0.12    0.68
  -4  -6   0    0.37    0.60
   4   6   0    0.04    0.87
  -5  -6   0   -0.47    1.03
   5   6   0    0.29    0.50
   6   6   0   -0.47    0.84
   6   6   0    0.77    0.63
   6  -7   0    0.34    0.76
  -6   7   0    0.12    1.16
  -6   7   0    0.91    1.06
   5  -7   0    1.61    0.69
  -5   7   0    0.48    0.99
  -5   7   0    1.58    0.95
   4  -7   0    4.68    0.64
  -4   7   0    3.28    0.93
  -4   7   0    4.08    0.91
   3  -7   0    3.19    0.50
  -3   7   0    1.61    0.76
  -3   7   0    1.66    0.77
   2  -7   0    2.41    0.91
  -2   7   0    2.78    0.46
  -2   7   0    2.38    0.64
  -2   7   0    2.65    0.64
   1  -7   0    2.54    0.87
   1  -7   0    3.21    0.40
  -1   7   0    2.16    0.57
  -1   7   0    2.83    0.45
  -1   7   0    1.11    0.56
   0  -7   0    0.33    0.77
   0  -7   0    0.59    0.31
   0   7   0    0.54    0.54
   0   7   0    0.52    0.41
  -1  -7   0    2.73    0.86
   1   7   0    3.56    0.50
   1   7   0    1.72    0.63
   1   7   0    3.23    0.81
  -2  -7   0    0.64    0.81
   2   7   0    0.91    0.51
   2   7   0   -0.11    0.68
  -4  -7   0    0.35    0.93
   5   7   0   -0.40    0.51
   6   7   0    0.35    0.65
   5  -8   0    0.71    0.81
  -5   8   0    1.27    1.02
  -5   8   0    0.67    1.11
  -4   8   0    1.34    0.91
  -4   8   0    1.08    1.03
   3  -8   0    1.21    0.57
  -3   8   0   -0.20    0.88
  -3   8   0   -0.48    0.78
  -2   8   0    1.05    0.69
  -2   8   0    0.95    0.78
   1  -8   0    6.32    0.59
  -1   8   0    4.21    0.84
   0   8   0    1.06    0.75
   1   8   0   -0.21    0.71
   2   8   0   -0.16    0.84
  -3  -8   0   -0.64    0.99
   5   8   0    0.08    0.54
   4  -9   0    0.33    0.77
  -4   9   0    0.29    0.99
  -4   9   0    0.82    1.18
   3  -9   0    0.63    0.67
  -3   9   0   -0.19    0.86
  -3   9   0    0.14    0.92
  -2   9   0    0.03    0.97
  -1   9   0    1.33    0.92
   0   9   0   -0.24    0.81
   1   9   0    1.11    0.87
   2   9   0   -1.00    0.93
  -4  -9   0    0.30    1.09
   3 -10   0   -0.25    0.76
  -3  10   0    0.56    1.18
  -2  10   0    0.03    1.10
  -1  10   0   -0.52    1.06
   0  10   0   -1.78    0.99
   1  10   0   -1.17    1.03
   2  10   0   -1.00    1.03
   2  10  -1   -1.69    1.03
   1  10  -1   -1.12    1.05
   0  10  -1   -1.28    0.99
  -1  10  -1   -0.07    1.04
  -2  10  -1    1.78    1.00
   2 -10   1    3.41    0.68
  -3  10  -1    1.04    1.12
   3 -10   1    0.62    0.77
   2   9  -1   -1.12    0.94
   1   9  -1   -0.57    0.87
   0   9  -1   -0.97    0.85
  -1   9  -1   -0.02    0.87
  -2   9  -1    2.28    0.99
   2  -9   1    2.50    0.58
  -3   9  -1    0.01    0.78
  -3   9  -1   -0.24    1.02
  -4   9  -1    1.25    1.11
   5   8  -1    0.40    0.53
   2   8  -1   -0.84    0.83
   1   8  -1    0.09    0.58
   1   8  -1   -0.39    0.73
   0   8  -1    2.98    0.59
   0   8  -1    1.49    0.75
   0  -8   1    3.08    0.39
  -1   8  -1    0.48    0.77
   1  -8   1    1.77    0.46
  -2   8  -1    2.53    0.84
  -2   8  -1    2.74    0.68
   2  -8   1    3.25    0.52
  -3   8  -1    1.54    0.78
  -3   8  -1    2.64    0.92
   3  -8   1    2.84    0.61
  -4   8  -1    0.40    0.86
  -4   8  -1   -0.24    0.85
   4  -8   1    0.18    0.66
  -5   8  -1   -0.27    0.94
  -5   8  -1    2.25    1.02
   5  -8   1    1.56    0.86
   6   7  -1    0.51    0.60
   5   7  -1    0.26    0.49
  -5  -7   1    0.62    1.09
  -3  -7   1   -0.24    0.82
   2   7  -1   -0.43    0.69
  -2  -7   1    1.37    0.64
   1   7  -1    0.26    0.29
   1   7  -1   -0.53    0.59
   1   7  -1    0.75    0.42
   1   7  -1    0.42    0.74
  -1  -7   1    0.15    0.48
   0   7  -1    0.18    0.31
   0   7  -1    0.59    0.40
   0   7  -1    0.01    0.55
   0  -7   1    0.18    0.36
   0  -7   1    0.23    0.79
   0  -7   1   -0.09    0.29
  -1   7  -1    2.25    0.65
  -1   7  -1    3.74    0.47
   1  -7   1    3.88    0.84
   1  -7   1    3.40    0.44
  -2   7  -1    1.82    0.57
  -2   7  -1    2.84    0.46
  -2   7  -1    1.93    0.68
   2  -7   1    2.73    0.43
  -3   7  -1    2.87    0.75
  -3   7  -1    3.42    0.76
  -3   7  -1    3.46    0.50
   3  -7   1    4.68    0.62
  -4   7  -1    1.48    0.81
  -4   7  -1    1.24    0.75
   4  -7   1    1.48    0.59
  -5   7  -1    1.34    0.92
  -5   7  -1    1.36    0.85
  -6   7  -1    0.88    1.03
  -6   7  -1   -0.62    1.01
   6  -7   1    0.68    0.85
   6   6  -1   -0.59    0.87
   6   6  -1   -0.14    0.55
  -6  -6   1    0.35    1.30
   5   6  -1    0.15    0.44
  -5  -6   1    0.88    1.04
   4   6  -1    0.10    0.35
  -4  -6   1    1.08    0.88
  -4  -6   1    0.35    0.68
   3   6  -1    7.19    1.06
  -3  -6   1    4.87    0.84
   2   6  -1    0.73    0.55
   2   6  -1    2.50    0.39
   2   6  -1    2.16    0.67
  -2  -6   1    3.08    0.74
  -2  -6   1    2.00    0.58
   1   6  -1    2.59    0.49
   1   6  -1    3.34    0.67
   1   6  -1    3.69    0.76
   1   6  -1    4.20    0.41
  -1  -6   1    4.01    0.51
  -1  -6   1    3.96    0.80
   0   6  -1    5.29    0.71
   0   6  -1    4.62    0.67
   0   6  -1    4.94    0.41
   0  -6   1    4.67    0.35
   0  -6   1    4.43    0.79
   0  -6   1    4.23    0.44
  -1   6  -1    2.66    0.52
  -1   6  -1    2.56    0.37
  -1   6  -1    1.11    0.47
  -1   6  -1    2.34    0.44
   1  -6   1    1.99    0.32
   1  -6   1    1.40    0.59
  -2   6  -1   14.37    0.59
  -2   6  -1   14.66    0.95
  -2   6  -1   13.34    0.97
   2  -6   1   15.30    0.60
  -3   6  -1    1.36    0.59
  -3   6  -1    1.32    0.61
  -3   6  -1    2.26    0.42
   3  -6   1    2.43    0.44
  -4   6  -1    3.68    0.77
  -4   6  -1    3.63    0.75
   4  -6   1    4.67    0.56
  -5   6  -1    1.45    0.83
  -5   6  -1    1.48    0.82
   5  -6   1    2.62    0.62
  -6   6  -1    2.66    0.99
  -6   6  -1    2.16    1.00
   6  -6   1    4.53    0.76
  -7   6  -1    2.69    1.13
   7   5  -1   -0.23    0.59
   7   5  -1   -0.11    0.87
   6   5  -1    0.35    0.51
   6   5  -1   -0.41    0.75
  -6  -5   1    0.09    1.18
   5   5  -1    0.00    0.44
   4   5  -1    0.48    0.73
   4   5  -1    0.04    0.33
  -4  -5   1    0.33    0.47
  -4  -5   1    0.01    0.55
   3   5  -1    8.68    0.86
  -3  -5   1    7.91    0.88
  -3  -5   1    7.78    0.81
  -3  -5   1   10.84    0.84
   2   5  -1   28.15    1.17
   2   5  -1   29.90    1.37
   2   5  -1   29.70    1.28
  -2  -5   1   26.39    1.16
  -2  -5   1   30.74    1.32
   1   5  -1    1.03    0.35
   1   5  -1    1.42    0.42
   1   5  -1    0.79    0.20
  -1  -5   1    1.32    0.35
  -1  -5   1    1.93    0.48
   0   5  -1    7.37    0.60
   0   5  -1    8.38    0.39
   0   5  -1    7.94    0.60
   0  -5   1    6.97    0.42
   0  -5   1    7.53    0.34
   0  -5   1    8.07    0.67
  -1   5  -1    1.95    0.36
  -1   5  -1    1.90    0.37
  -1   5  -1    2.24    0.47
  -1   5  -1    2.34    0.30
   1  -5   1    2.08    0.41
   1  -5   1    2.69    0.27
   1  -5   1    2.77    0.49
  -2   5  -1    0.15    0.36
  -2   5  -1   -0.81    0.38
  -2   5  -1   -0.09    0.33
  -2   5  -1    0.33    0.27
   2  -5   1    0.17    0.32
   2  -5   1   -0.10    0.40
   2  -5   1   -0.08    0.26
  -3   5  -1   13.20    0.53
  -3   5  -1   13.91    0.82
  -3   5  -1   14.21    0.98
   3  -5   1   13.74    0.77
   3  -5   1   14.57    0.88
   3  -5   1   14.75    0.60
  -4   5  -1    1.22    0.62
  -4   5  -1    2.17    0.56
   4  -5   1    2.12    0.43
  -5   5  -1    1.04    0.77
  -5   5  -1    0.98    0.74
   5  -5   1    1.60    0.53
  -6   5  -1    0.16    0.90
  -6   5  -1    0.87    0.91
   6  -5   1    1.00    0.66
  -7   5  -1    1.16    1.10
  -7   5  -1    2.04    1.06
   7   4  -1    0.73    0.81
   7   4  -1    0.83    0.64
  -7  -4   1    1.64    1.29
   6   4  -1    0.41    0.49
   6   4  -1    0.16    0.68
  -6  -4   1    0.20    0.99
   5   4  -1    1.41    0.45
   5   4  -1    2.33    0.63
  -5  -4   1    2.73    0.90
   4   4  -1    2.52    0.49
   4   4  -1    2.57    0.56
   4   4  -1    1.81    0.35
  -4  -4   1    3.39    0.59
  -4  -4   1    3.71    0.57
  -4  -4   1    4.14    0.76
   3   4  -1    1.00    0.47
   3   4  -1    0.88    0.37
   3   4  -1    0.69    0.31
  -3  -4   1    0.74    0.49
  -3  -4   1    0.91    0.33
  -3  -4   1    0.68    0.40
   2   4  -1   25.32    1.10
   2   4  -1   24.42    0.99
   2   4  -1   25.77    1.17
   2   4  -1   24.38    1.13
  -2  -4   1   26.84    1.14
  -2  -4   1   27.94    1.17
  -2  -4   1   26.93    1.01
   1   4  -1   42.41    1.93
   1   4  -1   41.61    1.33
   1   4  -1   43.00    1.62
   1   4  -1   42.21    1.72
  -1  -4   1   47.26    1.43
  -1  -4   1   43.72    1.65
  -1  -4   1   43.41    1.37
   0   4  -1    0.42    0.28
   0   4  -1    0.40    0.25
   0  -4   1    0.16    0.23
   0  -4   1   -0.08    0.18
   0  -4   1    0.37    0.31
   0  -4   1    0.50    0.25
  -1   4  -1   16.56    0.74
  -1   4  -1   16.62    0.73
  -1   4  -1   17.38    0.49
  -1   4  -1   16.59    0.69
   1  -4   1   16.50    0.78
   1  -4   1   17.10    0.70
   1  -4   1   16.55    0.73
   1  -4   1   15.64    0.48
  -2   4  -1    6.33    0.33
  -2   4  -1    6.54    0.60
  -2   4  -1    6.74    0.54
  -2   4  -1    6.61    0.45
   2  -4   1    6.85    0.46
   2  -4   1    6.61    0.32
   2  -4   1    7.04    0.52
   2  -4   1    6.82    0.47
  -3   4  -1    3.31    0.48
  -3   4  -1    3.32    0.38
  -3   4  -1    3.29    0.29
  -3   4  -1    3.78    0.53
  -3   4  -1    3.16    0.26
   3  -4   1    3.73    0.45
   3  -4   1    3.25    0.50
   3  -4   1    2.96    0.38
  -4   4  -1   10.40    0.84
  -4   4  -1   11.80    0.97
  -4   4  -1   10.22    0.53
   4  -4   1   10.67    0.56
   4  -4   1   11.33    0.73
  -5   4  -1    0.20    0.63
  -5   4  -1    0.37    0.63
  -5   4  -1    0.09    0.36
   5  -4   1    0.10    0.38
  -6   4  -1    2.27    0.86
  -6   4  -1    2.16    0.87
   6  -4   1    1.59    0.53
  -7   4  -1    0.75    0.99
  -7   4  -1   -0.59    1.03
   7   3  -1   -0.37    0.75
   7   3  -1    0.63    0.60
   6   3  -1    0.20    0.61
   6   3  -1    0.14    0.45
  -6  -3   1    0.27    0.89
   5   3  -1    1.42    0.53
   5   3  -1    1.05    0.39
  -5  -3   1    1.13    0.37
  -5  -3   1    1.35    0.74
   4   3  -1    3.12    0.39
   4   3  -1    3.37    0.49
  -4  -3   1    4.03    0.48
  -4  -3   1    3.50    0.65
  -4  -3   1    3.46    0.54
  -4  -3   1    3.09    0.51
   3   3  -1   37.73    1.42
   3   3  -1   33.68    1.52
   3   3  -1   37.66    1.45
  -3  -3   1   38.67    1.36
  -3  -3   1   35.42    1.69
  -3  -3   1   40.07    1.49
  -3  -3   1   38.30    1.44
   2   3  -1   58.91    2.12
   2   3  -1   57.46    2.23
   2   3  -1   59.80    2.12
  -2  -3   1   59.27    1.84
  -2  -3   1   61.22    2.22
  -2  -3   1   59.36    2.13
  -2  -3   1   58.85    2.50
   1   3  -1   88.76    3.14
   1   3  -1   90.02    3.14
   1   3  -1   90.33    3.83
   1   3  -1   86.21    2.44
   1   3  -1   92.58    3.33
  -1  -3   1   89.34    2.65
  -1  -3   1   89.65    3.15
  -1  -3   1   95.78    3.33
  -1  -3   1   99.37    2.45
  -1  -3   1   88.92    3.13
   0   3  -1   10.97    0.47
   0   3  -1   11.53    0.53
   0   3  -1   12.09    0.57
   0   3  -1   11.04    0.52
   0  -3   1   10.69    0.41
   0  -3   1   11.32    0.51
   0  -3   1   12.71    0.48
   0  -3   1   12.05    0.49
   0  -3   1   11.37    0.54
  -1   3  -1    9.69    0.43
  -1   3  -1    9.92    0.46
  -1   3  -1    9.69    0.31
  -1   3  -1    8.44    0.47
  -1   3  -1    9.70    0.46
   1  -3   1    9.73    0.46
   1  -3   1    9.78    0.48
   1  -3   1   10.20    0.45
   1  -3   1   10.06    0.43
  -2   3  -1    7.54    0.46
  -2   3  -1    6.91    0.37
  -2   3  -1    6.81    0.29
  -2   3  -1    7.85    0.53
  -2   3  -1    7.01    0.38
  -2   3  -1    6.37    0.28
   2  -3   1    7.32    0.40
   2  -3   1    6.70    0.31
   2  -3   1    7.48    0.40
   2  -3   1    6.89    0.42
  -3   3  -1    4.86    0.59
  -3   3  -1    3.17    0.32
  -3   3  -1    4.23    0.31
  -3   3  -1    3.88    0.48
   3  -3   1    3.99    0.35
   3  -3   1    4.41    0.42
   3  -3   1    4.07    0.40
   3  -3   1    3.88    0.29
  -4   3  -1    2.18    0.37
  -4   3  -1    1.93    0.50
  -4   3  -1    1.18    0.40
   4  -3   1    2.03    0.32
   4  -3   1    2.28    0.38
   4  -3   1    2.47    0.37
  -5   3  -1    3.19    0.64
  -5   3  -1    3.80    0.50
   5  -3   1    3.06    0.40
   5  -3   1    3.09    0.49
   5  -3   1    3.04    0.50
  -6   3  -1    1.01    0.74
   6  -3   1    0.95    0.55
   6  -3   1    1.28    0.48
  -7   3  -1   -0.08    0.85
   7  -3   1    0.27    0.54
   7  -3   1    0.45    0.60
   7   2  -1    0.35    0.59
   7   2  -1    0.72    0.71
   6   2  -1    2.19    0.53
   6   2  -1    2.95    0.69
   5   2  -1    5.42    0.68
   5   2  -1    4.64    0.49
  -5  -2   1    6.24    0.55
  -5  -2   1    5.92    0.78
  -5  -2   1    5.96    0.57
   4   2  -1   -0.07    0.29
   4   2  -1    0.17    0.34
   4   2  -1   -0.19    0.27
  -4  -2   1    0.23    0.23
  -4  -2   1   -0.05    0.14
  -4  -2   1   -0.11    0.30
  -4  -2   1    0.15    0.48
   3   2  -1   14.42    0.51
   3   2  -1   14.36    0.66
  -3  -2   1   14.82    0.79
  -3  -2   1   15.17    0.68
  -3  -2   1   15.32    0.67
  -3  -2   1   13.89    0.72
   2   2  -1   59.05    2.27
   2   2  -1   62.11    2.15
   2   2  -1   61.58    2.15
   2   2  -1   60.73    1.58
  -2  -2   1   59.83    2.24
  -2  -2   1   63.16    2.14
  -2  -2   1   63.13    2.16
  -2  -2   1   59.94    2.62
  -2  -2   1   63.28    1.71
  -2  -2   1   61.94    1.87
   1   2  -1  111.91    3.88
   1   2  -1  110.32    3.68
   1   2  -1  107.87    3.67
   1   2  -1  103.27    2.83
   1   2  -1   94.49    4.50
   1   2  -1  107.49    3.10
  -1  -2   1  110.58    3.68
  -1  -2   1  108.80    3.67
  -1  -2   1  113.33    4.49
  -1  -2   1  111.96    2.83
  -1  -2   1  108.45    3.11
  -1  -2   1  111.75    3.88
   0   2  -1    3.37    0.24
   0   2  -1    2.60    0.22
   0   2  -1    2.13    0.21
   0   2  -1    3.60    0.25
   0   2  -1    2.41    0.16
   0  -2   1    2.59    0.16
   0  -2   1    2.61    0.21
   0  -2   1    2.72    0.23
   0  -2   1    3.27    0.22
   0  -2   1    3.68    0.24
  -1   2  -1  270.24    6.91
  -1   2  -1  266.32    8.96
  -1   2  -1  258.27    8.96
  -1   2  -1  269.28    7.71
   1  -2   1  266.36    6.73
   1  -2   1  267.09    7.61
   1  -2   1  258.16    8.91
   1  -2   1  257.59    8.88
  -2   2  -1    2.49    0.19
  -2   2  -1    2.61    0.33
  -2   2  -1    2.56    0.33
  -2   2  -1    2.37    0.16
  -2   2  -1    2.47    0.20
   2  -2   1    2.59    0.24
   2  -2   1    2.51    0.20
   2  -2   1    2.47    0.21
   2  -2   1    2.53    0.23
  -3   2  -1   36.89    1.25
  -3   2  -1   32.87    1.27
  -3   2  -1   37.08    1.26
  -3   2  -1   37.12    1.15
   3  -2   1   36.83    1.03
   3  -2   1   36.06    1.27
   3  -2   1   34.97    0.89
  -4   2  -1    8.85    0.74
  -4   2  -1    8.20    0.56
   4  -2   1    9.69    0.47
   4  -2   1    8.44    0.50
   4  -2   1    9.08    0.50
   4  -2   1    8.43    0.42
  -5   2  -1    1.39    0.45
  -5   2  -1    1.88    0.59
   5  -2   1    1.05    0.33
   5  -2   1    0.93    0.40
  -6   2  -1    0.17    0.68
  -6   2  -1    0.76    0.53
   6  -2   1    0.18    0.50
   6  -2   1    0.52    0.39
  -7   2  -1   -0.37    0.87
   7  -2   1    0.25    0.47
   7  -2   1    0.22    0.68
  -8   2  -1   -0.46    0.96
   8  -2   1    0.69    0.83
   8   1  -1    0.01    0.65
  -8  -1   1   -0.18    0.91
   7   1  -1    1.49    0.65
   7   1  -1    0.51    0.59
  -7  -1   1    1.09    0.83
  -7  -1   1    0.47    0.74
   6   1  -1    0.61    0.46
   6   1  -1   -1.06    0.57
  -6  -1   1   -0.06    0.64
   5   1  -1    1.88    0.38
   5   1  -1    2.13    0.25
   5   1  -1    1.39    0.52
   5   1  -1    2.31    0.40
  -5  -1   1    1.82    0.39
  -5  -1   1    1.66    0.35
  -5  -1   1    1.47    0.58
   4   1  -1    6.77    0.38
   4   1  -1    6.81    0.54
   4   1  -1    7.11    0.44
  -4  -1   1    7.21    0.53
  -4  -1   1    6.93    0.49
  -4  -1   1    7.07    0.64
   3   1  -1    0.20    0.23
   3   1  -1    0.08    0.19
   3   1  -1    0.06    0.16
  -3  -1   1    0.22    0.32
  -3  -1   1   -0.05    0.17
  -3  -1   1    0.01    0.21
  -3  -1   1    0.14    0.17
   2   1  -1   11.77    0.49
   2   1  -1   11.70    0.47
  -2  -1   1   12.34    0.61
  -2  -1   1   11.38    0.50
  -2  -1   1   12.13    0.49
  -2  -1   1   11.90    0.50
  -2  -1   1   11.98    0.51
   1   1  -1    1.93    0.14
   1   1  -1    1.66    0.16
   1   1  -1    1.41    0.17
   1   1  -1    1.65    0.16
  -1  -1   1    2.23    0.14
  -1  -1   1    1.37    0.19
  -1  -1   1    2.03    0.21
  -1  -1   1    1.41    0.15
  -1  -1   1    1.77    0.18
  -1  -1   1    2.01    0.16
   0   1  -1    0.17    0.09
   0   1  -1   -0.07    0.11
   0   1  -1   -0.03    0.15
   0   1  -1   -0.16    0.10
   0   1  -1    0.28    0.11
   0  -1   1    0.11    0.09
   0  -1   1   -0.26    0.11
   0  -1   1   -0.09    0.11
  -1   1  -1    3.14    0.18
  -1   1  -1    3.27    0.15
  -1   1  -1    3.23    0.15
  -1   1  -1    3.32    0.19
   1  -1   1    3.26    0.16
  -2   1  -1   67.42    2.36
  -2   1  -1   71.04    2.37
   2  -1   1   69.62    2.36
   2  -1   1   70.51    1.79
   2  -1   1   72.96    2.37
  -3   1  -1    2.27    0.37
   3  -1   1    2.38    0.22
   3  -1   1    2.51    0.21
   3  -1   1    2.25    0.24
   3  -1   1    2.59    0.21
  -4   1  -1   11.53    0.66
   4  -1   1   10.89    0.49
   4  -1   1   10.54    0.41
  -5   1  -1    2.15    0.30
  -5   1  -1    2.18    0.52
  -5   1  -1    4.39    0.59
   5  -1   1    2.92    0.43
   5  -1   1    2.78    0.32
  -6   1  -1    0.67    0.55
  -6   1  -1   -0.10    0.66
   6  -1   1    0.65    0.53
   6  -1   1    0.93    0.35
  -7   1  -1    0.63    0.83
   7  -1   1    1.32    0.70
   7  -1   1    0.36    0.41
  -8   1  -1   -0.68    0.90
   8  -1   1    1.24    0.83
   8   0  -1    0.45    0.72
   7   0  -1    0.14    0.54
  -7   0   1   -0.18    0.78
   6   0  -1    1.79    0.54
   6   0  -1    1.42    0.46
   6   0  -1    1.35    0.32
  -6   0   1    1.83    0.71
  -6   0   1    1.71    0.69
   5   0  -1    0.81    0.26
   5   0  -1    1.76    0.27
   5   0  -1    1.64    0.40
   5   0  -1    0.73    0.51
  -5   0   1    1.07    0.42
  -5   0   1    1.49    0.30
  -5   0   1    1.52    0.27
  -5   0   1    1.63    0.53
   4   0  -1   11.52    0.72
   4   0  -1   13.28    0.54
   4   0  -1   13.62    0.44
   4   0  -1   13.80    0.59
  -4   0   1   13.37    0.51
  -4   0   1   12.77    0.62
  -4   0   1   13.35    0.72
   3   0  -1   28.31    1.03
   3   0  -1   27.80    1.08
   3   0  -1   29.18    0.81
  -3   0   1   28.55    0.98
  -3   0   1   27.23    0.84
  -3   0   1   26.94    1.05
   2   0  -1   17.20    0.63
   2   0  -1   16.24    0.57
   2   0  -1   16.81    0.65
  -2   0   1   16.62    0.59
  -2   0   1   16.30    0.65
  -2   0   1   16.54    0.62
   1   0  -1  101.94    3.46
   1   0  -1  102.22    2.86
   1   0  -1   98.71    3.41
  -1   0   1  101.48    3.39
  -1   0   1  101.20    2.86
  -1   0   1   99.49    3.47
   0   0  -1    0.02    0.01
   0   0  -1    0.03    0.01
   0   0   1    0.04    0.02
  -2   0  -1  158.27    5.10
  -2   0  -1  148.89    5.07
  -2   0  -1  148.20    3.97
   2   0   1  140.30    5.06
   2   0   1  149.75    5.07
   2   0   1  159.05    3.74
  -3   0  -1   12.09    0.45
  -3   0  -1   11.71    0.48
  -3   0  -1   11.95    0.59
  -3   0  -1   11.62    0.39
   3   0   1   12.41    0.47
   3   0   1   11.90    0.51
   3   0   1   13.02    0.46
  -4   0  -1   -0.02    0.13
  -4   0  -1   -0.20    0.38
   4   0   1    0.07    0.25
   4   0   1   -0.14    0.18
   4   0   1    0.07    0.18
  -5   0  -1   10.23    0.78
  -5   0  -1    8.37    0.90
   5   0   1    8.79    0.55
   5   0   1    9.81    0.43
   5   0   1    9.75    0.60
  -6   0  -1    2.52    0.60
  -6   0  -1    3.80    0.70
   6   0   1    3.26    0.36
   6   0   1    4.26    0.61
  -7   0  -1    0.71    0.73
  -7   0  -1    0.00    0.83
   7   0   1    0.31    0.63
   8   0   1    0.05    0.72
   8  -1  -1    1.82    0.80
  -8   1   1   -0.01    0.94
   7  -1  -1    0.63    0.62
   7  -1  -1    0.26    0.43
  -7   1   1    0.21    0.73
   6  -1  -1    3.81    0.57
   6  -1  -1    4.03    0.56
   6  -1  -1    4.01    0.42
  -6   1   1    3.23    0.39
  -6   1   1    3.24    0.67
  -6   1   1    4.42    0.69
   5  -1  -1    4.85    0.46
   5  -1  -1    4.30    0.39
   5  -1  -1    4.22    0.54
  -5   1   1    5.06    0.35
  -5   1   1    4.86    0.84
  -5   1   1    4.74    0.62
  -5   1   1    3.99    0.41
   4  -1  -1    2.66    0.27
   4  -1  -1    1.53    0.37
   4  -1  -1    1.51    0.17
   4  -1  -1    2.16    0.32
   4  -1  -1    2.14    0.32
  -4   1   1    1.40    0.38
  -4   1   1    2.10    0.40
  -4   1   1    1.39    0.26
   3  -1  -1   14.16    0.65
   3  -1  -1   14.64    0.65
   3  -1  -1   14.53    0.50
  -3   1   1   14.72    0.68
  -3   1   1   14.56    0.59
  -3   1   1   14.43    0.60
  -3   1   1   14.64    0.61
   2  -1  -1   44.84    1.60
   2  -1  -1   46.36    1.59
   2  -1  -1   43.90    1.34
   2  -1  -1   46.34    1.19
  -2   1   1   46.03    1.42
  -2   1   1   43.00    1.59
  -2   1   1   46.25    1.57
  -2   1   1   45.72    1.35
   1  -1  -1    6.99    0.25
   1  -1  -1    6.74    0.32
   1  -1  -1    6.79    0.30
   1  -1  -1    7.08    0.32
  -1   1   1    6.99    0.30
  -1   1   1    7.73    0.34
  -1   1   1    7.50    0.32
  -1   1   1    7.20    0.25
  -1   1   1    7.00    0.31
   0  -1  -1   37.21    1.29
   0  -1  -1   38.11    0.98
   0  -1  -1   38.08    0.82
   0  -1  -1   37.69    1.38
   0  -1  -1   37.54    1.13
   0  -1  -1   37.79    1.29
   0   1   1   37.53    0.98
   0   1   1   36.56    1.29
   0   1   1   37.40    1.13
   0   1   1   37.00    1.29
   0   1   1   38.52    0.82
   0   1   1   37.77    1.38
  -1  -1  -1  238.28    8.50
  -1  -1  -1  234.31    8.04
  -1  -1  -1  248.21    8.13
   1   1   1  237.85    8.04
   1   1   1  231.33    8.56
   1   1   1  238.90    5.10
   1   1   1  234.93    8.07
  -2  -1  -1   16.49    0.60
  -2  -1  -1   15.64    0.75
  -2  -1  -1   15.64    0.59
   2   1   1   15.36    0.47
   2   1   1   15.63    0.60
   2   1   1   15.79    0.61
   2   1   1   16.76    0.50
  -3  -1  -1  120.27    3.50
  -3  -1  -1  119.83    4.01
  -3  -1  -1  117.95    4.38
  -3  -1  -1  118.16    4.03
   3   1   1  113.83    4.01
   3   1   1  122.51    3.02
  -4  -1  -1    2.75    0.46
  -4  -1  -1    3.86    0.55
  -4  -1  -1    2.30    0.32
   4   1   1    3.03    0.37
   4   1   1    2.79    0.38
  -5  -1  -1    1.32    0.47
  -5  -1  -1    1.79    0.66
   5   1   1    1.29    0.44
   5   1   1    1.39    0.24
   5   1   1    1.06    0.27
   5   1   1    1.65    0.42
  -6  -1  -1    1.23    0.71
  -6  -1  -1    0.75    0.49
   6   1   1    0.26    0.44
   6   1   1    0.70    0.53
   7   1   1    1.85    0.67
  -8  -1  -1    0.55    0.99
   8   1   1    0.11    0.74
   8  -2  -1    0.01    0.67
   7  -2  -1    3.26    0.76
   7  -2  -1    1.99    0.52
  -7   2   1    1.75    0.84
   6  -2  -1    2.64    0.58
   6  -2  -1    1.87    0.42
  -6   2   1    1.62    0.72
  -6   2   1    2.08    0.56
   5  -2  -1    1.74    0.41
   5  -2  -1    2.38    0.45
   5  -2  -1    1.93    0.35
  -5   2   1    1.71    0.52
  -5   2   1    1.82    0.44
   4  -2  -1   19.90    0.53
   4  -2  -1   21.44    0.90
   4  -2  -1   20.40    0.64
   4  -2  -1   20.63    0.72
   4  -2  -1   19.60    0.92
  -4   2   1   21.41    1.02
  -4   2   1   21.00    0.82
  -4   2   1   20.67    0.81
   3  -2  -1    8.88    0.57
   3  -2  -1    8.85    0.50
   3  -2  -1    8.86    0.41
   3  -2  -1    8.86    0.29
  -3   2   1    9.32    0.61
  -3   2   1    8.60    0.48
  -3   2   1    8.98    0.45
  -3   2   1    8.89    0.43
   2  -2  -1   26.00    0.97
   2  -2  -1   25.26    0.88
   2  -2  -1   26.27    0.61
   2  -2  -1   24.72    0.96
  -2   2   1   26.33    0.79
  -2   2   1   26.60    0.92
  -2   2   1   25.36    0.96
  -2   2   1   25.19    0.94
   1  -2  -1   76.71    2.68
   1  -2  -1   78.19    2.67
   1  -2  -1   75.75    2.19
   1  -2  -1   81.82    2.34
   1  -2  -1   78.21    1.70
  -1   2   1   81.92    2.85
  -1   2   1   76.70    2.66
  -1   2   1   77.25    1.70
  -1   2   1   76.77    2.07
  -1   2   1   76.52    2.67
  -1   2   1   80.07    2.34
   0  -2  -1    8.97    0.44
   0  -2  -1    8.36    0.37
   0  -2  -1    8.41    0.40
   0  -2  -1    8.73    0.38
   0  -2  -1    8.20    0.24
   0  -2  -1    8.94    0.31
   0   2   1    8.67    0.43
   0   2   1    8.11    0.34
   0   2   1    9.10    0.40
   0   2   1    8.21    0.38
   0   2   1    8.11    0.25
   0   2   1    8.20    0.38
  -1  -2  -1   82.72    2.82
  -1  -2  -1   73.24    2.82
  -1  -2  -1   89.74    2.18
  -1  -2  -1   85.17    3.02
   1   2   1   82.37    2.82
   1   2   1   82.95    3.02
   1   2   1   81.35    2.18
   1   2   1   82.79    1.79
   1   2   1   84.90    2.83
  -2  -2  -1   13.37    0.59
  -2  -2  -1   13.80    0.67
  -2  -2  -1   13.91    0.51
  -2  -2  -1   13.18    0.58
  -2  -2  -1   12.79    0.54
   2   2   1   13.17    0.58
   2   2   1   12.50    0.67
   2   2   1   13.28    0.57
  -3  -2  -1    0.42    0.23
  -3  -2  -1   -0.16    0.36
  -3  -2  -1    0.33    0.26
   3   2   1    0.31    0.28
   3   2   1    0.40    0.23
   3   2   1    0.21    0.21
  -4  -2  -1    6.21    0.63
  -4  -2  -1    5.43    0.43
  -4  -2  -1    5.19    0.74
   4   2   1    5.68    0.46
   4   2   1    5.76    0.45
   4   2   1    5.61    0.22
  -5  -2  -1    5.95    0.84
  -5  -2  -1    4.05    0.67
   5   2   1    3.89    0.52
   5   2   1    3.88    0.58
  -6  -2  -1    2.74    0.88
   6   2   1    2.17    0.58
   6   2   1    2.40    0.55
  -7  -2  -1    0.94    0.99
   7   2   1    0.71    0.61
   7  -3  -1    2.91    0.59
   7  -3  -1    2.61    0.64
  -7   3   1    3.04    1.03
   6  -3  -1    0.81    0.47
   6  -3  -1    0.89    0.53
  -6   3   1    0.91    0.73
  -6   3   1    0.63    0.51
   5  -3  -1    0.51    0.41
   5  -3  -1    0.65    0.38
  -5   3   1    0.26    0.58
  -5   3   1    0.47    0.40
   4  -3  -1    4.90    0.38
   4  -3  -1    5.72    0.59
   4  -3  -1    5.23    0.64
  -4   3   1    5.66    0.77
  -4   3   1    5.17    0.41
  -4   3   1    5.10    0.47
   3  -3  -1   17.38    0.79
   3  -3  -1   16.26    0.77
   3  -3  -1   16.28    0.54
  -3   3   1   16.57    0.70
  -3   3   1   17.00    0.87
  -3   3   1   15.90    0.59
  -3   3   1   15.77    0.74
   2  -3  -1    0.12    0.23
   2  -3  -1    0.09    0.27
   2  -3  -1    0.09    0.19
  -2   3   1    0.15    0.21
  -2   3   1   -0.16    0.20
  -2   3   1    0.22    0.22
  -2   3   1    0.18    0.21
  -2   3   1    0.28    0.30
   1  -3  -1    6.25    0.37
   1  -3  -1    6.47    0.42
   1  -3  -1    5.88    0.41
   1  -3  -1    6.50    0.35
  -1   3   1    5.94    0.42
  -1   3   1    6.12    0.38
  -1   3   1    5.18    0.47
  -1   3   1    6.19    0.26
  -1   3   1    5.94    0.36
  -1   3   1    5.90    0.36
   0  -3  -1   23.27    0.98
   0  -3  -1   22.75    0.91
   0  -3  -1   23.83    0.71
   0  -3  -1   21.97    0.87
   0  -3  -1   23.08    0.82
   0   3   1   21.73    0.73
   0   3   1   22.42    0.97
   0   3   1   23.72    0.84
   0   3   1   22.71    0.89
   0   3   1   22.67    0.57
  -1  -3  -1    0.90    0.20
  -1  -3  -1    0.91    0.21
  -1  -3  -1    0.77    0.17
  -1  -3  -1    0.78    0.24
  -1  -3  -1    0.88    0.27
   1   3   1    0.75    0.15
   1   3   1    0.55    0.20
   1   3   1    0.80    0.23
   1   3   1    0.52    0.24
   1   3   1    0.67    0.21
  -2  -3  -1   45.34    1.46
  -2  -3  -1   46.09    1.77
  -2  -3  -1   46.75    1.65
  -2  -3  -1   47.79    1.31
   2   3   1   43.93    1.63
   2   3   1   40.89    1.76
   2   3   1   44.42    1.63
   2   3   1   43.04    1.02
  -3  -3  -1    9.85    0.75
  -3  -3  -1   10.74    0.69
  -3  -3  -1   10.31    0.59
   3   3   1   10.39    0.58
   3   3   1   10.13    0.34
   3   3   1    8.70    0.68
   3   3   1   10.20    0.63
  -4  -3  -1    0.66    0.36
  -4  -3  -1   -0.24    0.58
  -4  -3  -1    0.70    0.35
   4   3   1    0.29    0.49
   4   3   1    0.77    0.21
   4   3   1    0.41    0.32
   4   3   1    0.84    0.36
  -5  -3  -1    0.70    0.76
  -5  -3  -1    1.06    0.43
   5   3   1    0.90    0.47
  -6  -3  -1    0.88    0.96
   6   3   1    0.53    0.56
   6   3   1    0.95    0.60
   7   3   1   -0.58    0.67
   7   3   1    0.94    0.66
   7  -4  -1    0.63    0.65
  -7   4   1   -0.04    0.90
  -7   4   1    1.06    1.07
   6  -4  -1   11.49    0.77
  -6   4   1   11.62    1.22
  -6   4   1   11.53    1.42
   5  -4  -1    1.28    0.41
  -5   4   1    0.68    0.71
  -5   4   1    1.23    0.70
   4  -4  -1    8.80    0.73
   4  -4  -1    8.01    0.48
  -4   4   1    8.64    0.92
  -4   4   1    9.50    0.99
  -4   4   1    7.97    0.49
   3  -4  -1   11.76    0.48
   3  -4  -1   12.03    0.75
   3  -4  -1   13.20    0.73
  -3   4   1   12.84    0.89
  -3   4   1   12.66    0.73
  -3   4   1   13.03    0.65
   2  -4  -1   39.65    1.45
   2  -4  -1   36.89    1.49
   2  -4  -1   37.75    0.98
  -2   4   1   38.61    1.40
  -2   4   1   38.12    1.24
  -2   4   1   39.17    1.45
   1  -4  -1    1.83    0.31
   1  -4  -1    1.38    0.29
   1  -4  -1    1.29    0.35
  -1   4   1    1.87    0.34
  -1   4   1    1.08    0.34
  -1   4   1    1.73    0.23
  -1   4   1    1.36    0.29
   0  -4  -1   24.64    1.02
   0  -4  -1   23.51    0.83
   0  -4  -1   26.61    1.09
   0  -4  -1   27.30    0.84
   0  -4  -1   27.26    1.17
   0  -4  -1   24.97    0.97
   0   4   1   26.92    0.67
   0   4   1   26.08    1.05
   0   4   1   24.56    0.89
   0   4   1   27.53    1.00
  -1  -4  -1   10.42    0.51
  -1  -4  -1    9.98    0.67
  -1  -4  -1    9.43    0.62
   1   4   1    9.17    0.55
   1   4   1    8.88    0.57
   1   4   1    8.20    0.55
   1   4   1    8.63    0.35
  -2  -4  -1    2.74    0.54
  -2  -4  -1    1.87    0.44
  -2  -4  -1    2.75    0.52
   2   4   1    2.75    0.41
   2   4   1    2.15    0.36
   2   4   1    2.40    0.48
   2   4   1    2.24    0.25
  -3  -4  -1    4.61    0.58
  -3  -4  -1    6.55    0.71
  -3  -4  -1    5.58    0.66
   3   4   1    4.74    0.52
   3   4   1    4.76    0.66
   3   4   1    4.50    0.33
  -4  -4  -1    1.55    0.45
  -4  -4  -1    1.43    0.47
  -4  -4  -1    0.95    0.68
   4   4   1    1.42    0.29
   4   4   1    0.75    0.34
   4   4   1    1.76    0.62
  -5  -4  -1   -0.56    0.89
  -5  -4  -1   -0.23    0.47
   5   4   1    0.28    0.43
  -6  -4  -1    0.76    1.12
   6   4   1    0.35    0.65
   6   4   1    0.61    0.59
  -7  -4  -1    0.79    1.33
   7   4   1    0.34    0.75
   7   4   1    1.13    0.67
  -7   5   1    0.36    1.07
  -7   5   1   -0.03    1.14
   6  -5  -1    1.95    0.63
  -6   5   1    1.70    0.88
  -6   5   1    1.25    0.98
   5  -5  -1    1.94    0.53
  -5   5   1    1.47    0.75
  -5   5   1    1.62    0.80
   4  -5  -1    4.78    0.49
   4  -5  -1    4.78    0.86
  -4   5   1    4.44    0.71
  -4   5   1    3.20    0.67
   3  -5  -1   15.56    0.89
   3  -5  -1   16.93    0.64
   3  -5  -1   16.41    1.03
  -3   5   1   17.16    0.86
  -3   5   1   16.97    0.99
  -3   5   1   16.04    1.09
   2  -5  -1   13.04    0.76
   2  -5  -1   13.92    0.85
   2  -5  -1   13.48    0.53
  -2   5   1   14.81    0.51
  -2   5   1   14.77    0.76
  -2   5   1   13.77    0.95
  -2   5   1   13.22    0.75
   1  -5  -1   11.25    0.76
   1  -5  -1   11.10    0.42
  -1   5   1   10.99    0.68
  -1   5   1   10.51    0.78
  -1   5   1   11.12    0.44
  -1   5   1    9.83    0.69
   0  -5  -1   -0.36    0.24
   0  -5  -1    0.45    0.19
   0  -5  -1    0.24    0.41
   0  -5  -1    1.01    0.38
   0   5   1    0.59    0.27
   0   5   1    0.12    0.35
   0   5   1    0.26    0.38
  -1  -5  -1    1.59    0.39
  -1  -5  -1    2.96    0.62
  -1  -5  -1    2.37    0.53
   1   5   1    1.71    0.45
   1   5   1    0.97    0.37
   1   5   1    1.78    0.29
  -2  -5  -1    6.90    0.72
  -2  -5  -1    4.98    0.70
  -2  -5  -1    7.48    0.76
   2   5   1    7.01    0.71
   2   5   1    6.63    0.40
   2   5   1    6.35    0.69
  -3  -5  -1   -0.35    0.59
  -3  -5  -1    0.16    0.51
  -3  -5  -1    0.35    0.46
   3   5   1    0.16    0.61
   3   5   1    0.47    0.32
  -4  -5  -1    3.68    0.91
  -4  -5  -1    2.40    0.58
  -4  -5  -1    2.37    0.62
   4   5   1    3.18    0.79
  -5  -5  -1    2.29    1.03
   5   5   1    0.70    0.48
  -6  -5  -1   -0.29    1.20
   6   5   1    0.10    0.62
   6   5   1   -0.17    0.72
   7   5   1    1.11    0.72
   7   5   1   -0.27    0.81
  -7   6   1    0.71    1.12
   6  -6  -1    0.59    0.71
  -6   6   1    0.34    1.02
  -6   6   1    0.73    1.01
   5  -6  -1    1.31    0.61
  -5   6   1   -0.31    0.88
  -5   6   1    0.16    0.83
   4  -6  -1    2.23    0.52
  -4   6   1    1.54    0.77
  -4   6   1    0.94    0.77
   3  -6  -1   13.41    0.64
  -3   6   1   10.19    1.16
  -3   6   1   11.34    1.05
   2  -6  -1    6.08    0.46
   2  -6  -1    5.34    0.86
  -2   6   1    4.67    0.63
  -2   6   1    5.09    0.69
  -2   6   1    4.96    0.69
  -2   6   1    5.64    0.44
   1  -6  -1   11.62    0.48
   1  -6  -1    7.99    0.86
  -1   6   1    8.79    0.87
  -1   6   1    9.58    0.79
  -1   6   1    8.08    0.81
   0  -6  -1   10.75    0.60
   0  -6  -1   10.80    0.98
   0  -6  -1   13.17    0.47
   0   6   1   13.18    0.54
   0   6   1   11.26    0.77
   0   6   1   12.57    0.84
  -1  -6  -1   -0.21    0.41
  -1  -6  -1    0.11    0.60
  -1  -6  -1    0.71    0.50
   1   6   1    0.26    0.20
   1   6   1    0.06    0.47
   1   6   1    0.49    0.34
   1   6   1    0.17    0.54
  -2  -6  -1    3.05    0.62
  -2  -6  -1    4.05    0.76
  -2  -6  -1    3.42    0.66
   2   6   1    3.29    0.71
   2   6   1    3.57    0.43
   2   6   1    2.53    0.56
  -3  -6  -1    4.23    0.94
  -3  -6  -1    3.50    0.78
   3   6   1    3.69    0.86
   3   6   1    3.38    0.47
  -4  -6  -1    0.41    0.86
  -4  -6  -1   -0.15    0.61
  -4  -6  -1   -0.08    0.71
   5   6   1   -0.58    0.50
  -6  -6  -1    0.23    1.34
   6   6   1   -0.33    0.67
   6  -7  -1    0.60    0.80
  -6   7   1    0.05    1.09
  -6   7   1    1.73    1.12
   5  -7  -1    1.12    0.61
  -5   7   1    1.34    0.92
  -5   7   1    1.16    0.96
   4  -7  -1    2.46    0.60
  -4   7   1    2.30    0.85
  -4   7   1    2.13    0.86
   3  -7  -1    4.58    0.54
  -3   7   1    4.56    0.86
  -3   7   1    4.22    0.82
   2  -7  -1   10.94    1.22
   2  -7  -1   10.38    0.59
  -2   7   1   10.86    1.11
  -2   7   1    7.89    1.07
   1  -7  -1    1.52    0.85
   1  -7  -1    1.81    0.36
  -1   7   1    1.48    0.63
  -1   7   1    1.68    0.41
  -1   7   1    1.34    0.60
   0  -7  -1    1.64    0.40
   0  -7  -1    2.14    0.86
   0  -7  -1    3.16    0.39
   0   7   1    1.94    0.44
   0   7   1    0.72    0.59
  -1  -7  -1    0.74    0.81
   1   7   1    1.12    0.80
   1   7   1    0.41    0.26
   1   7   1    0.29    0.58
  -2  -7  -1    1.98    0.68
  -2  -7  -1    1.24    0.85
  -2  -7  -1    2.43    0.74
   2   7   1    1.88    0.71
  -4  -7  -1    0.61    0.98
  -5  -7  -1   -0.44    1.16
   5   7   1   -0.14    0.55
   6   7   1    0.03    0.70
   5  -8  -1   -0.29    0.81
  -5   8   1    1.17    1.04
  -5   8   1   -0.49    1.09
   4  -8  -1    1.77    0.70
  -4   8   1    1.38    0.97
  -4   8   1    0.94    0.92
   3  -8  -1    0.13    0.55
  -3   8   1    0.15    0.89
  -3   8   1   -0.70    0.82
   2  -8  -1    9.13    0.65
  -2   8   1    9.30    1.27
  -2   8   1    8.59    1.28
   1  -8  -1    2.06    0.46
  -1   8   1    1.44    0.51
  -1   8   1    0.71    0.69
   0  -8  -1    1.48    0.38
   0   8   1    0.02    0.72
   1   8   1    1.26    0.75
   2   8   1    0.58    0.81
  -4  -8  -1    0.46    1.04
  -5  -8  -1    0.47    1.26
   5   8   1   -0.01    0.58
  -4   9   1   -0.66    0.99
  -4   9   1    0.52    1.09
   3  -9  -1    0.95    0.68
  -3   9   1    1.22    1.04
  -3   9   1    0.69    0.92
  -2   9   1   -0.99    0.90
  -2   9   1   -0.60    0.82
  -1   9   1    0.76    0.89
   0   9   1   -0.38    0.81
   1   9   1    0.81    0.85
   2   9   1    0.54    0.95
  -3  10   1   -1.77    1.03
  -3  10   1    0.44    1.18
   2 -10  -1    0.02    0.64
  -2  10   1   -0.42    1.10
  -1  10   1   -0.81    1.01
   0  10   1   -0.25    1.02
   1  10   1   -1.98    0.99
   2  10   1   -1.37    1.03
   2  10  -2   -2.01    1.04
   1  10  -2   -1.79    1.06
   0  10  -2   -0.57    0.92
  -1  10  -2   -0.44    0.98
  -2  10  -2    1.41    1.11
  -3  10  -2    0.36    1.19
   3 -10   2    1.51    0.80
   2   9  -2   -1.93    0.96
   1   9  -2   -0.99    0.90
   0   9  -2   -0.82    0.87
  -1   9  -2    0.07    0.78
  -2   9  -2    0.87    0.86
   2  -9   2    0.96    0.56
  -3   9  -2    1.56    0.97
   3  -9   2    0.33    0.66
  -4   9  -2    1.23    1.14
   4  -9   2    1.25    0.76
   5   8  -2    0.08    0.50
  -4  -8   2    0.25    0.96
   2   8  -2   -1.33    0.83
   1   8  -2    0.22    0.35
   1   8  -2    0.85    0.56
   1   8  -2   -0.58    0.77
   0   8  -2    0.19    0.64
   0   8  -2    1.12    0.53
   0  -8   2    1.05    0.36
  -1   8  -2    0.40    0.66
   1  -8   2    0.11    0.40
  -2   8  -2    1.41    0.57
  -2   8  -2    1.50    0.79
   2  -8   2    2.89    0.51
  -3   8  -2    0.98    0.65
  -3   8  -2    0.71    0.88
   3  -8   2    1.29    0.59
  -4   8  -2    0.55    0.81
  -4   8  -2    0.55    0.97
   4  -8   2    0.58    0.73
  -5   8  -2    3.44    1.11
   5  -8   2    3.88    0.88
   6   7  -2    0.05    0.55
   5   7  -2    0.27    0.46
  -5  -7   2    1.68    1.13
   4   7  -2    1.34    1.10
   4   7  -2   -0.03    0.37
   2   7  -2    1.98    0.51
   2   7  -2    0.65    0.73
  -2  -7   2    1.80    0.89
   1   7  -2    0.71    0.43
   1   7  -2    0.38    0.31
   1   7  -2    0.85    0.73
   1   7  -2    0.27    0.61
  -1  -7   2    0.53    0.50
   0   7  -2    2.94    0.70
   0   7  -2    2.71    0.45
   0   7  -2    1.45    0.58
   0  -7   2    2.00    0.42
   0  -7   2    2.68    0.82
   0  -7   2    2.33    0.33
  -1   7  -2    2.26    0.59
  -1   7  -2    3.43    0.47
   1  -7   2    3.87    0.49
  -2   7  -2    0.68    0.64
  -2   7  -2    0.30    0.42
  -2   7  -2    0.23    0.47
   2  -7   2    0.01    0.40
  -3   7  -2    1.41    0.44
  -3   7  -2    1.28    0.73
  -3   7  -2    0.61    0.63
   3  -7   2    2.53    0.51
  -4   7  -2    1.24    0.77
  -4   7  -2    1.04    0.82
   4  -7   2    0.52    0.52
  -5   7  -2   -0.27    0.93
  -5   7  -2    0.10    0.88
   5  -7   2    0.44    0.67
  -6   7  -2    0.32    1.08
  -6   7  -2    1.38    1.03
   6   6  -2    0.34    0.53
   6   6  -2   -0.50    0.90
   5   6  -2    0.09    0.45
  -4  -6   2    5.15    0.98
  -4  -6   2    6.36    1.11
   3   6  -2    1.04    0.76
  -3  -6   2    0.91    0.67
  -3  -6   2    0.74    0.69
   2   6  -2    1.58    0.66
   2   6  -2    0.74    0.52
  -2  -6   2    1.20    0.56
  -2  -6   2    1.71    0.68
   1   6  -2    3.13    0.66
   1   6  -2    1.52    0.48
  -1  -6   2    2.75    0.46
  -1  -6   2    3.20    0.69
   0   6  -2    2.80    0.37
   0   6  -2    1.35    0.31
   0   6  -2    1.73    0.45
   0   6  -2    2.63    0.57
   0  -6   2    2.07    0.35
   0  -6   2    2.33    0.28
   0  -6   2    2.01    0.62
  -1   6  -2    3.28    0.49
  -1   6  -2    4.36    0.40
  -1   6  -2    4.84    0.61
  -1   6  -2    4.57    0.63
   1  -6   2    4.11    0.39
   1  -6   2    3.90    0.76
  -2   6  -2    5.48    0.77
  -2   6  -2    4.17    0.58
  -2   6  -2    3.93    0.44
   2  -6   2    5.16    0.46
   2  -6   2    4.59    0.78
  -3   6  -2   -0.19    0.55
  -3   6  -2    0.65    0.56
  -3   6  -2   -0.04    0.35
   3  -6   2    0.39    0.41
  -4   6  -2    0.85    0.69
  -4   6  -2    1.01    0.70
   4  -6   2    1.45    0.46
  -5   6  -2    1.35    0.82
  -5   6  -2    1.05    0.84
   5  -6   2    1.80    0.63
  -6   6  -2    1.85    0.98
  -6   6  -2    0.40    1.00
   6  -6   2    1.55    0.75
  -7   6  -2    0.71    1.08
   7   5  -2   -0.54    0.88
   7   5  -2    0.29    0.60
   6   5  -2   -0.19    0.47
   6   5  -2    0.18    0.77
   5   5  -2    1.42    0.72
   5   5  -2    0.40    0.41
   4   5  -2    0.89    0.32
  -4  -5   2    0.63    0.75
  -4  -5   2    0.94    0.60
   3   5  -2    1.97    0.63
  -3  -5   2    2.18    0.61
  -3  -5   2    1.71    0.56
   2   5  -2    5.48    0.75
   2   5  -2    6.36    0.69
   2   5  -2    5.12    0.71
  -2  -5   2    6.53    0.69
  -2  -5   2    6.04    0.72
   1   5  -2    0.81    0.22
   1   5  -2    0.97    0.37
   1   5  -2    1.99    0.45
  -1  -5   2    1.21    0.36
  -1  -5   2    1.89    0.49
   0   5  -2   18.24    0.87
   0   5  -2   18.44    1.10
   0   5  -2   16.57    0.75
   0  -5   2   16.62    0.66
   0  -5   2   17.23    0.80
   0  -5   2   18.40    0.53
   0  -5   2   17.45    0.91
  -1   5  -2    1.51    0.28
  -1   5  -2    1.13    0.37
  -1   5  -2    1.66    0.39
  -1   5  -2    2.01    0.33
   1  -5   2    1.97    0.37
   1  -5   2    1.16    0.30
   1  -5   2    1.88    0.26
   1  -5   2    1.45    0.43
  -2   5  -2   10.77    0.64
  -2   5  -2   10.71    0.72
  -2   5  -2    9.88    0.75
  -2   5  -2   10.62    0.45
   2  -5   2   10.54    0.45
   2  -5   2   11.00    0.65
   2  -5   2   10.75    0.73
  -3   5  -2    8.43    0.87
  -3   5  -2    9.45    0.45
  -3   5  -2    8.62    0.71
  -3   5  -2    9.30    0.59
   3  -5   2    9.34    0.78
   3  -5   2   10.08    0.53
   3  -5   2    8.74    0.65
  -4   5  -2    0.90    0.51
  -4   5  -2    1.39    0.62
   4  -5   2    1.16    0.42
  -5   5  -2    1.51    0.74
  -5   5  -2    2.40    0.77
   5  -5   2    2.32    0.54
  -6   5  -2    1.41    0.89
  -6   5  -2    1.44    0.92
   6  -5   2    1.97    0.64
  -7   5  -2    0.05    1.04
  -7   5  -2    0.90    1.05
   7  -5   2    0.15    0.71
   7   4  -2    0.10    0.82
   7   4  -2    0.59    0.58
   6   4  -2    0.04    0.70
   6   4  -2    0.15    0.45
  -6  -4   2   -0.04    1.03
   5   4  -2    2.20    0.65
   5   4  -2    0.97    0.39
  -5  -4   2    1.63    0.85
   4   4  -2    0.63    0.32
   4   4  -2    0.18    0.30
  -4  -4   2   -0.05    0.64
  -4  -4   2    0.30    0.47
   3   4  -2    1.15    0.24
   3   4  -2    1.28    0.31
   3   4  -2    1.71    0.49
  -3  -4   2    1.67    0.39
  -3  -4   2    2.38    0.48
  -3  -4   2    2.56    0.54
   2   4  -2   11.47    0.66
   2   4  -2   12.11    0.78
   2   4  -2   12.25    0.70
   2   4  -2   11.80    0.74
  -2  -4   2   12.84    0.69
  -2  -4   2   12.43    0.74
   1   4  -2   86.78    3.12
   1   4  -2   89.02    2.62
   1   4  -2   91.90    3.31
   1   4  -2   87.89    3.82
  -1  -4   2   89.09    2.62
  -1  -4   2   90.03    3.14
   0   4  -2   20.74    0.67
   0   4  -2   19.71    0.85
   0   4  -2   20.62    1.07
   0   4  -2   19.13    0.73
   0   4  -2   22.03    0.94
   0  -4   2   20.72    0.85
   0  -4   2   19.24    0.68
   0  -4   2   20.00    0.89
   0  -4   2   19.34    0.78
  -1   4  -2   71.04    2.18
  -1   4  -2   72.24    2.03
  -1   4  -2   67.60    1.98
  -1   4  -2   71.32    2.50
   1  -4   2   74.27    2.17
   1  -4   2   72.25    2.50
   1  -4   2   70.03    2.52
   1  -4   2   71.63    1.66
  -2   4  -2    0.07    0.20
  -2   4  -2   -0.03    0.24
  -2   4  -2   -0.16    0.29
  -2   4  -2    0.24    0.26
   2  -4   2    0.25    0.23
   2  -4   2    0.28    0.21
   2  -4   2    0.18    0.31
   2  -4   2    0.29    0.27
  -3   4  -2    6.88    0.73
  -3   4  -2    6.10    0.33
  -3   4  -2    5.96    0.34
  -3   4  -2    6.50    0.57
  -3   4  -2    6.46    0.45
   3  -4   2    6.84    0.55
   3  -4   2    6.20    0.49
   3  -4   2    6.09    0.42
  -4   4  -2    7.28    0.76
  -4   4  -2    7.85    0.50
  -4   4  -2    8.49    0.89
   4  -4   2    8.34    0.54
   4  -4   2    9.21    0.64
   4  -4   2    7.90    0.48
  -5   4  -2    2.27    0.44
  -5   4  -2    2.64    0.70
  -5   4  -2    1.41    0.63
   5  -4   2    2.61    0.46
   5  -4   2    2.15    0.53
  -6   4  -2    1.22    0.79
  -6   4  -2    1.76    0.74
   6  -4   2    1.96    0.55
   6  -4   2    1.60    0.63
  -7   4  -2   -0.33    0.94
  -7   4  -2    0.53    0.98
   7  -4   2    0.81    0.67
   7  -4   2   -0.12    0.61
   7   3  -2   -0.06    0.77
   7   3  -2   -0.32    0.54
  -7  -3   2    0.07    1.07
   6   3  -2    1.11    0.48
   6   3  -2    1.77    0.70
   5   3  -2    0.82    0.35
   5   3  -2    0.88    0.54
  -5  -3   2    0.85    0.48
  -5  -3   2    0.71    0.72
   4   3  -2    3.17    0.57
   4   3  -2    2.42    0.48
   4   3  -2    3.09    0.37
  -4  -3   2    3.98    0.59
  -4  -3   2    3.38    0.65
  -4  -3   2    3.71    0.42
  -4  -3   2    3.32    0.49
   3   3  -2    0.06    0.30
   3   3  -2    0.40    0.25
   3   3  -2    0.19    0.20
  -3  -3   2    0.46    0.41
  -3  -3   2    0.19    0.14
  -3  -3   2    0.51    0.22
  -3  -3   2    0.33    0.33
   2   3  -2    7.90    0.47
   2   3  -2    7.67    0.49
   2   3  -2    7.39    0.51
   2   3  -2    8.87    0.56
  -2  -3   2    7.97    0.52
  -2  -3   2    7.64    0.53
  -2  -3   2    8.31    0.53
   1   3  -2   65.28    1.91
   1   3  -2   63.13    2.80
   1   3  -2   65.04    2.39
   1   3  -2   64.03    2.27
   1   3  -2   64.10    2.28
   1   3  -2   64.01    1.80
  -1  -3   2   64.73    2.26
  -1  -3   2   63.65    1.92
  -1  -3   2   66.69    1.79
  -1  -3   2   65.24    2.29
   0   3  -2    5.40    0.47
   0   3  -2    5.07    0.26
   0   3  -2    4.96    0.38
   0   3  -2    5.11    0.34
   0   3  -2    5.24    0.34
   0  -3   2    4.71    0.27
   0  -3   2    4.70    0.33
   0  -3   2    4.71    0.33
   0  -3   2    5.17    0.34
   0  -3   2    4.91    0.37
  -1   3  -2    2.20    0.31
  -1   3  -2    3.20    0.27
  -1   3  -2    3.03    0.28
  -1   3  -2    3.04    0.18
  -1   3  -2    2.71    0.33
   1  -3   2    3.26    0.28
   1  -3   2    3.13    0.27
   1  -3   2    2.92    0.31
   1  -3   2    2.91    0.34
  -2   3  -2   35.30    1.17
  -2   3  -2   33.59    1.06
  -2   3  -2   33.63    1.23
  -2   3  -2   33.47    1.23
  -2   3  -2   34.93    0.81
   2  -3   2   33.89    0.86
   2  -3   2   34.53    1.11
   2  -3   2   33.87    1.25
   2  -3   2   34.95    1.24
  -3   3  -2    0.25    0.32
  -3   3  -2    0.03    0.27
  -3   3  -2    0.08    0.19
  -3   3  -2    0.28    0.18
  -3   3  -2    0.29    0.17
   3  -3   2    0.03    0.24
   3  -3   2    0.10    0.22
   3  -3   2    0.31    0.26
   3  -3   2    0.10    0.21
  -4   3  -2    6.21    0.51
  -4   3  -2    7.88    0.78
  -4   3  -2    6.57    0.63
   4  -3   2    6.56    0.55
   4  -3   2    6.95    0.51
   4  -3   2    6.38    0.44
   4  -3   2    7.22    0.47
  -5   3  -2    7.20    1.00
  -5   3  -2    5.99    0.59
   5  -3   2    6.41    0.64
   5  -3   2    6.26    0.52
  -6   3  -2   -0.18    0.75
  -6   3  -2   -0.45    0.49
   6  -3   2    0.39    0.54
   6  -3   2    0.09    0.46
  -7   3  -2   -0.43    0.87
  -7   3  -2   -0.50    0.88
   7  -3   2    0.25    0.67
   7   2  -2    0.58    0.75
   7   2  -2   -0.16    0.56
  -7  -2   2    0.49    0.91
   6   2  -2    1.40    0.70
   6   2  -2    1.50    0.45
   5   2  -2    1.32    0.52
   5   2  -2    1.54    0.35
  -5  -2   2    1.17    0.63
  -5  -2   2    1.41    0.45
   4   2  -2    1.26    0.33
   4   2  -2    1.18    0.27
   4   2  -2    0.98    0.39
  -4  -2   2    1.14    0.37
  -4  -2   2    0.49    0.47
   3   2  -2   12.06    0.44
   3   2  -2   11.63    0.59
   3   2  -2   12.01    0.62
  -3  -2   2   11.72    0.61
  -3  -2   2   11.10    0.66
  -3  -2   2   12.75    0.54
  -3  -2   2   12.45    0.74
   2   2  -2   15.59    0.66
   2   2  -2   16.03    0.61
   2   2  -2   15.72    0.67
  -2  -2   2   16.92    0.65
  -2  -2   2   15.62    0.64
  -2  -2   2   16.08    0.60
  -2  -2   2   15.80    0.67
  -2  -2   2   16.08    0.69
  -2  -2   2   15.26    0.83
   1   2  -2   73.46    2.55
   1   2  -2   69.16    2.43
   1   2  -2   70.76    2.43
   1   2  -2   71.28    1.90
   1   2  -2   72.30    2.06
   1   2  -2   61.11    3.00
  -1  -2   2   69.35    2.05
  -1  -2   2   72.98    1.89
  -1  -2   2   72.40    2.99
  -1  -2   2   71.08    2.44
  -1  -2   2   70.83    2.43
   0   2  -2  891.46   38.89
   0   2  -2  851.48   31.48
   0   2  -2  946.18   31.55
   0   2  -2  973.48   26.44
   0   2  -2  956.25   24.11
   0  -2   2 1000.00   24.16
   0  -2   2  947.19   31.52
   0  -2   2  926.61   31.53
   0  -2   2  929.86   26.41
   0  -2   2  967.28   26.92
  -1   2  -2  126.55    3.50
  -1   2  -2  124.63    4.07
  -1   2  -2  119.77    4.06
  -1   2  -2  118.77    3.13
   1  -2   2  120.65    3.14
   1  -2   2  119.47    3.48
   1  -2   2  117.91    4.07
   1  -2   2  119.69    4.07
  -2   2  -2   16.70    0.42
  -2   2  -2   16.50    0.61
  -2   2  -2   17.32    0.61
  -2   2  -2   17.54    0.64
  -2   2  -2   16.45    0.62
   2  -2   2   16.49    0.63
   2  -2   2   16.31    0.46
   2  -2   2   16.81    0.52
  -3   2  -2   14.89    0.70
  -3   2  -2   14.07    0.51
   3  -2   2   13.94    0.51
   3  -2   2   14.39    0.59
   3  -2   2   13.54    0.46
   3  -2   2   13.60    0.54
  -4   2  -2    1.28    0.38
  -4   2  -2    1.70    0.42
   4  -2   2    1.81    0.29
   4  -2   2    1.66    0.33
  -5   2  -2    4.88    0.67
  -5   2  -2    3.34    0.58
   5  -2   2    3.20    0.36
   5  -2   2    3.65    0.55
  -6   2  -2    1.79    0.59
  -6   2  -2    2.66    0.79
   6  -2   2    2.40    0.58
   6  -2   2    2.15    0.41
  -7   2  -2   -0.31    0.81
  -7   2  -2    0.16    0.62
   7  -2   2    0.58    0.69
   7  -2   2    0.52    0.48
  -8   2  -2   -1.96    1.01
   8  -2   2   -0.31    0.55
   8  -2   2    0.41    0.82
   8   1  -2    0.71    0.69
   7   1  -2    0.57    0.54
   7   1  -2    1.35    0.72
  -7  -1   2   -0.01    0.70
   6   1  -2    0.10    0.43
   6   1  -2   -0.72    0.60
  -6  -1   2    0.08    0.64
   5   1  -2    7.17    0.78
   5   1  -2    9.03    0.38
   5   1  -2    8.74    0.53
   5   1  -2    8.26    0.56
  -5  -1   2    9.70    0.83
  -5  -1   2    8.55    0.63
   4   1  -2    9.68    0.46
   4   1  -2   10.13    0.66
   4   1  -2    9.62    0.53
  -4  -1   2    9.57    0.70
  -4  -1   2    9.56    0.59
  -4  -1   2   10.14    0.51
   3   1  -2    5.96    0.39
   3   1  -2    6.31    0.30
   3   1  -2    6.28    0.43
  -3  -1   2    6.31    0.42
  -3  -1   2    6.41    0.52
  -3  -1   2    6.42    0.32
  -3  -1   2    5.64    0.50
   2   1  -2   38.01    1.35
   2   1  -2   37.10    1.35
   2   1  -2   37.17    1.18
  -2  -1   2   37.94    1.35
  -2  -1   2   37.69    1.34
  -2  -1   2   37.14    1.19
  -2  -1   2   38.03    1.67
  -2  -1   2   38.38    1.07
   1   1  -2    0.13    0.08
   1   1  -2    0.20    0.12
   1   1  -2    0.10    0.11
   1   1  -2    0.36    0.13
  -1  -1   2    0.14    0.13
  -1  -1   2    0.32    0.11
  -1  -1   2    0.26    0.14
  -1  -1   2    0.13    0.08
  -1  -1   2    0.23    0.12
   0   1  -2   10.04    0.39
   0   1  -2   10.84    0.34
   0   1  -2    9.75    0.52
   0   1  -2   10.17    0.32
   0  -1   2   10.54    0.33
   0  -1   2    9.98    0.52
   0  -1   2   10.20    0.34
   0  -1   2    9.78    0.40
   0  -1   2    9.81    0.39
  -1   1  -2  249.57    6.84
  -1   1  -2  277.92    8.96
   1  -1   2  270.75    8.93
   2  -1   2    7.85    0.29
   3  -1   2    2.86    0.24
   3  -1   2    3.28    0.27
  -4   1  -2   24.72    0.99
   4  -1   2   25.48    0.82
   4  -1   2   25.02    0.69
  -5   1  -2    0.61    0.48
  -5   1  -2    0.20    0.17
   5  -1   2    0.72    0.38
   5  -1   2    0.03    0.28
  -6   1  -2    2.50    0.63
  -6   1  -2    2.48    0.75
   6  -1   2    2.58    0.38
   6  -1   2    3.07    0.63
  -7   1  -2    0.02    0.87
   7  -1   2    0.00    0.41
   7  -1   2    0.22    0.68
  -8   1  -2   -1.39    1.03
   8  -1   2    0.50    0.85
   8   0  -2    0.32    0.73
  -8   0   2   -0.57    0.86
   7   0  -2    0.68    0.60
   7   0  -2    1.65    0.60
  -7   0   2    0.46    0.83
   6   0  -2    2.74    0.51
   6   0  -2    2.88    0.38
   6   0  -2    2.27    0.67
  -6   0   2    2.59    0.38
  -6   0   2    2.10    0.66
  -6   0   2    3.32    0.73
   5   0  -2   -1.19    0.53
   5   0  -2    0.15    0.31
   5   0  -2    0.47    0.31
   5   0  -2    0.47    0.26
  -5   0   2    0.32    0.27
  -5   0   2    0.87    0.49
  -5   0   2    0.01    0.32
  -5   0   2    0.39    0.48
  -5   0   2   -0.07    0.32
   4   0  -2   10.16    0.53
   4   0  -2    8.32    0.68
   4   0  -2    9.79    0.44
  -4   0   2    8.98    0.56
  -4   0   2   10.59    0.66
  -4   0   2    9.48    0.47
   3   0  -2    9.69    0.57
   3   0  -2   10.72    0.40
   3   0  -2   10.54    0.50
   3   0  -2   10.43    0.48
  -3   0   2    9.67    0.53
  -3   0   2    9.49    0.53
  -3   0   2   10.20    0.43
   2   0  -2    1.30    0.19
   2   0  -2    1.42    0.21
   2   0  -2    1.12    0.23
  -2   0   2    1.27    0.21
  -2   0   2    0.93    0.19
  -2   0   2    1.12    0.22
   1   0  -2   30.07    1.05
   1   0  -2   29.54    0.88
   1   0  -2   28.74    1.06
   1   0  -2   30.21    1.06
  -1   0   2   29.04    1.29
  -1   0   2   27.98    1.06
  -1   0   2   28.31    0.90
  -1   0   2   28.81    1.06
  -1   0   2   29.80    1.05
  -1   0   2   30.88    0.89
   0   0  -2    6.63    0.28
   0   0  -2    6.72    0.23
   0   0  -2    6.59    0.28
   0   0  -2    6.92    0.25
   0   0  -2    6.39    0.37
   0   0  -2    6.18    0.32
   0   0   2    6.62    0.18
   0   0   2    6.22    0.23
   0   0   2    6.56    0.32
   0   0   2    6.19    0.36
   0   0   2    6.59    0.28
  -1   0  -2   77.80    2.63
  -1   0  -2   77.77    2.60
   1   0   2   77.26    2.61
   2   0   2   44.63    1.17
   3   0   2    1.92    0.26
  -4   0  -2   -0.25    0.39
   4   0   2   -0.10    0.19
   4   0   2    0.47    0.29
  -5   0  -2    2.63    0.59
  -5   0  -2    2.37    0.60
   5   0   2    3.16    0.45
   5   0   2    2.91    0.30
  -6   0  -2   -0.18    0.55
  -6   0  -2    0.26    0.61
   6   0   2    0.64    0.54
   6   0   2    0.09    0.30
  -7   0  -2   -0.40    0.84
  -7   0  -2   -0.13    0.71
   7   0   2    0.28    0.66
  -8   0  -2    0.72    0.87
   8   0   2    0.81    0.75
   8  -1  -2    0.64    0.77
   7  -1  -2    0.04    0.43
   7  -1  -2    0.79    0.58
  -7   1   2    0.37    0.71
   6  -1  -2    4.87    0.47
   6  -1  -2    5.38    0.65
   6  -1  -2    4.83    0.70
  -6   1   2    2.88    0.66
  -6   1   2    4.63    0.80
  -6   1   2    4.39    0.51
   5  -1  -2    3.07    0.42
   5  -1  -2    2.76    0.42
   5  -1  -2    2.98    0.55
   5  -1  -2    3.08    0.41
  -5   1   2    2.74    0.51
  -5   1   2    2.10    0.36
  -5   1   2    2.17    0.51
   4  -1  -2    0.63    0.32
   4  -1  -2    0.59    0.27
   4  -1  -2    0.47    0.40
  -4   1   2    0.78    0.27
  -4   1   2    0.58    0.35
  -4   1   2    0.54    0.34
   3  -1  -2   29.47    1.16
   3  -1  -2   29.03    0.96
   3  -1  -2   29.44    1.14
   3  -1  -2   29.56    0.85
  -3   1   2   29.28    1.10
  -3   1   2   28.21    1.10
  -3   1   2   28.97    1.06
  -3   1   2   29.29    0.98
   2  -1  -2   32.29    1.07
   2  -1  -2   32.04    1.22
   2  -1  -2   33.02    0.89
   2  -1  -2   32.74    1.01
   2  -1  -2   33.43    1.23
  -2   1   2   32.78    1.01
  -2   1   2   31.17    1.21
  -2   1   2   33.95    1.24
  -2   1   2   33.40    1.20
  -2   1   2   32.98    1.08
   1  -1  -2   38.85    1.18
   1  -1  -2   37.80    1.36
   1  -1  -2   37.49    1.35
   1  -1  -2   38.37    1.12
   1  -1  -2   38.44    1.42
  -1   1   2   38.73    1.12
  -1   1   2   38.12    1.35
  -1   1   2   38.98    1.19
  -1   1   2   38.39    1.41
  -1   1   2   37.72    1.36
   0  -1  -2   33.28    1.26
   0  -1  -2   34.54    1.04
   0  -1  -2   33.46    0.87
   0  -1  -2   33.70    1.18
   0  -1  -2   34.60    1.44
   0  -1  -2   33.18    1.17
   0   1   2   33.03    1.17
   0   1   2   33.61    1.17
   0   1   2   33.06    1.04
   0   1   2   32.71    1.26
   0   1   2   33.77    1.43
   0   1   2   33.34    0.88
  -1  -1  -2    0.36    0.10
  -1  -1  -2    0.40    0.07
  -1  -1  -2    0.36    0.12
  -1  -1  -2    0.13    0.16
  -1  -1  -2    0.37    0.08
   1   1   2    0.30    0.12
   1   1   2    0.17    0.15
   1   1   2    0.31    0.12
  -2  -1  -2   13.69    0.52
  -2  -1  -2   14.41    0.54
  -2  -1  -2   13.47    0.74
   2   1   2   13.43    0.54
   2   1   2   14.11    0.54
   2   1   2   14.47    0.47
  -3  -1  -2   36.61    1.30
  -3  -1  -2   35.83    1.60
  -3  -1  -2   36.20    1.28
   3   1   2   38.25    1.31
   3   1   2   37.10    1.06
  -4  -1  -2    5.72    0.36
  -4  -1  -2    5.25    0.76
  -4  -1  -2    5.46    0.68
   4   1   2    6.66    0.42
   4   1   2    6.07    0.42
  -5  -1  -2   -0.59    0.56
  -5  -1  -2    0.03    0.47
   5   1   2   -0.07    0.36
   5   1   2    0.70    0.30
   5   1   2    0.03    0.22
   5   1   2   -0.02    0.40
  -6  -1  -2    3.70    0.68
  -6  -1  -2    3.14    0.80
   6   1   2    4.62    0.65
   7   1   2    0.57    0.67
   8   1   2    0.57    0.76
   8  -2  -2    1.10    0.57
   8  -2  -2    0.26    0.66
   7  -2  -2    0.35    0.49
   7  -2  -2    0.17    0.58
  -7   2   2    0.24    0.67
  -7   2   2   -0.02    0.74
   6  -2  -2    2.56    0.53
   6  -2  -2    2.58    0.43
   6  -2  -2    3.83    0.62
  -6   2   2    2.90    0.77
   5  -2  -2   53.59    1.96
   5  -2  -2   50.38    1.32
   5  -2  -2   51.13    1.53
   5  -2  -2   52.42    1.95
  -5   2   2   49.41    1.93
  -5   2   2   50.21    1.73
   4  -2  -2    6.66    0.43
   4  -2  -2    6.43    0.60
   4  -2  -2    7.50    0.60
  -4   2   2    7.02    0.45
  -4   2   2    7.84    0.74
  -4   2   2    7.76    0.54
   3  -2  -2    7.48    0.57
   3  -2  -2    6.99    0.28
   3  -2  -2    6.86    0.35
   3  -2  -2    7.40    0.51
  -3   2   2    6.97    0.57
  -3   2   2    6.58    0.42
  -3   2   2    7.00    0.42
  -3   2   2    7.01    0.48
   2  -2  -2   26.39    1.04
   2  -2  -2   27.48    1.04
   2  -2  -2   26.62    0.83
   2  -2  -2   27.23    0.94
   2  -2  -2   26.59    0.65
  -2   2   2   27.55    0.84
  -2   2   2   26.79    1.01
  -2   2   2   26.71    1.03
  -2   2   2   27.46    1.09
  -2   2   2   27.58    0.97
   1  -2  -2   57.95    1.28
   1  -2  -2   58.72    1.66
   1  -2  -2   57.88    2.01
   1  -2  -2   56.92    2.02
   1  -2  -2   59.59    2.16
   1  -2  -2   59.83    1.78
  -1   2   2   57.45    2.01
  -1   2   2   58.38    2.15
  -1   2   2   57.18    1.79
  -1   2   2   56.37    2.01
  -1   2   2   56.83    1.56
   0  -2  -2    2.55    0.22
   0  -2  -2    2.70    0.19
   0  -2  -2    2.97    0.26
   0  -2  -2    3.14    0.29
   0  -2  -2    2.55    0.25
   0  -2  -2    2.39    0.15
   0   2   2    2.55    0.23
   0   2   2    2.52    0.23
   0   2   2    2.55    0.26
   0   2   2    2.51    0.25
   0   2   2    2.91    0.31
  -1  -2  -2   50.52    1.09
  -1  -2  -2   48.63    1.88
  -1  -2  -2   54.81    1.33
  -1  -2  -2   48.74    1.71
  -1  -2  -2   46.63    1.73
   1   2   2   48.88    1.09
   1   2   2   48.48    1.33
   1   2   2   49.67    1.72
   1   2   2   50.13    1.72
   1   2   2   48.21    2.05
   1   2   2   46.70    1.87
  -2  -2  -2    8.72    0.43
  -2  -2  -2    9.77    0.60
  -2  -2  -2    9.45    0.40
  -2  -2  -2    9.32    0.46
  -2  -2  -2    9.05    0.41
   2   2   2    8.46    0.27
   2   2   2    8.86    0.46
   2   2   2    9.25    0.45
   2   2   2    8.04    0.56
  -3  -2  -2    9.39    0.49
  -3  -2  -2   10.12    0.71
   3   2   2    8.98    0.45
   3   2   2    9.26    0.49
   3   2   2    9.41    0.53
  -4  -2  -2   18.90    0.80
  -4  -2  -2   18.37    1.00
  -4  -2  -2   20.06    1.09
   4   2   2   19.72    0.83
   4   2   2   18.59    0.71
  -5  -2  -2   -0.46    0.71
  -5  -2  -2    0.19    0.44
   5   2   2    0.38    0.40
   5   2   2    0.13    0.40
  -6  -2  -2   -0.13    0.79
  -6  -2  -2    0.11    0.53
   6   2   2    0.32    0.55
   6   2   2   -0.69    0.49
  -7  -2  -2    1.67    1.06
   7   2   2    1.25    0.66
  -7   3   2    0.04    0.90
   6  -3  -2    0.35    0.45
  -6   3   2    0.37    0.70
   5  -3  -2    0.19    0.39
  -5   3   2    0.72    0.62
  -5   3   2    0.55    0.41
   4  -3  -2   26.07    0.80
   4  -3  -2   26.62    1.17
   4  -3  -2   26.29    1.21
  -4   3   2   26.81    1.23
  -4   3   2   26.39    0.95
  -4   3   2   26.16    1.05
   3  -3  -2   19.59    0.90
   3  -3  -2   18.70    0.87
  -3   3   2   19.04    0.81
  -3   3   2   19.56    0.94
  -3   3   2   19.04    0.68
   2  -3  -2    0.22    0.27
   2  -3  -2    0.15    0.12
   2  -3  -2    0.17    0.30
  -2   3   2    0.42    0.26
  -2   3   2    0.13    0.23
  -2   3   2    0.17    0.23
  -2   3   2    0.50    0.18
  -2   3   2    0.11    0.22
   1  -3  -2   40.32    1.45
   1  -3  -2   39.98    1.13
   1  -3  -2   39.71    1.47
   1  -3  -2   39.53    1.16
   1  -3  -2   42.83    1.59
   1  -3  -2   39.96    1.33
  -1   3   2   38.43    1.16
  -1   3   2   38.29    1.45
  -1   3   2   38.08    1.35
  -1   3   2   39.92    1.45
  -1   3   2   40.13    1.57
   0  -3  -2   31.96    0.89
   0  -3  -2   31.03    1.17
   0  -3  -2   30.67    1.26
   0  -3  -2   29.76    1.14
   0  -3  -2   31.06    1.06
   0   3   2   28.86    0.92
   0   3   2   31.26    1.08
   0   3   2   29.35    1.14
   0   3   2   31.37    1.16
   0   3   2   30.57    0.74
   0   3   2   30.30    1.25
  -1  -3  -2   10.06    0.53
  -1  -3  -2    9.59    0.47
  -1  -3  -2   10.12    0.61
  -1  -3  -2   10.43    0.49
  -1  -3  -2   10.61    0.41
   1   3   2    9.36    0.50
   1   3   2   10.60    0.49
   1   3   2    9.75    0.52
   1   3   2    9.07    0.46
   1   3   2    9.31    0.32
   1   3   2    9.32    0.57
  -2  -3  -2   22.15    0.72
  -2  -3  -2   22.01    1.02
  -2  -3  -2   22.04    0.91
   2   3   2   19.73    0.99
   2   3   2   21.14    0.89
   2   3   2   21.19    0.87
   2   3   2   20.89    0.55
  -3  -3  -2    1.29    0.34
  -3  -3  -2    0.57    0.45
  -3  -3  -2    1.21    0.35
   3   3   2    1.14    0.20
   3   3   2    1.45    0.40
   3   3   2    1.47    0.33
  -4  -3  -2    4.37    0.69
  -4  -3  -2    3.20    0.47
  -4  -3  -2    3.93    0.73
  -4  -3  -2    2.82    0.40
   4   3   2    2.55    0.42
   4   3   2    4.00    0.46
   4   3   2    4.27    0.57
  -5  -3  -2    5.26    0.90
  -5  -3  -2    4.56    0.81
   5   3   2    4.57    0.62
   6   3   2   -0.08    0.57
   6   3   2    0.16    0.55
  -7  -3  -2    0.40    1.18
   7   3   2    0.56    0.65
   7  -4  -2    0.32    0.66
  -7   4   2   -0.80    1.00
  -7   4   2    0.29    0.98
   6  -4  -2    6.36    0.71
  -6   4   2    4.66    1.00
  -6   4   2    3.56    0.89
   5  -4  -2    2.19    0.44
  -5   4   2    1.29    0.72
  -5   4   2    2.18    0.77
   4  -4  -2   19.40    1.07
   4  -4  -2   18.25    0.71
   4  -4  -2   19.73    1.02
  -4   4   2   19.38    1.20
  -4   4   2   18.37    0.74
  -4   4   2   18.29    1.03
  -4   4   2   19.35    0.91
   3  -4  -2   14.48    0.88
   3  -4  -2   17.01    0.87
  -3   4   2   15.71    0.77
  -3   4   2   15.76    0.94
  -3   4   2   16.70    0.59
  -3   4   2   16.85    0.88
   2  -4  -2    9.19    0.66
   2  -4  -2    9.24    0.58
  -2   4   2    9.60    0.58
  -2   4   2    8.73    0.74
  -2   4   2   10.09    0.64
   1  -4  -2    0.35    0.28
   1  -4  -2    0.13    0.34
  -1   4   2    0.09    0.21
  -1   4   2    0.06    0.25
  -1   4   2    0.40    0.31
  -1   4   2   -0.19    0.33
   0  -4  -2   30.50    0.91
   0  -4  -2   28.78    1.19
   0  -4  -2   28.45    1.27
   0   4   2   26.55    0.95
   0   4   2   28.76    0.74
   0   4   2   28.82    1.15
   0   4   2   29.72    1.11
  -1  -4  -2   10.21    0.69
  -1  -4  -2    9.56    0.47
  -1  -4  -2    9.49    0.61
   1   4   2    8.34    0.55
   1   4   2    9.07    0.37
   1   4   2    9.13    0.58
   1   4   2    9.36    0.55
  -2  -4  -2    2.42    0.50
  -2  -4  -2    1.96    0.45
  -2  -4  -2    3.49    0.60
   2   4   2    2.20    0.29
   2   4   2    2.31    0.48
   2   4   2    2.74    0.42
  -3  -4  -2    5.78    0.71
  -3  -4  -2    4.59    0.60
  -3  -4  -2    5.15    0.67
   3   4   2    4.99    0.64
   3   4   2    4.98    0.33
   3   4   2    5.13    0.52
  -4  -4  -2    0.55    0.75
  -4  -4  -2    1.49    0.49
  -4  -4  -2    1.12    0.47
   4   4   2    0.61    0.36
   4   4   2    1.53    0.28
   4   4   2    1.52    0.61
  -5  -4  -2    0.06    0.88
  -5  -4  -2    0.43    0.52
   5   4   2    0.18    0.47
   6   4   2    0.07    0.62
   6   4   2   -0.10    0.62
   7   4   2   -0.76    0.72
   7   4   2    0.17    0.71
   7  -5  -2    1.88    0.78
  -7   5   2    0.81    1.03
  -7   5   2    1.42    1.00
   6  -5  -2    0.11    0.64
  -6   5   2   -0.82    0.87
  -6   5   2    0.93    0.94
   5  -5  -2    3.92    0.54
  -5   5   2    3.49    0.88
  -5   5   2    4.11    0.86
   4  -5  -2    2.46    0.43
  -4   5   2    1.28    0.62
  -4   5   2    1.97    0.68
   3  -5  -2    6.82    0.80
   3  -5  -2    8.12    0.73
   3  -5  -2    8.86    0.52
  -3   5   2    7.81    0.77
  -3   5   2    7.01    0.65
  -3   5   2    7.65    0.97
   2  -5  -2    8.02    0.41
   2  -5  -2    7.72    0.74
  -2   5   2    8.83    0.74
  -2   5   2    7.59    0.86
  -2   5   2    8.93    0.64
   1  -5  -2   13.18    0.81
  -1   5   2   13.63    0.50
  -1   5   2   13.00    0.75
  -1   5   2   12.09    0.87
  -1   5   2   12.71    0.74
   0  -5  -2    4.20    0.66
   0  -5  -2    2.81    0.58
   0   5   2    2.94    0.34
   0   5   2    3.41    0.54
   0   5   2    2.36    0.39
  -1  -5  -2   16.82    1.01
  -1  -5  -2   14.51    0.75
  -1  -5  -2   15.92    0.93
   1   5   2   15.34    0.86
   1   5   2   16.50    0.54
   1   5   2   13.99    0.77
  -2  -5  -2    3.94    0.67
  -2  -5  -2    4.10    0.73
  -2  -5  -2    3.67    0.60
   2   5   2    3.06    0.45
   2   5   2    3.16    0.36
   2   5   2    3.20    0.55
  -3  -5  -2    1.23    0.49
  -3  -5  -2    0.48    0.67
  -3  -5  -2    0.74    0.53
   3   5   2    1.31    0.60
   3   5   2    1.46    0.34
  -4  -5  -2    0.99    0.58
  -4  -5  -2    0.96    0.57
   4   5   2    1.81    0.77
  -5  -5  -2   -0.15    0.62
   5   5   2   -0.05    0.53
   6   5   2   -0.40    0.65
   7   5   2   -0.31    0.73
   7   5   2   -1.71    0.77
   6  -6  -2    1.64    0.74
  -6   6   2    1.62    0.99
  -6   6   2    1.32    1.13
   5  -6  -2    0.44    0.60
  -5   6   2    0.50    0.95
  -5   6   2    0.04    0.86
   4  -6  -2    1.25    0.51
  -4   6   2    0.97    0.77
  -4   6   2    0.27    0.69
  -3   6   2    0.54    0.67
  -3   6   2    1.12    0.61
   2  -6  -2    0.69    0.35
  -2   6   2    0.36    0.51
  -2   6   2    0.09    0.60
  -2   6   2    0.15    0.48
   1  -6  -2   29.40    0.80
   1  -6  -2   25.14    1.38
  -1   6   2   28.77    1.19
  -1   6   2   27.48    1.31
  -1   6   2   26.42    0.82
  -1   6   2   28.38    1.31
   0  -6  -2    2.22    0.64
   0  -6  -2    2.39    0.32
   0  -6  -2    2.17    0.37
   0  -6  -2    2.39    0.56
   0   6   2    2.22    0.58
   0   6   2    2.48    0.38
   0   6   2    1.18    0.45
  -1  -6  -2    0.56    0.22
  -1  -6  -2   -0.01    0.47
  -1  -6  -2    1.02    0.53
  -1  -6  -2    0.20    0.60
   1   6   2    0.55    0.48
   1   6   2    0.51    0.57
   1   6   2    0.64    0.36
  -2  -6  -2    5.91    0.85
  -2  -6  -2    5.35    0.93
   2   6   2    3.47    0.58
   2   6   2    4.81    0.79
   2   6   2    4.52    0.46
  -3  -6  -2    0.33    0.67
  -3  -6  -2    0.12    0.74
  -3  -6  -2    0.72    0.63
  -4  -6  -2   -0.10    0.68
  -5  -6  -2    0.32    1.15
   5   6   2   -0.42    0.50
   6   6   2    0.03    0.74
   6  -7  -2    1.07    0.86
  -6   7   2    0.70    1.20
  -6   7   2    2.25    1.09
   5  -7  -2    1.86    0.71
  -5   7   2    1.10    1.06
  -5   7   2    2.06    1.04
   4  -7  -2    0.42    0.58
  -4   7   2    0.10    0.85
  -4   7   2   -0.04    0.90
   3  -7  -2    1.30    0.49
  -3   7   2    0.48    0.79
  -3   7   2    0.08    0.79
   2  -7  -2    3.13    0.44
  -2   7   2    0.86    0.67
  -2   7   2    2.29    0.72
   1  -7  -2    3.09    0.39
  -1   7   2    1.73    0.68
  -1   7   2    1.75    0.66
   0  -7  -2   13.29    0.53
   0   7   2   13.10    1.06
   0   7   2   11.45    1.02
   0   7   2   11.70    0.63
  -1  -7  -2    8.13    1.19
   1   7   2    7.52    0.58
   1   7   2    6.97    0.97
  -2  -7  -2   -0.08    0.86
  -2  -7  -2    1.14    0.71
   2   7   2   -0.01    0.64
  -3  -7  -2    5.77    1.21
  -3  -7  -2    3.54    0.96
   3   7   2    6.80    1.17
   5   7   2    2.17    1.19
   5   7   2    0.00    0.57
  -5   8   2    1.37    1.06
  -5   8   2    0.12    1.11
  -4   8   2    1.76    1.05
  -4   8   2    1.48    0.97
   3  -8  -2    0.11    0.57
  -3   8   2   -0.20    0.86
  -3   8   2    0.62    0.94
  -2   8   2    0.95    0.78
  -2   8   2    1.53    0.82
   1  -8  -2    2.27    0.43
  -1   8   2    1.46    0.78
   0   8   2    0.43    0.73
   1   8   2   -0.10    0.74
   2   8   2    0.03    0.77
  -3  -8  -2    0.75    0.90
  -3  -8  -2   -0.97    1.02
   5   8   2   -0.45    0.65
   4  -9  -2    0.43    0.81
  -4   9   2    0.17    1.15
  -4   9   2   -0.30    1.02
   3  -9  -2    1.69    0.70
  -3   9   2    0.53    0.99
  -3   9   2    1.53    1.08
   2  -9  -2    0.68    0.55
  -2   9   2   -0.75    0.87
  -2   9   2    0.00    0.91
  -1   9   2    1.10    0.87
   0   9   2   -1.30    0.82
   1   9   2    0.44    0.86
   2   9   2   -0.68    0.91
  -4  -9  -2    1.61    1.16
   3 -10  -2    1.22    0.79
  -3  10   2   -1.68    1.07
  -3  10   2    0.38    1.17
  -2  10   2    0.35    1.10
  -1  10   2   -1.22    1.00
   0  10   2   -1.24    0.99
   1  10   2   -1.35    1.00
   2  10   2   -1.64    1.04
   2  10  -3   -1.83    1.04
   1  10  -3   -1.01    1.07
   0  10  -3   -1.71    1.03
  -1  10  -3   -0.14    1.04
  -2  10  -3    0.62    1.06
  -3  10  -3   -0.27    1.14
   2   9  -3   -1.00    1.01
   1   9  -3   -0.45    0.93
   0   9  -3   -0.80    0.83
   0  -9   3    0.24    0.43
  -1   9  -3   -0.18    0.88
   1  -9   3    0.13    0.52
  -2   9  -3    0.36    0.94
   2  -9   3    0.25    0.54
  -3   9  -3    0.68    1.03
   3  -9   3    0.19    0.67
  -4   9  -3   -0.06    1.06
  -5  -8   3   -0.91    1.16
   4   8  -3   -0.46    0.37
  -4  -8   3   -0.31    0.98
   2   8  -3   -0.71    0.81
   1   8  -3    0.43    0.78
   0   8  -3    0.04    0.72
   0  -8   3    0.32    0.37
  -1   8  -3    0.49    0.49
  -1   8  -3    0.35    0.47
  -1   8  -3    0.50    0.72
   1  -8   3    0.39    0.43
  -2   8  -3    2.91    0.84
   2  -8   3    3.76    0.53
  -3   8  -3    0.12    0.84
  -3   8  -3    0.49    0.59
   3  -8   3    0.20    0.60
  -4   8  -3    0.48    0.84
   4  -8   3    0.94    0.71
  -5   8  -3    0.22    1.03
   5  -8   3    1.30    0.88
   5   7  -3   -0.05    0.45
   4   7  -3   -0.05    0.34
  -3  -7   3    3.86    0.84
   2   7  -3    5.24    1.04
   2   7  -3    5.40    0.80
   1   7  -3    1.04    0.35
   1   7  -3    0.49    0.56
   1   7  -3    2.32    0.76
  -1  -7   3    1.79    0.53
   0   7  -3    1.98    0.43
   0   7  -3    0.98    0.56
   0  -7   3    1.69    0.33
   0  -7   3    2.50    0.80
   0  -7   3    1.65    0.42
  -1   7  -3    0.20    0.37
  -1   7  -3   -0.06    0.38
  -1   7  -3   -0.17    0.58
   1  -7   3    0.18    0.34
  -2   7  -3    0.95    0.45
  -2   7  -3    0.24    0.42
  -2   7  -3    0.83    0.58
   2  -7   3    0.28    0.41
  -3   7  -3    5.35    0.56
  -3   7  -3    6.04    0.96
  -3   7  -3    5.97    0.97
   3  -7   3    6.02    0.65
  -4   7  -3   -0.32    0.80
  -4   7  -3    0.62    0.71
   4  -7   3    0.13    0.57
  -5   7  -3    1.14    0.88
  -5   7  -3   -0.69    0.90
   5  -7   3    0.26    0.67
  -6   7  -3    0.31    0.91
   6  -7   3    1.16    0.85
   6   6  -3    0.11    0.49
   6   6  -3   -0.47    0.92
  -6  -6   3    0.53    1.27
   5   6  -3    0.09    0.42
  -5  -6   3    0.47    0.98
   4   6  -3    0.42    0.33
  -4  -6   3    1.31    0.89
  -4  -6   3    1.29    0.77
   3   6  -3    1.82    0.80
  -3  -6   3    1.66    0.73
   2   6  -3   10.78    1.12
   2   6  -3   13.90    1.05
  -2  -6   3   14.29    1.02
  -2  -6   3   14.51    0.90
   1   6  -3    6.36    0.80
   1   6  -3    7.24    0.96
   1   6  -3    6.85    0.80
  -1  -6   3    7.07    0.66
  -1  -6   3    6.67    0.34
  -1  -6   3    7.90    0.86
   0   6  -3    0.40    0.27
   0   6  -3    0.05    0.37
   0   6  -3    0.91    0.49
   0  -6   3   -0.12    0.25
   0  -6   3    0.48    0.55
   0  -6   3    0.14    0.33
  -1   6  -3    3.55    0.39
  -1   6  -3    2.14    0.48
  -1   6  -3    3.78    0.60
   1  -6   3    3.20    0.63
   1  -6   3    3.05    0.34
  -2   6  -3    4.13    0.68
  -2   6  -3    3.03    0.40
  -2   6  -3    3.68    0.57
   2  -6   3    4.01    0.68
   2  -6   3    3.54    0.46
  -3   6  -3    1.08    0.56
  -3   6  -3    2.42    0.57
  -3   6  -3    2.61    0.41
   3  -6   3    1.98    0.42
  -4   6  -3    2.68    0.72
  -4   6  -3    2.87    0.72
  -4   6  -3    3.12    0.45
   4  -6   3    4.38    0.56
  -5   6  -3   -0.66    0.82
  -5   6  -3    0.35    0.78
   5  -6   3    0.87    0.59
  -6   6  -3    0.89    0.94
  -6   6  -3   -0.12    0.95
   6  -6   3    0.14    0.70
   7   5  -3   -0.52    0.91
   7   5  -3   -0.11    0.55
   6   5  -3    0.18    0.81
   6   5  -3    0.31    0.46
  -6  -5   3    0.35    1.08
   5   5  -3    0.44    0.73
   5   5  -3    0.78    0.39
   4   5  -3    0.93    0.31
  -4  -5   3    0.87    0.79
  -4  -5   3    1.02    0.62
   3   5  -3    4.40    0.73
  -3  -5   3    3.44    0.64
  -3  -5   3    3.51    0.65
   2   5  -3   22.05    1.36
   2   5  -3   23.87    1.11
   2   5  -3   22.82    1.02
  -2  -5   3   23.22    1.01
  -2  -5   3   24.08    1.17
   1   5  -3   11.84    0.75
   1   5  -3   12.43    0.74
   1   5  -3   11.76    0.97
  -1  -5   3   12.95    0.84
  -1  -5   3   12.47    0.65
   0   5  -3    3.98    0.52
   0   5  -3    3.52    0.33
   0   5  -3    4.29    0.74
   0  -5   3    3.00    0.49
   0  -5   3    3.58    0.39
   0  -5   3    3.59    0.58
   0  -5   3    2.87    0.30
  -1   5  -3    2.34    0.41
  -1   5  -3    2.93    0.42
  -1   5  -3    1.91    0.24
  -1   5  -3    1.41    0.37
   1  -5   3    1.99    0.45
   1  -5   3    2.30    0.27
   1  -5   3    1.42    0.28
   1  -5   3    2.11    0.41
  -2   5  -3    0.43    0.37
  -2   5  -3    0.62    0.27
  -2   5  -3    0.36    0.33
  -2   5  -3    0.31    0.36
   2  -5   3    0.23    0.24
   2  -5   3    0.29    0.43
   2  -5   3    0.33    0.26
   2  -5   3    0.25    0.33
  -3   5  -3    2.84    0.51
  -3   5  -3    2.86    0.37
  -3   5  -3    2.00    0.43
   3  -5   3    3.35    0.40
   3  -5   3    3.22    0.51
  -4   5  -3    0.24    0.47
  -4   5  -3    0.96    0.58
   4  -5   3    1.15    0.43
  -5   5  -3    0.96    0.72
  -5   5  -3    1.65    0.65
   5  -5   3    1.75    0.53
  -6   5  -3    0.42    0.89
  -6   5  -3    1.28    0.87
   6  -5   3    0.90    0.62
  -7   5  -3    0.08    1.05
  -7   5  -3   -0.09    0.94
   7  -5   3   -0.08    0.79
   7   4  -3    0.03    0.53
   7   4  -3   -0.03    0.85
  -7  -4   3    0.79    1.26
   6   4  -3    0.72    0.45
   6   4  -3    0.63    0.74
   5   4  -3    2.33    0.68
   5   4  -3    1.44    0.38
   4   4  -3    0.18    0.50
   4   4  -3    0.18    0.29
  -4  -4   3   -0.18    0.46
  -4  -4   3   -0.17    0.62
   3   4  -3    6.12    0.53
   3   4  -3    6.70    0.35
  -3  -4   3    7.09    0.60
  -3  -4   3    7.14    0.68
  -3  -4   3    7.27    0.74
   2   4  -3    4.82    0.71
   2   4  -3    4.43    0.63
   2   4  -3    5.40    0.55
   2   4  -3    4.98    0.45
  -2  -4   3    5.07    0.50
  -2  -4   3    5.17    0.55
  -2  -4   3    5.40    0.59
   1   4  -3   38.02    1.48
   1   4  -3   38.08    1.24
   1   4  -3   39.83    1.24
   1   4  -3   37.33    1.84
   1   4  -3   39.49    1.55
  -1  -4   3   38.63    1.25
  -1  -4   3   39.25    1.51
   0   4  -3    3.76    0.31
   0   4  -3    4.84    0.60
   0   4  -3    3.36    0.39
   0   4  -3    4.51    0.44
   0  -4   3    3.66    0.39
   0  -4   3    3.91    0.46
   0  -4   3    4.27    0.34
  -1   4  -3  124.45    3.42
  -1   4  -3  121.08    4.13
  -1   4  -3  117.54    3.22
  -1   4  -3  121.55    3.54
   1  -4   3  120.23    4.14
   1  -4   3  124.82    2.74
   1  -4   3  115.93    4.15
   1  -4   3  120.55    3.54
  -2   4  -3   12.51    0.58
  -2   4  -3   12.43    0.45
  -2   4  -3   11.34    0.59
  -2   4  -3   11.01    0.65
   2  -4   3   12.22    0.64
   2  -4   3   12.25    0.55
   2  -4   3   11.64    0.46
   2  -4   3   12.68    0.61
  -3   4  -3   13.75    0.64
  -3   4  -3   13.03    0.73
  -3   4  -3   13.79    0.82
  -3   4  -3   13.87    0.46
   3  -4   3   13.33    0.67
   3  -4   3   14.02    0.70
   3  -4   3   12.97    0.51
  -4   4  -3    2.92    0.49
  -4   4  -3    2.55    0.56
  -4   4  -3    2.82    0.38
   4  -4   3    2.87    0.42
   4  -4   3    3.27    0.41
  -5   4  -3    1.27    0.42
  -5   4  -3    0.77    0.60
  -5   4  -3    0.96    0.67
   5  -4   3    0.82    0.45
   5  -4   3    1.03    0.51
  -6   4  -3    0.45    0.73
  -6   4  -3    0.84    0.81
   6  -4   3    1.10    0.54
   6  -4   3    1.01    0.61
  -7   4  -3    0.13    0.87
  -7   4  -3   -1.81    0.95
   7  -4   3    0.16    0.70
   7  -4   3   -0.27    0.63
   7   3  -3    1.24    0.86
   7   3  -3    0.89    0.54
  -7  -3   3    0.68    1.11
   6   3  -3   -0.20    0.42
   6   3  -3    0.49    0.69
   5   3  -3    0.96    0.57
   5   3  -3    0.76    0.34
  -5  -3   3    0.80    0.50
  -5  -3   3    0.89    0.74
   4   3  -3    3.17    0.37
   4   3  -3    3.19    0.49
   4   3  -3    3.93    0.61
  -4  -3   3    4.43    0.65
  -4  -3   3    3.81    0.57
  -4  -3   3    3.87    0.63
   3   3  -3    1.11    0.34
   3   3  -3    1.32    0.22
   3   3  -3    1.39    0.26
  -3  -3   3    1.67    0.40
  -3  -3   3    1.26    0.44
   2   3  -3    4.72    0.35
   2   3  -3    4.67    0.41
   2   3  -3    4.33    0.56
  -2  -3   3    4.74    0.50
  -2  -3   3    4.72    0.48
  -2  -3   3    4.64    0.47
   1   3  -3   12.21    0.56
   1   3  -3   12.10    0.59
   1   3  -3   11.10    0.79
   1   3  -3   12.69    0.58
   1   3  -3   11.78    0.59
   1   3  -3   12.55    0.50
  -1  -3   3   11.97    0.53
  -1  -3   3   11.80    0.61
  -1  -3   3   13.05    0.53
  -1  -3   3   12.63    0.71
  -1  -3   3   11.74    0.57
   0   3  -3    1.79    0.29
   0   3  -3    1.68    0.22
   0   3  -3    2.11    0.28
   0   3  -3    1.77    0.27
   0   3  -3    2.10    0.42
   0  -3   3    1.98    0.34
   0  -3   3    1.69    0.23
   0  -3   3    1.76    0.28
   0  -3   3    1.75    0.20
   0  -3   3    1.74    0.24
  -1   3  -3    0.46    0.20
  -1   3  -3    0.40    0.17
  -1   3  -3    0.66    0.16
  -1   3  -3    0.65    0.21
  -1   3  -3    0.61    0.20
   1  -3   3    0.62    0.23
   1  -3   3    0.84    0.21
   1  -3   3    0.68    0.22
   1  -3   3    0.58    0.13
   1  -3   3    0.52    0.16
  -2   3  -3  110.87    3.78
  -2   3  -3  106.98    2.96
  -2   3  -3  114.28    3.78
  -2   3  -3  116.86    3.31
   2  -3   3  112.83    3.79
   2  -3   3  109.17    2.82
   2  -3   3  111.58    2.54
   2  -3   3  109.60    3.79
  -3   3  -3    0.07    0.18
  -3   3  -3    0.20    0.32
  -3   3  -3    0.20    0.16
  -3   3  -3    0.02    0.24
  -3   3  -3    0.08    0.17
   3  -3   3    0.00    0.25
   3  -3   3    0.15    0.24
   3  -3   3    0.38    0.15
   3  -3   3    0.02    0.24
  -4   3  -3   10.88    0.82
  -4   3  -3    9.30    0.72
   4  -3   3    8.63    0.49
   4  -3   3   10.02    0.49
   4  -3   3    8.89    0.57
   4  -3   3    9.69    0.58
  -5   3  -3    2.04    0.53
  -5   3  -3    3.37    0.52
  -5   3  -3    4.01    0.69
   5  -3   3    4.18    0.59
   5  -3   3    3.85    0.44
  -6   3  -3   -0.35    0.72
  -6   3  -3    0.31    0.52
  -6   3  -3   -0.43    0.69
   6  -3   3    0.38    0.45
   6  -3   3    0.24    0.57
  -7   3  -3    1.24    0.96
  -7   3  -3    0.04    0.81
   7  -3   3    1.43    0.78
   7   2  -3    0.27    0.50
   7   2  -3    0.40    0.82
  -7  -2   3   -0.37    0.74
  -7  -2   3   -0.20    0.94
   6   2  -3    2.69    0.49
   6   2  -3    4.26    0.83
   5   2  -3    0.78    0.55
   5   2  -3    0.71    0.34
  -5  -2   3    0.59    0.65
  -5  -2   3    0.61    0.46
   4   2  -3    7.77    0.40
   4   2  -3    7.83    0.64
   4   2  -3    7.33    0.53
  -4  -2   3    7.42    0.59
  -4  -2   3    8.31    0.74
   3   2  -3   10.92    0.58
   3   2  -3   11.34    0.61
   3   2  -3   11.40    0.40
  -3  -2   3   10.34    0.65
  -3  -2   3   11.13    0.62
  -3  -2   3   11.28    0.75
   2   2  -3    1.29    0.25
   2   2  -3    1.49    0.27
   2   2  -3    1.45    0.19
   2   2  -3    1.75    0.42
   2   2  -3    1.46    0.25
  -2  -2   3    1.18    0.22
  -2  -2   3    1.56    0.25
  -2  -2   3    1.26    0.28
  -2  -2   3    1.55    0.28
   1   2  -3   19.36    0.76
   1   2  -3   19.38    0.65
   1   2  -3   19.67    0.65
   1   2  -3   16.54    0.98
  -1  -2   3   18.90    0.76
  -1  -2   3   18.84    0.75
  -1  -2   3   18.91    0.66
  -1  -2   3   19.73    0.63
  -1  -2   3   19.82    0.97
   0   2  -3    6.10    0.47
   0   2  -3    6.03    0.31
   0   2  -3    6.24    0.28
   0   2  -3    6.09    0.33
   0   2  -3    5.68    0.33
   0  -2   3    5.52    0.32
   0  -2   3    6.27    0.33
   0  -2   3    6.44    0.45
   0  -2   3    5.76    0.34
   0  -2   3    5.95    0.30
   0  -2   3    6.47    0.25
  -1   2  -3   25.12    0.75
  -1   2  -3   25.86    0.79
  -1   2  -3   24.96    0.91
  -1   2  -3   25.51    0.92
   1  -2   3   24.95    0.92
   1  -2   3   25.29    0.92
   1  -2   3   25.73    0.77
  -2   2  -3   43.47    1.51
  -2   2  -3   45.12    1.38
  -2   2  -3   44.85    1.26
   2  -2   3   43.31    1.06
   2  -2   3   44.48    1.18
   2  -2   3   43.49    1.52
  -3   2  -3    6.08    0.23
  -3   2  -3    7.58    0.55
   3  -2   3    6.64    0.34
   3  -2   3    6.36    0.35
  -4   2  -3    0.04    0.40
   4  -2   3    0.07    0.32
   4  -2   3    0.11    0.26
  -5   2  -3    7.94    0.71
  -5   2  -3   10.21    0.99
   5  -2   3    8.01    0.51
   5  -2   3   10.01    0.67
  -6   2  -3    2.00    0.63
  -6   2  -3    1.47    0.77
   6  -2   3    1.90    0.57
   6  -2   3    1.71    0.41
  -7   2  -3    0.41    0.66
  -7   2  -3    0.14    0.85
   7  -2   3    0.68    0.73
   7  -2   3    0.47    0.48
  -8   2  -3   -1.41    0.97
   8  -2   3    0.24    0.81
   8  -2   3    0.55    0.57
   8   1  -3    1.03    0.71
  -8  -1   3    0.15    0.97
   7   1  -3    0.82    0.83
   7   1  -3    0.61    0.55
  -7  -1   3    0.09    0.70
   6   1  -3    4.22    0.42
   6   1  -3    4.80    0.85
   6   1  -3    4.47    0.57
  -6  -1   3    4.90    0.78
  -6  -1   3    3.34    0.66
   5   1  -3    4.03    0.68
   5   1  -3    3.10    0.44
   5   1  -3    3.93    0.34
   5   1  -3    3.04    0.47
  -5  -1   3    3.64    0.57
  -5  -1   3    3.92    0.62
   4   1  -3   -0.41    0.38
   4   1  -3   -0.13    0.27
   4   1  -3    0.09    0.24
  -4  -1   3   -0.09    0.34
  -4  -1   3    0.28    0.24
  -4  -1   3    0.38    0.43
   3   1  -3   15.90    0.51
   3   1  -3   15.66    0.73
   3   1  -3   16.05    0.71
  -3  -1   3   15.39    0.71
  -3  -1   3   16.32    0.74
  -3  -1   3   16.15    0.58
  -3  -1   3   15.93    0.90
   2   1  -3   30.49    0.99
   2   1  -3   30.91    1.13
   2   1  -3   30.20    1.13
  -2  -1   3   29.44    1.40
  -2  -1   3   30.58    1.14
  -2  -1   3   30.62    0.90
  -2  -1   3   30.18    1.00
   1   1  -3    0.70    0.16
   1   1  -3    1.03    0.16
   1   1  -3    0.88    0.17
  -1  -1   3    0.47    0.12
  -1  -1   3    0.69    0.17
  -1  -1   3    0.83    0.18
  -1  -1   3    0.68    0.12
  -1  -1   3    0.74    0.16
   0   1  -3   56.46    1.99
   0   1  -3   58.70    1.52
   0   1  -3   52.85    1.55
   0   1  -3   56.35    1.99
   0   1  -3   64.16    1.70
   0   1  -3   57.15    2.50
   0  -1   3   59.86    1.53
   0  -1   3   59.70    2.51
   0  -1   3   56.62    1.99
   0  -1   3   58.91    2.00
   0  -1   3   59.78    1.70
  -1   1  -3  124.87    5.14
  -1   1  -3  124.62    4.12
  -1   1  -3  129.76    4.11
  -1   1  -3  107.68    3.18
   1  -1   3  123.77    4.11
   1  -1   3  125.77    3.15
   2  -1   3    5.80    0.27
   3  -1   3   96.86    2.21
   3  -1   3   96.87    2.49
   4  -1   3    1.03    0.24
   4  -1   3    1.24    0.33
  -5   1  -3    2.20    0.56
  -5   1  -3    1.43    0.19
   5  -1   3    1.32    0.30
   5  -1   3    2.11    0.47
  -6   1  -3    1.87    0.65
  -6   1  -3    1.65    0.72
   6  -1   3    2.06    0.62
   6  -1   3    1.65    0.38
  -7   1  -3    1.24    0.70
  -7   1  -3    0.46    0.83
   7  -1   3    1.16    0.46
   7  -1   3    1.94    0.76
  -8   1  -3   -0.08    0.76
  -8   1  -3   -1.39    0.93
   8  -1   3    1.08    0.87
   8   0  -3    0.42    0.70
  -8   0   3   -0.58    0.84
   7   0  -3    5.10    0.81
   7   0  -3    3.20    0.44
   7   0  -3    3.38    0.63
  -7   0   3    3.02    0.94
  -7   0   3    3.92    0.83
   6   0  -3    0.08    0.42
   6   0  -3   -0.62    0.69
   6   0  -3    0.49    0.32
  -6   0   3    0.10    0.57
  -6   0   3    0.35    0.62
  -6   0   3    0.25    0.36
   5   0  -3    3.02    0.47
   5   0  -3    3.41    0.40
   5   0  -3    3.60    0.71
   5   0  -3    4.44    0.36
  -5   0   3    2.98    0.52
  -5   0   3    5.60    0.84
  -5   0   3    5.27    0.68
  -5   0   3    3.47    0.45
   4   0  -3   28.41    1.11
   4   0  -3   28.18    0.86
   4   0  -3   26.57    1.24
  -4   0   3   27.32    0.93
  -4   0   3   28.38    1.07
  -4   0   3   28.74    1.17
  -4   0   3   26.87    1.15
   3   0  -3    5.92    0.52
   3   0  -3    6.75    0.44
   3   0  -3    6.78    0.31
  -3   0   3    6.35    0.48
  -3   0   3    6.14    0.38
  -3   0   3    6.82    0.53
  -3   0   3    6.35    0.47
  -3   0   3    6.71    0.58
   2   0  -3   70.52    2.04
   2   0  -3   68.01    2.43
   2   0  -3   71.11    2.42
  -2   0   3   68.85    2.04
  -2   0   3   69.02    2.97
  -2   0   3   68.57    2.43
  -2   0   3   67.78    2.09
  -2   0   3   69.59    2.40
  -2   0   3   67.91    2.46
   1   0  -3   98.31    2.85
   1   0  -3   99.70    4.09
   1   0  -3   99.11    3.32
   1   0  -3   96.03    3.45
   1   0  -3  100.70    2.83
   1   0  -3   95.99    3.32
  -1   0   3   96.55    3.32
  -1   0   3   95.20    2.83
  -1   0   3   92.79    3.46
  -1   0   3   96.82    2.77
  -1   0   3   93.92    4.08
  -1   0   3   99.75    3.32
   0   0  -3   18.67    0.71
   0   0  -3   18.78    0.59
   0   0  -3   18.87    0.71
   0   0  -3   17.80    0.90
   0   0  -3   17.66    0.78
   0   0  -3   19.46    0.61
   0   0   3   18.94    0.50
   0   0   3   18.97    0.71
   0   0   3   19.12    0.71
   0   0   3   19.26    0.60
   0   0   3   18.55    0.90
  -1   0  -3   31.56    1.09
  -1   0  -3   33.37    1.08
  -1   0  -3   27.03    1.36
   1   0   3   29.15    1.08
   1   0   3   33.27    1.09
   1   0   3   31.92    0.82
   2   0   3    4.73    0.26
   3   0   3    0.14    0.21
  -4   0  -3    7.50    0.85
   4   0   3    8.24    0.36
   4   0   3    8.18    0.46
  -5   0  -3    4.08    0.70
  -5   0  -3    5.12    0.68
   5   0   3    4.92    0.50
   5   0   3    4.27    0.38
  -6   0  -3    3.73    0.77
  -6   0  -3    4.28    0.79
   6   0   3    4.78    0.67
   6   0   3    3.87    0.46
   7   0   3    0.63    0.67
  -8   0  -3   -1.49    0.90
   8   0   3    0.51    0.86
   8  -1  -3    0.21    0.63
   7  -1  -3    0.70    0.60
   7  -1  -3    0.61    0.45
  -7   1   3    0.15    0.73
   6  -1  -3    0.11    0.35
   6  -1  -3   -0.24    0.58
   6  -1  -3   -0.02    0.45
  -6   1   3   -0.01    0.39
  -6   1   3   -0.04    0.58
  -6   1   3    0.38    0.59
   5  -1  -3    0.11    0.37
   5  -1  -3    1.34    0.32
   5  -1  -3   -0.11    0.55
   5  -1  -3    0.78    0.36
  -5   1   3    1.02    0.48
  -5   1   3    0.58    0.32
  -5   1   3    1.15    0.55
   4  -1  -3    3.03    0.48
   4  -1  -3    3.15    0.36
   4  -1  -3    3.83    0.57
  -4   1   3    3.94    0.52
  -4   1   3    2.72    0.42
  -4   1   3    2.91    0.36
  -4   1   3    3.70    0.63
   3  -1  -3   22.36    0.97
   3  -1  -3   22.29    0.69
   3  -1  -3   21.84    1.01
   3  -1  -3   23.57    0.80
  -3   1   3   23.13    0.83
  -3   1   3   22.87    0.93
  -3   1   3   23.15    0.92
  -3   1   3   21.61    0.90
   2  -1  -3    6.58    0.32
   2  -1  -3    7.04    0.39
   2  -1  -3    6.27    0.46
   2  -1  -3    6.14    0.43
  -2   1   3    6.59    0.36
  -2   1   3    6.83    0.42
  -2   1   3    6.21    0.41
  -2   1   3    6.01    0.41
  -2   1   3    6.41    0.36
   1  -1  -3   16.28    0.52
   1  -1  -3   15.97    0.65
   1  -1  -3   14.99    0.64
   1  -1  -3   15.55    0.66
   1  -1  -3   16.53    0.58
  -1   1   3   15.26    0.64
  -1   1   3   15.54    0.53
  -1   1   3   15.01    0.64
  -1   1   3   16.08    0.59
  -1   1   3   15.99    0.78
  -1   1   3   14.92    0.64
   0  -1  -3   41.78    1.47
   0  -1  -3   42.28    1.60
   0  -1  -3   43.22    1.82
   0  -1  -3   42.62    1.29
   0  -1  -3   43.01    1.48
   0   1   3   41.43    1.09
   0   1   3   40.60    1.30
   0   1   3   40.85    1.47
   0   1   3   41.61    1.81
   0   1   3   43.44    1.48
   0   1   3   40.81    1.58
  -1  -1  -3    8.20    0.35
  -1  -1  -3    8.52    0.27
  -1  -1  -3    8.09    0.36
  -1  -1  -3    7.94    0.52
  -1  -1  -3    8.07    0.47
   1   1   3    8.19    0.37
   1   1   3    8.41    0.47
   1   1   3    7.39    0.48
   1   1   3    8.28    0.37
  -2  -1  -3   31.86    1.09
  -2  -1  -3   30.88    1.36
  -2  -1  -3   30.60    1.07
  -2  -1  -3   29.22    1.35
   2   1   3   30.31    1.08
   2   1   3   30.53    1.09
  -3  -1  -3   12.98    0.92
  -3  -1  -3   13.97    0.56
  -3  -1  -3   14.20    0.54
   3   1   3   14.50    0.59
   3   1   3   14.38    0.53
  -4  -1  -3    1.06    0.50
  -4  -1  -3    1.31    0.23
   4   1   3    1.69    0.37
  -5  -1  -3    3.37    0.68
  -5  -1  -3    3.09    0.71
   5   1   3    2.17    0.45
   5   1   3    3.36    0.48
   5   1   3    3.28    0.34
   5   1   3    4.51    0.37
  -6  -1  -3    0.93    0.63
  -6  -1  -3    0.98    0.73
   6   1   3    1.60    0.61
  -7  -1  -3    0.02    0.83
   7   1   3    0.92    0.74
  -8  -1  -3    0.17    0.97
   8   1   3    0.72    0.84
   7  -2  -3   -0.01    0.49
   7  -2  -3    0.19    0.53
  -7   2   3    0.40    0.46
  -7   2   3    0.25    0.66
  -7   2   3    0.09    0.80
   6  -2  -3    6.83    0.61
   6  -2  -3    6.73    0.68
  -6   2   3    8.57    1.14
  -6   2   3    6.82    0.75
   5  -2  -3    1.09    0.36
   5  -2  -3    0.41    0.34
   5  -2  -3    0.56    0.53
  -5   2   3    0.72    0.45
  -5   2   3    1.02    0.59
   4  -2  -3    5.57    0.63
   4  -2  -3    5.88    0.40
   4  -2  -3    4.68    0.61
  -4   2   3    7.39    0.79
  -4   2   3    5.72    0.47
  -4   2   3    5.56    0.50
  -4   2   3    6.17    0.54
   3  -2  -3   34.46    1.39
   3  -2  -3   35.11    1.12
   3  -2  -3   35.09    1.38
  -3   2   3   34.47    1.28
  -3   2   3   35.26    1.14
  -3   2   3   35.01    1.40
  -3   2   3   36.76    1.33
   2  -2  -3   51.25    1.81
   2  -2  -3   49.48    1.48
   2  -2  -3   50.23    1.82
   2  -2  -3   47.31    1.59
  -2   2   3   51.31    1.49
  -2   2   3   50.18    1.79
  -2   2   3   50.21    1.89
  -2   2   3   49.06    1.81
  -2   2   3   49.97    1.62
   1  -2  -3    1.86    0.29
   1  -2  -3    1.43    0.25
   1  -2  -3    1.35    0.29
   1  -2  -3    1.33    0.19
   1  -2  -3    1.32    0.22
  -1   2   3    1.09    0.23
  -1   2   3    1.28    0.24
  -1   2   3    1.39    0.26
  -1   2   3    1.24    0.18
  -1   2   3    1.38    0.27
   0  -2  -3   74.55    2.80
   0  -2  -3   77.15    2.29
   0  -2  -3   76.62    1.66
   0  -2  -3   77.36    1.96
   0  -2  -3   77.37    2.62
   0  -2  -3   75.16    2.60
   0   2   3   77.38    3.19
   0   2   3   73.20    2.29
   0   2   3   74.53    1.98
   0   2   3   75.87    2.61
   0   2   3   73.85    2.79
   0   2   3   75.19    2.61
  -1  -2  -3   29.82    0.78
  -1  -2  -3   30.36    0.93
  -1  -2  -3   26.72    1.01
  -1  -2  -3   28.69    1.20
  -1  -2  -3   27.99    1.18
  -1  -2  -3   27.84    1.04
  -1  -2  -3   28.26    0.65
   1   2   3   26.41    0.78
   1   2   3   27.27    1.03
   1   2   3   24.89    1.14
   1   2   3   25.60    1.23
   1   2   3   27.55    1.03
  -2  -2  -3    0.19    0.16
  -2  -2  -3   -0.06    0.07
  -2  -2  -3    0.06    0.19
  -2  -2  -3    0.06    0.13
  -2  -2  -3    0.38    0.28
   2   2   3    0.03    0.23
   2   2   3    0.25    0.21
   2   2   3    0.13    0.22
  -3  -2  -3    6.28    0.45
  -3  -2  -3    5.80    0.40
  -3  -2  -3    6.13    0.69
   3   2   3    6.13    0.42
   3   2   3    5.42    0.44
   3   2   3    5.58    0.41
  -4  -2  -3    4.02    0.69
  -4  -2  -3    3.55    0.74
  -4  -2  -3    3.07    0.36
   4   2   3    3.50    0.40
   4   2   3    2.98    0.51
   4   2   3    2.92    0.42
  -5  -2  -3   -1.22    0.72
  -5  -2  -3   -0.29    0.48
   5   2   3   -0.33    0.42
  -6  -2  -3    0.41    0.59
   6   2   3    0.26    0.57
   6   2   3   -0.15    0.47
  -7  -2  -3    0.33    1.00
   7   2   3   -0.02    0.67
   7  -3  -3    0.16    0.58
  -7   3   3    0.36    0.86
   6  -3  -3    3.55    0.54
  -6   3   3    1.79    0.74
  -6   3   3    2.28    0.60
   5  -3  -3    2.49    0.45
   5  -3  -3    3.57    0.70
  -5   3   3    2.75    0.71
   4  -3  -3   14.49    0.88
   4  -3  -3   14.48    0.90
  -4   3   3   13.91    1.00
  -4   3   3   14.07    0.72
  -4   3   3   13.98    0.68
   3  -3  -3   30.17    1.22
   3  -3  -3   27.75    0.93
   3  -3  -3   28.56    1.21
  -3   3   3   28.79    1.14
  -3   3   3   27.84    1.20
  -3   3   3   30.21    0.96
   2  -3  -3   83.51    2.42
   2  -3  -3   84.93    2.98
   2  -3  -3   87.93    2.98
  -2   3   3   85.67    2.96
  -2   3   3   86.15    2.34
  -2   3   3   83.92    3.15
  -2   3   3   80.34    2.63
   1  -3  -3   28.71    1.09
   1  -3  -3   27.39    1.03
   1  -3  -3   28.83    0.88
   1  -3  -3   29.39    1.20
   1  -3  -3   28.30    1.12
  -1   3   3   27.79    0.89
  -1   3   3   28.16    1.18
  -1   3   3   27.95    1.07
  -1   3   3   28.36    1.10
  -1   3   3   26.58    1.08
   0  -3  -3    0.38    0.27
   0  -3  -3    0.68    0.23
   0  -3  -3    0.43    0.14
   0  -3  -3    0.46    0.21
   0  -3  -3    0.45    0.24
   0   3   3    0.57    0.20
   0   3   3    0.40    0.21
   0   3   3    0.47    0.26
   0   3   3    0.62    0.24
   0   3   3    0.32    0.27
  -1  -3  -3    9.34    0.54
  -1  -3  -3    9.48    0.50
  -1  -3  -3    8.95    0.62
  -1  -3  -3    9.45    0.38
   1   3   3    8.09    0.55
   1   3   3    8.80    0.51
   1   3   3    8.95    0.44
   1   3   3    8.96    0.50
   1   3   3    8.88    0.50
  -2  -3  -3   34.24    1.30
  -2  -3  -3   35.61    1.01
  -2  -3  -3   33.41    1.48
   2   3   3   32.77    1.29
   2   3   3   33.11    1.28
  -3  -3  -3    0.78    0.40
  -3  -3  -3    0.94    0.33
   3   3   3    0.80    0.38
   3   3   3    0.86    0.31
  -4  -3  -3    6.70    0.86
  -4  -3  -3    5.25    0.52
  -4  -3  -3    7.95    0.87
   4   3   3    5.79    0.51
   4   3   3    5.18    0.54
   4   3   3    6.07    0.68
  -5  -3  -3    1.70    0.91
  -5  -3  -3    1.80    0.59
   5   3   3    0.87    0.53
  -6  -3  -3    0.17    1.02
   6   3   3    0.24    0.55
   6   3   3    0.82    0.65
   7   3   3    0.75    0.69
   7  -4  -3    1.04    0.69
  -7   4   3    0.20    1.01
  -7   4   3   -0.26    1.09
   6  -4  -3   -0.68    0.52
  -6   4   3   -0.70    0.92
  -6   4   3    0.51    0.87
   5  -4  -3    1.14    0.49
  -5   4   3    1.10    0.74
  -5   4   3    0.93    0.45
  -5   4   3    1.63    0.79
   4  -4  -3    6.03    0.73
   4  -4  -3    4.55    0.78
  -4   4   3    4.81    0.71
  -4   4   3    4.34    0.68
  -4   4   3    4.61    0.49
  -4   4   3    5.12    0.57
   3  -4  -3   16.28    0.97
   3  -4  -3   18.47    0.92
  -3   4   3   16.44    0.99
  -3   4   3   17.64    0.91
  -3   4   3   17.01    0.83
   2  -4  -3    6.04    0.52
   2  -4  -3    5.52    0.60
   2  -4  -3    5.36    0.26
  -2   4   3    5.64    0.52
  -2   4   3    5.30    0.57
  -2   4   3    4.86    0.71
   1  -4  -3   30.29    1.01
   1  -4  -3   36.15    1.33
   1  -4  -3   33.63    1.34
   1  -4  -3   34.75    1.45
  -1   4   3   30.97    1.28
  -1   4   3   32.56    1.07
  -1   4   3   32.68    1.31
   0  -4  -3   41.97    1.71
   0  -4  -3   41.05    1.59
   0  -4  -3   41.35    1.18
   0   4   3   40.46    1.46
   0   4   3   40.57    1.54
   0   4   3   38.68    1.23
  -1  -4  -3    2.21    0.43
  -1  -4  -3    1.68    0.38
  -1  -4  -3    1.88    0.24
   1   4   3    1.28    0.28
   1   4   3    2.26    0.33
   1   4   3    1.95    0.25
   1   4   3    1.83    0.39
   1   4   3    1.87    0.38
  -2  -4  -3   22.51    1.02
  -2  -4  -3   23.13    1.17
   2   4   3   21.05    0.60
   2   4   3   21.87    1.01
   2   4   3   20.93    0.96
  -3  -4  -3    6.75    0.81
  -3  -4  -3    6.27    0.64
  -3  -4  -3    5.40    0.78
   3   4   3    6.42    0.56
   3   4   3    5.76    0.66
  -4  -4  -3   -1.29    0.75
  -4  -4  -3    0.18    0.48
  -4  -4  -3    0.15    0.44
   4   4   3   -0.50    0.39
   4   4   3    0.81    0.62
  -5  -4  -3    0.24    0.58
   5   4   3    0.12    0.52
   5   4   3    1.04    0.74
  -6  -4  -3   -0.20    1.15
   6   4   3    0.07    0.67
   7   4   3   -0.74    0.76
   7  -5  -3    1.37    0.77
  -7   5   3    0.83    1.24
  -7   5   3    0.64    1.01
   6  -5  -3    0.59    0.66
  -6   5   3    0.18    0.83
  -6   5   3    0.28    1.02
   5  -5  -3    5.02    0.63
  -5   5   3    3.87    0.93
  -5   5   3    3.19    0.84
   4  -5  -3    2.53    0.49
   4  -5  -3    2.13    0.80
  -4   5   3    1.58    0.68
  -4   5   3    2.67    0.56
  -4   5   3    2.19    0.72
   3  -5  -3   18.74    1.16
  -3   5   3   21.77    1.10
  -3   5   3   20.15    1.24
  -3   5   3   19.23    0.98
   2  -5  -3   25.55    1.26
  -2   5   3   26.77    1.16
  -2   5   3   24.10    1.27
  -2   5   3   26.49    1.08
   1  -5  -3    0.01    0.46
   1  -5  -3    0.81    0.39
  -1   5   3    0.47    0.42
  -1   5   3   -0.23    0.47
  -1   5   3    0.52    0.37
   0  -5  -3    5.62    0.69
   0  -5  -3    7.26    0.74
   0   5   3    5.99    0.62
   0   5   3    5.95    0.62
   0   5   3    6.62    0.80
  -1  -5  -3    7.64    0.74
  -1  -5  -3    8.17    0.81
   1   5   3    7.08    0.40
   1   5   3    6.69    0.63
   1   5   3    6.77    0.68
   1   5   3    7.83    0.55
  -2  -5  -3    2.53    0.55
  -2  -5  -3    2.12    0.53
   2   5   3    2.41    0.56
   2   5   3    2.00    0.43
   2   5   3    2.30    0.33
  -3  -5  -3    8.86    0.96
  -3  -5  -3    6.80    0.95
  -3  -5  -3    6.68    0.82
   3   5   3    8.10    0.94
  -4  -5  -3    2.11    0.62
  -4  -5  -3    3.12    0.93
  -4  -5  -3    2.99    0.70
   4   5   3    4.07    0.85
  -5  -5  -3    0.26    0.68
  -5  -5  -3   -0.45    1.04
   5   5   3    0.37    0.58
   5   5   3    1.39    0.88
  -6  -5  -3   -0.75    1.27
   6   5   3   -0.98    0.62
   6  -6  -3    0.45    0.73
  -6   6   3    0.32    1.00
  -6   6   3    1.03    0.96
   5  -6  -3    0.49    0.62
  -5   6   3    1.30    0.86
  -5   6   3   -0.23    0.90
   4  -6  -3    4.11    0.57
  -4   6   3    3.72    0.86
  -4   6   3    3.71    0.90
   3  -6  -3   -0.55    0.42
  -3   6   3    0.20    0.68
  -3   6   3    0.39    0.66
   2  -6  -3    9.50    1.03
   2  -6  -3   10.15    0.54
  -2   6   3   10.44    0.86
  -2   6   3    9.08    1.10
  -2   6   3   10.85    0.94
   1  -6  -3    4.03    0.74
  -1   6   3    3.50    0.58
  -1   6   3    3.85    0.66
  -1   6   3    2.89    0.67
   0  -6  -3    1.22    0.66
   0  -6  -3    1.43    0.37
   0  -6  -3    1.99    0.57
   0   6   3    1.16    0.47
   0   6   3    1.91    0.60
  -1  -6  -3    7.54    0.36
  -1  -6  -3    6.99    0.93
  -1  -6  -3    6.13    0.89
  -1  -6  -3    5.06    0.70
   1   6   3    7.01    0.48
   1   6   3    6.70    0.78
   1   6   3    5.69    0.63
   1   6   3    5.85    0.84
  -2  -6  -3    1.33    0.66
  -2  -6  -3    1.89    0.65
  -2  -6  -3    2.27    0.74
   2   6   3    1.30    0.54
   2   6   3    1.80    0.39
   2   6   3    2.22    0.72
  -3  -6  -3    1.45    0.67
  -3  -6  -3    1.21    0.81
  -3  -6  -3    0.64    0.71
  -4  -6  -3    0.92    0.76
  -5  -6  -3   -0.33    0.80
   5   6   3   -0.30    0.57
   6   6   3    0.46    0.76
   6  -7  -3    0.83    0.79
  -6   7   3    2.91    1.14
  -6   7   3    0.83    1.27
   5  -7  -3    0.98    0.73
  -5   7   3    1.17    0.97
  -5   7   3    1.43    1.12
   4  -7  -3    0.04    0.61
  -4   7   3    0.18    0.90
  -4   7   3    0.20    0.87
   3  -7  -3    2.40    0.54
  -3   7   3    1.90    0.78
  -3   7   3    2.45    0.85
   2  -7  -3    0.06    0.41
  -2   7   3    0.22    0.69
  -2   7   3   -0.20    0.64
  -2   7   3   -1.22    0.67
   1  -7  -3    6.02    1.22
   1  -7  -3    6.00    0.47
  -1   7   3    5.78    0.96
  -1   7   3    3.64    0.74
  -1   7   3    3.66    0.69
   0  -7  -3    5.25    0.48
   0  -7  -3    4.78    0.95
   0   7   3    3.57    0.67
  -1  -7  -3    6.53    1.14
   1   7   3    4.83    0.53
   1   7   3    5.09    0.95
   1   7   3    4.00    0.69
  -2  -7  -3    8.77    1.25
   2   7   3    8.88    1.04
   2   7   3   10.39    1.31
   5   7   3   -0.03    0.67
   5  -8  -3    1.07    0.81
  -5   8   3    3.73    1.15
  -5   8   3    1.00    1.20
   4  -8  -3    0.87    0.69
  -4   8   3    0.97    0.97
  -4   8   3   -0.44    1.03
   3  -8  -3   -0.41    0.58
  -3   8   3   -0.71    0.88
  -3   8   3    0.04    0.92
   2  -8  -3    1.11    0.49
  -2   8   3   -0.66    0.80
  -2   8   3    1.20    0.79
   1  -8  -3    0.13    0.39
  -1   8   3    0.36    0.78
   0  -8  -3    1.59    0.39
   0   8   3   -0.58    0.71
   1   8   3    0.43    0.75
   2   8   3    2.89    0.83
  -4  -8  -3    1.51    1.15
   4   8   3    0.85    1.29
   5   8   3   -0.60    0.64
   4  -9  -3    1.14    0.79
  -4   9   3    0.29    1.17
  -4   9   3    0.27    1.06
   3  -9  -3    0.76    0.69
  -3   9   3    0.16    1.00
  -3   9   3    0.66    1.04
   2  -9  -3    0.16    0.56
  -2   9   3   -0.65    0.92
  -2   9   3   -0.40    0.94
   1  -9  -3    0.34    0.52
  -1   9   3   -0.14    0.87
   0   9   3   -1.38    0.82
   1   9   3    0.36    0.90
   2   9   3   -1.02    0.86
  -3  10   3    0.33    1.14
  -3  10   3   -0.75    1.13
  -2  10   3   -0.96    1.08
  -1  10   3   -1.29    0.99
   0  10   3   -1.51    0.96
   1  10   3   -2.17    0.97
   2  10   3   -0.91    1.01
   2  10  -4   -0.85    1.13
   1  10  -4   -0.41    1.03
   0  10  -4   -2.11    1.01
  -1  10  -4   -0.83    1.00
  -2  10  -4    0.01    1.04
   2 -10   4   -0.19    0.65
   3 -10   4    0.85    0.81
   2   9  -4   -1.08    1.00
   1   9  -4   -0.99    0.87
   0   9  -4   -0.33    0.86
   0  -9   4    0.09    0.44
  -1   9  -4   -0.46    0.76
   1  -9   4   -0.40    0.54
  -2   9  -4    0.45    0.89
  -3   9  -4    0.08    0.91
  -4   9  -4   -0.07    1.07
   4  -9   4    0.56    0.78
   2   8  -4   -0.46    0.85
   1   8  -4    0.62    0.70
   1   8  -4    0.50    0.40
   0   8  -4    0.72    0.51
   0   8  -4    0.47    0.64
   0  -8   4    1.24    0.39
  -1   8  -4    1.78    0.52
  -1   8  -4    1.38    0.73
   1  -8   4    1.38    0.47
  -2   8  -4    0.56    0.53
  -2   8  -4    0.91    0.69
   2  -8   4    1.70    0.50
  -3   8  -4    0.84    0.53
  -3   8  -4    0.67    0.85
   3  -8   4   -0.09    0.56
  -4   8  -4    0.41    0.90
   4  -8   4   -0.20    0.66
  -5   8  -4    0.15    0.97
   5   7  -4   -0.68    1.01
  -5  -7   4   -0.36    1.10
   4   7  -4    0.22    0.33
  -4  -7   4   -0.50    0.89
  -3  -7   4    0.34    0.88
  -3  -7   4   -0.07    0.79
   2   7  -4    0.31    0.36
   2   7  -4    1.06    0.68
   1   7  -4    1.36    0.65
   1   7  -4    3.46    0.78
  -1  -7   4    2.73    0.59
   0   7  -4    1.72    0.42
   0   7  -4    1.71    0.56
   0  -7   4    3.18    0.50
   0  -7   4    3.66    0.43
  -1   7  -4    0.26    0.59
  -1   7  -4   -0.28    0.39
  -1   7  -4    0.25    0.39
   1  -7   4   -0.07    0.36
   1  -7   4    0.01    0.78
  -2   7  -4    2.15    0.43
  -2   7  -4    2.44    0.66
  -2   7  -4    2.53    0.44
   2  -7   4    3.91    0.47
  -3   7  -4    2.31    0.66
  -3   7  -4    2.47    0.58
   3  -7   4    2.84    0.52
  -4   7  -4    0.12    0.70
  -4   7  -4    0.71    0.68
   4  -7   4   -0.04    0.57
  -5   7  -4    0.67    0.79
   5  -7   4    1.14    0.61
  -6   7  -4    0.57    0.99
   6   6  -4   -0.36    0.47
   6   6  -4   -0.74    0.97
   5   6  -4    0.21    0.38
   5   6  -4   -0.17    0.86
  -5  -6   4    0.01    1.05
   4   6  -4   -0.11    0.30
  -4  -6   4    0.25    0.86
  -4  -6   4   -0.43    0.72
   3   6  -4    0.21    0.23
  -3  -6   4    0.41    0.67
  -3  -6   4    0.13    0.70
   2   6  -4    3.59    0.66
   2   6  -4    4.25    0.77
  -2  -6   4    3.98    0.78
   1   6  -4   13.09    0.94
   1   6  -4   13.03    0.93
   1   6  -4   12.75    1.22
  -1  -6   4   14.11    0.81
  -1  -6   4   14.04    1.05
   0   6  -4   26.17    1.19
   0   6  -4   25.51    1.59
   0   6  -4   24.35    1.06
   0   6  -4   24.05    0.90
   0  -6   4   19.88    1.03
   0  -6   4   23.33    1.27
   0  -6   4   26.00    0.71
   0  -6   4   23.77    0.92
  -1   6  -4   14.14    1.25
  -1   6  -4   11.78    0.85
  -1   6  -4   11.83    0.81
   1  -6   4   12.03    0.90
   1  -6   4   10.19    0.64
   1  -6   4   11.97    0.52
  -2   6  -4    1.04    0.38
  -2   6  -4    0.38    0.50
  -2   6  -4    0.26    0.32
   2  -6   4    0.48    0.58
   2  -6   4    0.79    0.34
   2  -6   4    0.68    0.43
  -3   6  -4    4.00    0.58
  -3   6  -4    3.76    0.61
  -3   6  -4    4.32    0.47
   3  -6   4    5.34    0.56
  -4   6  -4    4.01    0.48
  -4   6  -4    4.19    0.71
  -4   6  -4    4.31    0.71
   4  -6   4    4.60    0.56
  -5   6  -4    0.53    0.79
  -5   6  -4    1.11    0.78
   5  -6   4    0.90    0.60
  -6   6  -4    1.35    0.93
  -6   6  -4    0.81    0.88
   6  -6   4    1.17    0.71
   7   5  -4    0.12    0.52
   7   5  -4    0.23    1.00
   6   5  -4    0.40    0.87
   6   5  -4    0.32    0.44
  -6  -5   4    0.16    1.11
   5   5  -4    0.13    0.35
   5   5  -4    0.19    0.76
  -5  -5   4   -0.01    0.89
   4   5  -4    0.86    0.30
   4   5  -4    1.94    0.68
  -4  -5   4    1.41    0.79
  -4  -5   4    1.24    0.65
   3   5  -4    0.19    0.21
   3   5  -4    0.31    0.21
   3   5  -4   -0.21    0.30
  -3  -5   4    0.20    0.57
  -3  -5   4    0.06    0.55
  -3  -5   4   -0.08    0.16
   2   5  -4    2.31    0.51
   2   5  -4    2.97    0.57
  -2  -5   4    3.35    0.61
  -2  -5   4    2.93    0.52
   1   5  -4    7.58    0.68
   1   5  -4    7.15    0.90
   1   5  -4    7.22    0.63
  -1  -5   4    7.46    0.59
  -1  -5   4    7.29    0.72
  -1  -5   4    7.79    0.58
   0   5  -4    3.74    0.36
   0   5  -4    3.90    0.78
   0   5  -4    3.81    0.50
   0  -5   4    3.85    0.42
   0  -5   4    3.64    0.61
   0  -5   4    3.71    0.47
   0  -5   4    3.89    0.31
  -1   5  -4    1.07    0.27
  -1   5  -4    1.69    0.39
  -1   5  -4    1.05    0.36
  -1   5  -4    1.43    0.23
   1  -5   4    1.70    0.27
   1  -5   4    1.63    0.36
   1  -5   4    1.00    0.24
   1  -5   4    1.74    0.48
  -2   5  -4   10.63    0.67
  -2   5  -4    9.92    0.42
  -2   5  -4   11.37    0.72
  -2   5  -4   12.46    0.68
   2  -5   4   11.24    0.76
   2  -5   4   10.49    0.55
   2  -5   4   10.55    0.65
   2  -5   4   11.07    0.50
  -3   5  -4   -0.01    0.41
  -3   5  -4    0.10    0.25
  -3   5  -4    0.30    0.28
  -3   5  -4    0.04    0.34
  -3   5  -4    0.82    0.39
   3  -5   4    0.34    0.35
   3  -5   4    0.72    0.39
  -4   5  -4    2.11    0.51
  -4   5  -4    2.40    0.61
  -4   5  -4    2.82    0.40
  -4   5  -4    3.68    0.39
   4  -5   4    2.82    0.46
  -5   5  -4    3.03    0.66
  -5   5  -4    4.03    0.79
   5  -5   4    3.99    0.57
  -6   5  -4    0.13    0.73
  -6   5  -4    0.00    0.86
   6  -5   4    0.22    0.62
  -7   5  -4    0.75    1.05
  -7   5  -4    0.61    0.99
   7   4  -4    0.99    0.92
   7   4  -4    0.17    0.52
   6   4  -4   -0.10    0.41
   6   4  -4    0.29    0.77
   5   4  -4    0.67    0.66
   5   4  -4    0.65    0.35
  -5  -4   4    0.86    0.64
   4   4  -4    0.85    0.54
   4   4  -4    0.35    0.27
  -4  -4   4    0.40    0.52
  -4  -4   4    0.58    0.65
   3   4  -4    4.92    0.31
   3   4  -4    6.03    0.71
   3   4  -4    3.94    0.46
  -3  -4   4    5.27    0.72
  -3  -4   4    5.05    0.62
  -3  -4   4    4.53    0.65
   2   4  -4    1.71    0.29
  -2  -4   4    2.51    0.48
  -2  -4   4    2.29    0.44
   1   4  -4   23.71    0.90
   1   4  -4   24.42    1.04
   1   4  -4   23.57    1.35
   1   4  -4   24.90    0.87
   1   4  -4   23.37    1.03
  -1  -4   4   24.15    0.89
  -1  -4   4   23.19    1.04
   0   4  -4   58.78    1.75
   0   4  -4   60.50    2.76
   0   4  -4   60.49    2.20
   0   4  -4   64.02    1.83
   0  -4   4   59.94    1.88
   0  -4   4   60.86    1.84
   0  -4   4   63.05    2.20
   0  -4   4   63.90    1.44
   0  -4   4   61.28    2.22
  -1   4  -4   36.77    1.78
  -1   4  -4   37.19    1.11
  -1   4  -4   35.37    1.14
  -1   4  -4   36.54    1.36
  -1   4  -4   35.74    1.13
   1  -4   4   37.25    1.37
   1  -4   4   34.04    1.13
   1  -4   4   36.50    1.40
   1  -4   4   36.01    0.92
  -2   4  -4    3.96    0.35
  -2   4  -4    3.40    0.46
  -2   4  -4    4.85    0.50
  -2   4  -4    3.63    0.37
   2  -4   4    4.64    0.41
   2  -4   4    4.29    0.49
   2  -4   4    4.46    0.34
  -3   4  -4    4.66    0.58
  -3   4  -4    4.70    0.65
  -3   4  -4    4.48    0.31
   3  -4   4    4.79    0.44
   3  -4   4    4.83    0.44
   3  -4   4    5.03    0.53
   3  -4   4    4.85    0.41
  -4   4  -4    3.22    0.56
  -4   4  -4    2.94    0.50
  -4   4  -4    3.04    0.31
   4  -4   4    2.88    0.46
   4  -4   4    3.31    0.41
  -5   4  -4    0.63    0.66
  -5   4  -4    1.08    0.45
  -5   4  -4    1.10    0.58
   5  -4   4    1.30    0.46
   5  -4   4    1.37    0.57
  -6   4  -4    1.97    0.86
  -6   4  -4    0.62    0.71
   6  -4   4    1.54    0.55
   6  -4   4    1.24    0.69
  -7   4  -4    0.10    0.97
  -7   4  -4    0.23    0.87
   7  -4   4    0.62    0.76
   7  -4   4    0.57    0.67
   7   3  -4    0.49    0.49
   7   3  -4    1.04    0.91
   6   3  -4    0.22    0.39
   6   3  -4    0.66    0.74
  -6  -3   4    0.67    0.89
   5   3  -4    3.83    0.46
   5   3  -4    5.24    0.82
  -5  -3   4    4.57    0.71
  -5  -3   4    5.76    0.96
   4   3  -4    2.16    0.31
   4   3  -4    3.05    0.54
   4   3  -4    2.52    0.46
  -4  -3   4    2.94    0.54
  -4  -3   4    2.80    0.63
   3   3  -4    5.94    0.55
   3   3  -4    5.42    0.50
   3   3  -4    5.38    0.30
   3   3  -4    4.60    0.40
  -3  -3   4    5.71    0.63
  -3  -3   4    5.71    0.57
  -3  -3   4    5.23    0.65
   2   3  -4   16.12    1.03
   2   3  -4   15.95    0.77
   2   3  -4   16.40    0.71
  -2  -3   4   16.48    0.81
  -2  -3   4   16.91    0.98
  -2  -3   4   16.67    0.74
   1   3  -4    1.67    0.32
   1   3  -4    1.55    0.26
   1   3  -4    1.57    0.28
  -1  -3   4    1.59    0.30
  -1  -3   4    1.38    0.23
  -1  -3   4    1.75    0.43
  -1  -3   4    2.03    0.29
  -1  -3   4    2.03    0.35
   0   3  -4   10.75    0.53
   0   3  -4   10.68    0.48
   0   3  -4   10.58    0.72
   0   3  -4   10.56    0.53
   0   3  -4   11.35    0.44
   0  -3   4   11.04    0.53
   0  -3   4   11.21    0.53
   0  -3   4   10.68    0.56
   0  -3   4   10.48    0.47
   0  -3   4   10.05    0.42
  -1   3  -4   76.30    2.10
  -1   3  -4   73.84    3.38
  -1   3  -4   75.52    2.26
  -1   3  -4   79.41    2.68
  -1   3  -4   78.20    2.68
  -1   3  -4   83.92    2.26
   1  -3   4   78.86    2.13
   1  -3   4   74.67    2.68
   1  -3   4   77.44    1.78
   1  -3   4   80.18    2.68
   1  -3   4   74.29    2.25
  -2   3  -4    2.13    0.25
  -2   3  -4    2.49    0.37
  -2   3  -4    2.02    0.26
  -2   3  -4    1.54    0.24
   2  -3   4    2.22    0.30
   2  -3   4    1.67    0.25
   2  -3   4    2.12    0.28
   2  -3   4    2.58    0.34
  -3   3  -4    0.78    0.34
  -3   3  -4    0.88    0.17
  -3   3  -4    0.40    0.28
   3  -3   4    0.94    0.25
   3  -3   4    0.56    0.25
   3  -3   4    0.61    0.27
  -4   3  -4   26.55    1.15
  -4   3  -4   23.68    0.98
   4  -3   4   23.12    0.76
   4  -3   4   23.90    0.86
  -5   3  -4    1.59    0.63
  -5   3  -4    0.93    0.46
  -5   3  -4    0.65    0.48
   5  -3   4    1.15    0.52
   5  -3   4    1.05    0.37
  -6   3  -4    1.04    0.57
  -6   3  -4    1.08    0.68
  -6   3  -4    1.06    0.77
   6  -3   4    1.80    0.67
   6  -3   4    1.51    0.47
  -7   3  -4    0.33    0.80
  -7   3  -4   -0.20    0.91
   7  -3   4    1.42    0.82
   7  -3   4    0.19    0.58
   7   2  -4    0.76    0.84
   7   2  -4    0.04    0.49
  -7  -2   4   -0.19    0.74
   6   2  -4    3.36    0.48
   6   2  -4    4.13    0.86
   5   2  -4    0.27    0.30
   5   2  -4    0.15    0.56
  -5  -2   4    0.24    0.64
  -5  -2   4    0.39    0.48
   4   2  -4   13.07    0.79
   4   2  -4   13.10    0.52
   4   2  -4   12.09    0.70
  -4  -2   4   13.31    0.77
  -4  -2   4   13.29    0.83
   3   2  -4    4.58    0.45
   3   2  -4    5.44    0.51
   3   2  -4    4.67    0.26
  -3  -2   4    5.27    0.50
  -3  -2   4    5.20    0.56
  -3  -2   4    5.82    0.61
   2   2  -4    1.04    0.28
   2   2  -4    0.54    0.17
   2   2  -4    0.83    0.26
  -2  -2   4    0.65    0.28
  -2  -2   4    0.89    0.28
  -2  -2   4    0.45    0.15
   1   2  -4   18.22    0.76
   1   2  -4   18.38    0.76
   1   2  -4   19.65    0.65
   1   2  -4   19.03    0.65
   1   2  -4   16.07    1.02
  -1  -2   4   19.17    0.63
  -1  -2   4   18.80    0.76
  -1  -2   4   19.70    1.01
  -1  -2   4   18.57    0.66
  -1  -2   4   18.28    0.76
   0   2  -4   34.49    0.98
   0   2  -4   34.18    1.24
   0   2  -4   32.53    1.59
   0   2  -4   35.81    1.06
   0  -2   4   35.57    1.60
   0  -2   4   34.06    0.99
   0  -2   4   33.09    1.25
   0  -2   4   33.72    1.07
   0  -2   4   34.59    1.24
  -1   2  -4   18.66    0.61
  -1   2  -4   19.15    1.00
  -1   2  -4   19.79    0.73
  -1   2  -4   19.26    0.60
  -1   2  -4   19.13    0.66
   1  -2   4   19.41    0.73
   1  -2   4   19.03    0.74
   1  -2   4   19.28    0.64
  -2   2  -4   30.09    0.92
  -2   2  -4   31.63    1.00
  -2   2  -4   30.44    1.07
  -2   2  -4   30.66    1.08
   2  -2   4   30.56    1.09
   2  -2   4   30.47    0.78
   2  -2   4   30.14    0.85
  -3   2  -4    0.19    0.24
   3  -2   4    0.10    0.21
   3  -2   4    0.41    0.25
  -4   2  -4    1.01    0.42
   4  -2   4    0.30    0.27
   4  -2   4    0.58    0.32
  -5   2  -4    3.05    0.61
  -5   2  -4    2.61    0.55
   5  -2   4    1.99    0.35
   5  -2   4    3.23    0.55
  -6   2  -4   -0.10    0.70
  -6   2  -4    0.31    0.57
   6  -2   4    0.92    0.58
   6  -2   4    0.86    0.41
  -7   2  -4    0.22    0.67
  -7   2  -4    0.60    0.92
   7  -2   4    1.05    0.79
   7  -2   4    0.69    0.49
   7   1  -4    0.10    0.89
   7   1  -4    0.65    0.49
  -7  -1   4   -0.24    0.69
  -7  -1   4   -0.22    0.80
   6   1  -4    1.83    0.81
   6   1  -4    1.79    0.44
   6   1  -4    3.60    0.37
  -6  -1   4    2.54    0.77
  -6  -1   4    1.85    0.74
   5   1  -4    1.98    0.37
   5   1  -4    2.13    0.67
  -5  -1   4    2.74    0.63
  -5  -1   4    1.53    0.49
  -5  -1   4    1.70    0.52
  -5  -1   4    1.66    0.38
   4   1  -4    0.22    0.23
   4   1  -4   -0.10    0.43
   4   1  -4   -0.18    0.29
  -4  -1   4    0.10    0.28
  -4  -1   4   -0.19    0.37
  -4  -1   4    0.38    0.43
   3   1  -4   28.50    1.16
   3   1  -4   29.07    1.13
   3   1  -4   28.80    0.80
  -3  -1   4   28.26    1.04
  -3  -1   4   27.44    1.41
  -3  -1   4   28.62    1.16
  -3  -1   4   28.35    0.92
   2   1  -4   12.50    0.52
   2   1  -4   12.30    0.58
   2   1  -4   12.75    0.75
   2   1  -4   11.91    0.59
  -2  -1   4   12.11    0.60
  -2  -1   4   11.96    0.56
  -2  -1   4   12.17    0.75
  -2  -1   4   12.28    0.48
  -2  -1   4   11.94    0.54
   1   1  -4   26.88    0.83
   1   1  -4   24.91    1.26
   1   1  -4   26.15    0.97
   1   1  -4   25.58    0.97
  -1  -1   4   25.96    0.97
  -1  -1   4   25.39    0.81
  -1  -1   4   26.01    0.76
  -1  -1   4   25.51    0.97
  -1  -1   4   26.33    0.77
  -1  -1   4   25.34    0.83
  -1  -1   4   24.50    1.24
   0   1  -4   28.11    1.05
   0   1  -4   29.95    0.80
   0   1  -4   28.93    1.05
   0   1  -4   28.52    0.85
   0   1  -4   30.67    0.92
   0   1  -4   27.60    1.36
   0  -1   4   29.34    0.81
   0  -1   4   27.32    1.05
   0  -1   4   29.94    1.38
   0  -1   4   28.69    1.05
   0  -1   4   28.62    0.86
   0  -1   4   28.96    0.92
  -1   1  -4    9.72    0.60
  -1   1  -4    9.96    0.41
  -1   1  -4    9.87    0.42
  -1   1  -4   10.86    0.34
   1  -1   4    9.49    0.42
   1  -1   4   10.20    0.42
   1  -1   4    9.91    0.37
   2  -1   4   13.35    0.53
   2  -1   4   14.05    0.45
   3  -1   4   24.45    0.67
   3  -1   4   25.13    0.78
   4  -1   4    0.25    0.24
   4  -1   4    1.15    0.35
  -5   1  -4    0.69    0.51
   5  -1   4    2.10    0.50
   5  -1   4    0.82    0.30
  -6   1  -4    3.15    0.78
  -6   1  -4    2.88    0.72
   6  -1   4    4.03    0.68
   6  -1   4    2.36    0.40
  -7   1  -4    0.36    0.84
  -7   1  -4    0.24    0.71
   7  -1   4    0.65    0.73
   7  -1   4    0.35    0.43
  -8   1  -4   -0.83    1.00
  -8   1  -4    1.26    0.89
   8  -1   4    1.10    0.84
   8   0  -4    0.21    0.64
   7   0  -4    0.85    0.41
   7   0  -4    1.01    0.83
   7   0  -4    0.16    0.54
  -7   0   4    0.40    0.74
  -7   0   4    0.61    0.83
   6   0  -4    0.26    0.35
   6   0  -4   -1.16    0.73
   6   0  -4   -0.02    0.39
  -6   0   4   -0.13    0.61
  -6   0   4   -0.15    0.38
  -6   0   4   -0.19    0.65
   5   0  -4   62.12    1.81
   5   0  -4   64.38    2.57
  -5   0   4   67.18    2.30
  -5   0   4   74.87    2.24
  -5   0   4   65.13    2.45
  -5   0   4   62.19    1.95
   4   0  -4   -1.00    0.47
   4   0  -4    0.12    0.22
   4   0  -4   -0.03    0.31
  -4   0   4   -0.20    0.28
  -4   0   4    0.10    0.36
  -4   0   4   -0.64    0.35
  -4   0   4    0.63    0.40
   3   0  -4    9.46    0.37
   3   0  -4    8.62    0.64
   3   0  -4    9.59    0.56
  -3   0   4    8.61    0.47
  -3   0   4    8.78    0.59
  -3   0   4    9.94    0.59
  -3   0   4   10.01    0.55
   2   0  -4   32.75    1.19
   2   0  -4   29.28    1.19
   2   0  -4   31.97    0.99
  -2   0   4   31.62    1.17
  -2   0   4   28.81    1.02
  -2   0   4   29.21    1.19
  -2   0   4   28.57    1.12
  -2   0   4   30.50    1.43
  -2   0   4   30.83    1.00
   1   0  -4   28.91    0.91
   1   0  -4   30.20    0.90
   1   0  -4   28.34    1.09
   1   0  -4   27.29    1.08
   1   0  -4   28.17    1.08
   1   0  -4   28.66    1.34
  -1   0   4   26.86    1.09
  -1   0   4   28.22    1.08
  -1   0   4   28.84    0.90
  -1   0   4   28.65    0.91
  -1   0   4   27.38    1.31
  -1   0   4   28.02    1.08
   0   0  -4   29.83    0.92
   0   0  -4   29.54    1.10
   0   0  -4   30.30    1.10
   0   0  -4   30.75    0.94
   0   0  -4   27.82    1.20
   0   0  -4   27.87    1.39
   0   0   4   30.37    0.93
   0   0   4   30.05    0.78
   0   0   4   30.51    1.10
   0   0   4   29.72    1.39
   0   0   4   29.93    1.10
  -1   0  -4   99.22    4.20
  -1   0  -4  102.10    3.38
  -1   0  -4   96.48    3.69
  -1   0  -4   96.96    3.38
  -1   0  -4   96.32    2.57
   1   0   4  100.79    3.39
   1   0   4  104.79    4.21
   1   0   4  100.19    2.61
   1   0   4   99.79    3.38
  -2   0  -4    6.59    0.27
  -2   0  -4    6.49    0.50
  -2   0  -4    5.75    0.29
   2   0   4    6.67    0.30
   2   0   4    6.57    0.32
   3   0   4   12.22    0.49
   3   0   4   12.49    0.40
  -4   0  -4    9.75    0.98
   4   0   4   11.14    0.53
   4   0   4   11.17    0.43
  -5   0  -4   -0.44    0.54
  -5   0  -4   -0.13    0.53
   5   0   4    0.61    0.45
   5   0   4   -0.03    0.27
  -6   0  -4   -0.01    0.64
  -6   0  -4    0.96    0.75
   6   0   4    0.13    0.33
   6   0   4    0.23    0.59
   7   0   4    1.04    0.69
  -8   0  -4    0.49    0.87
   8   0   4    1.16    0.90
   8  -1  -4   -0.48    0.53
  -8   1   4   -0.36    0.79
   7  -1  -4    0.72    0.47
   7  -1  -4    1.67    0.77
   7  -1  -4    0.79    0.53
  -7   1   4   -0.22    0.76
  -7   1   4    0.80    0.47
   6  -1  -4   -0.50    0.70
   6  -1  -4    0.35    0.41
   6  -1  -4    0.12    0.38
  -6   1   4   -0.02    0.41
  -6   1   4    0.86    0.71
   5  -1  -4    0.42    0.36
   5  -1  -4   -0.66    0.62
  -5   1   4    0.56    0.48
  -5   1   4    0.37    0.48
  -5   1   4    0.20    0.39
   4  -1  -4   53.52    1.53
   4  -1  -4   55.08    2.09
   4  -1  -4   56.78    2.17
  -4   1   4   54.44    1.78
  -4   1   4   54.40    1.90
  -4   1   4   56.39    2.07
  -4   1   4   59.50    2.10
   3  -1  -4   10.40    0.73
   3  -1  -4   11.23    0.42
   3  -1  -4   10.49    0.67
   3  -1  -4   11.65    0.53
  -3   1   4   11.42    0.66
  -3   1   4   11.82    0.58
  -3   1   4   10.84    0.64
  -3   1   4   11.51    0.55
   2  -1  -4    1.00    0.19
   2  -1  -4    1.00    0.34
   2  -1  -4    1.81    0.23
   2  -1  -4    1.43    0.32
  -2   1   4    1.96    0.29
  -2   1   4    1.44    0.31
  -2   1   4    0.69    0.16
  -2   1   4    1.08    0.25
  -2   1   4    1.14    0.24
  -2   1   4    1.43    0.29
   1  -1  -4   96.12    2.76
   1  -1  -4   90.96    3.19
   1  -1  -4   98.06    2.68
   1  -1  -4   93.61    3.22
   1  -1  -4   90.56    3.35
  -1   1   4   94.45    2.75
  -1   1   4   86.45    3.34
  -1   1   4   89.96    3.20
  -1   1   4   93.07    3.20
  -1   1   4   95.25    2.68
  -1   1   4   89.05    3.92
   0  -1  -4   30.39    1.11
   0  -1  -4   30.71    1.36
   0  -1  -4   28.35    1.07
   0  -1  -4   30.07    0.96
   0  -1  -4   29.70    1.21
   0   1   4   28.99    1.34
   0   1   4   29.45    0.98
   0   1   4   27.50    1.17
   0   1   4   30.45    1.10
   0   1   4   29.16    1.08
   0   1   4   28.96    0.78
  -1  -1  -4   36.19    1.52
  -1  -1  -4   35.68    1.28
  -1  -1  -4   35.37    1.63
  -1  -1  -4   37.90    0.95
  -1  -1  -4   36.62    1.30
   1   1   4   33.64    1.47
   1   1   4   36.70    1.29
   1   1   4   35.77    1.29
   1   1   4   38.74    1.64
  -2  -1  -4   28.88    1.04
  -2  -1  -4   28.34    1.37
  -2  -1  -4   29.29    1.34
  -2  -1  -4   29.86    1.05
   2   1   4   29.73    1.06
   2   1   4   28.93    1.06
  -3  -1  -4    1.84    0.44
  -3  -1  -4    0.86    0.45
  -3  -1  -4    1.14    0.22
  -3  -1  -4    1.23    0.19
   3   1   4    1.22    0.27
   3   1   4    1.68    0.26
  -4  -1  -4    2.19    0.60
   4   1   4    3.11    0.33
   4   1   4    2.59    0.43
  -5  -1  -4    1.23    0.64
  -5  -1  -4    1.56    0.66
   5   1   4    2.28    0.28
   5   1   4    1.52    0.45
  -6  -1  -4    0.52    0.67
   6   1   4    0.06    0.59
   7   1   4    0.55    0.76
   7  -2  -4    0.39    0.51
  -7   2   4    0.21    0.48
  -7   2   4    0.14    0.80
   6  -2  -4    4.31    0.89
   6  -2  -4    4.43    0.52
  -6   2   4    4.00    0.84
  -6   2   4    3.37    0.62
   5  -2  -4   -0.45    0.58
  -5   2   4    0.19    0.54
  -5   2   4    0.13    0.39
  -5   2   4    0.01    0.45
   4  -2  -4   15.91    0.95
   4  -2  -4   15.17    0.91
  -4   2   4   16.18    0.98
  -4   2   4   17.09    0.77
  -4   2   4   16.46    0.81
  -4   2   4   15.99    0.80
   3  -2  -4   20.76    0.99
   3  -2  -4   21.28    0.76
   3  -2  -4   21.74    1.00
  -3   2   4   20.56    0.92
  -3   2   4   20.70    0.95
  -3   2   4   20.79    0.79
  -3   2   4   21.47    0.93
   2  -2  -4    7.62    0.52
   2  -2  -4    8.59    0.50
   2  -2  -4    7.54    0.37
   2  -2  -4    7.17    0.56
  -2   2   4    7.96    0.42
  -2   2   4    7.13    0.50
  -2   2   4    7.80    0.58
  -2   2   4    7.23    0.47
   1  -2  -4    0.04    0.26
   1  -2  -4    0.11    0.16
   1  -2  -4    0.28    0.19
   1  -2  -4    0.06    0.20
   1  -2  -4    0.16    0.21
  -1   2   4    0.20    0.17
  -1   2   4    0.12    0.24
  -1   2   4    0.09    0.11
  -1   2   4    0.05    0.25
  -1   2   4    0.09    0.16
  -1   2   4    0.33    0.21
   0  -2  -4   48.38    1.69
   0  -2  -4   47.31    1.23
   0  -2  -4   48.40    1.49
   0  -2  -4   47.37    1.83
   0  -2  -4   46.33    1.66
   0   2   4   45.22    1.51
   0   2   4   45.77    1.25
   0   2   4   46.64    2.04
   0   2   4   44.79    1.80
   0   2   4   46.31    1.67
   0   2   4   47.11    1.68
  -1  -2  -4    6.72    0.26
  -1  -2  -4    6.99    0.56
  -1  -2  -4    6.51    0.41
  -1  -2  -4    6.37    0.24
  -1  -2  -4    6.28    0.36
  -1  -2  -4    7.06    0.45
  -1  -2  -4    6.92    0.37
   1   2   4    5.79    0.46
   1   2   4    5.90    0.38
   1   2   4    6.42    0.40
   1   2   4    6.26    0.28
   1   2   4    6.35    0.49
  -2  -2  -4    4.74    0.21
  -2  -2  -4    4.87    0.36
  -2  -2  -4    4.77    0.29
  -2  -2  -4    5.46    0.62
  -2  -2  -4    4.98    0.32
  -2  -2  -4    4.29    0.41
   2   2   4    5.36    0.38
   2   2   4    5.05    0.39
   2   2   4    4.54    0.51
  -3  -2  -4   13.02    0.61
  -3  -2  -4   13.05    0.72
  -3  -2  -4   13.48    0.98
   3   2   4   13.33    0.63
   3   2   4   13.17    0.64
  -4  -2  -4    4.44    0.88
  -4  -2  -4    4.76    0.40
  -4  -2  -4    4.99    0.57
   4   2   4    4.55    0.53
   4   2   4    4.24    0.47
   4   2   4    5.77    0.47
  -5  -2  -4    1.06    0.59
  -5  -2  -4    0.63    0.23
  -5  -2  -4    1.58    0.78
   5   2   4    1.09    0.48
  -6  -2  -4    0.78    0.68
  -6  -2  -4    0.84    0.91
   6   2   4    0.43    0.57
   6   2   4   -0.13    0.43
  -7  -2  -4   -0.43    1.02
   7   2   4   -0.19    0.75
   7  -3  -4    1.50    0.61
  -7   3   4    0.74    0.81
   6  -3  -4    0.22    0.52
  -6   3   4   -0.01    0.69
  -6   3   4    0.24    0.55
   5  -3  -4    4.80    0.91
  -5   3   4    4.44    0.75
  -5   3   4    3.94    0.55
   4  -3  -4    0.51    0.48
   4  -3  -4    0.10    0.58
  -4   3   4    0.16    0.48
  -4   3   4    0.10    0.36
  -4   3   4    0.10    0.36
   3  -3  -4   10.57    0.72
   3  -3  -4    9.30    0.46
   3  -3  -4    9.69    0.72
  -3   3   4   10.20    0.82
  -3   3   4    9.73    0.62
  -3   3   4   10.44    0.53
   2  -3  -4   25.24    0.81
   2  -3  -4   24.66    1.09
   2  -3  -4   25.60    1.05
  -2   3   4   25.21    1.04
  -2   3   4   24.47    1.04
  -2   3   4   24.87    0.91
   1  -3  -4   55.89    2.04
   1  -3  -4   55.83    1.66
   1  -3  -4   57.05    2.16
   1  -3  -4   56.45    2.00
  -1   3   4   53.19    1.83
  -1   3   4   56.83    2.01
  -1   3   4   53.56    2.14
  -1   3   4   55.26    1.57
   0  -3  -4    5.27    0.28
   0  -3  -4    4.97    0.46
   0  -3  -4    5.22    0.41
   0  -3  -4    5.12    0.37
   0  -3  -4    5.71    0.53
   0   3   4    5.33    0.46
   0   3   4    4.48    0.38
   0   3   4    5.22    0.40
   0   3   4    3.91    0.55
   0   3   4    4.42    0.44
   0   3   4    5.24    0.45
  -1  -3  -4   54.32    1.92
  -1  -3  -4   55.61    1.42
  -1  -3  -4   51.11    2.09
   1   3   4   50.57    1.88
   1   3   4   51.69    1.44
   1   3   4   50.82    2.26
   1   3   4   51.39    1.89
  -2  -3  -4    8.57    0.74
  -2  -3  -4    8.02    0.39
  -2  -3  -4    7.80    0.53
   2   3   4    8.16    0.54
   2   3   4    8.44    0.54
  -3  -3  -4    2.18    0.51
  -3  -3  -4    2.09    0.43
   3   3   4    2.74    0.51
   3   3   4    2.94    0.46
  -4  -3  -4    4.32    0.50
  -4  -3  -4    6.20    0.96
   4   3   4    5.08    0.53
   4   3   4    4.68    0.66
   4   3   4    3.40    0.50
  -5  -3  -4    0.89    0.62
  -5  -3  -4   -0.28    0.85
   5   3   4    1.09    0.56
  -6  -3  -4   -0.63    0.67
   6   3   4   -0.17    0.64
   6   3   4   -0.68    0.52
   7   3   4   -0.49    0.80
   7  -4  -4    0.13    0.69
  -7   4   4    1.82    0.96
  -7   4   4    0.11    1.16
   6  -4  -4    3.60    0.65
  -6   4   4    2.85    0.95
   5  -4  -4    0.22    0.49
  -5   4   4    0.37    0.44
  -5   4   4   -0.20    0.71
  -5   4   4    1.17    0.76
   4  -4  -4    3.51    0.71
   4  -4  -4    2.61    0.72
  -4   4   4    1.98    0.64
  -4   4   4    1.87    0.40
  -4   4   4    1.60    0.59
  -4   4   4    2.23    0.50
   3  -4  -4    4.66    0.34
   3  -4  -4    4.72    0.76
   3  -4  -4    5.73    0.62
  -3   4   4    4.75    0.80
  -3   4   4    5.05    0.59
  -3   4   4    5.00    0.74
   2  -4  -4    1.76    0.25
   2  -4  -4    2.28    0.51
  -2   4   4    2.86    0.47
  -2   4   4    1.95    0.40
  -2   4   4    1.86    0.48
   1  -4  -4   73.89    2.63
   1  -4  -4   72.69    2.80
   1  -4  -4   67.64    2.12
  -1   4   4   71.25    2.02
  -1   4   4   74.18    2.60
  -1   4   4   72.84    2.36
   0  -4  -4   -0.05    0.37
   0  -4  -4    0.16    0.17
   0  -4  -4    0.57    0.33
   0   4   4   -0.10    0.27
   0   4   4    0.16    0.34
   0   4   4    0.03    0.37
   0   4   4    0.20    0.14
  -1  -4  -4    0.04    0.36
  -1  -4  -4    0.59    0.36
  -1  -4  -4    0.26    0.18
   1   4   4    0.19    0.36
   1   4   4    0.13    0.26
   1   4   4    0.25    0.12
  -2  -4  -4   14.94    0.99
  -2  -4  -4   14.18    0.82
   2   4   4   14.41    0.75
   2   4   4   13.49    0.79
  -3  -4  -4    0.97    0.50
  -3  -4  -4    0.52    0.44
   3   4   4    0.94    0.51
   3   4   4    0.92    0.42
  -4  -4  -4    0.23    0.45
  -4  -4  -4   -1.06    0.71
  -4  -4  -4    0.61    0.56
   4   4   4    0.22    0.62
  -5  -4  -4    1.47    1.05
  -5  -4  -4    2.07    0.70
   5   4   4    3.17    0.78
   5   4   4    1.40    0.62
   6   4   4   -0.49    0.67
  -7  -4  -4    1.19    1.40
   7   4   4    0.18    0.81
   7  -5  -4    0.47    0.78
  -7   5   4    0.71    1.10
   6  -5  -4    2.10    0.70
  -6   5   4    1.32    0.86
  -6   5   4    2.01    1.11
   5  -5  -4    3.18    0.59
  -5   5   4    2.51    0.84
  -5   5   4    3.18    0.82
   4  -5  -4    0.50    0.82
  -4   5   4    0.19    0.50
  -4   5   4    0.21    0.70
  -4   5   4    0.43    0.68
   3  -5  -4    5.05    0.79
  -3   5   4    4.18    0.64
  -3   5   4    3.95    0.60
  -3   5   4    3.03    0.66
   2  -5  -4    5.29    0.79
  -2   5   4    5.75    0.66
  -2   5   4    6.21    0.74
  -2   5   4    5.91    0.72
   1  -5  -4    0.40    0.39
   1  -5  -4   -0.19    0.50
   1  -5  -4   -0.01    0.23
  -1   5   4    0.27    0.44
  -1   5   4    0.16    0.38
  -1   5   4   -0.80    0.49
   0  -5  -4   56.60    2.22
   0  -5  -4   59.09    2.40
   0   5   4   56.92    1.72
   0   5   4   57.02    2.17
   0   5   4   57.82    2.04
  -1  -5  -4    9.27    0.82
  -1  -5  -4   10.08    0.92
   1   5   4    9.82    0.65
   1   5   4    9.84    0.69
   1   5   4    9.23    0.77
  -2  -5  -4    1.50    0.55
  -2  -5  -4    1.76    0.54
   2   5   4    1.30    0.55
   2   5   4    0.86    0.39
  -3  -5  -4   24.08    1.34
  -3  -5  -4   26.68    1.34
  -3  -5  -4   26.14    1.55
   3   5   4   28.20    1.40
  -4  -5  -4    0.30    0.65
  -4  -5  -4   -0.51    0.91
   4   5   4    0.39    0.77
  -5  -5  -4    1.15    0.77
   5   5   4    0.06    0.57
   5   5   4    2.56    0.90
   6   5   4    0.75    0.79
   6  -6  -4    0.92    0.76
  -6   6   4    2.12    1.05
  -6   6   4   -0.35    1.11
   5  -6  -4    3.49    0.69
  -5   6   4    1.83    1.03
  -5   6   4    2.13    0.87
   4  -6  -4    5.46    0.70
  -4   6   4    5.69    0.94
  -4   6   4    4.36    0.87
  -3   6   4    0.29    0.57
  -3   6   4    0.06    0.75
  -3   6   4    0.02    0.65
   2  -6  -4    6.43    1.06
  -2   6   4    6.85    1.13
  -2   6   4    7.37    0.83
  -2   6   4    8.23    0.92
   1  -6  -4    3.39    0.78
   1  -6  -4    2.51    0.38
   1  -6  -4    4.82    0.95
  -1   6   4    3.47    0.66
  -1   6   4    1.58    0.68
  -1   6   4    2.07    0.54
   0  -6  -4    2.20    0.72
   0  -6  -4    2.44    0.58
   0   6   4    3.01    0.66
   0   6   4    2.14    0.50
  -1  -6  -4    6.21    0.99
  -1  -6  -4    4.76    0.92
   1   6   4    5.14    0.77
   1   6   4    3.20    0.52
   1   6   4    3.51    0.60
  -2  -6  -4    2.21    0.70
  -2  -6  -4    1.76    0.70
  -2  -6  -4    2.72    0.69
   2   6   4    2.06    0.77
   2   6   4    1.88    0.52
  -3  -6  -4    0.54    0.72
  -3  -6  -4   -0.45    0.80
  -3  -6  -4    0.29    0.68
  -4  -6  -4    1.14    1.04
  -4  -6  -4    0.43    0.82
  -5  -6  -4    0.59    1.23
   5   6   4    1.13    1.06
   5   6   4   -0.69    0.64
   6   6   4    0.14    0.79
   6  -7  -4    0.88    0.84
  -6   7   4    2.12    1.13
   5  -7  -4    0.47    0.71
  -5   7   4    0.42    1.06
  -5   7   4    1.10    1.01
   4  -7  -4    3.11    0.68
  -4   7   4    3.89    0.99
  -4   7   4    2.88    0.88
   3  -7  -4    5.49    1.22
   3  -7  -4    4.90    0.59
  -3   7   4    3.02    0.87
  -3   7   4    3.97    0.85
  -3   7   4    6.14    0.92
   2  -7  -4    0.36    0.42
   2  -7  -4    0.05    0.98
  -2   7   4    0.40    0.68
  -2   7   4    0.15    0.71
  -2   7   4   -0.13    0.72
   1  -7  -4    4.12    0.46
  -1   7   4    4.18    0.85
  -1   7   4    2.32    0.65
  -1   7   4    1.67    0.74
   0  -7  -4    0.62    0.93
   0  -7  -4    0.68    0.31
   0  -7  -4    1.27    0.72
   0   7   4   -0.02    0.60
   0   7   4    0.82    0.76
  -1  -7  -4    1.96    0.74
   1   7   4    2.17    0.89
   1   7   4    1.30    0.62
  -2  -7  -4    1.87    0.78
   2   7   4    1.52    0.64
  -3  -7  -4   -0.09    0.82
   3   7   4   -0.20    1.01
  -4  -7  -4    2.93    1.11
   5   7   4    0.16    0.69
   5  -8  -4    1.22    0.81
  -5   8   4    0.64    1.21
  -5   8   4    2.38    1.11
   4  -8  -4   -0.16    0.72
  -4   8   4    0.49    1.00
  -4   8   4    0.61    1.07
   3  -8  -4    1.75    0.62
  -3   8   4    0.43    0.92
  -3   8   4    1.39    0.94
   2  -8  -4    1.31    0.51
  -2   8   4    0.33    0.80
  -2   8   4   -0.02    0.87
   1  -8  -4   -0.16    0.41
   1  -8  -4    0.38    1.21
  -1   8   4   -1.24    0.86
  -1   8   4    0.27    0.77
   0  -8  -4    0.70    1.11
   0   8   4    0.58    0.76
   1   8   4    0.58    0.75
  -2  -8  -4   -0.04    1.08
   2   8   4   -0.92    0.72
   4  -9  -4    2.13    0.87
  -4   9   4    2.27    1.16
  -4   9   4    3.05    1.22
   3  -9  -4    0.24    0.68
  -3   9   4    0.35    1.03
  -3   9   4   -1.70    0.98
   2  -9  -4    1.03    0.64
  -2   9   4   -0.13    0.95
  -2   9   4   -0.23    0.96
   1  -9  -4    0.51    0.53
  -1   9   4    0.05    0.87
   0   9   4   -1.22    0.82
   1   9   4   -0.48    0.85
   2   9   4   -1.18    0.85
  -2  10   4   -0.20    1.08
  -1  10   4   -0.97    0.99
   0  10   4   -1.52    0.93
   1  10   4   -1.46    0.93
   2  10   4   -1.50    0.96
   2  10  -5   -1.84    1.16
   1  10  -5   -1.17    1.03
   0  10  -5   -1.32    0.90
  -1  10  -5   -0.81    0.97
  -2  10  -5    0.39    1.03
   2 -10   5    0.90    0.70
   2   9  -5   -1.36    0.96
   1   9  -5   -0.49    0.92
   0   9  -5   -0.25    0.85
   0  -9   5   -0.16    0.43
  -1   9  -5    0.45    0.88
  -2   9  -5    0.50    0.89
  -3   9  -5    0.95    0.97
   3  -9   5    1.05    0.70
  -4   9  -5    0.49    0.92
   2   8  -5    0.87    0.93
   1   8  -5    0.26    0.42
   1   8  -5   -0.22    0.78
   0   8  -5    0.24    0.71
   0  -8   5    0.37    0.37
  -1   8  -5    0.84    0.50
  -1   8  -5    1.17    0.68
   1  -8   5    1.10    0.55
  -2   8  -5    0.27    0.49
  -2   8  -5    0.61    0.75
   2  -8   5    0.18    0.49
  -3   8  -5    1.09    0.70
  -3   8  -5    1.21    0.88
   3  -8   5    2.29    0.61
  -4   8  -5    0.30    0.93
  -4   8  -5    0.56    0.52
   4  -8   5    0.42    0.74
  -5   8  -5    0.01    1.00
   5  -8   5    0.07    0.79
  -5  -7   5   -0.26    1.08
  -4  -7   5    0.10    0.92
   2   7  -5    2.09    0.78
   2   7  -5    1.13    0.42
  -2  -7   5    3.78    0.96
   1   7  -5    0.74    0.39
   1   7  -5    0.60    0.57
   0   7  -5    0.03    0.55
   0   7  -5    0.26    0.39
   0  -7   5    0.22    0.49
   0  -7   5    0.15    0.31
  -1   7  -5   -0.07    0.54
  -1   7  -5    0.26    0.58
  -1   7  -5    0.21    0.41
   1  -7   5    0.54    0.37
   1  -7   5    0.32    0.77
  -2   7  -5    0.29    0.46
  -2   7  -5    0.51    0.64
  -2   7  -5    0.65    0.42
   2  -7   5    0.43    0.44
  -3   7  -5    2.15    0.55
  -3   7  -5    2.53    0.48
  -3   7  -5    1.74    0.69
   3  -7   5    2.31    0.53
  -4   7  -5    0.87    0.47
  -4   7  -5    0.31    0.74
   4  -7   5    0.33    0.59
  -5   7  -5    0.55    0.84
   5  -7   5    0.58    0.70
  -6   7  -5   -0.10    1.00
   6  -7   5    0.28    0.81
  -6  -6   5    0.19    1.18
  -5  -6   5    0.37    1.02
   4   6  -5   -0.06    0.32
  -4  -6   5    0.28    0.89
  -4  -6   5   -0.19    0.77
   3   6  -5    0.39    0.28
   3   6  -5    0.59    0.23
  -3  -6   5    1.47    0.81
  -3  -6   5    1.17    0.75
   2   6  -5   -0.25    0.53
   2   6  -5    0.03    0.35
  -2  -6   5    0.15    0.69
   1   6  -5    6.17    0.84
   1   6  -5    5.23    0.81
   1   6  -5    6.26    1.12
  -1  -6   5    6.21    0.69
  -1  -6   5    5.95    0.88
   0   6  -5    3.12    0.43
   0   6  -5    1.97    0.46
   0   6  -5    1.60    0.37
   0  -6   5    1.61    0.36
   0  -6   5    2.98    0.37
   0  -6   5    2.54    0.45
   0  -6   5    2.51    0.64
  -1   6  -5   19.45    1.53
  -1   6  -5   17.95    0.97
   1  -6   5   19.42    0.66
   1  -6   5   18.68    1.09
   1  -6   5   14.52    0.71
  -2   6  -5   14.51    0.96
  -2   6  -5   15.17    0.71
  -2   6  -5   16.55    1.46
   2  -6   5   12.38    0.66
   2  -6   5   13.15    0.85
   2  -6   5   15.17    0.99
   2  -6   5   14.39    0.64
  -3   6  -5    0.83    0.54
  -3   6  -5    0.10    0.45
  -3   6  -5    0.46    0.35
   3  -6   5    0.19    0.43
  -4   6  -5    1.37    0.61
  -4   6  -5    1.09    0.65
   4  -6   5    0.49    0.46
  -5   6  -5    0.88    0.75
  -5   6  -5    0.91    0.69
   5  -6   5    1.39    0.62
  -6   6  -5    1.03    0.89
   6   5  -5   -0.20    0.42
   6   5  -5    0.10    0.90
   5   5  -5    0.32    0.33
   5   5  -5    0.80    0.80
  -5  -5   5    0.19    0.95
   4   5  -5    1.37    0.71
   4   5  -5    1.39    0.30
  -4  -5   5    1.52    0.72
  -4  -5   5    1.50    0.78
   3   5  -5    0.45    0.22
   3   5  -5    0.06    0.25
   3   5  -5   -0.03    0.31
  -3  -5   5   -0.02    0.20
  -3  -5   5    0.81    0.60
  -3  -5   5    0.46    0.58
   2   5  -5    3.75    0.53
   2   5  -5    2.49    0.42
  -2  -5   5    4.93    0.76
  -2  -5   5    4.99    0.72
   1   5  -5    5.68    0.59
   1   5  -5    6.08    0.96
   1   5  -5    6.10    0.64
  -1  -5   5    5.63    0.55
  -1  -5   5    6.18    0.59
  -1  -5   5    6.11    0.73
   0   5  -5    1.20    0.32
   0   5  -5    1.96    0.31
   0   5  -5    1.84    0.43
   0  -5   5    2.43    0.28
   0  -5   5    1.17    0.29
   0  -5   5    1.90    0.37
   0  -5   5    2.07    0.48
  -1   5  -5    3.54    0.35
  -1   5  -5    4.06    0.52
  -1   5  -5    4.99    0.87
  -1   5  -5    4.03    0.53
   1  -5   5    4.47    0.63
   1  -5   5    3.94    0.36
   1  -5   5    3.55    0.34
   1  -5   5    4.16    0.50
  -2   5  -5   42.77    1.43
  -2   5  -5   45.67    1.48
  -2   5  -5   46.64    1.71
  -2   5  -5   43.71    1.38
   2  -5   5   47.92    1.79
   2  -5   5   43.91    1.71
   2  -5   5   46.60    1.19
  -3   5  -5    4.41    0.47
  -3   5  -5    5.14    0.68
  -3   5  -5    5.20    0.40
  -3   5  -5    4.65    0.70
   3  -5   5    5.59    0.70
   3  -5   5    4.89    0.54
   3  -5   5    4.56    0.50
  -4   5  -5    3.79    0.61
  -4   5  -5    2.98    0.55
  -4   5  -5    3.52    0.41
   4  -5   5    4.25    0.55
  -5   5  -5    2.29    0.63
  -5   5  -5    2.74    0.74
   5  -5   5    2.24    0.55
  -6   5  -5    0.09    0.85
  -6   5  -5   -0.07    0.75
   6  -5   5    0.56    0.65
  -7   5  -5    1.03    1.02
   7  -5   5    1.16    0.76
   7   4  -5    0.37    0.46
   7   4  -5    1.36    0.98
  -7  -4   5    0.23    1.21
   6   4  -5    1.43    0.40
   6   4  -5    3.02    0.89
  -6  -4   5    2.00    1.03
   5   4  -5    0.11    0.32
   5   4  -5    0.75    0.70
  -5  -4   5    0.21    0.60
   4   4  -5    1.83    0.28
   4   4  -5    2.37    0.63
  -4  -4   5    2.00    0.62
  -4  -4   5    2.84    0.70
   3   4  -5    5.62    0.82
   3   4  -5    4.99    0.65
   3   4  -5    3.78    0.44
   3   4  -5    4.43    0.30
  -3  -4   5    4.70    0.69
  -3  -4   5    4.96    0.74
  -3  -4   5    4.13    0.69
   2   4  -5   -0.21    0.21
   2   4  -5   -0.22    0.26
  -2  -4   5    0.25    0.43
  -2  -4   5   -0.04    0.17
  -2  -4   5    0.16    0.40
   1   4  -5   11.73    0.63
   1   4  -5   11.42    0.99
  -1  -4   5   13.24    0.64
  -1  -4   5   12.59    0.85
  -1  -4   5   12.14    0.75
   0   4  -5    1.53    0.26
   0   4  -5    2.10    0.41
   0   4  -5    0.78    0.23
   0   4  -5    1.10    0.27
   0  -4   5    1.01    0.23
   0  -4   5    1.37    0.37
   0  -4   5    1.14    0.31
   0  -4   5    1.46    0.34
   0  -4   5    1.59    0.22
  -1   4  -5    5.94    0.39
  -1   4  -5    6.97    0.77
  -1   4  -5    5.92    0.46
  -1   4  -5    5.60    0.49
   1  -4   5    5.95    0.46
   1  -4   5    5.53    0.30
   1  -4   5    5.98    0.34
   1  -4   5    5.75    0.53
  -2   4  -5    2.13    0.35
  -2   4  -5    1.84    0.32
  -2   4  -5    2.25    0.32
  -2   4  -5    1.68    0.28
   2  -4   5    2.43    0.28
   2  -4   5    2.06    0.39
   2  -4   5    2.46    0.46
  -3   4  -5    4.12    0.62
  -3   4  -5    3.88    0.50
   3  -4   5    4.75    0.44
   3  -4   5    4.75    0.52
   3  -4   5    4.68    0.43
   3  -4   5    4.76    0.45
  -4   4  -5   -0.27    0.40
  -4   4  -5    0.08    0.48
  -4   4  -5   -0.08    0.25
   4  -4   5    0.76    0.35
   4  -4   5    0.14    0.41
   4  -4   5    0.08    0.33
  -5   4  -5    5.58    0.78
  -5   4  -5    4.09    0.59
  -5   4  -5    3.21    0.59
   5  -4   5    4.69    0.71
   5  -4   5    4.34    0.60
  -6   4  -5    0.12    0.80
  -6   4  -5    0.67    0.67
   6  -4   5    0.35    0.55
   6  -4   5    0.53    0.65
  -7   4  -5    0.48    0.88
  -7   4  -5    1.28    1.01
   7  -4   5    1.41    0.85
   7   3  -5    2.51    0.99
   7   3  -5    1.00    0.48
  -7  -3   5    1.40    1.14
  -7  -3   5    0.16    0.88
   6   3  -5    1.65    0.81
   6   3  -5    2.48    0.44
  -6  -3   5    3.06    0.97
   5   3  -5    1.28    0.65
   5   3  -5    1.09    0.32
  -5  -3   5    1.85    0.75
  -5  -3   5    1.41    0.59
   4   3  -5    0.22    0.24
   4   3  -5    0.62    0.49
  -4  -3   5    0.50    0.57
  -4  -3   5    0.49    0.47
   3   3  -5    3.79    0.55
   3   3  -5    3.10    0.25
   3   3  -5    5.03    0.74
  -3  -3   5    4.09    0.63
  -3  -3   5    4.24    0.65
  -3  -3   5    3.59    0.57
   2   3  -5    8.81    0.89
   2   3  -5    9.17    0.60
   2   3  -5    9.62    0.47
  -2  -3   5    9.58    0.60
  -2  -3   5    9.16    0.62
  -2  -3   5    9.24    0.79
   1   3  -5   -0.11    0.19
   1   3  -5   -0.12    0.23
   1   3  -5    0.07    0.20
   1   3  -5    0.01    0.25
  -1  -3   5    0.00    0.25
  -1  -3   5    0.20    0.28
  -1  -3   5    0.00    0.16
  -1  -3   5    0.19    0.31
   0   3  -5   29.64    0.94
   0   3  -5   27.80    1.10
   0   3  -5   27.38    0.88
   0   3  -5   28.00    1.44
   0  -3   5   28.35    0.96
   0  -3   5   27.92    1.12
   0  -3   5   27.19    0.88
   0  -3   5   29.68    1.11
   0  -3   5   29.94    1.45
   0  -3   5   29.89    0.95
  -1   3  -5   19.85    0.69
  -1   3  -5   18.59    0.77
  -1   3  -5   18.56    1.08
  -1   3  -5   18.20    0.67
  -1   3  -5   18.85    0.58
   1  -3   5   19.11    0.79
   1  -3   5   17.67    0.79
   1  -3   5   18.41    0.54
   1  -3   5   19.10    0.72
  -2   3  -5   10.26    0.50
  -2   3  -5    9.40    0.49
   2  -3   5   10.21    0.53
   2  -3   5   10.22    0.51
   2  -3   5    9.98    0.41
   2  -3   5    9.78    0.39
  -3   3  -5   25.48    0.93
  -3   3  -5   25.52    0.96
  -3   3  -5   24.23    0.95
  -3   3  -5   28.78    1.03
   3  -3   5   27.44    1.00
   3  -3   5   26.35    0.76
   3  -3   5   26.82    0.86
  -4   3  -5    0.26    0.32
  -4   3  -5    0.70    0.45
  -4   3  -5    0.51    0.20
   4  -3   5   -0.07    0.30
   4  -3   5    0.20    0.36
  -5   3  -5    2.03    0.64
  -5   3  -5    1.80    0.50
   5  -3   5    1.69    0.42
   5  -3   5    2.49    0.57
  -6   3  -5    0.85    0.77
  -6   3  -5    0.67    0.64
  -6   3  -5    1.02    0.59
   6  -3   5    1.49    0.49
   6  -3   5    1.97    0.71
  -7   3  -5   -0.07    0.82
  -7   3  -5   -1.02    0.94
   7  -3   5    0.93    0.82
   7  -3   5    0.48    0.56
   7   2  -5    1.08    0.50
   7   2  -5    2.86    0.98
  -7  -2   5    1.09    0.78
   6   2  -5    3.40    0.51
   6   2  -5    4.32    0.91
  -6  -2   5    4.05    0.84
   5   2  -5    1.87    0.34
   5   2  -5    2.41    0.68
  -5  -2   5    3.06    0.71
  -5  -2   5    2.66    0.59
   4   2  -5   26.21    1.19
   4   2  -5   24.14    1.10
   4   2  -5   24.61    0.78
  -4  -2   5   26.47    1.14
  -4  -2   5   25.48    1.17
   3   2  -5    0.24    0.31
   3   2  -5    0.82    0.35
   3   2  -5    0.35    0.16
  -3  -2   5    0.38    0.35
  -3  -2   5    0.05    0.38
   2   2  -5   44.37    1.62
   2   2  -5   44.71    2.07
   2   2  -5   41.90    1.61
  -2  -2   5   43.17    1.40
  -2  -2   5   43.71    1.63
  -2  -2   5   41.93    2.04
   1   2  -5   23.63    0.80
   1   2  -5   23.99    0.76
   1   2  -5   22.50    0.91
   1   2  -5   21.29    1.24
   1   2  -5   22.91    0.92
  -1  -2   5   22.70    0.94
  -1  -2   5   22.89    0.73
  -1  -2   5   23.20    0.92
  -1  -2   5   23.47    1.23
  -1  -2   5   22.44    0.80
   0   2  -5    6.73    0.37
   0   2  -5    6.35    0.32
   0   2  -5    6.33    0.38
   0   2  -5    6.31    0.38
   0   2  -5    6.26    0.58
   0  -2   5    6.52    0.36
   0  -2   5    6.18    0.39
   0  -2   5    5.99    0.40
   0  -2   5    6.23    0.38
   0  -2   5    6.77    0.61
  -1   2  -5   13.28    0.56
  -1   2  -5   13.12    0.82
  -1   2  -5   13.57    0.57
  -1   2  -5   13.64    0.55
  -1   2  -5   13.41    0.48
   1  -2   5   13.69    0.42
   1  -2   5   13.88    0.58
   1  -2   5   13.23    0.59
   1  -2   5   13.65    0.52
  -2   2  -5    7.26    0.35
  -2   2  -5    7.43    0.38
  -2   2  -5    7.08    0.34
  -2   2  -5    7.64    0.66
   2  -2   5    6.24    0.35
   2  -2   5    7.36    0.39
   2  -2   5    6.96    0.33
   2  -2   5    7.44    0.32
  -3   2  -5    0.18    0.23
   3  -2   5    0.13    0.23
   3  -2   5   -0.02    0.20
  -4   2  -5    7.01    0.58
   4  -2   5    7.90    0.50
   4  -2   5    7.23    0.45
  -5   2  -5    3.70    0.64
   5  -2   5    3.46    0.47
   5  -2   5    4.70    0.61
  -6   2  -5    4.06    0.72
  -6   2  -5    3.18    0.80
   6  -2   5    3.76    0.68
   6  -2   5    3.18    0.47
  -7   2  -5   -0.87    0.86
  -7   2  -5    0.40    0.69
   7  -2   5    0.44    0.50
   7  -2   5    0.46    0.74
   7   1  -5   -0.54    0.95
   7   1  -5    0.24    0.50
  -7  -1   5   -0.12    0.85
  -7  -1   5    0.41    0.83
   6   1  -5   -1.06    0.77
   6   1  -5    0.07    0.33
   6   1  -5   -0.14    0.36
  -6  -1   5    0.31    0.70
  -6  -1   5    0.02    0.62
   5   1  -5    0.48    0.29
   5   1  -5    0.65    0.66
  -5  -1   5    1.27    0.54
  -5  -1   5    0.80    0.38
  -5  -1   5    1.18    0.60
  -5  -1   5    1.02    0.50
   4   1  -5    0.58    0.36
   4   1  -5    0.71    0.49
   4   1  -5    0.60    0.23
  -4  -1   5    0.91    0.40
  -4  -1   5    1.51    0.47
  -4  -1   5    0.86    0.44
  -4  -1   5    0.68    0.33
   3   1  -5   44.71    1.69
   3   1  -5   45.05    1.19
   3   1  -5   45.19    1.72
  -3  -1   5   44.25    1.48
  -3  -1   5   45.96    1.73
  -3  -1   5   43.96    1.51
  -3  -1   5   45.34    1.37
   2   1  -5    7.62    0.50
   2   1  -5    7.76    0.50
   2   1  -5    8.30    0.44
   2   1  -5    8.86    0.70
  -2  -1   5    8.43    0.50
  -2  -1   5    7.49    0.52
  -2  -1   5    7.94    0.47
  -2  -1   5    8.01    0.39
  -2  -1   5    8.25    0.63
  -2  -1   5    7.45    0.47
   1   1  -5   25.53    1.39
   1   1  -5   29.20    0.91
   1   1  -5   28.31    1.07
   1   1  -5   26.63    1.05
  -1  -1   5   27.82    0.81
  -1  -1   5   26.76    1.36
  -1  -1   5   27.69    1.05
  -1  -1   5   28.45    0.84
  -1  -1   5   27.13    0.90
  -1  -1   5   26.65    0.87
  -1  -1   5   27.40    1.06
   0   1  -5   48.70    1.44
   0   1  -5   46.40    1.66
   0   1  -5   51.76    1.26
   0   1  -5   43.41    1.65
   0   1  -5   46.18    1.37
   0   1  -5   44.78    2.13
   0  -1   5   45.68    1.38
   0  -1   5   48.61    2.14
   0  -1   5   47.58    1.67
   0  -1   5   47.25    1.26
   0  -1   5   44.24    1.66
   0  -1   5   47.63    1.30
   0  -1   5   45.06    1.44
  -1   1  -5   12.81    0.56
  -1   1  -5   13.27    0.55
  -1   1  -5   13.44    0.43
  -1   1  -5   13.10    0.78
   1  -1   5   14.21    0.81
   1  -1   5   12.89    0.56
   1  -1   5   13.90    0.57
   1  -1   5   14.09    0.46
  -2   1  -5   31.83    0.93
  -2   1  -5   30.65    1.15
  -2   1  -5   33.00    1.57
  -2   1  -5   33.01    1.13
   2  -1   5   34.01    0.92
   2  -1   5   31.96    1.17
   2  -1   5   33.01    0.82
   3  -1   5   16.46    0.58
   3  -1   5   15.96    0.51
   4  -1   5    2.60    0.39
   4  -1   5    2.59    0.29
   5  -1   5    4.17    0.61
   5  -1   5    4.34    0.43
  -6   1  -5    0.51    0.70
  -6   1  -5    0.30    0.62
   6  -1   5    0.54    0.60
   6  -1   5    0.31    0.37
  -7   1  -5    1.98    0.85
  -7   1  -5    1.33    0.90
  -7   1  -5    2.45    0.86
   7  -1   5    1.11    0.47
   7  -1   5    1.09    0.73
   7   0  -5    0.05    0.49
   7   0  -5    0.32    0.90
   7   0  -5    0.26    0.42
  -7   0   5    0.17    0.73
  -7   0   5    0.27    0.75
   6   0  -5   -0.30    0.84
   6   0  -5    0.11    0.40
  -6   0   5    0.64    0.43
  -6   0   5    0.10    0.61
  -6   0   5    0.28    0.65
   5   0  -5    0.64    0.32
   5   0  -5   -0.58    0.70
  -5   0   5   -0.12    0.38
  -5   0   5    0.09    0.46
  -5   0   5    0.76    0.49
   4   0  -5    1.05    0.40
   4   0  -5    1.54    0.27
   4   0  -5    0.89    0.57
  -4   0   5    0.66    0.35
  -4   0   5    0.82    0.44
  -4   0   5    1.67    0.46
  -4   0   5    0.86    0.38
   3   0  -5   32.71    0.90
   3   0  -5   34.05    1.31
   3   0  -5   31.32    1.36
  -3   0   5   32.12    1.12
  -3   0   5   32.10    1.33
  -3   0   5   30.86    1.05
  -3   0   5   31.38    1.17
   2   0  -5   43.59    1.52
   2   0  -5   43.05    1.31
   2   0  -5   43.29    1.58
   2   0  -5   40.55    1.59
  -2   0   5   40.03    1.90
  -2   0   5   39.36    1.54
  -2   0   5   40.66    1.58
  -2   0   5   40.24    1.34
  -2   0   5   40.95    1.31
  -2   0   5   41.75    1.56
   1   0  -5    3.06    0.26
   1   0  -5    3.22    0.28
   1   0  -5    2.77    0.33
   1   0  -5    3.20    0.48
   1   0  -5    2.61    0.35
   1   0  -5    3.01    0.32
  -1   0   5    3.21    0.41
  -1   0   5    2.82    0.36
  -1   0   5    3.34    0.31
  -1   0   5    2.62    0.31
  -1   0   5    3.22    0.32
  -1   0   5    2.93    0.34
   0   0  -5  102.57    3.54
   0   0  -5   98.63    4.39
   0   0  -5  104.48    3.00
   0   0  -5   97.75    3.78
   0   0  -5  104.14    2.98
   0   0  -5  103.07    3.53
   0   0   5  102.86    3.53
   0   0   5  103.95    4.39
   0   0   5  105.47    3.01
   0   0   5  102.25    3.53
   0   0   5  103.96    2.62
  -1   0  -5   44.28    2.01
  -1   0  -5   43.71    1.16
  -1   0  -5   44.88    1.60
  -1   0  -5   42.64    1.82
  -1   0  -5   44.38    1.59
   1   0   5   46.08    1.61
   1   0   5   43.37    1.60
   1   0   5   45.25    1.22
   1   0   5   48.99    2.04
  -2   0  -5    0.81    0.15
  -2   0  -5    0.30    0.13
  -2   0  -5    0.45    0.17
  -2   0  -5    0.23    0.31
   2   0   5    0.47    0.21
   2   0   5    0.47    0.19
  -3   0  -5   10.31    0.76
  -3   0  -5    9.19    0.86
   3   0   5    9.55    0.46
   3   0   5    9.98    0.39
  -4   0  -5    2.38    0.60
   4   0   5    3.05    0.46
   4   0   5    2.93    0.33
  -5   0  -5    0.02    0.59
   5   0   5    0.12    0.44
   5   0   5   -0.11    0.28
  -6   0  -5    1.12    0.76
  -6   0  -5    1.46    0.78
   6   0   5    1.32    0.64
   6   0   5    0.67    0.35
  -7   0  -5   -0.06    0.77
   7   0   5    0.04    0.75
   7  -1  -5    1.78    0.90
   7  -1  -5    0.93    0.49
  -7   1   5    0.75    0.87
  -7   1   5    0.84    0.51
   6  -1  -5    2.09    0.47
   6  -1  -5    1.82    0.84
  -6   1   5    2.41    0.71
  -6   1   5    1.90    0.62
  -6   1   5    1.59    0.50
   5  -1  -5    3.22    0.43
   5  -1  -5    3.54    0.82
  -5   1   5    3.18    0.49
  -5   1   5    2.80    0.54
  -5   1   5    3.76    0.57
  -5   1   5    3.51    0.67
   4  -1  -5   20.75    1.20
   4  -1  -5   21.07    1.05
  -4   1   5   22.16    1.07
  -4   1   5   21.23    1.03
  -4   1   5   21.25    0.92
  -4   1   5   22.45    0.92
   3  -1  -5    5.15    0.56
   3  -1  -5    4.68    0.67
  -3   1   5    5.89    0.39
  -3   1   5    6.02    0.61
  -3   1   5    6.47    0.49
  -3   1   5    5.31    0.55
   2  -1  -5  211.29    6.12
   2  -1  -5  208.80    7.17
   2  -1  -5  217.76    5.97
   2  -1  -5  212.16    7.14
   2  -1  -5  212.93    7.57
  -2   1   5  211.64    7.14
  -2   1   5  201.40    7.46
  -2   1   5  207.76    6.11
  -2   1   5  204.43    5.96
   1  -1  -5   22.61    0.93
   1  -1  -5   23.85    1.16
   1  -1  -5   24.14    0.78
   1  -1  -5   23.30    0.82
   1  -1  -5   22.92    0.96
   1  -1  -5   22.93    0.98
  -1   1   5   21.19    0.94
  -1   1   5   22.48    0.83
  -1   1   5   21.55    1.12
  -1   1   5   22.67    0.93
  -1   1   5   23.04    0.80
  -1   1   5   22.59    0.96
   0  -1  -5    0.11    0.21
   0  -1  -5    0.17    0.19
   0  -1  -5    0.11    0.15
   0  -1  -5    0.08    0.12
   0  -1  -5    0.07    0.24
   0   1   5    0.07    0.11
   0   1   5    0.10    0.18
   0   1   5   -0.13    0.23
   0   1   5    0.15    0.20
   0   1   5    0.03    0.20
  -1  -1  -5   28.42    1.07
  -1  -1  -5   31.28    0.96
  -1  -1  -5   29.99    0.76
  -1  -1  -5   27.49    1.39
  -1  -1  -5   28.21    1.32
  -1  -1  -5   30.24    1.09
   1   1   5   29.66    1.10
   1   1   5   27.39    1.26
   1   1   5   28.46    1.09
   1   1   5   30.68    1.41
  -2  -1  -5   57.09    2.00
  -2  -1  -5   58.24    2.53
  -2  -1  -5   55.66    2.38
  -2  -1  -5   59.45    2.01
   2   1   5   59.05    2.01
   2   1   5   57.33    2.01
  -3  -1  -5    0.19    0.14
  -3  -1  -5    0.09    0.17
  -3  -1  -5    0.24    0.15
  -3  -1  -5   -0.43    0.42
   3   1   5    0.01    0.26
   3   1   5    0.34    0.25
  -4  -1  -5    8.86    0.81
  -4  -1  -5    7.77    1.07
   4   1   5    8.57    0.45
   4   1   5    8.84    0.50
   4   1   5    7.98    0.58
  -5  -1  -5    0.31    0.63
  -5  -1  -5    0.19    0.25
   5   1   5    0.41    0.52
  -6  -1  -5    0.98    0.76
  -6  -1  -5    0.27    0.78
   6   1   5    1.24    0.63
  -7  -1  -5    0.26    0.89
   7   1   5    0.39    0.75
   7  -2  -5    0.44    0.55
  -7   2   5    0.35    0.54
  -7   2   5    0.88    0.79
   6  -2  -5    3.50    0.53
   6  -2  -5    3.71    0.86
  -6   2   5    2.15    0.73
  -6   2   5    2.61    0.63
   5  -2  -5    2.01    0.73
  -5   2   5    0.99    0.51
  -5   2   5    2.01    0.51
  -5   2   5    1.01    0.55
   4  -2  -5    5.65    0.69
   4  -2  -5    4.93    0.81
  -4   2   5    5.59    0.77
  -4   2   5    6.79    0.60
  -4   2   5    5.55    0.50
  -4   2   5    5.64    0.61
   3  -2  -5   14.21    0.61
   3  -2  -5   14.12    0.88
   3  -2  -5   15.53    0.84
  -3   2   5   14.26    0.84
  -3   2   5   14.66    0.66
  -3   2   5   14.97    0.79
  -3   2   5   14.51    0.74
   2  -2  -5    3.79    0.32
   2  -2  -5    4.67    0.42
   2  -2  -5    3.54    0.47
   2  -2  -5    2.65    0.53
  -2   2   5    3.76    0.41
  -2   2   5    3.75    0.53
  -2   2   5    3.77    0.39
  -2   2   5    3.75    0.47
   1  -2  -5   63.54    2.23
   1  -2  -5   60.58    1.94
   1  -2  -5   61.27    2.34
   1  -2  -5   60.54    2.19
   1  -2  -5   63.17    1.85
  -1   2   5   58.83    2.31
  -1   2   5   61.84    1.96
  -1   2   5   59.78    2.20
  -1   2   5   62.72    2.21
  -1   2   5   61.13    2.69
   0  -2  -5   85.28    3.44
   0  -2  -5   81.43    2.44
   0  -2  -5   83.51    2.82
   0  -2  -5   80.11    3.02
   0  -2  -5   78.76    2.77
   0   2   5   74.20    2.98
   0   2   5   79.37    2.46
   0   2   5   77.77    2.08
   0   2   5   77.42    3.41
   0   2   5   78.17    2.78
   0   2   5   82.71    2.80
  -1  -2  -5   35.22    1.32
  -1  -2  -5   37.37    0.97
  -1  -2  -5   37.20    1.19
  -1  -2  -5   36.84    1.36
  -1  -2  -5   38.03    1.66
  -1  -2  -5   36.54    1.58
   1   2   5   32.65    1.50
   1   2   5   35.79    1.34
   1   2   5   36.61    1.35
   1   2   5   36.17    1.68
  -2  -2  -5   39.17    0.89
  -2  -2  -5   36.34    1.74
  -2  -2  -5   38.88    1.42
  -2  -2  -5   38.66    1.75
  -2  -2  -5   40.31    1.07
   2   2   5   38.17    1.42
   2   2   5   38.03    1.42
  -3  -2  -5    3.84    0.36
  -3  -2  -5    3.91    0.49
  -3  -2  -5    4.28    0.38
  -3  -2  -5    4.18    0.81
   3   2   5    4.32    0.45
   3   2   5    4.36    0.43
  -4  -2  -5    0.13    0.16
  -4  -2  -5   -0.03    0.54
  -4  -2  -5    0.12    0.26
   4   2   5    0.05    0.40
   4   2   5    0.69    0.34
   4   2   5    0.21    0.39
  -5  -2  -5    0.03    0.20
  -5  -2  -5   -0.16    0.62
   5   2   5    0.28    0.55
  -6  -2  -5    0.16    0.72
   6   2   5    0.47    0.64
   7   2   5   -0.63    0.79
   7  -3  -5    0.65    0.62
  -7   3   5    0.35    0.82
   6  -3  -5   -0.19    0.55
  -6   3   5    0.14    0.70
  -6   3   5    0.31    0.58
   5  -3  -5    9.45    1.06
  -5   3   5    8.13    1.16
   4  -3  -5    1.34    0.67
   4  -3  -5    1.81    0.54
  -4   3   5    0.64    0.58
  -4   3   5    1.36    0.45
  -4   3   5    1.78    0.42
   3  -3  -5   32.58    1.36
   3  -3  -5   31.79    1.42
   3  -3  -5   29.62    1.04
  -3   3   5   31.90    1.32
  -3   3   5   30.91    1.30
  -3   3   5   31.94    1.09
   2  -3  -5   24.89    1.06
   2  -3  -5   25.16    1.12
   2  -3  -5   23.56    1.11
   2  -3  -5   24.03    0.82
  -2   3   5   23.98    0.91
  -2   3   5   23.07    1.03
  -2   3   5   24.73    1.07
   1  -3  -5    4.37    0.36
   1  -3  -5    4.87    0.54
   1  -3  -5    5.21    0.54
   1  -3  -5    5.09    0.43
  -1   3   5    4.01    0.59
  -1   3   5    4.78    0.50
  -1   3   5    4.39    0.56
  -1   3   5    5.09    0.42
   0  -3  -5   13.16    0.72
   0  -3  -5   12.62    0.45
   0  -3  -5   13.76    0.80
   0   3   5   12.10    0.53
   0   3   5   13.17    0.68
   0   3   5   12.85    0.64
   0   3   5   11.81    0.75
   0   3   5   13.28    0.77
  -1  -3  -5   30.53    1.20
  -1  -3  -5   29.22    1.37
  -1  -3  -5   30.34    0.84
   1   3   5   29.01    0.87
   1   3   5   29.25    1.18
   1   3   5   28.95    1.15
   1   3   5   27.53    1.38
  -2  -3  -5    0.77    0.33
  -2  -3  -5    0.80    0.16
  -2  -3  -5    0.62    0.42
   2   3   5    0.81    0.36
   2   3   5    1.27    0.33
  -3  -3  -5   16.13    0.79
  -3  -3  -5   15.19    0.79
  -3  -3  -5   16.95    1.20
   3   3   5   16.55    0.81
   3   3   5   15.72    0.84
  -4  -3  -5    5.76    0.57
  -4  -3  -5    6.95    1.10
  -4  -3  -5    6.21    0.54
   4   3   5    6.66    0.58
   4   3   5    3.96    0.61
   4   3   5    6.94    0.69
  -5  -3  -5    0.92    0.68
  -5  -3  -5   -0.16    0.85
   5   3   5    1.52    0.61
   5   3   5    0.55    0.52
  -6  -3  -5   -0.56    1.03
  -6  -3  -5    0.65    0.80
   6   3   5    0.21    0.66
  -7  -3  -5    0.56    1.28
   7   3   5   -0.15    0.82
  -7   4   5    0.99    1.08
  -7   4   5    1.92    0.92
   6  -4  -5   -0.35    0.59
  -6   4   5    0.69    0.89
   5  -4  -5    4.69    0.97
  -5   4   5    3.89    0.58
  -5   4   5    3.08    0.81
   4  -4  -5    6.12    0.98
  -4   4   5    6.66    0.62
  -4   4   5    6.37    0.70
  -4   4   5    6.99    1.01
  -4   4   5    5.69    0.95
   3  -4  -5    0.18    0.58
   3  -4  -5   -0.06    0.22
  -3   4   5   -0.06    0.42
  -3   4   5   -0.26    0.41
  -3   4   5   -0.87    0.49
   2  -4  -5    7.05    0.74
   2  -4  -5    8.98    0.75
   2  -4  -5    6.71    0.40
  -2   4   5    7.14    0.65
  -2   4   5    7.29    0.65
  -2   4   5    5.68    0.77
   1  -4  -5   11.04    0.54
   1  -4  -5   13.63    0.85
   1  -4  -5   12.17    0.80
  -1   4   5   10.62    0.87
  -1   4   5   12.52    0.64
  -1   4   5   12.52    0.74
   0  -4  -5    2.91    0.30
   0  -4  -5    2.85    0.57
   0  -4  -5    3.82    0.65
   0   4   5    2.49    0.50
   0   4   5    2.59    0.33
   0   4   5    2.55    0.53
   0   4   5    3.24    0.52
  -1  -4  -5    9.85    0.85
  -1  -4  -5    9.23    0.43
  -1  -4  -5    9.21    0.71
   1   4   5    8.98    0.67
   1   4   5    9.11    0.53
   1   4   5    9.66    0.65
  -2  -4  -5    1.16    0.48
  -2  -4  -5    0.89    0.44
  -2  -4  -5    0.77    0.20
   2   4   5    0.81    0.45
   2   4   5    0.86    0.36
  -3  -4  -5    5.05    0.99
  -3  -4  -5    3.51    0.60
   3   4   5    5.29    0.73
   3   4   5    4.90    0.56
  -4  -4  -5    2.77    0.73
  -4  -4  -5    3.59    0.58
   4   4   5    4.20    0.70
  -5  -4  -5    1.77    0.77
   5   4   5    2.64    0.79
   5   4   5    0.62    0.57
  -6  -4  -5    0.67    1.19
   6   4   5    0.26    0.75
   7   4   5    0.32    0.80
   7  -5  -5    0.51    0.82
   6  -5  -5    2.00    0.65
  -6   5   5    1.33    1.08
  -6   5   5    1.67    0.93
   5  -5  -5   -0.04    0.59
  -5   5   5    1.08    0.79
  -5   5   5    0.59    0.92
   4  -5  -5    1.13    0.90
  -4   5   5    1.90    0.72
  -4   5   5    1.02    0.67
  -4   5   5    1.94    0.61
   3  -5  -5    7.21    1.06
  -3   5   5    7.09    1.02
  -3   5   5    8.25    0.95
  -3   5   5    7.52    0.80
   2  -5  -5    0.39    0.22
   2  -5  -5   -0.16    0.63
  -2   5   5    0.46    0.46
  -2   5   5    0.23    0.54
  -2   5   5    0.55    0.52
   1  -5  -5    8.76    0.50
   1  -5  -5   11.04    0.90
   1  -5  -5    9.27    0.86
  -1   5   5    7.66    0.95
  -1   5   5    9.41    0.71
  -1   5   5    9.85    0.77
   0  -5  -5   17.86    1.12
   0  -5  -5   17.54    1.02
   0   5   5   17.93    0.84
   0   5   5   16.62    0.96
   0   5   5   16.90    1.04
   0   5   5   15.60    1.07
  -1  -5  -5    0.65    0.48
  -1  -5  -5    0.26    0.53
   1   5   5    0.59    0.52
   1   5   5    0.69    0.36
   1   5   5    0.38    0.16
  -2  -5  -5   15.32    1.21
  -2  -5  -5   14.54    0.99
   2   5   5   14.96    1.00
  -3  -5  -5    3.54    0.67
  -3  -5  -5    2.21    0.66
   3   5   5    4.07    0.79
  -4  -5  -5    0.93    0.73
  -5  -5  -5    3.32    1.25
  -5  -5  -5    2.63    0.90
   5   5   5    1.20    0.66
   6   5   5    0.63    0.79
   6  -6  -5    0.32    0.80
  -6   6   5    1.36    1.21
  -6   6   5    2.49    1.02
   5  -6  -5    3.12    0.64
  -5   6   5    2.98    1.08
  -5   6   5    3.77    1.06
  -4   6   5    0.32    0.80
  -4   6   5    0.55    0.83
   3  -6  -5    1.45    0.96
  -3   6   5    1.31    0.66
  -3   6   5    1.16    0.72
  -3   6   5    0.47    0.67
   2  -6  -5    5.96    1.09
  -2   6   5    6.89    0.91
  -2   6   5    5.99    0.84
  -2   6   5    5.60    0.79
   1  -6  -5    1.37    0.59
   1  -6  -5    0.16    0.29
   1  -6  -5    0.83    0.77
  -1   6   5    0.85    0.65
  -1   6   5    0.01    0.69
  -1   6   5    0.29    0.52
   0  -6  -5    3.25    0.67
   0  -6  -5    4.58    0.85
   0   6   5    3.44    0.53
   0   6   5    4.43    0.76
  -1  -6  -5    7.12    0.97
  -1  -6  -5    7.76    1.08
   1   6   5    6.22    0.93
   1   6   5    6.20    0.73
   1   6   5    6.08    0.67
  -2  -6  -5    5.48    1.19
  -2  -6  -5    5.12    0.86
   2   6   5    5.28    0.88
   2   6   5    3.86    0.54
  -3  -6  -5    1.37    0.76
  -3  -6  -5    1.96    0.80
   3   6   5    2.02    0.90
  -4  -6  -5    1.36    0.91
   5   6   5    0.85    1.08
   5   6   5   -0.69    0.67
   6   6   5    0.76    0.83
   6  -7  -5    0.44    0.85
   5  -7  -5    0.81    0.77
  -5   7   5    0.10    1.04
  -5   7   5    1.10    0.98
   4  -7  -5    2.37    0.68
  -4   7   5    2.15    0.95
  -4   7   5    1.33    0.93
   3  -7  -5    3.22    0.59
  -3   7   5    2.71    0.89
  -3   7   5    3.64    0.87
  -2   7   5    1.19    0.81
  -2   7   5    0.24    0.71
  -2   7   5    0.33    0.78
   1  -7  -5    8.00    1.35
  -1   7   5    7.98    1.12
  -1   7   5    7.34    0.99
  -1   7   5    4.74    0.85
   0  -7  -5    0.08    0.93
   0  -7  -5    0.17    0.70
   0   7   5   -0.21    0.59
  -1  -7  -5    3.49    0.86
  -1  -7  -5    3.60    1.00
   1   7   5    3.11    0.64
   1   7   5    4.13    1.00
  -2  -7  -5    1.62    0.83
  -2  -7  -5    0.04    0.84
   2   7   5    0.26    0.58
   2   7   5    1.03    1.01
  -3  -7  -5   -0.11    0.94
  -3  -7  -5    0.26    0.89
  -3  -7  -5   -0.38    0.87
  -4  -7  -5    0.17    0.98
   5   7   5   -1.28    0.74
   5  -8  -5   -0.25    0.84
  -5   8   5    0.71    1.20
  -5   8   5    1.36    1.12
   4  -8  -5    1.34    0.73
  -4   8   5    0.55    1.06
  -4   8   5    2.29    1.11
   3  -8  -5    0.60    0.63
  -3   8   5    0.13    0.99
  -3   8   5    0.75    0.91
   2  -8  -5    0.86    0.57
  -2   8   5    0.89    0.81
  -2   8   5   -0.69    0.89
   1  -8  -5    0.64    0.48
  -1   8   5    0.42    0.77
  -1   8   5   -1.20    0.88
   0   8   5    0.64    0.73
   1   8   5   -1.08    0.69
  -2  -8  -5   -0.66    1.11
   2   8   5    0.24    0.72
  -3  -8  -5    0.71    1.00
  -4  -8  -5    0.19    1.18
  -4   9   5    2.08    1.23
  -4   9   5    0.22    1.20
   3  -9  -5    2.66    0.75
  -3   9   5    1.98    1.06
  -3   9   5    0.68    1.12
   2  -9  -5    0.64    0.58
  -2   9   5    0.31    0.94
  -2   9   5   -1.40    0.98
   1  -9  -5   -0.37    0.55
  -1   9   5   -0.38    0.86
   0   9   5   -0.04    0.84
   1   9   5   -0.26    0.83
   2   9   5   -1.13    0.82
   2 -10  -5   -0.21    0.66
  -2  10   5   -1.04    1.05
  -1  10   5   -0.16    0.96
   0  10   5   -1.05    0.95
   1  10   5   -0.89    0.92
   2  10  -6   -2.09    1.14
   1  10  -6   -0.49    1.05
   0  10  -6   -0.72    1.03
  -1  10  -6   -0.69    0.98
  -2  10  -6   -0.09    1.03
   3 -10   6    0.15    0.83
   2   9  -6   -0.81    0.98
   1   9  -6   -0.24    0.92
   0   9  -6   -0.24    0.87
  -1   9  -6   -0.66    0.82
  -1   9  -6   -0.46    0.59
  -2   9  -6    0.68    0.59
  -2   9  -6    1.20    0.92
   2  -9   6    0.97    0.63
  -3   9  -6    0.85    0.97
   3  -9   6    0.94    0.72
  -4   9  -6    0.34    0.60
  -4   9  -6   -0.13    1.03
   2   8  -6    0.52    0.85
   1   8  -6   -0.25    0.69
   1   8  -6    0.40    0.45
   0   8  -6    6.80    1.07
  -1   8  -6    0.58    0.72
   1  -8   6    0.19    0.43
  -2   8  -6   -0.03    0.48
  -2   8  -6    0.51    0.78
   2  -8   6    0.43    0.52
  -3   8  -6    3.72    0.60
  -3   8  -6    3.40    0.82
   3  -8   6    3.62    0.67
  -4   8  -6    0.46    0.98
  -5   8  -6    1.25    1.09
   5  -8   6   -0.05    0.77
   5   7  -6    0.05    1.11
   2   7  -6    0.02    0.42
   2   7  -6   -0.23    0.66
   1   7  -6    0.61    0.41
   1   7  -6    0.74    0.64
  -1  -7   6    0.94    0.61
   0   7  -6    1.18    0.56
   0   7  -6    0.56    0.42
   0   7  -6    1.50    0.65
   0  -7   6    0.92    0.55
  -1   7  -6    1.78    0.54
  -1   7  -6    1.35    0.49
   1  -7   6    2.52    0.43
  -2   7  -6    2.01    0.66
  -2   7  -6    1.05    0.51
   2  -7   6    2.03    0.47
  -3   7  -6    0.83    0.44
  -3   7  -6    1.49    0.73
   3  -7   6    0.85    0.52
  -4   7  -6    1.74    0.77
   4  -7   6    2.90    0.66
  -5   7  -6    1.68    0.88
   5  -7   6    1.34    0.74
  -6   7  -6   -0.08    1.04
   6   6  -6    0.44    1.10
   5   6  -6    0.49    0.95
   4   6  -6    0.90    0.86
  -3  -6   6    1.39    0.84
   2   6  -6   -0.21    0.37
   2   6  -6   -0.08    0.60
  -2  -6   6    0.44    0.70
  -2  -6   6   -0.08    0.59
   1   6  -6    2.78    0.63
   1   6  -6    0.94    0.37
   1   6  -6    1.28    0.52
  -1  -6   6    1.55    0.53
  -1  -6   6    2.36    0.72
   0   6  -6    2.49    0.49
   0   6  -6    3.91    0.65
   0  -6   6    3.07    0.69
   0  -6   6    3.17    0.52
   0  -6   6    2.79    0.48
  -1   6  -6    2.94    0.54
  -1   6  -6    2.58    0.42
   1  -6   6    2.28    0.37
   1  -6   6    3.31    0.44
  -2   6  -6    0.65    0.53
  -2   6  -6    1.43    0.28
  -2   6  -6    1.09    0.42
   2  -6   6    1.65    0.50
   2  -6   6    1.64    0.67
   2  -6   6    1.31    0.38
  -3   6  -6    0.37    0.43
  -3   6  -6    0.24    0.39
  -3   6  -6    0.47    0.54
  -3   6  -6    0.05    0.36
   3  -6   6    0.33    0.46
  -4   6  -6    1.66    0.66
  -4   6  -6    1.64    0.58
   4  -6   6    1.22    0.49
  -5   6  -6   -0.19    0.73
   5  -6   6    0.08    0.61
  -6   6  -6    0.60    0.86
   6   5  -6    0.95    0.97
   5   5  -6    2.01    0.90
  -5  -5   6    1.57    1.01
  -4  -5   6    0.65    0.69
   3   5  -6    1.70    0.24
   3   5  -6    1.10    0.34
   3   5  -6    0.93    0.36
   3   5  -6    2.07    0.63
  -3  -5   6    2.20    0.67
  -3  -5   6    2.29    0.68
   2   5  -6    3.65    0.58
  -2  -5   6    5.36    0.74
  -2  -5   6    4.90    0.80
   1   5  -6    0.79    0.37
   1   5  -6    0.13    0.29
  -1  -5   6    0.75    0.43
  -1  -5   6    1.22    0.53
   0   5  -6    3.81    0.56
   0   5  -6    2.97    0.42
   0   5  -6    4.20    0.93
   0   5  -6    3.48    0.50
   0  -5   6    3.25    0.40
   0  -5   6    3.66    0.67
   0  -5   6    3.57    0.55
  -1   5  -6   11.28    0.57
  -1   5  -6   12.84    1.18
  -1   5  -6   11.96    0.69
  -1   5  -6   11.37    0.71
   1  -5   6   12.32    0.71
   1  -5   6   13.05    0.51
   1  -5   6   12.32    0.79
   1  -5   6   10.25    0.46
  -2   5  -6    1.09    0.40
  -2   5  -6   -0.03    0.30
   2  -5   6    0.36    0.29
   2  -5   6    0.28    0.37
   2  -5   6    0.82    0.49
  -3   5  -6    3.90    0.54
  -3   5  -6    4.63    0.64
  -3   5  -6    3.35    0.49
   3  -5   6    3.92    0.53
   3  -5   6    4.23    0.52
  -4   5  -6    6.15    0.84
  -4   5  -6    7.20    0.90
   4  -5   6    5.91    0.55
  -5   5  -6    1.81    0.71
  -5   5  -6    1.21    0.67
   5  -5   6    1.93    0.56
   5  -5   6    1.88    0.62
  -6   5  -6    0.09    0.87
   6  -5   6    0.71    0.70
  -7   5  -6    0.25    0.99
   7   4  -6    1.74    1.04
  -7  -4   6   -0.57    0.90
   6   4  -6    2.32    0.42
   6   4  -6    3.30    0.97
  -6  -4   6    3.14    1.08
   5   4  -6    1.30    0.32
   5   4  -6    2.22    0.78
  -5  -4   6    1.33    0.68
   4   4  -6   10.12    0.91
   4   4  -6    8.00    0.41
  -4  -4   6    8.75    0.90
  -4  -4   6    8.55    0.99
   3   4  -6    0.97    0.19
   3   4  -6    0.39    0.24
   3   4  -6    1.33    0.51
  -3  -4   6    1.15    0.56
  -3  -4   6    1.26    0.56
   2   4  -6    2.00    0.46
   2   4  -6    1.08    0.25
   2   4  -6    0.31    0.32
  -2  -4   6    1.62    0.47
  -2  -4   6    1.64    0.51
   1   4  -6   18.72    1.32
   1   4  -6   19.71    0.80
  -1  -4   6   20.03    0.82
  -1  -4   6   20.14    0.99
   0   4  -6   16.54    1.15
   0   4  -6   15.53    0.67
   0   4  -6   17.62    0.69
   0  -4   6   16.88    0.86
   0  -4   6   18.17    0.83
   0  -4   6   16.18    0.60
   0  -4   6   16.47    0.74
  -1   4  -6   13.84    1.03
  -1   4  -6   13.45    0.64
  -1   4  -6   14.04    0.61
   1  -4   6   13.00    0.47
   1  -4   6   13.55    0.74
   1  -4   6   13.80    0.71
  -2   4  -6    8.09    0.54
  -2   4  -6    8.93    0.95
  -2   4  -6    8.70    0.57
  -2   4  -6    8.16    0.47
   2  -4   6    9.41    0.63
   2  -4   6    8.97    0.56
   2  -4   6    8.31    0.45
  -3   4  -6    0.27    0.33
  -3   4  -6   -0.08    0.35
   3  -4   6   -0.21    0.31
   3  -4   6    0.45    0.33
   3  -4   6   -0.11    0.29
   3  -4   6    0.33    0.41
  -4   4  -6    0.69    0.26
  -4   4  -6    0.31    0.40
  -4   4  -6    0.44    0.48
   4  -4   6    0.19    0.40
   4  -4   6    0.56    0.41
   4  -4   6    0.64    0.42
   4  -4   6    1.04    0.36
  -5   4  -6    1.03    0.54
  -5   4  -6    1.58    0.69
   5  -4   6    1.01    0.49
   5  -4   6    1.45    0.59
  -6   4  -6   -0.04    0.82
  -6   4  -6    0.54    0.69
   6  -4   6    0.10    0.71
   6  -4   6    0.41    0.56
  -7   4  -6    0.48    0.83
  -7   4  -6    0.38    0.97
   7  -4   6    1.45    0.68
   7  -4   6    0.88    0.83
   7   3  -6    1.23    1.00
   7   3  -6    0.01    0.45
  -7  -3   6   -0.03    0.93
   6   3  -6    0.67    0.37
   6   3  -6    0.35    0.83
  -6  -3   6    0.10    0.75
  -6  -3   6    0.42    0.92
   5   3  -6    3.05    0.76
   5   3  -6    1.54    0.32
  -5  -3   6    1.89    0.79
  -5  -3   6    1.96    0.64
   4   3  -6    0.51    0.53
   4   3  -6    0.13    0.22
  -4  -3   6    1.22    0.62
  -4  -3   6    0.45    0.50
   3   3  -6   14.58    0.49
   3   3  -6   15.02    0.87
   3   3  -6   18.28    1.20
  -3  -3   6   15.76    0.91
  -3  -3   6   16.37    0.87
   2   3  -6    3.07    0.30
   2   3  -6    3.39    0.50
  -2  -3   6    2.66    0.66
  -2  -3   6    2.88    0.54
  -2  -3   6    3.42    0.53
   1   3  -6   10.99    0.61
   1   3  -6    8.76    0.95
   1   3  -6   10.92    0.56
  -1  -3   6   10.69    0.86
  -1  -3   6   10.36    0.65
  -1  -3   6   10.12    0.57
   0   3  -6   26.74    0.90
   0   3  -6   25.47    1.41
   0   3  -6   24.63    0.84
   0   3  -6   25.60    1.04
   0  -3   6   26.36    0.87
   0  -3   6   26.22    1.04
   0  -3   6   25.96    1.07
   0  -3   6   25.25    0.93
   0  -3   6   26.85    1.39
  -1   3  -6    6.01    0.41
  -1   3  -6    5.76    0.44
  -1   3  -6    6.46    0.71
  -1   3  -6    6.85    0.44
   1  -3   6    5.74    0.31
   1  -3   6    6.54    0.49
   1  -3   6    6.62    0.49
   1  -3   6    6.29    0.45
  -2   3  -6    6.66    0.43
  -2   3  -6    7.15    0.43
  -2   3  -6    7.09    0.41
  -2   3  -6    8.08    0.81
   2  -3   6    7.23    0.49
   2  -3   6    6.78    0.45
   2  -3   6    6.96    0.36
   2  -3   6    6.55    0.35
  -3   3  -6    4.97    0.34
  -3   3  -6    6.03    0.58
  -3   3  -6    5.44    0.48
   3  -3   6    5.17    0.39
   3  -3   6    5.19    0.37
   3  -3   6    5.32    0.44
  -4   3  -6    0.82    0.46
  -4   3  -6    0.13    0.34
  -4   3  -6    0.10    0.20
   4  -3   6    0.08    0.38
   4  -3   6   -0.19    0.34
  -5   3  -6    0.84    0.62
  -5   3  -6    0.50    0.45
   5  -3   6    0.36    0.41
   5  -3   6    0.75    0.55
  -6   3  -6    0.48    0.61
  -6   3  -6    1.36    0.80
  -6   3  -6    1.29    0.62
   6  -3   6    1.22    0.70
   6  -3   6    1.41    0.51
  -7   3  -6   -0.10    0.95
   7  -3   6   -0.03    0.57
   7  -3   6    0.83    0.79
   7   2  -6    0.73    0.96
   7   2  -6    0.19    0.46
  -7  -2   6   -0.17    0.93
  -7  -2   6    0.07    1.01
   6   2  -6    1.16    0.86
   6   2  -6    0.88    0.38
  -6  -2   6    0.31    0.67
   5   2  -6   25.68    1.38
   5   2  -6   23.33    0.82
  -5  -2   6   27.48    1.33
  -5  -2   6   25.37    1.28
  -5  -2   6   22.93    1.28
   4   2  -6    6.71    0.75
   4   2  -6    5.98    0.36
  -4  -2   6    7.35    0.76
  -4  -2   6    6.64    0.72
   3   2  -6    5.98    0.81
   3   2  -6    4.18    0.25
   3   2  -6    4.65    0.55
   3   2  -6    3.97    0.48
  -3  -2   6    4.32    0.56
  -3  -2   6    5.21    0.61
   2   2  -6   15.30    1.10
   2   2  -6   15.17    0.74
   2   2  -6   14.70    0.75
  -2  -2   6   15.32    0.98
  -2  -2   6   15.47    0.78
  -2  -2   6   15.53    0.71
   1   2  -6    0.02    0.23
   1   2  -6   -0.06    0.18
   1   2  -6    0.37    0.27
   1   2  -6    0.17    0.22
  -1  -2   6    0.05    0.28
  -1  -2   6    0.04    0.18
  -1  -2   6    0.16    0.16
  -1  -2   6    0.00    0.16
  -1  -2   6    0.32    0.26
   0   2  -6   24.67    0.76
   0   2  -6   23.26    1.31
   0   2  -6   24.94    0.98
   0   2  -6   24.28    0.97
   0   2  -6   26.33    0.87
   0  -2   6   24.78    0.79
   0  -2   6   23.99    0.98
   0  -2   6   24.20    0.89
   0  -2   6   25.65    1.33
  -1   2  -6   46.66    1.61
  -1   2  -6   45.60    1.42
  -1   2  -6   44.48    1.61
  -1   2  -6   44.30    1.25
  -1   2  -6   43.29    2.09
   1  -2   6   46.40    1.29
   1  -2   6   43.78    1.61
  -2   2  -6    2.79    0.30
  -2   2  -6    2.65    0.26
  -2   2  -6    2.69    0.28
  -2   2  -6    3.18    0.59
   2  -2   6    2.67    0.31
   2  -2   6    2.68    0.27
   2  -2   6    2.32    0.33
   2  -2   6    3.18    0.30
  -3   2  -6    4.46    0.43
  -3   2  -6    4.98    0.75
   3  -2   6    3.58    0.37
   3  -2   6    4.44    0.33
   3  -2   6    4.65    0.39
  -4   2  -6    2.94    0.38
   4  -2   6    3.10    0.43
   4  -2   6    2.95    0.34
  -5   2  -6    0.29    0.39
   5  -2   6    0.09    0.35
   5  -2   6    0.96    0.53
  -6   2  -6   -0.31    0.73
  -6   2  -6    0.31    0.50
  -6   2  -6   -0.36    0.59
   6  -2   6   -0.29    0.41
   6  -2   6    0.03    0.65
  -7   2  -6    0.63    0.73
  -7   2  -6   -0.52    0.90
  -7   2  -6    2.26    0.87
  -7   2  -6    0.13    0.69
   7  -2   6    0.56    0.53
   7  -2   6    0.83    0.75
   7   1  -6    1.58    1.08
   7   1  -6    1.02    0.51
  -7  -1   6    0.71    0.85
  -7  -1   6    1.10    0.89
   6   1  -6   -0.29    0.84
   6   1  -6    0.28    0.37
  -6  -1   6    0.50    0.73
  -6  -1   6    0.40    0.72
   5   1  -6   -0.26    0.68
   5   1  -6    0.18    0.29
  -5  -1   6    0.24    0.41
  -5  -1   6    0.61    0.60
  -5  -1   6    0.90    0.59
  -5  -1   6    0.28    0.52
   4   1  -6   40.83    1.65
   4   1  -6   40.78    1.16
   4   1  -6   42.58    1.76
  -4  -1   6   43.20    1.57
  -4  -1   6   42.34    1.51
  -4  -1   6   41.90    1.36
  -4  -1   6   40.51    1.70
   3   1  -6    0.96    0.38
   3   1  -6    1.33    0.42
   3   1  -6    1.05    0.18
  -3  -1   6    0.89    0.30
  -3  -1   6    1.28    0.43
  -3  -1   6    1.28    0.36
  -3  -1   6    1.56    0.41
   2   1  -6    0.62    0.31
   2   1  -6    0.18    0.28
   2   1  -6    0.34    0.19
  -2  -1   6    0.56    0.33
  -2  -1   6    0.36    0.26
  -2  -1   6    0.24    0.15
  -2  -1   6    0.63    0.30
  -2  -1   6    0.47    0.24
   1   1  -6  114.56    4.02
   1   1  -6  110.18    5.03
   1   1  -6  108.68    4.23
   1   1  -6  125.66    3.40
   1   1  -6  120.20    4.03
  -1  -1   6  119.22    3.04
  -1  -1   6  112.47    3.38
  -1  -1   6  112.46    5.00
  -1  -1   6  114.47    4.02
  -1  -1   6  122.43    3.16
  -1  -1   6  115.47    3.39
  -1  -1   6  121.47    4.03
   0   1  -6    0.12    0.11
   0   1  -6    0.22    0.21
   0   1  -6    0.18    0.21
   0   1  -6    0.05    0.15
   0   1  -6    0.07    0.20
   0   1  -6    0.27    0.12
   0  -1   6   -0.08    0.15
   0  -1   6    0.24    0.23
   0  -1   6    0.07    0.22
   0  -1   6    0.16    0.16
   0  -1   6    0.00    0.14
   0  -1   6    0.28    0.13
  -1   1  -6   31.79    1.58
  -1   1  -6   32.15    1.22
  -1   1  -6   33.78    0.99
  -1   1  -6   32.40    1.20
  -1   1  -6   32.15    0.90
   1  -1   6   31.73    1.22
   1  -1   6   32.44    0.93
   1  -1   6   34.32    1.23
   1  -1   6   34.48    1.63
  -2   1  -6   23.31    0.70
  -2   1  -6   23.30    0.85
  -2   1  -6   22.78    1.23
  -2   1  -6   21.90    0.87
   2  -1   6   23.96    0.71
   2  -1   6   22.79    0.91
  -3   1  -6    3.69    0.37
  -3   1  -6    4.41    0.70
   3  -1   6    3.80    0.37
   3  -1   6    3.78    0.32
   4  -1   6    0.70    0.39
   4  -1   6    0.47    0.28
   5  -1   6    0.99    0.53
   5  -1   6    0.62    0.34
  -6   1  -6    0.28    0.72
  -6   1  -6   -0.05    0.63
   6  -1   6    0.22    0.61
   6  -1   6   -0.13    0.39
  -7   1  -6    0.01    0.72
  -7   1  -6   -0.45    0.88
  -7   1  -6    1.76    0.87
   7  -1   6    0.52    0.48
   7  -1   6    0.32    0.81
   7   0  -6   -0.39    0.45
   7   0  -6   -0.16    0.48
   7   0  -6   -0.08    1.00
  -7   0   6   -0.08    0.75
  -7   0   6   -0.07    0.51
  -7   0   6   -0.12    0.74
   6   0  -6    0.87    0.95
   6   0  -6    1.21    0.41
  -6   0   6    1.19    0.48
  -6   0   6    1.04    0.64
   5   0  -6   -0.01    0.30
   5   0  -6   -1.13    0.75
  -5   0   6   -0.16    0.55
  -5   0   6    0.06    0.56
  -5   0   6   -0.38    0.40
  -5   0   6   -0.03    0.51
   4   0  -6    4.96    0.60
   4   0  -6    3.56    0.34
   4   0  -6    4.79    0.75
  -4   0   6    4.12    0.62
  -4   0   6    3.01    0.47
  -4   0   6    3.17    0.65
  -4   0   6    4.12    0.49
   3   0  -6   16.27    0.86
   3   0  -6   16.32    0.93
  -3   0   6   16.90    0.89
  -3   0   6   17.11    0.82
  -3   0   6   17.42    0.78
  -3   0   6   16.07    0.71
   2   0  -6    4.71    0.62
   2   0  -6    3.51    0.51
   2   0  -6    4.03    0.31
   2   0  -6    3.33    0.44
   2   0  -6    4.09    0.41
  -2   0   6    4.47    0.45
  -2   0   6    2.85    0.34
  -2   0   6    4.15    0.42
  -2   0   6    3.50    0.50
   1   0  -6    0.78    0.25
   1   0  -6    0.66    0.32
   1   0  -6    1.23    0.24
   1   0  -6    1.29    0.20
   1   0  -6    0.64    0.20
   1   0  -6    1.14    0.31
  -1   0   6    1.33    0.29
  -1   0   6    0.92    0.34
  -1   0   6    1.14    0.32
  -1   0   6    0.50    0.15
  -1   0   6    0.98    0.22
   0   0  -6   19.37    0.68
   0   0  -6   17.80    1.09
   0   0  -6   17.78    0.94
   0   0  -6   18.87    0.84
   0   0  -6   20.31    0.72
   0   0  -6   19.56    0.82
   0   0   6   19.33    0.85
   0   0   6   20.34    0.84
   0   0   6   20.06    0.72
   0   0   6   19.07    1.07
   0   0   6   19.88    0.55
  -1   0  -6    2.43    0.29
  -1   0  -6    2.46    0.13
  -1   0  -6    2.79    0.23
  -1   0  -6    2.13    0.38
  -1   0  -6    2.15    0.48
  -1   0  -6    2.19    0.32
   1   0   6    2.55    0.19
   1   0   6    2.22    0.32
   1   0   6    2.50    0.51
   1   0   6    2.54    0.35
  -2   0  -6    5.97    0.69
  -2   0  -6    6.74    0.36
  -2   0  -6    6.74    0.61
  -2   0  -6    6.24    0.37
   2   0   6    6.32    0.43
   2   0   6    6.97    0.35
   2   0   6    6.55    0.42
  -3   0  -6   25.21    1.35
  -3   0  -6   22.92    1.38
   3   0   6   27.15    0.98
   3   0   6   25.93    0.94
   3   0   6   26.96    0.85
  -4   0  -6    6.87    0.86
  -4   0  -6    4.96    1.00
   4   0   6    6.65    0.50
  -5   0  -6    1.89    0.73
  -5   0  -6    1.09    0.34
   5   0   6    2.12    0.52
  -6   0  -6   -0.37    0.68
  -6   0  -6    0.59    0.78
   6   0   6    0.56    0.61
  -7   0  -6   -0.06    0.81
  -7   0  -6    0.06    0.90
   7   0   6    0.25    0.81
   7  -1  -6    1.03    0.51
   7  -1  -6    1.46    0.97
  -7   1   6    0.50    0.54
  -7   1   6    1.21    1.00
   6  -1  -6   -0.31    0.89
  -6   1   6    0.53    0.68
  -6   1   6    0.42    0.50
   5  -1  -6    1.08    0.83
  -5   1   6    2.31    0.52
  -5   1   6    1.67    0.55
  -5   1   6    2.25    0.58
  -5   1   6    1.15    0.58
   4  -1  -6   -0.19    0.44
   4  -1  -6   -1.06    0.61
  -4   1   6    0.24    0.42
  -4   1   6    0.50    0.44
  -4   1   6   -0.11    0.46
  -4   1   6    0.09    0.21
   3  -1  -6    5.20    0.70
   3  -1  -6    3.65    0.57
  -3   1   6    4.13    0.37
  -3   1   6    4.37    0.63
  -3   1   6    4.53    0.49
  -3   1   6    3.48    0.59
   2  -1  -6   47.56    1.45
   2  -1  -6   44.85    1.80
   2  -1  -6   46.26    1.75
   2  -1  -6   47.40    1.75
  -2   1   6   45.74    1.77
  -2   1   6   45.72    1.52
  -2   1   6   44.94    1.45
  -2   1   6   42.62    1.74
   1  -1  -6   51.08    1.87
   1  -1  -6   49.83    1.90
   1  -1  -6   51.52    1.61
   1  -1  -6   54.31    2.33
   1  -1  -6   53.53    1.58
   1  -1  -6   50.47    1.96
  -1   1   6   51.25    1.62
  -1   1   6   48.09    2.27
  -1   1   6   49.82    1.58
  -1   1   6   50.86    1.89
  -1   1   6   45.69    1.93
  -1   1   6   50.03    1.87
   0  -1  -6    1.63    0.27
   0  -1  -6    1.10    0.33
   0  -1  -6    1.64    0.28
   0  -1  -6    0.46    0.17
   0  -1  -6    0.90    0.30
   0   1   6    1.08    0.33
   0   1   6    1.31    0.28
   0   1   6    0.90    0.24
   0   1   6    1.14    0.27
   0   1   6    0.59    0.15
  -1  -1  -6   68.32    3.16
  -1  -1  -6   72.56    2.17
  -1  -1  -6   79.02    2.54
  -1  -1  -6   70.66    2.50
  -1  -1  -6   69.65    2.84
   1   1   6   67.42    2.78
   1   1   6   75.39    3.18
   1   1   6   70.80    2.52
   1   1   6   73.28    2.53
  -2  -1  -6    6.80    0.81
  -2  -1  -6    8.09    0.43
  -2  -1  -6    7.64    0.63
  -2  -1  -6    7.39    0.40
   2   1   6    7.51    0.45
   2   1   6    8.28    0.48
  -3  -1  -6    9.12    0.99
  -3  -1  -6    9.68    0.28
  -3  -1  -6    9.57    0.45
  -3  -1  -6   10.11    0.75
   3   1   6    7.79    0.45
   3   1   6   10.22    0.52
   3   1   6    9.21    0.50
  -4  -1  -6   16.93    1.09
  -4  -1  -6   16.05    1.37
   4   1   6   16.94    0.72
   4   1   6   18.37    0.74
   4   1   6   15.66    0.73
  -5  -1  -6    0.39    0.26
  -5  -1  -6    0.46    0.71
   5   1   6    0.49    0.52
  -6  -1  -6   -0.82    0.87
  -6  -1  -6   -0.06    0.78
   6   1   6    0.40    0.62
  -7  -1  -6    0.24    0.94
   7   1   6    0.45    0.81
   7  -2  -6    1.33    0.91
   7  -2  -6    0.96    0.60
  -7   2   6    0.87    0.85
  -7   2   6    0.93    0.59
   6  -2  -6    4.08    0.98
  -6   2   6    2.55    0.72
  -6   2   6    4.14    0.71
   5  -2  -6   -0.48    0.75
  -5   2   6    0.06    0.48
  -5   2   6   -0.10    0.63
  -5   2   6    0.21    0.49
   4  -2  -6    6.87    0.94
   4  -2  -6    7.61    0.74
  -4   2   6    7.64    0.56
  -4   2   6    7.45    0.70
  -4   2   6    8.38    0.66
  -4   2   6    6.10    0.87
   3  -2  -6    9.67    0.71
   3  -2  -6    9.04    0.83
  -3   2   6    8.99    0.59
  -3   2   6    9.59    0.60
  -3   2   6    9.34    0.77
  -3   2   6    9.08    0.71
   2  -2  -6    8.27    0.73
   2  -2  -6   10.68    0.62
   2  -2  -6    9.60    0.49
   2  -2  -6    9.50    0.65
  -2   2   6    9.40    0.68
  -2   2   6    9.53    0.57
  -2   2   6    9.91    0.67
  -2   2   6    8.58    0.57
   1  -2  -6   84.63    3.13
   1  -2  -6   81.92    2.93
   1  -2  -6   85.75    2.98
   1  -2  -6   82.67    2.47
  -1   2   6   86.24    2.96
  -1   2   6   82.01    3.60
  -1   2   6   82.41    2.58
  -1   2   6   78.04    3.09
   0  -2  -6    0.21    0.14
   0  -2  -6    0.35    0.23
   0  -2  -6    0.25    0.29
   0  -2  -6    0.14    0.19
   0  -2  -6    0.05    0.32
   0   2   6    0.26    0.15
   0   2   6    0.06    0.32
   0   2   6    0.08    0.21
   0   2   6    0.11    0.13
   0   2   6    0.30    0.25
   0   2   6   -0.11    0.29
  -1  -2  -6    5.87    0.40
  -1  -2  -6    6.09    0.60
  -1  -2  -6    5.52    0.69
  -1  -2  -6    5.38    0.21
  -1  -2  -6    5.95    0.47
   1   2   6    5.65    0.49
   1   2   6    5.69    0.43
   1   2   6    5.42    0.60
  -2  -2  -6   28.71    0.81
  -2  -2  -6   29.34    1.13
  -2  -2  -6   27.17    1.41
  -2  -2  -6   30.79    0.73
  -2  -2  -6   28.82    1.49
   2   2   6   27.48    1.13
   2   2   6   27.70    1.11
  -3  -2  -6   -0.12    0.51
  -3  -2  -6    0.02    0.15
  -3  -2  -6    0.19    0.26
  -3  -2  -6    0.06    0.17
   3   2   6    0.36    0.30
   3   2   6    0.15    0.36
  -4  -2  -6    0.68    0.29
  -4  -2  -6    0.28    0.18
  -4  -2  -6    0.44    0.64
   4   2   6    0.87    0.42
   4   2   6    0.63    0.45
   4   2   6    1.20    0.35
  -5  -2  -6    5.46    0.80
  -5  -2  -6    4.69    0.91
   5   2   6    4.70    0.65
  -6  -2  -6   -0.57    0.97
  -6  -2  -6   -0.21    0.79
   6   2   6    0.34    0.71
  -7  -2  -6   -0.06    1.12
   7   2   6   -0.43    0.78
  -7   3   6    1.14    0.85
   6  -3  -6    5.43    1.16
  -6   3   6    2.41    0.77
   5  -3  -6    6.63    1.15
  -5   3   6    3.70    0.71
  -5   3   6    6.55    0.71
   4  -3  -6   -0.70    0.67
  -4   3   6   -0.02    0.48
  -4   3   6   -0.17    0.54
  -4   3   6    0.08    0.42
   3  -3  -6   13.30    0.61
   3  -3  -6   13.17    0.99
  -3   3   6   14.41    0.87
  -3   3   6   14.02    0.71
  -3   3   6   12.57    0.88
   2  -3  -6    7.15    0.62
   2  -3  -6    6.24    0.44
   2  -3  -6    6.43    0.68
  -2   3   6    6.29    0.70
  -2   3   6    6.63    0.59
  -2   3   6    6.29    0.63
   1  -3  -6    8.70    0.49
   1  -3  -6    8.98    0.71
   1  -3  -6    9.83    0.72
  -1   3   6    9.35    0.64
  -1   3   6    9.04    0.73
  -1   3   6    9.08    0.52
   0  -3  -6   79.56    3.04
   0  -3  -6   80.27    2.81
   0   3   6   78.49    2.08
   0   3   6   75.92    2.49
   0   3   6   75.27    3.37
   0   3   6   77.57    2.78
  -1  -3  -6    6.70    0.30
  -1  -3  -6    7.43    0.76
  -1  -3  -6    6.76    0.58
   1   3   6    6.84    0.51
   1   3   6    6.99    0.58
   1   3   6    6.90    0.63
   1   3   6    6.97    0.35
  -2  -3  -6    4.88    0.30
  -2  -3  -6    6.03    0.87
  -2  -3  -6    4.81    0.52
  -2  -3  -6    5.36    0.52
   2   3   6    4.36    0.55
   2   3   6    3.65    0.52
   2   3   6    5.33    0.49
  -3  -3  -6   46.55    2.05
  -3  -3  -6   49.51    2.24
  -3  -3  -6   45.06    1.32
  -3  -3  -6   44.95    1.74
   3   3   6   44.95    1.75
   3   3   6   45.76    1.76
  -4  -3  -6    9.34    1.24
  -4  -3  -6    9.06    0.71
  -4  -3  -6    8.40    0.63
   4   3   6    9.31    0.78
  -5  -3  -6    2.11    0.84
   5   3   6    1.69    0.65
   5   3   6    3.13    0.66
  -6  -3  -6   -0.54    1.09
  -6  -3  -6   -0.01    0.87
   6   3   6    0.32    0.77
  -7  -3  -6   -0.09    1.32
   7   3   6    0.02    0.87
   7  -4  -6   -0.24    0.76
  -7   4   6    0.70    0.90
   6  -4  -6   -0.80    0.63
  -6   4   6    0.77    0.86
   5  -4  -6    6.22    1.27
  -5   4   6    7.09    1.23
  -5   4   6    5.69    0.72
   4  -4  -6    8.92    1.15
  -4   4   6    7.73    1.06
  -4   4   6   10.50    1.10
  -4   4   6    9.95    0.71
  -4   4   6    8.61    0.80
   3  -4  -6    0.18    0.26
   3  -4  -6    0.19    0.66
  -3   4   6    0.57    0.52
  -3   4   6    0.35    0.49
  -3   4   6    0.23    0.55
   2  -4  -6   18.18    0.73
   2  -4  -6   19.90    1.10
   2  -4  -6   19.33    1.11
  -2   4   6   17.88    1.10
  -2   4   6   19.88    1.02
  -2   4   6   19.64    0.92
   1  -4  -6    7.74    0.75
   1  -4  -6    6.79    0.75
   1  -4  -6    5.91    0.45
  -1   4   6    5.88    0.78
  -1   4   6    6.14    0.66
  -1   4   6    7.22    0.59
   0  -4  -6    7.34    0.79
   0  -4  -6    6.51    0.36
   0  -4  -6    6.85    0.72
   0   4   6    6.96    0.66
   0   4   6    6.22    0.51
   0   4   6    7.16    0.65
   0   4   6    5.72    0.78
  -1  -4  -6   15.78    0.92
  -1  -4  -6   15.99    0.56
  -1  -4  -6   17.05    1.11
   1   4   6   15.86    0.90
   1   4   6   16.09    0.94
   1   4   6   16.04    0.64
  -2  -4  -6    3.84    0.58
  -2  -4  -6    3.21    0.32
  -2  -4  -6    3.04    0.61
   2   4   6    3.48    0.58
   2   4   6    3.10    0.56
  -3  -4  -6    0.51    0.45
  -3  -4  -6   -0.05    0.60
   3   4   6    0.39    0.57
   3   4   6    0.68    0.41
  -4  -4  -6    4.74    0.88
   4   4   6    5.84    0.85
  -5  -4  -6    0.28    0.83
  -5  -4  -6   -0.33    1.07
   5   4   6    0.08    0.66
   5   4   6    0.66    0.72
  -6  -4  -6    0.05    0.93
  -6  -4  -6   -0.43    1.27
   6   4   6    0.96    0.81
   7   4   6    0.33    0.94
   6  -5  -6    2.10    0.74
  -6   5   6    2.48    1.07
  -6   5   6    1.71    1.02
   5  -5  -6    0.54    1.08
  -5   5   6    0.20    0.74
  -5   5   6   -0.14    0.93
   4  -5  -6   10.27    1.32
  -4   5   6    9.36    1.26
  -4   5   6   11.68    1.18
  -4   5   6   10.83    0.96
   3  -5  -6    7.18    1.10
  -3   5   6    7.54    0.97
  -3   5   6    7.05    0.82
  -3   5   6    5.08    0.74
   2  -5  -6    3.04    0.61
   2  -5  -6    1.65    0.30
   2  -5  -6    2.44    0.75
  -2   5   6    2.39    0.52
  -2   5   6    1.72    0.69
  -2   5   6    2.71    0.64
   1  -5  -6    4.65    0.85
   1  -5  -6    3.99    0.73
   1  -5  -6    3.77    0.44
  -1   5   6    3.30    0.49
  -1   5   6    3.84    0.75
  -1   5   6    2.03    0.58
   0  -5  -6    2.89    0.66
   0  -5  -6    4.30    0.86
   0   5   6    3.10    0.62
   0   5   6    2.74    0.43
   0   5   6    2.37    0.66
  -1  -5  -6    0.58    0.53
  -1  -5  -6    0.48    0.59
   1   5   6    0.60    0.35
   1   5   6    0.52    0.18
   1   5   6    0.89    0.59
  -2  -5  -6    9.18    1.13
  -2  -5  -6    7.08    0.85
   2   5   6    6.25    0.88
  -3  -5  -6    0.89    0.68
  -3  -5  -6    0.23    0.55
   3   5   6    0.46    0.73
  -4  -5  -6    1.35    0.84
   4   5   6    1.46    0.86
  -5  -5  -6    0.12    0.89
   5   5   6    1.17    0.88
   5   5   6    0.19    0.64
  -6  -5  -6   -0.01    1.30
   6   5   6   -0.06    0.85
   6  -6  -6    0.90    0.81
  -6   6   6    2.12    1.24
  -6   6   6    2.72    1.06
   5  -6  -6    0.20    0.70
  -5   6   6    1.09    0.93
  -5   6   6    0.52    1.03
  -4   6   6   -0.26    0.80
  -4   6   6   -0.28    0.85
   3  -6  -6    5.68    1.14
  -3   6   6    5.00    0.92
  -3   6   6    5.18    0.94
  -3   6   6    4.72    0.78
   2  -6  -6    5.38    1.03
  -2   6   6    4.83    0.87
  -2   6   6    4.16    0.67
  -2   6   6    4.41    0.91
   1  -6  -6    1.42    0.64
   1  -6  -6    0.89    0.84
  -1   6   6    0.45    0.67
  -1   6   6   -0.15    0.72
  -1   6   6    0.64    0.53
   0  -6  -6    5.79    1.09
   0  -6  -6    4.80    0.90
   0   6   6    5.78    0.86
   0   6   6    4.08    0.55
  -1  -6  -6    1.67    0.78
  -1  -6  -6    2.03    0.72
   1   6   6    1.85    0.48
   1   6   6    2.58    0.78
  -2  -6  -6    0.16    0.73
  -2  -6  -6    0.36    0.74
   2   6   6   -0.07    0.80
  -3  -6  -6    1.98    0.81
  -3  -6  -6    1.99    0.85
  -4  -6  -6   -0.73    1.08
  -4  -6  -6    0.78    0.98
   4   6   6    0.10    1.01
  -5  -6  -6   -0.36    1.05
   5   6   6   -0.76    0.66
   5   6   6    0.10    1.03
   6   6   6   -1.03    0.84
   5  -7  -6    3.06    0.84
  -5   7   6    4.25    1.16
  -5   7   6    3.58    1.12
   4  -7  -6    4.02    0.74
  -4   7   6    3.77    0.99
  -4   7   6    3.99    1.08
  -3   7   6    0.57    0.91
  -3   7   6   -0.03    0.82
  -3   7   6    0.88    0.83
  -2   7   6    7.40    1.15
  -2   7   6    7.32    1.03
  -2   7   6    7.78    1.21
   1  -7  -6    2.02    1.08
   1  -7  -6    3.03    0.86
  -1   7   6    2.34    0.67
  -1   7   6    1.12    0.81
   0  -7  -6    0.11    0.98
   0  -7  -6    0.13    0.73
   0   7   6    0.02    0.59
   0   7   6    0.09    0.88
  -1  -7  -6    2.89    0.94
  -1  -7  -6    2.94    1.08
   1   7   6    2.18    0.60
  -2  -7  -6    0.75    0.92
  -2  -7  -6    1.41    0.91
  -4  -7  -6   -1.24    1.03
   5   7   6   -0.52    0.78
   5  -8  -6   -0.47    0.89
  -5   8   6   -0.83    1.19
  -5   8   6    0.75    1.25
   4  -8  -6    0.46    0.76
  -4   8   6    1.30    1.07
  -4   8   6    0.65    1.05
   3  -8  -6    2.88    0.70
  -3   8   6    1.05    1.05
  -3   8   6    2.56    0.95
   2  -8  -6   -0.33    0.53
  -2   8   6   -0.73    0.90
  -2   8   6   -1.05    0.79
  -1   8   6   -0.58    0.91
  -1   8   6    0.90    1.07
  -1   8   6    0.54    0.76
   0   8   6    1.09    0.72
  -1  -8  -6    0.25    1.00
  -1  -8  -6   -0.44    1.15
   1   8   6   -0.27    0.68
   2   8   6    0.16    0.68
   3  -9  -6    0.67    0.79
  -3   9   6    0.96    1.03
  -3   9   6    0.69    1.19
   2  -9  -6    0.82    0.62
  -2   9   6   -0.53    1.04
  -2   9   6    1.07    0.93
   1  -9  -6    1.56    0.54
  -1   9   6    1.25    0.89
   0   9   6   -1.04    0.81
   1   9   6   -1.14    0.79
  -1  10   6   -0.19    0.94
   1  10  -7   -0.54    0.94
   0  10  -7   -0.83    0.88
  -1  10  -7   -0.64    1.01
  -2  10  -7   -0.14    0.90
   2 -10   7    0.34    0.72
   2   9  -7   -1.34    0.99
   1   9  -7   -0.75    0.90
   0   9  -7   -0.51    0.81
  -1   9  -7   -0.72    0.80
  -2   9  -7   -0.11    0.87
   2  -9   7    1.14    0.61
  -3   9  -7    0.47    0.83
   3  -9   7    1.31    0.78
  -4   9  -7    0.29    1.05
   4  -9   7    0.90    0.89
   2   8  -7   -0.46    0.89
   1   8  -7    0.40    0.48
   1   8  -7    0.18    0.79
   0   8  -7    0.27    0.68
   0  -8   7    0.87    0.69
  -1   8  -7    0.46    0.74
   1  -8   7    0.19    0.45
  -2   8  -7    3.22    0.85
   2  -8   7    2.83    0.60
  -3   8  -7    0.84    0.77
   3  -8   7    0.97    0.65
  -4   8  -7    1.23    1.00
   4  -8   7    0.68    0.72
  -5   8  -7    1.44    1.07
   5  -8   7    1.01    0.80
  -4  -7   7   -1.14    0.98
   2   7  -7    2.10    0.80
   2   7  -7    1.30    0.50
  -2  -7   7    2.30    0.75
   1   7  -7    0.42    0.44
   1   7  -7    0.64    0.66
  -1  -7   7    0.21    0.63
   0   7  -7    0.02    0.51
   0  -7   7    0.68    0.61
  -1   7  -7    1.07    0.49
  -1   7  -7    1.30    0.54
   1  -7   7    1.64    0.44
   1  -7   7    1.46    0.86
  -2   7  -7    5.90    0.76
   2  -7   7    6.31    0.65
  -3   7  -7    4.16    0.79
   3  -7   7    5.22    0.72
  -4   7  -7    0.64    0.74
  -4   7  -7    0.47    0.67
   4  -7   7    0.37    0.63
  -5   7  -7    0.66    0.87
   6  -7   7    1.17    0.84
  -4  -6   7   -0.03    0.86
   3   6  -7    2.46    0.84
   3   6  -7    0.47    0.38
   2   6  -7   -0.20    0.42
   2   6  -7    0.38    0.57
  -2  -6   7    0.53    0.62
  -2  -6   7   -0.09    0.75
   1   6  -7    3.61    0.58
   1   6  -7    2.52    0.47
  -1  -6   7    4.91    0.78
  -1  -6   7    2.77    0.43
  -1  -6   7    4.59    0.95
   0   6  -7    0.57    0.45
   0   6  -7    0.12    0.36
   0  -6   7    0.38    0.27
   0  -6   7   -0.21    0.51
   0  -6   7   -0.13    0.65
  -1   6  -7   -0.10    0.34
  -1   6  -7    0.16    0.43
  -1   6  -7   -0.03    0.36
   1  -6   7    0.23    0.34
   1  -6   7    0.01    0.21
   1  -6   7   -0.13    0.64
  -2   6  -7   -0.28    0.51
  -2   6  -7    0.24    0.40
   2  -6   7   -0.30    0.40
   2  -6   7    0.19    0.71
  -3   6  -7    1.56    0.50
  -3   6  -7    2.29    0.40
  -3   6  -7    2.27    0.59
   3  -6   7    2.71    0.51
  -4   6  -7    0.28    0.65
  -4   6  -7    0.30    0.39
   4  -6   7   -0.47    0.47
  -5   6  -7    1.01    0.78
   5  -6   7    0.68    0.57
  -6   6  -7    0.32    0.84
   6  -6   7    0.97    0.75
   6   5  -7    1.02    1.02
   5   5  -7    0.91    0.93
   4   5  -7    0.36    0.72
  -4  -5   7    0.14    0.74
   3   5  -7   -0.14    0.33
   3   5  -7    0.66    0.64
  -3  -5   7    0.40    0.67
  -3  -5   7    0.37    0.67
   2   5  -7    1.95    0.51
   2   5  -7    3.27    0.63
  -2  -5   7    2.75    0.68
  -2  -5   7    2.72    0.61
   1   5  -7   -0.23    0.31
   1   5  -7   -0.32    0.39
  -1  -5   7    0.32    0.55
  -1  -5   7    0.29    0.46
   0   5  -7    7.43    0.57
   0   5  -7    7.92    1.09
   0  -5   7    7.63    0.68
   0  -5   7    6.77    0.40
   0  -5   7    7.90    0.76
  -1   5  -7    1.82    0.36
  -1   5  -7    2.82    0.45
   1  -5   7    3.14    0.57
   1  -5   7    2.63    0.48
   1  -5   7    2.31    0.35
  -2   5  -7    0.51    0.35
  -2   5  -7    0.41    0.35
  -2   5  -7    0.87    0.18
  -2   5  -7    0.62    0.42
   2  -5   7    0.84    0.37
   2  -5   7    0.73    0.42
   2  -5   7    1.51    0.57
  -3   5  -7    3.62    0.58
  -3   5  -7    2.59    0.43
   3  -5   7    3.66    0.76
   3  -5   7    3.65    0.45
  -4   5  -7    0.21    0.32
  -4   5  -7    0.40    0.49
  -4   5  -7    0.30    0.50
  -4   5  -7    0.30    0.46
   4  -5   7   -0.20    0.47
   4  -5   7    0.16    0.42
  -5   5  -7    0.95    0.67
  -5   5  -7    1.28    0.65
   5  -5   7    0.69    0.56
   5  -5   7    1.27    0.56
  -6   5  -7    0.44    0.82
   6  -5   7    0.68    0.71
   6  -5   7    0.76    0.66
  -7   5  -7   -0.07    0.95
   7  -5   7    0.40    0.84
   7  -5   7    0.29    0.80
   7   4  -7    1.79    1.10
   6   4  -7    3.23    1.01
   5   4  -7    0.66    0.78
  -5  -4   7    0.63    0.70
   4   4  -7   12.81    1.04
  -4  -4   7   12.08    1.04
  -4  -4   7   12.54    1.10
   3   4  -7    3.60    0.72
  -3  -4   7    4.20    0.70
  -3  -4   7    4.13    0.67
   2   4  -7    6.38    0.49
   2   4  -7    7.83    0.69
   2   4  -7    5.46    1.18
  -2  -4   7    7.32    0.71
  -2  -4   7    7.06    0.76
   1   4  -7    2.29    0.36
   1   4  -7    3.17    0.51
  -1  -4   7    3.32    0.55
  -1  -4   7    3.18    0.62
   0   4  -7    1.83    0.30
   0   4  -7    2.36    0.48
   0  -4   7    1.98    0.45
   0  -4   7    1.68    0.42
  -1   4  -7   11.19    0.65
  -1   4  -7   10.51    0.59
  -1   4  -7   10.72    1.03
  -1   4  -7   10.03    0.60
   1  -4   7   10.52    0.64
   1  -4   7   10.53    0.72
   1  -4   7   10.44    0.47
  -2   4  -7    4.62    0.53
  -2   4  -7    6.46    0.93
  -2   4  -7    4.90    0.52
  -2   4  -7    5.74    0.52
  -2   4  -7    5.49    0.36
   2  -4   7    5.46    0.43
   2  -4   7    5.39    0.51
   2  -4   7    6.34    0.61
   2  -4   7    5.59    0.40
  -3   4  -7   -0.07    0.32
  -3   4  -7   -0.03    0.30
  -3   4  -7   -0.12    0.33
  -3   4  -7    0.13    0.30
   3  -4   7    0.02    0.34
   3  -4   7   -0.10    0.43
   3  -4   7    0.11    0.35
   3  -4   7   -0.21    0.34
  -4   4  -7    2.50    0.46
  -4   4  -7    2.15    0.48
  -4   4  -7    3.40    0.55
   4  -4   7    3.68    0.47
   4  -4   7    3.75    0.51
   4  -4   7    3.95    0.56
  -5   4  -7    1.01    0.54
  -5   4  -7    1.18    0.68
   5  -4   7    1.35    0.50
   5  -4   7    0.81    0.56
  -6   4  -7    1.59    0.73
  -6   4  -7    1.05    0.84
   6  -4   7    1.79    0.80
   6  -4   7    1.06    0.59
   7  -4   7    0.85    0.94
   7  -4   7    0.45    0.69
   7   3  -7    2.00    1.06
   7   3  -7    0.09    0.42
  -7  -3   7   -0.32    0.86
   6   3  -7    0.04    0.34
   6   3  -7    0.91    0.92
  -6  -3   7    0.02    0.77
   5   3  -7    0.28    0.27
   5   3  -7    1.18    0.75
  -5  -3   7    0.98    0.81
  -5  -3   7   -0.03    0.62
  -5  -3   7    0.89    0.64
   4   3  -7    1.25    0.59
   4   3  -7    0.35    0.21
  -4  -3   7    0.46    0.54
  -4  -3   7    1.09    0.65
   3   3  -7   40.98    1.12
   3   3  -7   46.68    2.25
   3   3  -7   40.26    1.71
  -3  -3   7   42.34    1.74
  -3  -3   7   42.38    1.55
   2   3  -7    0.45    0.37
   2   3  -7   -0.24    0.27
  -2  -3   7    0.38    0.43
  -2  -3   7    0.31    0.37
   1   3  -7   12.94    0.63
   1   3  -7   13.07    0.70
   1   3  -7   10.79    1.06
  -1  -3   7   12.62    0.73
  -1  -3   7   12.42    0.66
   0   3  -7   24.74    0.84
   0   3  -7   25.70    1.45
   0   3  -7   25.77    0.94
   0   3  -7   25.05    1.04
   0  -3   7   26.55    1.07
   0  -3   7   25.31    1.08
   0  -3   7   25.22    0.98
  -1   3  -7    1.47    0.31
  -1   3  -7    0.81    0.23
  -1   3  -7    0.38    0.30
  -1   3  -7    0.54    0.22
   1  -3   7    1.41    0.36
   1  -3   7    0.94    0.32
  -2   3  -7   28.52    1.09
  -2   3  -7   27.29    1.57
  -2   3  -7   29.87    1.03
  -2   3  -7   26.16    0.91
  -2   3  -7   28.96    0.93
   2  -3   7   29.26    1.12
   2  -3   7   28.94    0.86
   2  -3   7   27.68    0.79
   2  -3   7   28.52    1.13
  -3   3  -7    7.41    0.55
  -3   3  -7    7.45    0.43
  -3   3  -7    8.88    0.62
  -3   3  -7    8.96    1.03
   3  -3   7    7.98    0.54
   3  -3   7    8.33    0.48
   3  -3   7    8.47    0.50
  -4   3  -7    2.37    0.51
  -4   3  -7    1.44    0.38
  -4   3  -7    1.00    0.35
   4  -3   7    1.46    0.38
   4  -3   7    2.24    0.45
  -5   3  -7    1.91    0.67
  -5   3  -7    2.00    0.48
   5  -3   7    2.69    0.59
   5  -3   7    1.75    0.45
  -6   3  -7   -0.63    0.57
  -6   3  -7    0.19    0.79
   6  -3   7    0.22    0.65
   6  -3   7   -0.01    0.52
  -7   3  -7    0.40    0.97
  -7   3  -7    0.97    0.79
   7  -3   7    0.13    0.60
   7  -3   7    1.05    0.92
   7   2  -7   -0.40    0.42
   7   2  -7    2.02    1.03
  -7  -2   7   -0.22    0.81
  -7  -2   7   -0.44    0.97
   6   2  -7    0.60    0.89
   6   2  -7    0.06    0.36
  -6  -2   7    0.01    0.84
  -6  -2   7   -0.10    0.76
   5   2  -7    0.46    0.28
   5   2  -7    0.66    0.73
  -5  -2   7    0.78    0.70
  -5  -2   7    0.38    0.58
  -5  -2   7    0.97    0.63
   4   2  -7    0.24    0.53
   4   2  -7   -0.07    0.20
  -4  -2   7    0.60    0.58
  -4  -2   7    0.45    0.53
  -4  -2   7    0.32    0.47
   3   2  -7   11.28    0.76
   3   2  -7   11.80    1.07
   3   2  -7    9.99    0.37
  -3  -2   7    9.96    0.70
  -3  -2   7   10.46    0.76
  -3  -2   7   10.57    0.76
   2   2  -7   23.14    1.41
   2   2  -7   21.88    1.00
  -2  -2   7   22.41    1.03
  -2  -2   7   22.05    0.86
  -2  -2   7   21.83    0.89
   1   2  -7    2.29    0.40
  -1  -2   7    2.11    0.32
  -1  -2   7    2.11    0.41
  -1  -2   7    2.37    0.37
  -1  -2   7    2.55    0.30
   0   2  -7   53.42    2.00
   0   2  -7   53.63    2.59
   0   2  -7   59.38    1.75
   0   2  -7   57.39    1.53
   0  -2   7   57.78    1.56
   0  -2   7   54.85    1.76
   0  -2   7   53.29    2.01
  -1   2  -7   15.22    1.00
  -1   2  -7   15.65    0.69
  -1   2  -7   15.06    0.54
  -1   2  -7   15.81    0.66
   1  -2   7   15.73    0.59
   1  -2   7   14.70    0.70
  -2   2  -7    4.75    0.37
  -2   2  -7    4.99    0.35
  -2   2  -7    5.19    0.71
  -2   2  -7    5.48    0.36
   2  -2   7    5.01    0.41
   2  -2   7    5.05    0.32
   2  -2   7    5.15    0.44
  -3   2  -7    8.03    0.47
  -3   2  -7    8.22    0.91
   3  -2   7    8.98    0.49
   3  -2   7    8.01    0.44
   3  -2   7    6.99    0.52
   3  -2   7    8.42    0.44
  -4   2  -7    1.09    0.33
  -4   2  -7    1.02    0.33
   4  -2   7    1.67    0.41
   4  -2   7    1.32    0.35
  -5   2  -7    0.03    0.36
  -5   2  -7   -0.02    0.37
   5  -2   7   -0.25    0.49
   5  -2   7    0.07    0.39
  -6   2  -7    0.69    0.78
  -6   2  -7    0.71    0.51
   6  -2   7    1.60    0.73
   6  -2   7    1.15    0.48
  -7   2  -7    2.92    0.95
  -7   2  -7    0.13    0.72
  -7   2  -7    0.53    0.66
  -7   2  -7   -1.56    0.91
   7  -2   7    0.90    0.89
   7  -2   7    0.23    0.56
   7   1  -7    2.43    1.16
   7   1  -7    0.66    0.46
  -7  -1   7    0.36    0.79
   6   1  -7    1.18    0.94
   6   1  -7    0.71    0.39
  -6  -1   7    0.62    0.67
  -6  -1   7    1.17    0.76
   5   1  -7    4.04    0.89
   5   1  -7    2.68    0.36
  -5  -1   7    3.01    0.52
  -5  -1   7    3.80    0.78
  -5  -1   7    3.57    0.69
  -5  -1   7    2.98    0.62
   4   1  -7   10.61    0.46
   4   1  -7   10.75    0.93
  -4  -1   7   10.70    0.83
  -4  -1   7   12.19    0.88
  -4  -1   7   11.87    0.84
  -4  -1   7   10.99    0.69
   3   1  -7    3.00    0.53
  -3  -1   7    2.94    0.49
  -3  -1   7    3.04    0.52
  -3  -1   7    2.20    0.39
  -3  -1   7    2.55    0.40
   2   1  -7  110.21    4.58
   2   1  -7  108.82    3.66
   2   1  -7  100.83    3.64
   2   1  -7   99.44    3.74
  -2  -1   7  102.81    3.09
  -2  -1   7  106.25    2.88
  -2  -1   7   95.44    3.05
  -2  -1   7  102.60    3.65
   1   1  -7    2.63    0.44
   1   1  -7    3.36    0.43
   1   1  -7    3.06    0.73
   1   1  -7    3.17    0.43
  -1  -1   7    3.80    0.45
  -1  -1   7    3.66    0.45
  -1  -1   7    3.60    0.32
  -1  -1   7    3.86    0.58
  -1  -1   7    3.33    0.41
  -1  -1   7    3.87    0.30
  -1  -1   7    3.79    0.37
   0   1  -7    0.08    0.13
   0   1  -7   -0.04    0.17
   0   1  -7   -0.17    0.23
   0   1  -7    0.03    0.25
   0   1  -7    0.02    0.12
   0   1  -7   -0.05    0.23
   0  -1   7    0.05    0.15
   0  -1   7   -0.06    0.28
   0  -1   7    0.00    0.19
   0  -1   7   -0.11    0.17
   0  -1   7   -0.40    0.26
   0  -1   7   -0.02    0.19
  -1   1  -7   35.68    0.97
  -1   1  -7   37.23    1.09
  -1   1  -7   34.19    1.74
  -1   1  -7   35.33    1.33
  -1   1  -7   33.66    1.34
   1  -1   7   36.90    1.36
   1  -1   7   37.56    1.79
   1  -1   7   34.21    1.35
   1  -1   7   35.71    1.01
  -2   1  -7   34.23    1.24
  -2   1  -7   32.79    1.26
  -2   1  -7   33.73    0.97
  -2   1  -7   33.59    1.71
   2  -1   7   33.62    1.30
   2  -1   7   35.55    1.28
   2  -1   7   35.87    0.99
  -3   1  -7    2.86    0.72
  -3   1  -7    1.76    0.24
   3  -1   7    1.67    0.30
   3  -1   7    2.00    0.35
  -4   1  -7    6.73    1.00
   4  -1   7    5.60    0.44
   4  -1   7    5.61    0.56
  -5   1  -7    0.35    0.65
   5  -1   7    0.63    0.51
   5  -1   7    0.28    0.35
  -6   1  -7    0.99    0.81
   6  -1   7    0.25    0.71
   6  -1   7    0.49    0.43
  -7   1  -7    0.21    0.82
  -7   1  -7    1.62    0.91
   7  -1   7    0.30    0.82
   7   0  -7    0.83    1.11
   7   0  -7    1.98    0.51
  -7   0   7    0.60    0.82
  -7   0   7    0.82    0.57
  -7   0   7    0.95    0.79
   6   0  -7    3.49    1.10
  -6   0   7    3.07    0.59
  -6   0   7    3.94    0.85
   5   0  -7   -0.18    0.83
  -5   0   7    0.46    0.57
  -5   0   7    0.39    0.58
  -5   0   7    0.24    0.44
  -5   0   7    0.61    0.57
   4   0  -7    6.90    0.87
   4   0  -7    3.61    0.66
  -4   0   7    5.09    0.69
  -4   0   7    4.49    0.56
  -4   0   7    4.87    0.78
  -4   0   7    4.20    0.72
   3   0  -7    8.90    0.80
   3   0  -7    8.62    0.70
  -3   0   7    9.96    0.55
  -3   0   7    9.67    0.69
  -3   0   7    9.00    0.74
  -3   0   7    9.05    0.64
   2   0  -7    1.60    0.32
   2   0  -7    1.62    0.46
   2   0  -7    0.98    0.24
   2   0  -7    1.46    0.42
  -2   0   7    1.70    0.35
  -2   0   7    1.61    0.32
  -2   0   7    1.29    0.44
   1   0  -7   56.07    2.03
   1   0  -7   52.14    2.14
   1   0  -7   56.98    1.72
   1   0  -7   54.29    2.57
   1   0  -7   55.89    1.71
   1   0  -7   55.13    2.05
  -1   0   7   52.91    1.71
  -1   0   7   51.50    2.49
  -1   0   7   53.66    2.03
  -1   0   7   55.00    1.71
  -1   0   7   56.45    2.03
   0   0  -7   58.85    2.84
   0   0  -7   62.74    1.92
   0   0  -7   61.28    2.27
   0   0  -7   62.25    2.25
   0   0  -7   62.78    1.90
   0   0  -7   59.19    2.46
   0   0   7   63.94    1.62
   0   0   7   62.77    2.84
   0   0   7   64.63    2.27
   0   0   7   62.14    2.27
   0   0   7   65.33    1.92
  -1   0  -7   60.70    2.32
  -1   0  -7   65.47    2.31
  -1   0  -7   61.21    2.60
  -1   0  -7   63.38    2.92
  -1   0  -7   65.84    1.95
  -1   0  -7   65.04    1.66
   1   0   7   64.91    2.33
   1   0   7   70.24    2.97
   1   0   7   66.53    2.33
   1   0   7   67.10    1.78
  -2   0  -7    8.82    0.46
  -2   0  -7    8.58    0.33
  -2   0  -7    8.17    0.46
  -2   0  -7    8.69    0.74
  -2   0  -7    8.07    0.81
   2   0   7    8.66    0.51
   2   0   7    8.14    0.55
   2   0   7    8.88    0.44
  -3   0  -7    1.80    0.54
  -3   0  -7    1.60    0.23
  -3   0  -7    1.88    0.23
   3   0   7    2.03    0.32
   3   0   7    2.11    0.34
   3   0   7    2.33    0.38
  -4   0  -7    0.16    0.23
  -4   0  -7    0.02    0.57
   4   0   7    0.38    0.40
  -5   0  -7   -0.12    0.30
  -5   0  -7   -0.01    0.67
   5   0   7   -0.32    0.53
  -6   0  -7    0.45    0.81
  -6   0  -7    0.13    0.37
   6   0   7    0.28    0.69
  -7   0  -7    0.58    0.92
  -7   0  -7   -0.06    0.97
   7   0   7   -0.31    0.79
   7  -1  -7   -0.27    0.53
   7  -1  -7    1.52    1.05
  -7   1   7   -0.34    0.56
  -7   1   7    0.57    0.87
   6  -1  -7    0.40    1.00
  -6   1   7    0.68    0.53
  -6   1   7    1.12    0.81
   5  -1  -7   10.22    1.17
  -5   1   7    8.73    0.82
  -5   1   7    7.98    0.72
  -5   1   7    9.21    1.10
  -5   1   7    8.53    0.87
   4  -1  -7   -0.39    0.51
   4  -1  -7   -0.29    0.70
  -4   1   7    0.53    0.23
  -4   1   7    0.58    0.53
  -4   1   7    0.69    0.52
  -4   1   7    0.88    0.48
   3  -1  -7   15.54    0.92
   3  -1  -7   15.06    1.02
  -3   1   7   15.38    0.95
  -3   1   7   15.72    0.88
  -3   1   7   15.22    0.73
  -3   1   7   15.52    0.75
   2  -1  -7   12.17    0.63
   2  -1  -7   11.07    0.70
   2  -1  -7    9.90    0.80
  -2   1   7   11.03    0.61
  -2   1   7   11.56    0.67
  -2   1   7   10.14    0.59
  -2   1   7   10.59    0.76
   1  -1  -7    3.88    0.44
   1  -1  -7    3.41    0.40
   1  -1  -7    3.38    0.53
   1  -1  -7    4.39    0.52
   1  -1  -7    4.79    0.68
   1  -1  -7    3.93    0.40
  -1   1   7    3.75    0.44
  -1   1   7    3.79    0.50
  -1   1   7    3.17    0.55
  -1   1   7    3.68    0.41
   0  -1  -7   23.40    0.82
   0  -1  -7   22.49    0.94
   0  -1  -7   22.28    1.00
   0  -1  -7   21.97    1.13
   0  -1  -7   22.09    1.27
   0  -1  -7   22.12    0.81
   0   1   7   20.19    1.02
   0   1   7   20.73    1.17
   0   1   7   23.02    0.89
   0   1   7   21.72    0.99
   0   1   7   21.61    0.95
  -1  -1  -7   33.76    1.28
  -1  -1  -7   31.43    1.63
  -1  -1  -7   32.79    1.08
  -1  -1  -7   31.40    1.55
   1   1   7   31.96    1.25
   1   1   7   32.86    1.65
   1   1   7   33.33    1.29
  -2  -1  -7   13.19    1.04
  -2  -1  -7   13.93    0.64
  -2  -1  -7   13.38    0.91
   2   1   7   13.53    0.92
   2   1   7   13.42    0.65
   2   1   7   14.15    0.69
  -3  -1  -7    7.36    1.05
  -3  -1  -7    8.51    0.45
  -3  -1  -7    8.69    0.79
   3   1   7    8.66    0.52
   3   1   7    9.24    0.54
   3   1   7    7.92    0.54
  -4  -1  -7   10.49    0.91
  -4  -1  -7    8.23    1.23
  -4  -1  -7    8.36    0.43
   4   1   7    9.43    0.54
   4   1   7    8.18    0.67
   4   1   7    9.74    0.55
  -5  -1  -7    0.13    0.74
  -5  -1  -7    0.15    0.26
   5   1   7    0.04    0.52
  -6  -1  -7    1.37    0.92
   6   1   7    2.04    0.74
   7   1   7   -0.27    0.83
   7  -2  -7    1.88    1.06
   7  -2  -7    1.64    0.65
  -7   2   7    2.25    0.65
  -7   2   7    2.11    0.98
   6  -2  -7   -0.20    0.97
  -6   2   7    0.96    0.75
   5  -2  -7    5.24    1.04
  -5   2   7    4.06    0.68
  -5   2   7    4.73    0.77
  -5   2   7    4.45    0.78
   4  -2  -7    7.13    1.02
  -4   2   7    8.12    0.68
  -4   2   7    6.99    0.94
  -4   2   7    7.35    0.81
  -4   2   7    7.09    0.59
   3  -2  -7   -0.21    0.59
  -3   2   7    0.14    0.47
  -3   2   7    0.21    0.39
  -3   2   7    0.25    0.26
  -3   2   7    0.03    0.41
   2  -2  -7    4.42    0.71
   2  -2  -7    6.69    0.57
  -2   2   7    5.40    0.66
  -2   2   7    5.55    0.49
  -2   2   7    5.92    0.56
  -2   2   7    5.38    0.63
   1  -2  -7   28.40    1.01
   1  -2  -7   30.56    1.31
   1  -2  -7   28.43    1.26
  -1   2   7   28.97    1.14
  -1   2   7   26.05    1.22
  -1   2   7   29.09    1.24
   0  -2  -7    2.95    0.47
   0  -2  -7    2.80    0.61
   0  -2  -7    2.98    0.63
   0   2   7    2.18    0.26
   0   2   7    2.61    0.40
   0   2   7    2.58    0.43
   0   2   7    2.71    0.46
   0   2   7    3.01    0.51
  -1  -2  -7    8.77    0.78
  -1  -2  -7    9.29    0.61
  -1  -2  -7    7.74    0.84
   1   2   7    8.91    0.54
   1   2   7    8.35    0.60
   1   2   7    9.35    0.76
  -2  -2  -7    2.65    0.60
  -2  -2  -7    2.67    0.41
  -2  -2  -7    2.45    0.20
   2   2   7    2.40    0.49
   2   2   7    3.06    0.41
  -3  -2  -7    2.90    0.30
  -3  -2  -7    2.37    0.69
  -3  -2  -7    2.74    0.23
  -3  -2  -7    2.77    0.64
  -3  -2  -7    3.15    0.41
   3   2   7    3.72    0.53
   3   2   7    3.60    0.44
  -4  -2  -7    7.43    0.53
  -4  -2  -7    7.91    0.82
  -4  -2  -7    6.16    1.27
   4   2   7    8.65    0.57
   4   2   7    6.39    0.61
   4   2   7    8.37    0.64
  -5  -2  -7    5.48    1.01
  -5  -2  -7    7.13    0.93
   5   2   7    6.77    0.82
   5   2   7    7.00    0.64
  -6  -2  -7    0.16    1.02
  -6  -2  -7    0.04    0.89
   6   2   7    0.87    0.71
  -7  -2  -7   -0.10    1.15
   7   2   7    0.74    0.90
   7  -3  -7    2.64    0.74
  -7   3   7    2.10    0.87
  -7   3   7    2.21    0.66
   6  -3  -7    2.87    1.23
  -6   3   7    2.18    0.68
  -6   3   7    1.56    0.82
   5  -3  -7    0.54    0.93
  -5   3   7    0.53    0.54
  -5   3   7    0.58    0.62
   4  -3  -7    4.22    0.92
  -4   3   7    3.85    0.66
  -4   3   7    1.94    0.58
  -4   3   7    3.99    0.65
   3  -3  -7   23.54    1.32
  -3   3   7   23.99    1.18
  -3   3   7   22.79    0.97
  -3   3   7   21.30    1.16
   2  -3  -7    3.31    0.60
   2  -3  -7    3.24    0.67
   2  -3  -7    2.97    0.38
  -2   3   7    3.83    0.57
  -2   3   7    2.69    0.51
  -2   3   7    4.05    0.60
   1  -3  -7   22.72    1.13
   1  -3  -7   20.72    0.84
   1  -3  -7   22.70    1.15
  -1   3   7   21.13    0.79
  -1   3   7   21.98    1.06
  -1   3   7   22.45    1.06
   0  -3  -7   26.93    1.20
   0  -3  -7   26.85    1.34
   0   3   7   24.05    1.32
   0   3   7   26.33    0.81
   0   3   7   25.51    1.16
   0   3   7   26.14    1.16
  -1  -3  -7    2.41    0.48
  -1  -3  -7    2.29    0.58
  -1  -3  -7    1.48    0.19
  -1  -3  -7    1.86    0.51
   1   3   7    2.39    0.56
   1   3   7    1.68    0.46
   1   3   7    2.36    0.44
  -2  -3  -7    7.54    1.00
  -2  -3  -7    6.48    0.61
  -2  -3  -7    7.00    0.67
  -2  -3  -7    6.34    0.31
   2   3   7    6.77    0.66
   2   3   7    4.83    0.67
   2   3   7    7.39    0.54
  -3  -3  -7    1.64    0.67
  -3  -3  -7    1.13    0.20
  -3  -3  -7    2.11    0.43
   3   3   7    2.60    0.51
   3   3   7    2.08    0.53
  -4  -3  -7    0.47    0.21
  -4  -3  -7    1.19    0.79
   4   3   7    0.03    0.51
   4   3   7    1.12    0.56
  -5  -3  -7    7.20    1.51
   5   3   7    6.80    0.81
  -6  -3  -7   -0.18    0.95
   6   3   7   -0.06    0.73
   7   3   7    0.50    0.90
   7  -4  -7    0.37    0.79
   6  -4  -7    3.63    1.28
  -6   4   7    2.66    0.92
   5  -4  -7    8.93    1.30
  -5   4   7    5.73    0.92
   4  -4  -7   -0.61    0.90
  -4   4   7    0.46    0.50
  -4   4   7    0.31    0.67
  -4   4   7    0.20    0.58
  -4   4   7    0.14    0.71
   3  -4  -7    6.82    1.03
  -3   4   7    7.27    0.80
  -3   4   7    7.60    0.88
  -3   4   7    7.53    0.98
   2  -4  -7   13.74    0.68
   2  -4  -7   16.25    1.01
   2  -4  -7   14.05    1.07
  -2   4   7   15.57    0.87
  -2   4   7   15.04    0.97
  -2   4   7   13.70    1.05
   1  -4  -7    1.48    0.48
   1  -4  -7    1.03    0.59
   1  -4  -7    0.66    0.31
  -1   4   7    0.79    0.55
  -1   4   7    0.64    0.36
  -1   4   7    0.19    0.46
   0  -4  -7   11.32    0.96
   0  -4  -7   10.20    0.83
   0   4   7    9.98    0.81
   0   4   7    8.39    0.94
   0   4   7   10.60    0.58
  -1  -4  -7   14.64    0.53
  -1  -4  -7   16.12    0.97
  -1  -4  -7   16.83    1.19
   1   4   7   16.21    0.61
   1   4   7   15.73    0.98
   1   4   7   15.04    0.93
  -2  -4  -7    2.02    0.64
  -2  -4  -7    1.32    0.21
  -2  -4  -7    2.19    0.55
   2   4   7    1.65    0.59
  -3  -4  -7    5.95    0.71
  -3  -4  -7    7.42    1.25
   3   4   7    5.78    0.86
   3   4   7    6.36    0.62
  -4  -4  -7    2.80    0.90
   4   4   7    3.02    0.74
  -5  -4  -7    0.85    0.94
   5   4   7    0.89    0.75
   5   4   7   -0.34    0.63
  -6  -4  -7    2.85    1.12
  -6  -4  -7    4.56    1.37
   6   4   7    2.39    0.93
   6  -5  -7   -0.61    0.75
  -6   5   7   -0.66    1.05
  -6   5   7    0.73    1.03
   5  -5  -7    1.36    1.24
  -5   5   7    0.76    0.97
  -5   5   7    2.06    0.87
   4  -5  -7    8.02    1.36
  -4   5   7    7.17    0.94
  -4   5   7    5.61    0.85
  -4   5   7    8.67    1.27
   3  -5  -7    3.88    1.00
  -3   5   7    2.19    0.67
  -3   5   7    1.64    0.67
  -3   5   7    3.71    0.74
   2  -5  -7   12.07    1.06
   2  -5  -7    8.37    0.58
   2  -5  -7   10.03    1.16
  -2   5   7   10.96    0.91
  -2   5   7   10.69    0.95
  -2   5   7    9.86    1.13
   1  -5  -7   21.51    1.31
   1  -5  -7   19.99    1.31
  -1   5   7   21.23    0.97
  -1   5   7   18.97    1.23
  -1   5   7   20.16    1.19
   0  -5  -7    0.37    0.54
   0  -5  -7    0.03    0.66
   0   5   7    0.35    0.38
   0   5   7   -0.68    0.65
   0   5   7   -0.22    0.60
  -1  -5  -7    8.08    1.10
  -1  -5  -7    6.47    0.44
  -1  -5  -7    7.06    0.92
   1   5   7    6.93    0.88
   1   5   7    6.39    0.57
   1   5   7    8.00    0.74
  -2  -5  -7    3.59    0.71
  -2  -5  -7    3.60    0.80
   2   5   7    3.84    0.78
  -3  -5  -7    0.16    0.72
  -3  -5  -7   -0.27    0.58
   3   5   7    0.24    0.80
  -4  -5  -7    0.06    0.87
   4   5   7    0.08    0.85
  -5  -5  -7   -0.91    0.97
   5   5   7    0.25    0.92
   5   5   7   -0.82    0.70
  -6  -5  -7   -0.31    1.38
   6   5   7    1.55    0.98
   6   5   7   -0.70    0.78
   6  -6  -7   -0.08    0.74
  -6   6   7    0.51    1.16
  -6   6   7   -0.07    1.22
  -5   6   7    0.87    1.05
  -5   6   7    0.45    0.90
  -4   6   7    1.92    0.88
  -4   6   7    2.61    0.87
   3  -6  -7   -0.79    1.08
  -3   6   7    0.32    0.78
  -3   6   7    0.15    0.72
  -3   6   7    0.39    0.77
   2  -6  -7    5.92    1.17
   2  -6  -7    3.62    1.06
  -2   6   7    3.65    0.67
  -2   6   7    5.03    0.89
  -2   6   7    2.33    0.77
   1  -6  -7    3.86    0.77
   1  -6  -7    4.78    1.05
  -1   6   7    4.76    0.88
  -1   6   7    4.91    0.63
  -1   6   7    2.77    0.77
   0  -6  -7    6.70    1.17
   0  -6  -7    5.60    1.15
   0   6   7    5.11    1.02
   0   6   7    5.26    0.77
  -1  -6  -7    0.39    0.72
  -1  -6  -7   -0.15    0.76
   1   6   7   -0.02    0.42
   1   6   7    0.08    0.80
  -2  -6  -7   -0.14    0.80
  -2  -6  -7    0.46    0.81
   2   6   7    0.05    0.87
  -3  -6  -7    0.73    0.76
  -3  -6  -7    1.31    0.92
   3   6   7    1.61    1.03
  -4  -6  -7   -0.08    0.99
  -4  -6  -7   -0.26    1.07
   4   6   7    0.36    1.10
  -5  -6  -7   -0.91    1.08
  -5  -6  -7   -0.97    1.25
   5   6   7   -0.32    0.78
   5  -7  -7   -0.45    0.82
  -5   7   7    1.08    1.03
  -5   7   7    2.21    1.13
  -4   7   7    1.56    0.96
  -4   7   7    1.88    0.97
  -3   7   7    8.63    1.53
  -3   7   7    8.49    1.34
  -3   7   7    7.88    1.23
  -2   7   7   -0.35    0.72
  -2   7   7   -0.26    0.82
  -2   7   7    0.06    0.91
   1  -7  -7    1.78    0.88
   1  -7  -7    1.69    1.17
  -1   7   7    1.37    0.66
  -1   7   7    1.72    0.94
  -1   7   7    0.13    0.82
   0  -7  -7    3.38    0.90
   0  -7  -7    2.69    1.13
   0   7   7    2.80    0.62
  -1  -7  -7    3.86    1.02
  -1  -7  -7    5.68    1.24
   1   7   7    3.48    0.61
  -2  -7  -7    0.13    0.94
  -2  -7  -7   -0.05    0.93
  -3  -7  -7    0.33    1.07
  -3  -7  -7    0.85    1.04
   3   7   7    0.19    1.17
  -4  -7  -7   -0.40    1.16
  -4  -7  -7    0.91    1.22
   4   7   7   -0.43    1.18
   5   7   7   -0.34    0.77
   5   7   7    0.01    1.30
   4  -8  -7    0.88    0.83
  -4   8   7    1.52    1.07
  -4   8   7    0.70    1.05
   3  -8  -7    3.85    0.75
  -3   8   7    2.39    1.03
  -3   8   7    3.99    1.18
  -3   8   7    4.23    0.99
  -2   8   7    0.11    0.80
  -2   8   7   -0.38    1.02
  -1   8   7    1.67    0.78
  -1   8   7   -0.15    0.99
   0   8   7    1.15    1.21
   0   8   7    0.05    0.68
  -1  -8  -7    1.34    1.27
   1   8   7    0.75    0.66
  -2  -8  -7    1.08    1.10
  -3  -8  -7    1.12    1.12
   3  -9  -7   -0.35    0.78
  -3   9   7   -0.04    1.15
  -3   9   7    0.54    1.02
  -2   9   7    0.01    0.90
  -2   9   7   -0.66    1.07
   1  -9  -7   -0.05    0.60
  -1   9   7   -0.73    0.85
   0   9   7   -0.75    0.80
   1  10  -8   -0.81    1.08
   0  10  -8    0.40    1.02
  -1  10  -8   -0.24    0.87
   2 -10   8    0.58    0.76
   2   9  -8   -0.65    0.88
   1   9  -8   -0.94    0.88
   0   9  -8   -0.04    0.88
  -1   9  -8    0.86    0.87
  -2   9  -8   -0.02    0.78
   2  -9   8    0.16    0.64
  -3   9  -8    0.14    0.89
  -3   9  -8    0.47    0.59
   3  -9   8    0.14    0.79
   2   8  -8   -1.86    0.81
   1   8  -8   -0.51    0.79
   1   8  -8    0.18    0.52
  -1  -8   8   -0.17    0.77
   0   8  -8   -0.38    0.73
  -1   8  -8    0.29    0.72
  -2   8  -8    0.47    0.78
   2  -8   8    0.10    0.56
  -3   8  -8    0.69    0.52
  -3   8  -8    1.09    0.77
   3  -8   8    0.39    0.65
  -4   8  -8    1.13    1.00
   4  -8   8   -0.41    0.76
  -5   8  -8    0.29    1.09
   2   7  -8   -0.23    0.69
   2   7  -8    0.00    0.51
  -2  -7   8    1.15    1.02
  -2  -7   8    0.67    0.78
   1   7  -8   -0.01    0.45
   1   7  -8    0.04    0.60
  -1  -7   8   -0.56    0.66
   0   7  -8    0.29    0.46
   0   7  -8    0.64    0.56
   0  -7   8    0.21    0.65
   0  -7   8    0.68    0.89
  -1   7  -8    1.33    0.55
  -1   7  -8    1.32    0.54
  -2   7  -8    0.64    0.64
   2  -7   8    0.55    0.51
  -3   7  -8    1.16    0.64
  -3   7  -8    1.43    0.72
   3  -7   8    1.29    0.59
  -4   7  -8    0.05    0.72
  -5   7  -8    0.97    0.85
   5  -7   8    0.88    0.79
   5   6  -8    2.30    1.11
  -4  -6   8    1.85    1.04
   3   6  -8   -0.34    0.40
   3   6  -8    0.27    0.80
  -3  -6   8    0.16    0.86
   2   6  -8    0.56    0.49
   2   6  -8    1.30    0.68
   2   6  -8    3.11    0.81
  -2  -6   8    1.51    0.71
   1   6  -8    7.21    0.82
   1   6  -8    8.82    0.90
   1   6  -8    6.40    1.41
  -1  -6   8    7.10    0.87
  -1  -6   8    7.28    1.06
   0   6  -8    0.56    0.48
   0   6  -8    0.41    0.39
   0  -6   8    0.68    0.24
   0  -6   8    0.50    0.58
   0  -6   8    0.98    0.70
  -1   6  -8    5.01    0.75
   1  -6   8    6.18    0.96
  -2   6  -8    0.79    0.48
  -2   6  -8    0.60    0.45
   2  -6   8    1.22    0.45
  -3   6  -8   -0.22    0.59
  -3   6  -8   -0.05    0.45
   3  -6   8    0.23    0.51
  -4   6  -8   -0.07    0.57
  -4   6  -8    0.02    0.62
  -4   6  -8   -0.32    0.38
   4  -6   8    0.09    0.55
  -5   6  -8    0.46    0.77
   5  -6   8    0.24    0.66
   6   5  -8    1.19    1.16
   5   5  -8    1.57    0.98
   4   5  -8    2.09    0.83
  -4  -5   8    1.62    0.89
   3   5  -8    6.31    0.99
  -3  -5   8    5.68    1.00
  -3  -5   8    4.77    0.83
   2   5  -8    0.31    0.43
   2   5  -8    1.68    0.62
  -2  -5   8    1.02    0.58
  -2  -5   8    1.01    0.68
   1   5  -8    4.67    1.20
   1   5  -8    5.93    0.78
   1   5  -8    5.53    0.74
  -1  -5   8    5.88    0.76
  -1  -5   8    5.86    0.80
   0   5  -8   11.99    0.79
   0   5  -8   10.84    1.28
   0   5  -8   10.82    0.71
   0  -5   8   11.01    0.89
   0  -5   8   10.23    0.81
  -1   5  -8    0.59    0.34
  -1   5  -8    0.46    0.34
   1  -5   8    1.12    0.57
  -2   5  -8    1.01    0.38
  -2   5  -8    1.10    0.43
  -2   5  -8    1.78    0.51
   2  -5   8    1.37    0.39
   2  -5   8    1.86    0.48
  -3   5  -8    0.77    0.32
  -3   5  -8    0.28    0.39
  -3   5  -8    0.27    0.42
   3  -5   8    0.36    0.39
   3  -5   8    0.69    0.62
  -4   5  -8    0.19    0.49
  -4   5  -8    0.03    0.47
  -4   5  -8    0.16    0.47
   4  -5   8   -0.24    0.49
   4  -5   8   -0.29    0.49
  -5   5  -8    0.06    0.58
   5  -5   8   -0.03    0.64
   5  -5   8    0.75    0.53
  -6   5  -8    0.09    0.76
   6  -5   8   -0.15    0.76
   6  -5   8    0.39    0.69
  -7  -4   8   -0.76    0.95
   6   4  -8    1.62    1.04
  -6  -4   8    0.41    0.79
   5   4  -8    3.65    0.95
  -5  -4   8    2.66    0.80
   4   4  -8    6.28    0.95
  -4  -4   8    6.25    0.94
  -4  -4   8    5.18    0.89
   3   4  -8    1.37    0.59
  -3  -4   8    0.82    0.63
  -3  -4   8    1.28    0.66
   2   4  -8    3.39    0.65
  -2  -4   8    3.98    0.70
  -2  -4   8    3.94    0.76
   1   4  -8    2.58    0.50
   1   4  -8    0.68    0.33
   1   4  -8    1.48    0.35
  -1  -4   8    1.84    0.53
  -1  -4   8    1.42    0.46
   0   4  -8    3.65    0.48
   0   4  -8    3.98    0.56
   0  -4   8    2.93    0.52
   0  -4   8    3.73    0.62
  -1   4  -8   11.60    1.09
  -1   4  -8   11.63    0.71
  -1   4  -8   10.29    0.60
   1  -4   8   11.44    0.69
   1  -4   8   11.87    0.76
  -2   4  -8    0.72    0.29
  -2   4  -8    1.22    0.35
  -2   4  -8    2.15    0.42
   2  -4   8    1.43    0.30
   2  -4   8    1.12    0.32
   2  -4   8    1.90    0.43
   2  -4   8    2.19    0.50
  -3   4  -8    0.16    0.32
  -3   4  -8    0.75    0.33
  -3   4  -8    0.33    0.33
  -3   4  -8    0.30    0.32
   3  -4   8    0.75    0.50
   3  -4   8    0.43    0.37
   3  -4   8    0.69    0.36
   3  -4   8    0.54    0.39
  -4   4  -8    0.56    0.43
  -4   4  -8    0.87    0.41
  -4   4  -8    0.64    0.50
   4  -4   8    0.76    0.43
   4  -4   8    1.92    0.48
   4  -4   8    1.21    0.52
  -5   4  -8   -0.20    0.65
  -5   4  -8    0.05    0.49
   5  -4   8   -0.68    0.61
   5  -4   8    0.07    0.52
  -6   4  -8   -0.26    0.63
   6  -4   8    0.06    0.60
   6  -4   8    0.12    0.72
  -7   4  -8    0.46    0.86
   7  -4   8    0.00    0.86
   7   3  -8    2.33    1.12
   6   3  -8    0.16    0.97
  -6  -3   8   -0.01    0.76
   5   3  -8    0.83    0.81
  -5  -3   8    1.29    0.66
  -5  -3   8    1.60    0.72
   4   3  -8   13.87    1.07
  -4  -3   8   12.77    0.97
  -4  -3   8   11.73    1.00
  -4  -3   8   12.27    0.99
   3   3  -8    0.03    0.32
   3   3  -8    1.00    0.49
  -3  -3   8    0.48    0.41
  -3  -3   8    0.57    0.54
  -3  -3   8    1.53    0.59
   2   3  -8    1.81    0.46
   2   3  -8    0.36    0.33
  -2  -3   8    1.85    0.50
  -2  -3   8    1.07    0.32
  -2  -3   8    1.05    0.43
   1   3  -8   41.18    1.59
   1   3  -8   39.38    2.16
   1   3  -8   42.71    1.28
  -1  -3   8   39.61    1.40
  -1  -3   8   39.16    1.27
  -1  -3   8   42.58    1.64
   0   3  -8    9.74    0.61
   0   3  -8    8.95    0.50
   0   3  -8    8.77    0.96
   0  -3   8    9.52    0.65
   0  -3   8    9.08    0.61
   0  -3   8    8.59    0.66
  -1   3  -8    8.80    0.57
  -1   3  -8    8.11    0.91
  -1   3  -8    8.67    0.49
   1  -3   8    8.80    0.60
   1  -3   8    8.94    0.63
  -2   3  -8   12.13    0.57
  -2   3  -8   12.71    0.52
  -2   3  -8   12.61    1.11
  -2   3  -8   13.36    0.65
   2  -3   8   13.00    0.68
   2  -3   8   13.69    0.53
   2  -3   8   12.92    0.71
  -3   3  -8    4.90    0.48
  -3   3  -8    5.13    0.40
  -3   3  -8    6.60    0.59
  -3   3  -8    6.44    1.06
   3  -3   8    5.68    0.54
   3  -3   8    3.86    0.38
   3  -3   8    5.80    0.50
   3  -3   8    5.41    0.48
  -4   3  -8    0.26    0.34
  -4   3  -8    0.23    0.35
  -4   3  -8    0.69    0.48
   4  -3   8    0.05    0.38
   4  -3   8    0.41    0.47
  -5   3  -8    0.00    0.44
  -5   3  -8    0.62    0.43
  -5   3  -8    0.41    0.64
   5  -3   8    0.46    0.45
   5  -3   8    0.78    0.61
  -6   3  -8   -0.86    0.79
  -6   3  -8    0.03    0.55
   6  -3   8    0.59    0.54
   6  -3   8    0.61    0.75
  -7   3  -8    0.18    0.68
   7  -3   8    0.41    0.83
   7  -3   8    0.53    0.63
   7   2  -8    0.13    0.40
   7   2  -8    1.91    1.09
  -7  -2   8   -0.35    0.86
   6   2  -8    1.85    1.00
   6   2  -8    0.45    0.34
  -6  -2   8    0.13    0.70
  -6  -2   8    0.36    0.88
   5   2  -8    0.36    0.27
   5   2  -8    1.39    0.82
  -5  -2   8    0.57    0.61
  -5  -2   8    0.98    0.63
   4   2  -8    0.71    0.62
   4   2  -8    0.18    0.20
  -4  -2   8    0.65    0.49
  -4  -2   8    0.57    0.57
  -4  -2   8    0.72    0.62
   3   2  -8   11.05    1.20
   3   2  -8   10.50    0.81
  -3  -2   8   10.75    0.75
  -3  -2   8   10.80    0.82
  -3  -2   8   10.51    0.75
   2   2  -8    0.68    0.31
   2   2  -8    2.20    0.45
   2   2  -8    1.40    0.29
  -2  -2   8    1.34    0.40
  -2  -2   8    1.76    0.32
  -2  -2   8    1.42    0.44
   1   2  -8    1.30    0.36
   1   2  -8    0.43    0.28
  -1  -2   8    0.75    0.22
  -1  -2   8    0.60    0.20
  -1  -2   8    0.97    0.39
  -1  -2   8    0.52    0.35
   0   2  -8    9.01    0.43
   0   2  -8    8.25    0.88
   0   2  -8    8.93    0.56
   0  -2   8    9.37    0.48
   0  -2   8    8.42    0.58
   0  -2   8    8.13    0.38
   0  -2   8    8.76    0.58
  -1   2  -8    3.66    0.41
  -1   2  -8    3.01    0.30
  -1   2  -8    3.67    0.72
   1  -2   8    3.34    0.40
   1  -2   8    3.36    0.43
  -2   2  -8    8.14    0.90
  -2   2  -8    8.28    0.42
  -2   2  -8    7.75    0.50
   2  -2   8    7.68    0.57
   2  -2   8    8.56    0.41
  -3   2  -8   22.40    0.80
  -3   2  -8   20.38    0.86
  -3   2  -8   23.03    1.43
   3  -2   8   23.14    0.80
   3  -2   8   23.05    0.98
  -4   2  -8    3.77    0.53
   4  -2   8    2.95    0.39
   4  -2   8    3.90    0.54
  -5   2  -8    0.98    0.43
  -5   2  -8    1.61    0.42
   5  -2   8    1.26    0.43
   5  -2   8    2.80    0.61
  -6   2  -8   -0.23    0.77
  -6   2  -8   -0.28    0.47
   6  -2   8    0.26    0.67
   6  -2   8    0.21    0.48
  -7   2  -8   -0.38    0.63
  -7   2  -8   -1.41    0.92
  -7   2  -8    2.51    0.97
  -7   2  -8    0.12    0.73
   7  -2   8   -0.12    0.81
   7   1  -8    1.50    1.21
  -7  -1   8    0.26    0.89
   6   1  -8    0.41    0.97
  -6  -1   8    0.46    0.74
  -6  -1   8    0.03    0.53
  -6  -1   8    0.45    0.79
   5   1  -8   -0.05    0.81
  -5  -1   8    0.09    0.58
  -5  -1   8    1.24    0.63
  -5  -1   8    0.74    0.69
  -5  -1   8    0.73    0.51
   4   1  -8    1.70    0.68
  -4  -1   8    2.16    0.61
  -4  -1   8    1.52    0.50
  -4  -1   8    2.04    0.60
  -4  -1   8    1.52    0.43
   3   1  -8    2.06    0.55
   3   1  -8    1.16    0.33
  -3  -1   8    1.57    0.40
  -3  -1   8    1.18    0.51
  -3  -1   8    1.29    0.44
  -3  -1   8    1.06    0.36
   2   1  -8   27.45    1.23
   2   1  -8   26.67    1.19
   2   1  -8   29.97    1.68
  -2  -1   8   28.29    1.04
  -2  -1   8   28.54    1.00
  -2  -1   8   28.02    1.24
   1   1  -8    5.23    0.85
   1   1  -8    5.57    0.57
   1   1  -8    6.19    0.40
   1   1  -8    5.89    0.54
  -1  -1   8    5.99    0.33
  -1  -1   8    6.11    0.40
  -1  -1   8    5.03    0.56
  -1  -1   8    5.96    0.44
  -1  -1   8    5.52    0.54
   0   1  -8    2.84    0.28
   0   1  -8    2.54    0.43
   0   1  -8    2.57    0.50
   0  -1   8    2.62    0.46
   0  -1   8    2.29    0.44
   0  -1   8    2.72    0.37
   0  -1   8    3.04    0.31
   0  -1   8    3.17    0.31
  -1   1  -8   30.99    0.97
  -1   1  -8   29.79    1.21
  -1   1  -8   30.06    0.85
  -1   1  -8   28.84    1.59
   1  -1   8   30.29    1.24
   1  -1   8   30.26    0.89
   1  -1   8   32.18    0.87
   1  -1   8   31.55    1.23
  -2   1  -8    2.82    0.39
  -2   1  -8    3.61    0.68
  -2   1  -8    3.53    0.27
   2  -1   8    2.91    0.33
   2  -1   8    2.52    0.42
   2  -1   8    3.75    0.47
  -3   1  -8   22.20    0.87
  -3   1  -8   25.19    1.45
  -3   1  -8   24.27    0.78
  -3   1  -8   23.45    0.90
   3  -1   8   23.16    0.98
   3  -1   8   24.72    0.82
  -4   1  -8   17.90    1.35
  -4   1  -8   17.23    0.73
   4  -1   8   17.26    0.80
  -5   1  -8    0.09    0.34
  -5   1  -8    0.26    0.68
  -5   1  -8   -0.06    0.35
   5  -1   8    0.13    0.57
  -6   1  -8   -0.03    0.40
  -6   1  -8   -0.06    0.42
  -6   1  -8    0.41    0.81
   6  -1   8    0.44    0.68
  -7   1  -8    0.08    0.53
  -7   1  -8   -0.12    0.82
  -7   1  -8    2.47    0.98
   7  -1   8    0.34    0.88
   7   0  -8    1.09    1.22
  -7   0   8    0.23    0.60
  -7   0   8    0.79    1.05
   6   0  -8    2.12    1.13
  -6   0   8    1.85    0.60
  -6   0   8    1.75    0.76
   5   0  -8   -0.51    0.88
  -5   0   8    0.72    0.50
  -5   0   8    1.10    0.59
  -5   0   8    0.90    0.58
  -5   0   8    1.09    0.63
   4   0  -8    9.68    1.06
  -4   0   8   11.58    0.82
  -4   0   8   10.71    0.90
  -4   0   8   10.40    0.67
  -4   0   8   10.23    0.94
   3   0  -8    4.69    0.78
  -3   0   8    6.19    0.73
  -3   0   8    7.06    0.63
  -3   0   8    5.75    0.55
  -3   0   8    6.67    0.69
   2   0  -8   12.34    0.85
   2   0  -8   13.78    1.09
   2   0  -8   13.67    0.71
  -2   0   8   13.16    0.84
  -2   0   8   12.56    0.59
  -2   0   8   12.83    0.71
  -2   0   8   11.85    0.69
   1   0  -8   42.31    1.78
   1   0  -8   42.01    2.15
   1   0  -8   43.39    1.40
   1   0  -8   42.60    1.69
  -1   0   8   40.86    1.42
  -1   0   8   43.07    1.70
  -1   0   8   44.07    1.41
   0   0  -8    2.46    0.45
   0   0  -8    3.00    0.34
   0   0  -8    3.17    0.46
   0   0   8    2.74    0.30
   0   0   8    2.14    0.44
   0   0   8    2.94    0.47
   0   0   8    2.97    0.34
   0   0   8    3.19    0.23
  -1   0  -8    2.95    0.29
  -1   0  -8    2.37    0.48
  -1   0  -8    2.99    0.42
   1   0   8    2.48    0.26
   1   0   8    2.41    0.43
   1   0   8    2.55    0.45
  -2   0  -8   22.63    0.65
  -2   0  -8   21.46    1.29
  -2   0  -8   22.41    1.31
  -2   0  -8   23.35    0.94
   2   0   8   24.08    0.98
   2   0   8   22.95    0.76
   2   0   8   22.52    1.00
  -3   0  -8    0.00    0.17
  -3   0  -8    0.16    0.19
  -3   0  -8    0.21    0.21
  -3   0  -8   -0.14    0.49
   3   0   8   -0.08    0.34
   3   0   8    0.11    0.35
  -4   0  -8    1.09    0.29
  -4   0  -8    1.05    0.65
   4   0   8    1.70    0.50
  -5   0  -8    8.93    1.21
  -5   0  -8    7.86    1.41
   5   0   8    8.07    0.70
  -6   0  -8    0.59    0.89
   6   0   8    0.04    0.67
  -7   0  -8    0.03    0.88
  -7   0  -8    1.45    1.03
   7   0   8    0.35    0.92
   7  -1  -8    1.44    1.16
  -7   1   8   -0.56    0.59
  -7   1   8    0.09    0.81
   6  -1  -8    5.21    1.21
  -6   1   8    4.99    0.89
  -6   1   8    2.85    0.61
   5  -1  -8    4.39    1.07
  -5   1   8    3.35    0.57
  -5   1   8    3.63    0.66
  -5   1   8    2.69    0.64
  -5   1   8    5.08    0.80
   4  -1  -8    2.06    0.85
  -4   1   8    1.63    0.51
  -4   1   8    1.80    0.63
  -4   1   8    2.33    0.41
  -4   1   8    1.60    0.53
   3  -1  -8   18.16    1.16
   3  -1  -8   20.11    0.86
  -3   1   8   17.73    0.97
  -3   1   8   16.84    0.84
  -3   1   8   17.00    0.86
  -3   1   8   17.98    1.05
   2  -1  -8    5.54    0.52
   2  -1  -8    3.74    0.71
  -2   1   8    4.38    0.45
  -2   1   8    4.69    0.57
  -2   1   8    4.63    0.57
  -2   1   8    3.64    0.63
   1  -1  -8    8.41    0.69
   1  -1  -8    8.52    0.87
   1  -1  -8    7.05    0.70
  -1   1   8    7.19    0.61
  -1   1   8    7.25    0.55
  -1   1   8    6.16    0.68
   0  -1  -8   36.43    1.89
   0  -1  -8   36.88    1.50
   0  -1  -8   36.36    1.23
   0  -1  -8   36.20    1.68
   0   1   8   38.72    1.31
   0   1   8   35.33    1.44
   0   1   8   35.94    1.49
  -1  -1  -8    6.88    0.56
  -1  -1  -8    6.28    0.76
  -1  -1  -8    7.09    0.42
  -1  -1  -8    6.14    0.81
   1   1   8    6.35    0.51
   1   1   8    5.80    0.58
   1   1   8    6.61    0.80
  -2  -1  -8    7.65    0.81
  -2  -1  -8    8.61    0.53
  -2  -1  -8    7.67    0.95
   2   1   8    8.16    0.61
   2   1   8    8.56    0.55
   2   1   8    7.80    0.85
  -3  -1  -8   24.77    1.59
  -3  -1  -8   25.27    1.00
  -3  -1  -8   26.00    1.43
   3   1   8   26.78    1.06
   3   1   8   23.60    0.92
   3   1   8   25.19    1.04
  -4  -1  -8   25.74    1.75
  -4  -1  -8   27.22    1.52
   4   1   8   25.20    1.03
   4   1   8   26.96    1.05
   4   1   8   23.06    0.97
  -5  -1  -8    0.15    0.79
  -5  -1  -8    0.20    0.29
   5   1   8   -0.09    0.60
  -6  -1  -8    0.22    0.94
   6   1   8    0.50    0.70
  -7  -1  -8   -0.12    1.03
   7   1   8   -0.45    0.88
   7  -2  -8    0.71    1.14
  -7   2   8    1.62    1.02
  -7   2   8    0.52    0.62
   6  -2  -8   -0.67    1.06
  -6   2   8    0.23    0.56
  -6   2   8    0.02    0.62
  -6   2   8    0.29    0.85
   5  -2  -8    7.41    1.17
  -5   2   8    6.13    0.90
  -5   2   8    4.28    0.72
  -5   2   8    5.57    0.80
   4  -2  -8    7.71    1.04
  -4   2   8    6.18    0.72
  -4   2   8    5.35    0.82
  -4   2   8    4.74    0.66
   3  -2  -8    2.12    0.74
   3  -2  -8    2.54    0.51
  -3   2   8    2.47    0.63
  -3   2   8    2.43    0.49
  -3   2   8    2.42    0.53
  -3   2   8    1.72    0.35
   2  -2  -8   28.32    1.40
   2  -2  -8   31.70    1.34
  -2   2   8   28.82    1.21
  -2   2   8   29.05    1.34
  -2   2   8   27.48    1.10
   1  -2  -8   10.75    0.80
   1  -2  -8   10.05    0.82
  -1   2   8   10.04    0.79
  -1   2   8   10.18    0.75
   0  -2  -8   13.47    0.96
   0  -2  -8   13.60    1.00
   0  -2  -8   13.10    0.83
   0   2   8   12.78    0.80
   0   2   8   14.33    0.76
   0   2   8   13.52    0.83
   0   2   8   13.05    0.45
  -1  -2  -8   20.53    1.27
  -1  -2  -8   20.89    1.28
  -1  -2  -8   20.71    0.98
   1   2   8   19.76    0.99
   1   2   8   19.78    0.92
  -2  -2  -8    2.66    0.17
  -2  -2  -8    2.54    0.68
  -2  -2  -8    3.45    0.48
   2   2   8    2.70    0.56
   2   2   8    3.32    0.45
  -3  -2  -8    0.18    0.65
  -3  -2  -8    0.11    0.21
  -3  -2  -8    0.47    0.32
  -3  -2  -8    0.23    0.15
   3   2   8    0.58    0.36
   3   2   8    0.57    0.46
  -4  -2  -8    9.01    0.92
  -4  -2  -8    7.87    1.43
   4   2   8    9.14    0.70
   4   2   8    6.14    0.64
  -5  -2  -8   -0.08    0.85
   5   2   8    0.75    0.61
   5   2   8    0.74    0.50
  -6  -2  -8   -0.14    0.98
   6   2   8   -0.27    0.75
  -7  -2  -8    0.31    1.25
   7   2   8    0.41    0.86
   7  -3  -8    1.14    0.75
  -7   3   8   -0.13    0.83
  -7   3   8    0.22    0.62
   6  -3  -8    2.89    1.32
  -6   3   8    2.65    0.72
  -6   3   8    2.45    0.94
   5  -3  -8   -0.66    1.03
  -5   3   8    0.20    0.59
  -5   3   8    0.91    0.73
   4  -3  -8   13.26    1.32
  -4   3   8   12.64    1.14
  -4   3   8   13.95    0.88
  -4   3   8   13.30    1.04
   3  -3  -8    5.42    1.04
   3  -3  -8    7.30    0.74
  -3   3   8    6.29    0.84
  -3   3   8    6.38    0.69
  -3   3   8    5.82    0.89
   2  -3  -8    4.34    0.77
   2  -3  -8    4.40    0.66
  -2   3   8    4.48    0.64
  -2   3   8    4.94    0.69
  -2   3   8    2.91    0.53
   1  -3  -8   11.81    0.94
   1  -3  -8   13.76    0.94
  -1   3   8   11.31    0.91
  -1   3   8   12.47    0.62
  -1   3   8   12.77    0.87
   0  -3  -8   16.43    0.97
   0  -3  -8   16.15    1.10
   0   3   8   15.55    0.95
   0   3   8   15.16    0.94
   0   3   8   16.61    0.59
  -1  -3  -8    0.79    0.23
  -1  -3  -8    1.09    0.56
  -1  -3  -8    1.97    0.49
   1   3   8    0.74    0.21
   1   3   8    1.38    0.52
  -2  -3  -8   11.92    0.42
  -2  -3  -8   12.66    0.80
  -2  -3  -8   13.21    0.96
  -2  -3  -8   13.98    1.27
   2   3   8   12.77    0.72
   2   3   8   12.79    0.85
   2   3   8   10.26    0.94
  -3  -3  -8   -0.06    0.16
  -3  -3  -8   -0.25    0.67
  -3  -3  -8    0.07    0.40
  -3  -3  -8   -0.07    0.21
   3   3   8   -0.14    0.55
   3   3   8    0.53    0.39
  -4  -3  -8    0.00    0.79
   4   3   8   -0.44    0.59
   4   3   8   -0.22    0.52
  -5  -3  -8    0.00    0.93
   5   3   8   -0.09    0.64
   5   3   8    0.15    0.62
  -6  -3  -8   -0.53    1.05
   6   3   8   -0.66    0.81
   7   3   8    0.15    0.99
   6  -4  -8    4.12    1.45
  -6   4   8    2.74    0.93
   5  -4  -8    0.68    1.22
  -5   4   8    1.30    0.87
   4  -4  -8   -0.21    1.01
  -4   4   8    0.10    0.72
  -4   4   8    0.64    0.66
  -4   4   8    0.06    0.70
   3  -4  -8   10.46    1.22
  -3   4   8   11.52    1.01
  -3   4   8   11.73    0.96
  -3   4   8    9.94    1.08
   2  -4  -8    6.35    1.00
   2  -4  -8    7.55    0.88
  -2   4   8    6.72    0.87
  -2   4   8    4.39    0.65
  -2   4   8    6.73    0.76
   1  -4  -8    2.23    0.57
   1  -4  -8    2.14    0.70
  -1   4   8    1.29    0.62
  -1   4   8    1.99    0.39
  -1   4   8    2.49    0.66
   0  -4  -8   16.67    1.06
   0  -4  -8   17.62    1.22
   0   4   8   15.85    1.13
   0   4   8   15.40    1.01
   0   4   8   17.62    0.69
  -1  -4  -8    5.88    1.03
  -1  -4  -8    4.67    0.30
  -1  -4  -8    4.65    0.77
   1   4   8    6.52    0.72
   1   4   8    4.54    0.38
   1   4   8    5.38    0.80
  -2  -4  -8    1.33    0.68
  -2  -4  -8    1.27    0.19
  -2  -4  -8    1.55    0.56
   2   4   8    1.26    0.62
  -3  -4  -8    3.55    0.62
  -3  -4  -8    3.96    0.93
   3   4   8    4.99    0.79
  -4  -4  -8   -0.23    0.88
   4   4   8    0.24    0.74
  -5  -4  -8   -0.32    1.00
   5   4   8   -0.21    0.65
   5   4   8    0.41    0.75
  -6  -4  -8   -0.31    1.28
  -6  -4  -8   -0.52    1.12
   6   4   8    0.66    0.83
   6   4   8   -0.29    0.84
  -6   5   8   -0.13    0.94
  -6   5   8   -0.98    1.07
   5  -5  -8    9.97    1.78
  -5   5   8    8.34    1.46
  -5   5   8   12.52    1.49
   4  -5  -8    3.96    1.24
  -4   5   8    2.80    0.85
  -4   5   8    3.77    0.85
  -4   5   8    3.17    0.82
   3  -5  -8   -0.89    0.97
  -3   5   8   -0.23    0.67
  -3   5   8    0.19    0.70
  -3   5   8    0.70    0.66
   2  -5  -8   30.43    1.73
   2  -5  -8   30.87    1.66
  -2   5   8   32.15    1.28
  -2   5   8   31.22    1.55
  -2   5   8   26.66    1.55
   1  -5  -8    0.42    0.79
   1  -5  -8    1.13    0.62
  -1   5   8    0.77    0.71
  -1   5   8   -0.17    0.46
  -1   5   8    0.17    0.60
   0  -5  -8    4.85    0.89
   0  -5  -8    3.21    0.72
   0   5   8    4.48    0.80
   0   5   8    3.38    0.78
   0   5   8    4.05    0.44
  -1  -5  -8    8.45    1.20
  -1  -5  -8    6.60    0.97
   1   5   8    8.51    0.79
   1   5   8    5.87    0.97
   1   5   8    6.60    0.54
  -2  -5  -8    1.90    0.70
  -2  -5  -8    2.57    0.79
   2   5   8    2.45    0.81
  -3  -5  -8    0.35    0.64
  -3  -5  -8    0.93    0.89
   3   5   8   -0.06    0.87
  -4  -5  -8    1.15    0.97
   4   5   8   -0.03    0.90
  -5  -5  -8   -0.62    1.04
   5   5   8    0.65    0.95
   5   5   8   -1.14    0.75
  -6  -5  -8   -1.81    1.17
   6   5   8    0.16    0.88
   6   5   8    0.56    1.02
   6  -6  -8   -0.44    0.88
  -6   6   8    0.37    1.23
  -5   6   8    0.34    1.02
  -5   6   8    0.67    1.06
   4  -6  -8    4.08    1.49
  -4   6   8    2.84    0.92
  -4   6   8    4.12    0.93
   3  -6  -8    5.65    1.36
  -3   6   8    4.79    0.81
  -3   6   8    6.17    1.05
  -3   6   8    4.49    0.92
   2  -6  -8   -0.66    1.05
   2  -6  -8    0.70    0.74
  -2   6   8    0.06    0.84
  -2   6   8   -0.54    0.81
  -2   6   8   -0.08    0.62
   1  -6  -8   10.20    1.28
   1  -6  -8   10.02    1.34
  -1   6   8   10.02    0.89
  -1   6   8    9.48    1.20
  -1   6   8    8.19    1.32
   0  -6  -8    3.99    1.01
   0  -6  -8    2.93    0.79
   0   6   8    3.17    0.51
   0   6   8    3.53    0.89
  -1  -6  -8    0.75    0.87
  -1  -6  -8    1.14    0.84
   1   6   8    1.11    0.89
   1   6   8    1.11    0.41
  -2  -6  -8    2.52    0.99
  -2  -6  -8    2.79    0.91
   2   6   8    2.79    1.02
  -3  -6  -8    0.30    0.97
   3   6   8    0.54    1.02
  -4  -6  -8   -0.36    1.01
   4   6   8    0.44    1.09
  -5  -6  -8    0.11    1.33
  -5  -6  -8   -0.59    1.14
   5   6   8   -1.09    0.81
   5  -7  -8   -0.13    0.86
  -5   7   8   -0.09    1.09
  -5   7   8    1.01    1.14
  -4   7   8    0.35    0.94
  -4   7   8    0.69    0.98
  -3   7   8    3.82    1.10
  -3   7   8    3.81    1.07
  -3   7   8    3.14    0.87
  -2   7   8    0.78    0.73
  -2   7   8    1.30    1.03
  -2   7   8    0.41    0.86
   1  -7  -8    4.15    1.03
   1  -7  -8    3.55    1.32
  -1   7   8    1.91    0.93
  -1   7   8    3.63    1.08
  -1   7   8    3.14    0.68
   0  -7  -8    0.43    0.83
   0  -7  -8   -0.27    1.10
   0   7   8   -0.12    1.00
   0   7   8   -0.48    0.54
  -1  -7  -8    0.82    0.96
  -1  -7  -8    0.30    1.10
   1   7   8    0.93    1.08
   1   7   8    0.47    0.50
  -2  -7  -8   -0.48    1.02
  -2  -7  -8    0.15    0.99
  -3  -7  -8    0.01    1.11
   3   7   8   -1.05    1.19
  -4  -7  -8    0.17    1.30
  -4  -7  -8   -0.65    1.30
   4   7   8    0.39    1.26
   4  -8  -8    0.68    0.85
  -4   8   8    0.86    1.06
  -4   8   8    1.35    1.19
  -3   8   8    0.03    1.06
  -3   8   8    0.31    0.93
  -2   8   8    1.71    0.82
  -2   8   8    1.23    1.10
   1  -8  -8    0.54    1.11
  -1   8   8   -1.00    1.09
  -1   8   8    0.56    0.75
  -1   8   8    1.21    1.15
   0  -8  -8    1.16    1.13
   0  -8  -8   -0.17    1.41
   0   8   8   -0.06    1.25
   0   8   8   -0.03    0.66
  -1  -8  -8   -0.54    1.30
  -1  -8  -8   -0.50    1.11
   1   8   8   -0.49    1.31
  -2  -8  -8   -0.25    1.16
  -3  -8  -8   -0.27    1.29
   3  -9  -8    1.15    0.83
  -3   9   8    0.43    0.99
   2  -9  -8   -0.47    0.73
  -2   9   8    0.24    0.91
  -2   9   8   -2.41    1.10
   1  -9  -8   -0.58    0.63
  -1  10  -9   -0.85    0.75
   2   9  -9   -0.15    1.02
   1   9  -9   -0.29    0.95
   0   9  -9   -0.28    0.91
  -1   9  -9    0.23    0.89
  -2   9  -9   -0.88    0.83
  -3   9  -9    1.14    0.63
  -3   9  -9    0.47    0.95
   3  -9   9    1.01    0.81
   2   8  -9    0.11    0.61
   2   8  -9   -0.56    0.91
  -2  -8   9    0.70    0.91
   1   8  -9    0.56    0.74
   1   8  -9    0.44    0.57
  -1  -8   9    0.96    0.83
   0   8  -9    0.34    0.77
  -1   8  -9    0.27    0.72
  -2   8  -9    0.79    0.78
   2  -8   9   -0.17    0.60
  -3   8  -9    0.33    0.77
  -3   8  -9    0.08    0.55
   3  -8   9    0.16    0.71
  -4   8  -9    0.81    0.98
  -4   8  -9    0.42    0.55
   4  -8   9   -0.39    0.76
   3   7  -9   -0.75    0.47
   2   7  -9    0.07    0.55
   2   7  -9    0.14    0.79
  -2  -7   9    0.99    0.84
   1   7  -9    0.58    0.67
   1   7  -9   -0.06    0.50
  -1  -7   9   -0.09    0.73
   0   7  -9    0.64    0.59
   0   7  -9    0.71    0.52
   0  -7   9    1.35    0.73
  -1   7  -9    1.12    0.58
  -2   7  -9    0.53    0.64
   2  -7   9   -0.23    0.54
  -3   7  -9    0.74    0.69
  -3   7  -9    0.27    0.65
   3  -7   9    0.24    0.62
  -4   7  -9    0.10    0.48
  -4   7  -9    0.21    0.81
   4  -7   9    0.07    0.68
   5  -7   9    0.59    0.77
   4   6  -9    2.09    1.01
  -4  -6   9    2.39    1.04
   3   6  -9    0.41    0.47
   2   6  -9   -0.17    0.50
  -2  -6   9    0.20    0.86
   1   6  -9    0.26    0.45
   1   6  -9    0.29    0.50
  -1  -6   9    0.77    0.66
  -1  -6   9    0.61    0.82
   0   6  -9    0.76    0.50
   0   6  -9    0.29    0.42
   0  -6   9    0.36    0.64
   0  -6   9    1.30    0.78
  -1   6  -9    5.28    0.77
  -2   6  -9    2.02    0.55
  -2   6  -9    1.37    0.51
   2  -6   9    1.79    0.50
  -3   6  -9    0.41    0.59
   3  -6   9   -0.19    0.53
  -4   6  -9    0.75    0.59
  -4   6  -9    0.46    0.62
   4  -6   9    0.30    0.60
  -5   6  -9    0.54    0.73
   5  -6   9   -0.18    0.68
   6   5  -9    1.44    1.19
   5   5  -9    0.22    0.97
   4   5  -9   -0.26    0.38
   4   5  -9    1.16    0.89
  -4  -5   9    0.37    0.84
   3   5  -9   14.85    1.73
   3   5  -9   17.29    1.20
  -3  -5   9   15.55    1.21
  -3  -5   9   17.43    1.24
   2   5  -9    3.21    0.74
  -2  -5   9    2.89    0.69
  -2  -5   9    3.33    0.79
   1   5  -9    3.00    0.63
   1   5  -9    2.04    0.49
  -1  -5   9    2.32    0.69
  -1  -5   9    1.99    0.60
   0   5  -9    8.19    1.24
   0   5  -9    8.07    0.69
   0   5  -9    9.69    0.85
   0  -5   9    9.05    0.90
   0  -5   9    6.91    0.84
  -1   5  -9    2.13    0.42
  -1   5  -9    1.27    0.42
   1  -5   9    2.73    0.67
  -2   5  -9   15.98    1.51
  -2   5  -9   14.55    0.83
   2  -5   9   17.06    1.06
   2  -5   9   13.94    0.65
   2  -5   9   14.76    0.88
  -3   5  -9    0.73    0.43
  -3   5  -9    1.62    0.50
   3  -5   9    1.51    0.48
  -4   5  -9    0.26    0.48
  -4   5  -9    0.44    0.52
   4  -5   9   -0.16    0.53
   4  -5   9   -0.67    0.51
  -5   5  -9    0.09    0.59
  -5   5  -9    0.35    0.58
   5  -5   9    0.29    0.59
   5  -5   9    0.18    0.65
  -6   5  -9    0.05    0.69
  -6   5  -9   -0.60    0.66
   6  -5   9    0.12    0.71
   6  -5   9   -0.92    0.75
   6   4  -9    1.61    1.12
  -6  -4   9   -0.24    0.82
   5   4  -9    1.12    0.96
  -5  -4   9    0.77    0.81
   4   4  -9    1.25    0.76
  -4  -4   9    0.19    0.59
  -4  -4   9    0.15    0.72
   3   4  -9    0.21    0.40
   3   4  -9    1.99    0.65
  -3  -4   9    1.65    0.68
  -3  -4   9    0.86    0.45
  -3  -4   9    0.72    0.64
   2   4  -9   10.38    1.55
   2   4  -9   11.22    0.90
  -2  -4   9   10.68    0.88
  -2  -4   9   11.55    0.67
  -2  -4   9   12.02    0.98
   1   4  -9   -0.06    0.33
   1   4  -9   -0.02    0.35
   1   4  -9    0.16    0.46
  -1  -4   9    0.31    0.48
  -1  -4   9    0.05    0.53
  -1  -4   9    0.23    0.22
   0   4  -9   14.03    1.28
   0   4  -9   15.23    0.87
   0   4  -9   14.33    0.70
   0  -4   9   12.90    0.88
   0  -4   9   14.96    0.91
  -1   4  -9    1.58    0.31
  -1   4  -9    2.58    0.50
   1  -4   9    2.71    0.55
   1  -4   9    2.22    0.48
  -2   4  -9    6.20    1.09
  -2   4  -9    6.24    0.58
  -2   4  -9    6.63    0.63
   2  -4   9    6.51    0.44
   2  -4   9    7.38    0.75
   2  -4   9    6.31    0.62
  -3   4  -9    1.55    0.43
  -3   4  -9    2.24    0.34
  -3   4  -9    3.09    0.47
  -3   4  -9    1.88    0.36
   3  -4   9    2.93    0.55
   3  -4   9    3.50    0.68
   3  -4   9    2.58    0.44
   3  -4   9    2.26    0.41
  -4   4  -9    0.38    0.43
  -4   4  -9    0.22    0.47
  -4   4  -9    0.58    0.38
   4  -4   9    0.49    0.51
   4  -4   9    1.14    0.51
   4  -4   9    0.29    0.44
  -5   4  -9    0.44    0.45
   5  -4   9   -0.66    0.54
   5  -4   9    0.14    0.62
  -6   4  -9    0.03    0.61
   6  -4   9   -0.15    0.81
  -7   4  -9    0.10    0.76
   7  -4   9    0.29    0.96
   7   3  -9    3.37    1.19
  -7  -3   9    0.01    0.94
   6   3  -9    1.70    1.06
   5   3  -9    3.61    0.98
  -5  -3   9    2.54    0.81
  -5  -3   9    1.31    0.69
   4   3  -9    3.15    0.77
  -4  -3   9    1.29    0.56
  -4  -3   9    1.33    0.73
  -4  -3   9    2.04    0.71
   3   3  -9    5.17    0.79
  -3  -3   9    4.09    0.65
  -3  -3   9    3.99    0.80
  -3  -3   9    4.33    0.69
   2   3  -9   15.72    0.89
   2   3  -9   13.61    1.48
  -2  -3   9   13.87    0.87
  -2  -3   9   14.42    0.72
  -2  -3   9   14.70    0.92
   1   3  -9    1.67    0.32
   1   3  -9    0.59    0.32
   1   3  -9    2.38    0.48
  -1  -3   9    1.45    0.49
  -1  -3   9    1.31    0.44
  -1  -3   9    1.40    0.24
   0   3  -9    1.51    0.40
   0   3  -9    0.67    0.25
   0   3  -9    0.20    0.28
   0  -3   9   -0.35    0.44
   0  -3   9    0.99    0.44
  -1   3  -9   14.12    0.74
  -1   3  -9   12.32    0.58
  -1   3  -9   13.08    1.12
   1  -3   9   13.80    0.80
   1  -3   9   13.63    0.75
  -2   3  -9    3.81    0.47
  -2   3  -9    3.95    0.46
  -2   3  -9    4.44    0.94
   2  -3   9    3.92    0.38
   2  -3   9    4.38    0.57
   2  -3   9    3.90    0.52
  -3   3  -9    4.50    0.42
  -3   3  -9    3.90    0.57
  -3   3  -9    4.17    1.07
  -3   3  -9    3.88    0.48
   3  -3   9    4.59    0.48
   3  -3   9    4.44    0.61
   3  -3   9    3.70    0.50
  -4   3  -9    2.63    0.53
  -4   3  -9    1.33    0.43
  -4   3  -9    1.61    0.36
   4  -3   9    2.01    0.46
   4  -3   9    2.85    0.55
  -5   3  -9    0.73    0.43
  -5   3  -9    0.63    0.47
  -5   3  -9    0.67    0.66
   5  -3   9    0.52    0.48
   5  -3   9    0.98    0.65
  -6   3  -9    0.21    0.52
  -6   3  -9   -1.15    0.79
   6  -3   9   -0.35    0.56
   6  -3   9   -0.05    0.71
   7  -3   9    0.10    0.96
   7   2  -9    3.86    1.21
  -7  -2   9    0.99    1.02
   6   2  -9    2.55    1.08
  -6  -2   9    0.65    0.89
  -6  -2   9    0.58    0.80
   5   2  -9    0.22    0.85
  -5  -2   9    0.42    0.65
  -5  -2   9    0.45    0.62
   4   2  -9    4.23    0.79
  -4  -2   9    3.39    0.72
  -4  -2   9    3.96    0.74
  -4  -2   9    2.59    0.56
   3   2  -9    5.19    0.76
  -3  -2   9    4.48    0.78
  -3  -2   9    4.36    0.73
  -3  -2   9    4.77    0.69
  -3  -2   9    4.62    0.53
   2   2  -9    0.01    0.31
   2   2  -9    0.20    0.29
   2   2  -9    0.35    0.43
  -2  -2   9    0.26    0.31
  -2  -2   9    0.01    0.44
  -2  -2   9    0.48    0.45
   1   2  -9   25.36    1.13
   1   2  -9   25.17    1.62
  -1  -2   9   25.75    1.16
  -1  -2   9   24.76    1.04
  -1  -2   9   25.84    0.89
   0   2  -9   19.96    0.68
   0   2  -9   18.59    1.32
   0   2  -9   19.24    0.92
   0  -2   9   19.13    0.94
   0  -2   9   20.38    0.69
   0  -2   9   21.05    0.73
   0  -2   9   20.39    0.96
  -1   2  -9   19.47    1.30
  -1   2  -9   20.40    0.68
  -1   2  -9   20.85    0.67
  -1   2  -9   20.36    0.93
   1  -2   9   21.51    0.77
   1  -2   9   22.06    0.96
   1  -2   9   20.17    0.96
   1  -2   9   22.33    0.68
  -2   2  -9   -0.01    0.24
  -2   2  -9    0.06    0.20
  -2   2  -9    0.20    0.31
   2  -2   9   -0.02    0.27
   2  -2   9    0.02    0.40
  -3   2  -9    1.06    0.31
  -3   2  -9    1.44    0.26
   3  -2   9    2.09    0.51
   3  -2   9    2.23    0.39
  -4   2  -9    0.38    0.33
  -4   2  -9   -0.06    0.30
   4  -2   9    0.45    0.46
  -5   2  -9    0.04    0.37
  -5   2  -9    0.00    0.39
   5  -2   9    0.42    0.61
  -6   2  -9    1.27    0.51
  -6   2  -9    2.85    0.95
   6  -2   9    2.66    0.82
  -7   2  -9   -1.19    0.95
  -7   2  -9    3.23    1.03
  -7   2  -9    0.36    0.80
   7  -2   9   -0.23    0.93
   7   1  -9    1.96    1.26
  -7  -1   9    0.41    0.91
   6   1  -9    1.98    1.15
  -6  -1   9    0.03    0.73
  -6  -1   9    1.15    0.62
  -6  -1   9    1.14    0.79
   5   1  -9    5.54    1.04
  -5  -1   9    5.61    0.91
  -5  -1   9    3.44    0.70
  -5  -1   9    5.49    0.70
   4   1  -9    0.70    0.72
  -4  -1   9    0.44    0.56
  -4  -1   9    0.71    0.60
  -4  -1   9    0.59    0.44
  -4  -1   9    0.72    0.53
   3   1  -9    6.24    0.81
   3   1  -9    7.97    1.13
  -3  -1   9    7.03    0.56
  -3  -1   9    7.08    0.72
  -3  -1   9    7.84    0.72
  -3  -1   9    6.53    0.79
   2   1  -9   10.12    0.73
   2   1  -9   11.79    1.21
   2   1  -9   11.54    0.82
  -2  -1   9   11.46    0.68
  -2  -1   9   10.53    0.81
  -2  -1   9   11.81    0.64
  -2  -1   9   11.28    0.72
   1   1  -9    0.71    0.24
   1   1  -9    0.59    0.36
   1   1  -9    0.96    0.42
   1   1  -9    0.37    0.28
  -1  -1   9    0.63    0.30
  -1  -1   9    0.84    0.19
  -1  -1   9    0.76    0.43
  -1  -1   9    0.93    0.28
  -1  -1   9    0.71    0.39
   0   1  -9   14.68    0.58
   0   1  -9   13.35    1.10
   0   1  -9   14.52    0.80
   0   1  -9   13.75    0.91
   0  -1   9   15.08    0.65
   0  -1   9   16.10    0.61
   0  -1   9   15.54    0.55
   0  -1   9   14.79    0.81
   0  -1   9   13.55    0.80
  -1   1  -9    9.22    0.41
  -1   1  -9    9.14    0.35
  -1   1  -9    8.91    0.62
  -1   1  -9    8.31    0.89
   1  -1   9    8.88    0.40
   1  -1   9    8.29    0.65
   1  -1   9    9.12    0.42
   1  -1   9    8.54    0.63
  -2   1  -9   12.39    0.50
  -2   1  -9   11.92    0.66
  -2   1  -9   12.10    1.05
  -2   1  -9   12.32    0.45
   2  -1   9   12.24    0.53
   2  -1   9   12.07    0.77
   2  -1   9   12.23    0.70
  -3   1  -9    0.59    0.21
  -3   1  -9    0.68    0.24
  -3   1  -9    0.44    0.27
   3  -1   9    0.71    0.40
   3  -1   9   -0.04    0.44
  -4   1  -9    9.31    1.21
  -4   1  -9   11.01    1.20
  -4   1  -9    8.91    0.58
   4  -1   9    9.60    0.69
  -5   1  -9    1.08    0.38
  -5   1  -9    1.23    0.77
   5  -1   9    1.22    0.58
  -6   1  -9    0.70    0.44
  -6   1  -9    2.15    0.91
   6  -1   9    1.25    0.80
  -7   1  -9    0.29    0.81
  -7   1  -9    1.94    1.05
   7  -1   9    0.54    0.88
   7   0  -9    2.19    1.30
  -7   0   9    0.54    0.90
  -7   0   9    0.05    0.65
   6   0  -9   -0.17    1.14
  -6   0   9   -0.01    0.87
  -6   0   9    0.21    0.58
   5   0  -9    5.02    1.12
  -5   0   9    3.64    0.79
  -5   0   9    3.63    0.64
  -5   0   9    4.06    0.77
  -5   0   9    2.53    0.67
   4   0  -9    5.44    1.05
  -4   0   9    5.53    0.85
  -4   0   9    6.65    0.68
  -4   0   9    5.33    0.79
  -4   0   9    5.92    0.87
   3   0  -9   -0.14    0.59
   3   0  -9    0.06    0.22
  -3   0   9    0.12    0.55
  -3   0   9    0.48    0.42
  -3   0   9    0.55    0.40
  -3   0   9    0.18    0.46
   2   0  -9    6.24    0.60
   2   0  -9    5.32    0.74
   2   0  -9    6.57    1.01
  -2   0   9    5.76    0.64
  -2   0   9    5.48    0.72
  -2   0   9    5.42    0.50
  -2   0   9    6.26    0.64
   1   0  -9   27.21    1.68
   1   0  -9   29.41    1.29
   1   0  -9   27.92    1.37
   1   0  -9   28.76    1.03
  -1   0   9   28.67    1.30
  -1   0   9   28.17    0.84
  -1   0   9   28.37    1.07
  -1   0   9   28.94    0.97
   0   0  -9    1.36    0.45
   0   0  -9    1.87    0.46
   0   0  -9    1.63    0.25
   0   0   9    1.57    0.35
   0   0   9    1.64    0.23
   0   0   9    1.51    0.42
   0   0   9    1.75    0.29
   0   0   9    1.38    0.46
  -1   0  -9   13.41    0.55
  -1   0  -9   11.50    0.95
  -1   0  -9   12.45    0.73
  -1   0  -9   10.84    1.01
   1   0   9   13.20    0.51
   1   0   9   12.78    0.73
   1   0   9   11.82    0.76
  -2   0  -9   10.42    1.01
  -2   0  -9   11.74    0.52
  -2   0  -9   11.17    0.37
  -2   0  -9   11.03    0.99
  -2   0  -9   11.53    0.65
   2   0   9   10.93    0.53
   2   0   9   10.49    0.74
   2   0   9   12.11    0.68
  -3   0  -9    0.05    0.55
  -3   0  -9    0.08    0.24
  -3   0  -9    0.08    0.18
  -3   0  -9    0.03    0.24
   3   0   9   -0.18    0.38
   3   0   9   -0.54    0.40
   3   0   9   -0.06    0.35
  -4   0  -9    7.20    0.49
  -4   0  -9    8.12    1.08
  -4   0  -9    7.24    1.23
   4   0   9    6.54    0.47
   4   0   9    7.10    0.62
   4   0   9    5.67    0.52
  -5   0  -9    8.03    1.29
  -5   0  -9    8.02    1.46
   5   0   9    7.61    0.82
  -6   0  -9   -0.03    0.89
  -6   0  -9   -0.07    0.39
   6   0   9   -0.32    0.76
  -7   0  -9    0.57    0.90
  -7   0  -9    1.79    1.08
   7   0   9    0.69    0.94
   7  -1  -9    5.49    1.39
  -7   1   9    1.91    0.88
  -7   1   9    2.02    0.68
   6  -1  -9    0.33    1.17
  -6   1   9    0.84    0.73
  -6   1   9    0.54    0.59
   5  -1  -9   -0.48    1.01
  -5   1   9   -0.06    0.67
  -5   1   9    0.90    0.63
  -5   1   9    0.63    0.55
  -5   1   9    0.72    0.71
   4  -1  -9    7.76    1.08
  -4   1   9    4.16    0.63
  -4   1   9    5.25    0.86
  -4   1   9    5.19    0.75
   3  -1  -9   27.06    1.13
   3  -1  -9   25.54    1.42
  -3   1   9   23.52    1.12
  -3   1   9   25.06    1.18
  -3   1   9   24.53    1.08
  -3   1   9   26.14    1.33
   2  -1  -9    0.71    0.34
   2  -1  -9   -0.07    0.57
   2  -1  -9    0.34    0.29
  -2   1   9    0.44    0.38
  -2   1   9    0.84    0.45
  -2   1   9    0.13    0.53
  -2   1   9    0.59    0.27
   1  -1  -9   33.24    1.56
   1  -1  -9   34.13    1.88
   1  -1  -9   34.81    1.52
  -1   1   9   32.91    1.47
  -1   1   9   33.40    1.27
   0  -1  -9   16.27    1.21
   0  -1  -9   15.73    1.10
   0  -1  -9   16.64    0.94
   0   1   9   16.44    0.46
   0   1   9   15.93    0.91
   0   1   9   16.43    0.85
   0   1   9   17.50    0.86
  -1  -1  -9    0.21    0.22
  -1  -1  -9    0.74    0.41
  -1  -1  -9    0.67    0.51
   1   1   9    0.82    0.36
   1   1   9    0.60    0.48
  -2  -1  -9    2.21    0.64
  -2  -1  -9    2.40    0.45
   2   1   9    3.03    0.47
   2   1   9    2.50    0.52
  -3  -1  -9    0.40    0.30
  -3  -1  -9    0.06    0.23
  -3  -1  -9    0.39    0.62
   3   1   9    0.10    0.37
   3   1   9    0.32    0.46
   3   1   9    0.59    0.36
  -4  -1  -9    0.27    0.27
  -4  -1  -9    0.18    0.74
   4   1   9   -0.15    0.51
   4   1   9    0.37    0.43
  -5  -1  -9    3.47    1.03
  -5  -1  -9    4.43    1.11
   5   1   9    3.80    0.75
  -6  -1  -9    0.07    0.96
   6   1   9    0.05    0.75
  -7  -1  -9   -0.42    1.07
   7   1   9    0.06    0.88
   7  -2  -9    1.04    1.27
  -7   2   9    0.52    0.98
  -7   2   9    0.50    0.64
   6  -2  -9    5.08    1.31
  -6   2   9    3.18    0.83
  -6   2   9    2.14    0.63
  -6   2   9    3.46    0.73
   5  -2  -9    9.15    1.32
  -5   2   9    7.03    1.05
  -5   2   9    7.07    0.93
  -5   2   9    6.35    0.86
   4  -2  -9   -0.39    0.88
  -4   2   9    0.45    0.58
  -4   2   9   -0.07    0.64
  -4   2   9    0.92    0.55
   3  -2  -9    9.41    1.10
   3  -2  -9   11.63    0.77
  -3   2   9   10.22    0.92
  -3   2   9   10.85    0.80
  -3   2   9    8.99    0.97
   2  -2  -9   13.16    0.87
   2  -2  -9   11.81    1.03
  -2   2   9   11.94    0.88
  -2   2   9   11.12    0.95
   1  -2  -9    1.00    0.44
   1  -2  -9    0.36    0.56
   1  -2  -9    0.32    0.25
  -1   2   9    0.59    0.44
  -1   2   9    0.61    0.57
   0  -2  -9   15.39    1.19
   0  -2  -9   13.84    0.92
   0  -2  -9   13.82    1.08
   0   2   9   13.19    0.91
   0   2   9   14.95    0.89
   0   2   9   14.07    0.46
  -1  -2  -9   17.68    1.29
  -1  -2  -9   19.87    0.98
  -1  -2  -9   18.92    1.28
   1   2   9   18.34    0.89
   1   2   9   17.45    1.01
  -2  -2  -9   -0.21    0.57
  -2  -2  -9   -0.08    0.22
  -2  -2  -9   -0.14    0.38
   2   2   9   -0.27    0.50
   2   2   9    0.50    0.37
  -3  -2  -9    5.22    0.87
  -3  -2  -9    5.32    0.30
  -3  -2  -9    5.51    0.54
  -3  -2  -9    6.02    1.00
   3   2   9    6.72    0.59
   3   2   9    5.94    0.71
  -4  -2  -9    0.81    0.28
  -4  -2  -9    1.08    0.89
   4   2   9    0.89    0.56
   4   2   9    1.83    0.55
  -5  -2  -9    1.61    0.97
   5   2   9    1.19    0.70
   5   2   9    2.21    0.56
  -6  -2  -9    1.46    1.12
   6   2   9    2.26    0.89
   7   2   9    1.31    0.93
   7  -3  -9    1.01    1.53
  -7   3   9    0.25    0.66
   6  -3  -9   -0.24    1.22
  -6   3   9    0.44    0.92
   5  -3  -9    2.01    1.22
  -5   3   9    1.83    0.83
   4  -3  -9   10.76    1.40
  -4   3   9   10.67    1.13
  -4   3   9   12.25    1.15
  -4   3   9   12.34    0.91
   3  -3  -9    0.20    0.42
   3  -3  -9   -1.03    0.81
  -3   3   9   -0.01    0.58
  -3   3   9   -0.26    0.67
   2  -3  -9   19.42    1.25
   2  -3  -9   20.12    1.16
  -2   3   9   16.22    1.10
  -2   3   9   19.04    1.16
  -2   3   9   20.25    0.91
   1  -3  -9   23.69    1.33
   1  -3  -9   23.65    1.30
  -1   3   9   22.68    0.84
  -1   3   9   22.19    1.24
  -1   3   9   21.98    1.17
   0  -3  -9    0.18    0.50
   0  -3  -9    0.12    0.55
   0   3   9   -0.13    0.50
   0   3   9    0.68    0.21
   0   3   9    0.30    0.55
  -1  -3  -9   17.24    1.19
  -1  -3  -9   15.17    1.30
  -1  -3  -9   15.29    0.97
   1   3   9   14.86    0.98
  -2  -3  -9    6.35    0.26
  -2  -3  -9    7.07    0.93
  -2  -3  -9    7.31    1.28
  -2  -3  -9    7.30    0.72
   2   3   9    7.96    0.64
   2   3   9    6.50    0.81
   2   3   9    4.89    0.90
  -3  -3  -9   -0.11    0.25
  -3  -3  -9   -0.22    0.77
  -3  -3  -9    0.24    0.44
   3   3   9   -0.20    0.61
  -4  -3  -9    0.08    0.89
   4   3   9   -0.07    0.52
   4   3   9    0.24    0.65
  -5  -3  -9   -0.33    1.01
   5   3   9    0.12    0.73
   5   3   9   -0.10    0.64
  -6  -3  -9   -0.66    1.13
   6   3   9   -0.40    0.87
   6  -4  -9   -0.28    1.47
  -6   4   9    1.67    1.05
   5  -4  -9    0.38    1.35
  -5   4   9    0.89    0.86
   4  -4  -9    3.75    1.25
  -4   4   9    3.46    0.85
  -4   4   9    2.88    0.82
  -4   4   9    3.06    0.80
   3  -4  -9    3.20    1.05
   3  -4  -9    3.09    0.65
  -3   4   9    3.01    0.64
  -3   4   9    3.14    0.81
  -3   4   9    2.46    0.73
   2  -4  -9    6.53    1.13
   2  -4  -9    6.02    0.94
  -2   4   9    6.38    0.78
  -2   4   9    6.51    0.97
  -2   4   9    5.65    1.01
   1  -4  -9   11.94    1.13
   1  -4  -9   10.76    1.11
  -1   4   9   12.27    0.70
  -1   4   9   10.93    0.98
  -1   4   9   10.87    1.07
   0  -4  -9   15.67    1.09
   0  -4  -9   14.88    1.26
   0   4   9   13.81    1.06
   0   4   9   13.46    1.11
   0   4   9   14.79    0.64
  -1  -4  -9    2.29    0.72
  -1  -4  -9    2.11    0.66
   1   4   9    2.21    0.70
  -2  -4  -9    1.74    0.80
  -2  -4  -9    2.84    0.65
   2   4   9    2.80    0.74
  -3  -4  -9    4.45    0.75
  -3  -4  -9    4.10    1.02
   3   4   9    3.97    0.83
  -4  -4  -9    0.15    1.02
   4   4   9    0.00    0.80
  -5  -4  -9    0.11    1.14
   5   4   9   -0.17    0.71
   5   4   9    0.60    0.82
  -6  -4  -9    0.91    1.37
  -6  -4  -9   -1.19    1.22
   6   4   9   -0.88    0.86
  -6   5   9    1.84    1.13
  -6   5   9    1.23    0.93
   5  -5  -9    2.38    1.52
  -5   5   9    1.60    1.03
  -5   5   9    2.46    1.00
   4  -5  -9    0.22    1.28
  -4   5   9    1.43    0.80
  -4   5   9    0.90    0.86
  -4   5   9    0.40    0.84
   3  -5  -9    7.23    1.46
  -3   5   9    8.97    1.15
  -3   5   9    9.01    1.12
  -3   5   9    6.69    1.19
   2  -5  -9    0.53    0.61
   2  -5  -9   -0.28    0.98
  -2   5   9    0.51    0.79
  -2   5   9   -0.28    0.73
  -2   5   9    0.61    0.53
   1  -5  -9    5.97    1.04
   1  -5  -9    6.19    1.10
  -1   5   9    5.61    1.04
  -1   5   9    4.96    0.81
  -1   5   9    6.11    0.73
   0  -5  -9   12.99    1.20
   0  -5  -9   12.85    1.36
   0   5   9   11.02    1.28
   0   5   9   13.16    1.18
   0   5   9   13.40    0.70
  -1  -5  -9    9.47    1.35
  -1  -5  -9    8.14    1.09
   1   5   9    8.87    0.53
   1   5   9    8.96    1.07
  -2  -5  -9    0.15    0.69
  -2  -5  -9   -0.04    0.81
   2   5   9    0.05    0.84
  -3  -5  -9    1.12    0.70
  -3  -5  -9    0.48    0.92
   3   5   9    1.75    0.94
  -4  -5  -9   -1.02    1.04
   4   5   9   -0.47    0.96
  -5  -5  -9   -0.98    1.16
   5   5   9    0.21    0.95
   5   5   9   -1.14    0.78
  -6  -5  -9   -2.31    1.26
   6   5   9   -1.47    0.91
   6   5   9    0.20    1.03
   5  -6  -9    0.75    1.66
  -5   6   9    1.60    1.06
  -5   6   9    1.50    1.10
   4  -6  -9    4.45    1.59
  -4   6   9    3.85    0.95
  -4   6   9    3.94    1.08
   3  -6  -9    5.02    1.44
  -3   6   9    5.33    0.82
  -3   6   9    6.05    1.11
  -3   6   9    5.12    1.01
   2  -6  -9    7.21    1.36
   2  -6  -9    6.69    1.32
  -2   6   9    6.90    1.12
  -2   6   9    6.77    1.01
   1  -6  -9    4.66    0.94
   1  -6  -9    6.77    1.28
  -1   6   9    4.85    0.59
  -1   6   9    5.63    1.10
  -1   6   9    4.04    0.95
   0  -6  -9    0.50    0.78
   0  -6  -9   -0.23    0.97
   0   6   9   -0.38    0.88
   0   6   9    0.19    0.44
  -1  -6  -9   10.59    1.55
  -1  -6  -9   10.80    1.41
   1   6   9   10.93    0.69
   1   6   9   10.78    1.35
  -2  -6  -9    2.39    0.94
  -2  -6  -9    1.73    0.97
   2   6   9    2.69    1.09
  -3  -6  -9    0.34    1.05
   3   6   9    0.26    1.13
  -4  -6  -9   -0.07    1.14
   4   6   9   -0.05    1.16
  -5  -6  -9    0.52    1.39
  -5  -6  -9   -1.46    1.23
   5   6   9   -1.65    0.83
   5   6   9    0.47    1.12
  -5   7   9    0.25    1.09
  -4   7   9    1.52    0.96
  -4   7   9    1.17    1.08
   3  -7  -9    1.99    1.64
  -3   7   9    1.61    1.12
  -3   7   9    1.45    0.94
  -3   7   9    2.12    0.85
   2  -7  -9    1.36    1.48
  -2   7   9    2.88    1.17
  -2   7   9    2.33    0.75
  -2   7   9    0.77    0.97
   1  -7  -9   -0.23    1.29
   1  -7  -9    0.27    0.90
  -1   7   9   -0.37    0.97
  -1   7   9   -0.08    0.60
  -1   7   9    0.15    1.09
   0  -7  -9    1.67    0.97
   0  -7  -9    2.10    1.25
   0   7   9    2.14    1.21
   0   7   9    2.23    0.55
  -1  -7  -9   -0.42    1.17
  -1  -7  -9    0.06    0.96
   1   7   9   -0.46    1.16
  -2  -7  -9    1.72    1.17
  -2  -7  -9    1.98    1.15
  -3  -7  -9   -0.61    1.21
   3   7   9   -0.30    1.27
  -4  -7  -9   -1.29    1.29
  -4  -7  -9   -0.21    1.32
   4   7   9   -0.33    1.30
  -4   8   9   -0.13    1.02
   3  -8  -9    0.01    1.82
  -3   8   9    0.97    1.08
  -3   8   9    0.65    0.92
  -2   8   9    2.23    1.31
  -2   8   9    0.86    1.03
  -2   8   9    1.69    0.81
   1  -8  -9   -0.69    1.50
   1  -8  -9   -0.27    1.19
  -1   8   9    0.66    0.73
   0  -8  -9    0.68    1.16
  -1  -8  -9   -0.77    1.41
  -1  -8  -9   -0.60    1.13
   1   8   9   -1.14    1.31
  -2  -8  -9   -1.30    1.28
  -2  -8  -9   -0.20    1.29
   3   8   9   -0.17    1.47
  -2   9   9   -1.84    1.26
   1   9 -10   -0.15    0.91
   0   9 -10    0.11    0.79
  -1   9 -10   -0.44    0.89
  -2   9 -10   -0.36    0.86
  -3   9 -10   -0.21    0.94
  -3   9 -10    0.11    0.62
   2   8 -10    0.45    0.63
   1   8 -10   -1.14    0.79
   0   8 -10    0.10    0.77
  -1   8 -10    0.47    0.73
  -2   8 -10    0.34    0.78
  -3   8 -10    0.02    0.78
   3  -8  10   -0.55    0.73
  -4   8 -10   -0.06    0.90
   4  -8  10   -0.01    0.81
   2   7 -10   -0.08    0.58
  -2  -7  10    0.19    0.87
   1   7 -10    1.73    0.60
   1   7 -10    2.70    0.75
  -1  -7  10    3.01    0.87
   0   7 -10    0.29    0.52
   0   7 -10    1.21    0.61
  -1   7 -10    0.18    0.59
  -2   7 -10    0.16    0.60
  -2   7 -10    0.19    0.59
  -3   7 -10    0.81    0.68
   3  -7  10    0.33    0.66
  -4   7 -10   -0.21    0.48
  -4   7 -10   -0.05    0.83
   4  -7  10   -0.23    0.72
  -5   7 -10    0.66    0.93
   4   6 -10   -0.52    0.44
   3   6 -10   -0.86    0.47
   2   6 -10   -0.56    0.52
  -2  -6  10    0.50    0.90
   1   6 -10    0.27    0.52
   1   6 -10   -0.11    0.49
  -1  -6  10    0.76    0.90
  -1  -6  10    0.01    0.71
   0   6 -10   -0.08    0.45
   0   6 -10    0.19    0.50
   0  -6  10   -0.29    0.69
   0  -6  10    0.40    0.83
  -1   6 -10    1.30    0.50
  -1   6 -10    2.58    0.54
   1  -6  10    2.47    0.87
  -2   6 -10    1.49    0.55
  -2   6 -10    0.59    0.50
  -3   6 -10    0.11    0.62
   3  -6  10   -0.13    0.58
  -4   6 -10    0.26    0.61
  -4   6 -10    0.02    0.71
   4  -6  10    0.55    0.64
  -5   6 -10    0.07    0.72
   5  -6  10   -0.73    0.72
  -6   6 -10   -0.27    0.86
   6  -6  10   -0.23    0.81
   4   5 -10    0.14    0.45
   4   5 -10    2.33    0.94
  -3  -5  10    1.33    0.85
  -3  -5  10    1.78    0.85
   2   5 -10    0.12    0.53
   2   5 -10    2.05    0.76
  -2  -5  10    0.91    0.38
  -2  -5  10    1.28    0.80
  -2  -5  10    1.09    0.70
   1   5 -10    4.85    0.90
   1   5 -10    4.29    0.55
  -1  -5  10    3.84    0.40
  -1  -5  10    4.67    0.73
  -1  -5  10    5.65    0.95
   0   5 -10    6.79    0.68
   0   5 -10    5.48    1.41
   0   5 -10    6.15    0.86
   0  -5  10    6.22    0.92
   0  -5  10    5.28    0.75
  -1   5 -10    0.05    0.37
  -1   5 -10    0.11    0.36
  -1   5 -10    0.68    0.57
   1  -5  10    0.51    0.67
  -2   5 -10    6.35    0.82
  -2   5 -10    7.61    1.37
  -2   5 -10    6.34    0.72
  -3   5 -10    0.89    0.46
  -3   5 -10    2.02    0.52
  -4   5 -10    0.69    0.47
  -4   5 -10    0.45    0.53
   4  -5  10    1.19    0.58
   4  -5  10    1.17    0.56
  -5   5 -10    0.10    0.61
  -5   5 -10    0.05    0.54
   5  -5  10    0.33    0.73
   5  -5  10   -0.30    0.65
   6  -5  10   -0.78    0.84
   6   4 -10    3.01    1.24
   5   4 -10    1.70    1.04
  -5  -4  10    1.26    0.90
   4   4 -10    1.04    0.87
   4   4 -10    0.07    0.41
  -4  -4  10    0.36    0.59
  -4  -4  10    1.35    0.83
  -4  -4  10    0.57    0.82
   3   4 -10    5.22    0.94
  -3  -4  10    5.27    0.97
  -3  -4  10    3.22    0.77
  -3  -4  10    4.16    0.72
   2   4 -10    1.41    0.61
   2   4 -10   -0.08    0.45
  -2  -4  10    0.93    0.63
  -2  -4  10    0.13    0.64
  -2  -4  10    0.59    0.35
   1   4 -10   -0.09    0.39
   1   4 -10   -0.12    0.36
   1   4 -10    0.53    0.52
  -1  -4  10    0.04    0.22
  -1  -4  10   -0.10    0.58
  -1  -4  10    0.67    0.57
   0   4 -10    7.44    0.74
   0   4 -10    6.81    0.58
   0   4 -10    5.22    1.14
   0  -4  10    6.48    0.78
  -1   4 -10    0.79    0.30
  -1   4 -10    0.38    0.32
  -1   4 -10    1.46    0.49
   1  -4  10    1.10    0.56
   1  -4  10    0.89    0.48
  -2   4 -10    5.15    0.58
  -2   4 -10    6.80    1.19
  -2   4 -10    6.48    0.67
   2  -4  10    6.19    0.45
   2  -4  10    6.27    0.67
   2  -4  10    7.49    0.83
  -3   4 -10    8.11    0.67
  -3   4 -10    9.39    1.39
   3  -4  10   11.45    0.88
   3  -4  10    8.24    0.59
  -4   4 -10    0.27    0.44
  -4   4 -10    0.65    0.39
   4  -4  10    0.31    0.47
   4  -4  10    1.67    0.61
   4  -4  10    0.28    0.52
  -5   4 -10    0.64    0.45
   5  -4  10   -0.07    0.59
   5  -4  10    0.74    0.71
  -6   4 -10   -0.14    0.61
  -6   4 -10    0.17    0.54
   6  -4  10   -0.37    0.82
   6  -4  10   -0.25    0.66
   6   3 -10    2.00    1.15
  -6  -3  10    0.54    1.05
   5   3 -10    1.15    0.98
  -5  -3  10    0.90    0.71
  -5  -3  10    2.23    0.83
   4   3 -10    3.22    0.85
  -4  -3  10    1.39    0.59
  -4  -3  10    1.68    0.76
  -4  -3  10    2.07    0.78
   3   3 -10    0.39    0.44
   3   3 -10    2.37    0.66
  -3  -3  10    1.60    0.64
  -3  -3  10    1.14    0.65
  -3  -3  10    1.03    0.47
   2   3 -10    7.05    1.45
   2   3 -10    8.76    0.79
  -2  -3  10    8.56    0.86
  -2  -3  10    6.82    0.60
  -2  -3  10    7.56    0.82
   1   3 -10    0.23    0.33
   1   3 -10    1.35    0.50
  -1  -3  10    0.87    0.26
  -1  -3  10    1.04    0.53
  -1  -3  10    0.82    0.51
   0   3 -10    0.35    0.26
   0   3 -10    0.09    0.29
   0   3 -10    0.59    0.42
   0  -3  10    0.45    0.47
  -1   3 -10    7.52    0.46
  -1   3 -10    8.99    0.64
  -1   3 -10    8.26    1.05
   1  -3  10    8.04    0.69
   1  -3  10    8.75    0.72
  -2   3 -10    1.03    0.39
  -2   3 -10    0.09    0.26
  -2   3 -10    0.19    0.31
   2  -3  10    0.31    0.30
   2  -3  10    0.45    0.49
   2  -3  10    0.40    0.43
  -3   3 -10   23.44    1.03
  -3   3 -10   26.13    0.99
  -3   3 -10   23.07    0.90
  -3   3 -10   25.54    1.74
   3  -3  10   24.80    0.90
   3  -3  10   24.97    1.09
   3  -3  10   27.29    1.20
  -4   3 -10    3.63    0.54
  -4   3 -10    2.81    0.54
   4  -3  10    4.12    0.68
   4  -3  10    3.16    0.58
  -5   3 -10    0.47    0.43
  -5   3 -10   -0.23    0.65
  -5   3 -10    0.46    0.47
   5  -3  10    0.37    0.66
  -6   3 -10   -0.14    0.54
   6  -3  10   -0.08    0.82
   7  -3  10   -0.55    0.97
   7   2 -10    3.95    1.36
  -7  -2  10   -0.41    0.91
   6   2 -10    1.74    1.11
  -6  -2  10    1.17    0.93
  -6  -2  10   -0.24    0.85
   5   2 -10    1.42    0.96
  -5  -2  10    0.83    0.66
  -5  -2  10    1.82    0.75
   4   2 -10    5.48    1.02
  -4  -2  10    5.31    0.89
  -4  -2  10    5.34    0.89
  -4  -2  10    5.75    0.91
   3   2 -10    2.65    0.67
   3   2 -10    1.21    0.43
  -3  -2  10    1.75    0.48
  -3  -2  10    2.17    0.59
  -3  -2  10    2.60    0.68
  -3  -2  10    1.63    0.47
   2   2 -10    6.55    0.67
   2   2 -10    5.03    1.24
   2   2 -10    7.04    0.72
  -2  -2  10    7.31    0.77
  -2  -2  10    6.73    0.55
  -2  -2  10    6.75    0.60
  -2  -2  10    6.73    0.74
   1   2 -10   12.37    0.80
   1   2 -10   12.60    1.33
  -1  -2  10   12.93    0.85
  -1  -2  10   13.26    0.61
  -1  -2  10   12.41    0.83
   0   2 -10    2.15    0.46
   0   2 -10    1.51    0.24
   0  -2  10    1.62    0.48
   0  -2  10    1.79    0.30
  -1   2 -10    0.52    0.38
  -1   2 -10   -0.02    0.24
  -1   2 -10    0.28    0.16
  -1   2 -10    0.26    0.17
   1  -2  10   -0.69    0.38
   1  -2  10    0.10    0.22
   1  -2  10    0.06    0.26
   1  -2  10    0.24    0.43
  -2   2 -10    8.97    0.61
  -2   2 -10    8.18    0.39
  -2   2 -10    8.22    0.44
  -2   2 -10    8.23    1.04
   2  -2  10    8.50    0.75
   2  -2  10    9.01    0.49
  -3   2 -10    0.02    0.30
  -3   2 -10    0.00    0.23
  -3   2 -10    0.42    0.31
   3  -2  10   -0.25    0.40
   3  -2  10   -0.19    0.39
   3  -2  10   -0.58    0.54
  -4   2 -10    1.24    0.40
  -4   2 -10    1.87    0.34
   4  -2  10    2.90    0.57
  -5   2 -10    4.57    0.66
   5  -2  10    5.34    0.75
  -6   2 -10    0.15    0.50
  -6   2 -10    1.78    0.94
   6  -2  10   -0.19    0.80
  -7   2 -10    2.87    1.07
   7  -2  10    0.93    0.99
   7   1 -10    3.02    1.37
  -7  -1  10    0.02    0.92
  -7  -1  10   -0.34    0.91
   6   1 -10    5.74    1.29
  -6  -1  10    4.34    1.01
  -6  -1  10    2.93    0.88
  -6  -1  10    4.09    0.77
   5   1 -10    1.21    0.97
  -5  -1  10   -0.29    0.68
  -5  -1  10   -0.11    0.57
  -5  -1  10    0.97    0.72
   4   1 -10    4.15    0.89
  -4  -1  10    4.14    0.77
  -4  -1  10    3.71    0.65
  -4  -1  10    2.40    0.67
  -4  -1  10    3.13    0.56
   3   1 -10   10.32    1.39
   3   1 -10    9.34    0.96
  -3  -1  10    9.91    0.66
  -3  -1  10    9.00    0.81
  -3  -1  10    9.23    0.93
  -3  -1  10   10.09    0.81
   2   1 -10    3.20    0.64
   2   1 -10    4.04    0.69
  -2  -1  10    4.30    0.60
  -2  -1  10    4.20    0.53
  -2  -1  10    4.05    0.66
  -2  -1  10    3.92    0.64
   1   1 -10    2.87    0.54
   1   1 -10    2.39    0.49
   1   1 -10    2.07    0.31
  -1  -1  10    2.67    0.36
  -1  -1  10    2.70    0.35
  -1  -1  10    2.89    0.43
  -1  -1  10    2.27    0.55
  -1  -1  10    1.93    0.49
   0   1 -10   15.85    1.04
   0   1 -10   16.83    0.92
   0   1 -10   16.30    0.66
   0   1 -10   15.24    1.29
   0  -1  10   17.49    0.74
   0  -1  10   18.00    0.69
   0  -1  10   16.50    0.94
   0  -1  10   16.57    0.92
   0  -1  10   18.49    0.62
  -1   1 -10    3.93    0.85
  -1   1 -10    4.51    0.77
  -1   1 -10    5.01    0.28
  -1   1 -10    5.23    0.35
  -1   1 -10    5.21    0.59
   1  -1  10    5.10    0.35
   1  -1  10    4.71    0.66
   1  -1  10    4.40    0.57
   1  -1  10    4.69    0.37
  -2   1 -10    5.51    0.35
  -2   1 -10    5.04    0.91
  -2   1 -10    5.54    0.54
  -2   1 -10    5.56    0.31
  -2   1 -10    4.67    0.83
   2  -1  10    4.25    0.58
   2  -1  10    5.06    0.71
   2  -1  10    5.70    0.44
  -3   1 -10    4.45    0.37
  -3   1 -10    4.36    0.42
  -3   1 -10    4.27    1.02
  -3   1 -10    4.45    0.98
   3  -1  10    4.76    0.61
   3  -1  10    3.18    0.50
   3  -1  10    4.11    0.50
  -4   1 -10   17.49    1.49
  -4   1 -10   15.06    0.70
  -4   1 -10   15.96    1.47
   4  -1  10   16.25    0.83
  -5   1 -10    0.68    0.36
  -5   1 -10    1.29    0.80
  -5   1 -10    0.74    0.40
   5  -1  10    1.26    0.69
  -6   1 -10    1.18    0.94
   6  -1  10   -0.05    0.73
  -7   1 -10    1.83    1.08
   7  -1  10    0.12    0.97
   7   0 -10    1.45    1.36
  -7   0  10    0.51    0.86
  -7   0  10   -0.04    0.87
  -7   0  10   -0.42    0.68
   6   0 -10    0.60    1.19
  -6   0  10   -0.07    0.76
  -6   0  10   -0.30    0.60
   5   0 -10    3.81    1.15
  -5   0  10    3.26    0.76
  -5   0  10    2.67    0.70
  -5   0  10    3.02    0.66
  -5   0  10    3.65    0.82
   4   0 -10    3.43    0.95
  -4   0  10    1.56    0.59
  -4   0  10    2.32    0.54
  -4   0  10    2.70    0.75
  -4   0  10    2.03    0.61
   3   0 -10    3.40    0.79
   3   0 -10    2.53    0.45
  -3   0  10    2.90    0.57
  -3   0  10    2.85    0.70
  -3   0  10    2.32    0.51
  -3   0  10    3.14    0.52
   2   0 -10   25.69    1.32
   2   0 -10   28.14    1.79
   2   0 -10   25.82    1.27
  -2   0  10   25.33    1.08
  -2   0  10   26.79    1.30
  -2   0  10   25.01    1.12
  -2   0  10   27.17    1.00
   1   0 -10    8.21    1.09
   1   0 -10    8.65    0.77
   1   0 -10    7.75    0.83
  -1   0  10    7.92    0.66
  -1   0  10    8.12    0.53
  -1   0  10    8.54    0.79
  -1   0  10    8.31    0.39
   0   0 -10   12.89    0.61
   0   0 -10   12.48    0.84
   0   0 -10   12.34    1.18
   0   0 -10   12.17    1.00
   0   0  10   12.87    0.81
   0   0  10   13.18    0.73
   0   0  10   11.47    0.84
   0   0  10   12.99    0.45
   0   0  10   12.89    0.58
  -1   0 -10   10.46    0.51
  -1   0 -10    8.31    1.00
  -1   0 -10    9.50    0.96
  -1   0 -10    9.78    0.73
   1   0  10    9.51    0.79
   1   0  10   10.65    0.48
   1   0  10   10.25    0.71
  -2   0 -10    1.84    0.58
  -2   0 -10    2.94    0.46
  -2   0 -10    2.28    0.18
   2   0  10    3.24    0.49
   2   0  10    2.37    0.57
   2   0  10    2.36    0.38
  -3   0 -10    0.38    0.28
  -3   0 -10    0.61    0.61
  -3   0 -10    0.89    0.19
  -3   0 -10    1.04    0.32
   3   0  10    0.42    0.39
   3   0  10    0.41    0.42
   3   0  10    0.68    0.52
  -4   0 -10    4.62    0.90
  -4   0 -10    5.10    0.46
  -4   0 -10    6.05    1.17
   4   0  10    4.81    0.52
   4   0  10    4.43    0.67
  -5   0 -10    1.58    0.35
  -5   0 -10    0.67    0.38
  -5   0 -10    1.76    0.88
   5   0  10    1.23    0.62
  -6   0 -10    1.60    1.04
   6   0  10    0.39    0.74
  -7   0 -10    2.03    1.17
   7   0  10    1.38    0.93
   7  -1 -10    1.06    1.38
  -7   1  10   -0.27    0.80
  -7   1  10    0.22    0.69
   6  -1 -10    1.69    1.30
  -6   1  10    1.62    0.93
  -6   1  10    1.48    0.68
   5  -1 -10   -0.58    1.09
  -5   1  10    0.44    0.66
  -5   1  10    0.29    0.64
  -5   1  10    0.56    0.75
  -5   1  10    0.72    0.52
   4  -1 -10    6.83    1.25
  -4   1  10    8.73    1.03
  -4   1  10    8.17    1.01
  -4   1  10    7.45    0.85
   3  -1 -10    5.58    0.93
   3  -1 -10    4.13    0.57
  -3   1  10    4.69    0.76
  -3   1  10    5.11    0.81
  -3   1  10    4.50    0.53
  -3   1  10    5.00    0.80
   2  -1 -10    7.47    1.19
   2  -1 -10    6.68    0.93
   2  -1 -10    8.03    0.77
  -2   1  10    7.18    0.87
  -2   1  10    6.85    0.73
  -2   1  10    6.73    0.75
   1  -1 -10   31.01    1.60
   1  -1 -10   34.10    1.97
   1  -1 -10   33.43    1.53
  -1   1  10   32.98    1.28
  -1   1  10   32.02    1.50
   0  -1 -10   13.65    0.92
   0  -1 -10   13.15    1.21
   0  -1 -10   13.24    1.10
   0   1  10   14.11    0.85
   0   1  10   12.46    0.91
   0   1  10   13.24    0.39
  -1  -1 -10    3.78    0.62
  -1  -1 -10    3.34    0.68
   1   1  10    4.34    0.65
   1   1  10    4.15    0.52
  -2  -1 -10   12.33    0.74
  -2  -1 -10   10.98    1.08
  -2  -1 -10   11.61    1.20
   2   1  10   11.83    0.71
   2   1  10   10.94    0.85
  -3  -1 -10    0.61    0.30
  -3  -1 -10    1.35    0.75
  -3  -1 -10    1.25    0.16
  -3  -1 -10    1.95    0.39
   3   1  10    1.83    0.57
   3   1  10    2.28    0.43
   3   1  10    0.76    0.41
  -4  -1 -10    0.01    0.28
  -4  -1 -10    0.01    0.81
   4   1  10    0.01    0.48
   4   1  10   -0.69    0.54
  -5  -1 -10    0.35    0.33
  -5  -1 -10    0.99    0.93
   5   1  10   -0.19    0.63
  -6  -1 -10    0.86    1.05
   6   1  10    0.28    0.84
  -7  -1 -10   -0.05    1.18
   7   1  10   -1.08    0.97
   7  -2 -10    0.78    1.38
  -7   2  10   -0.20    0.67
   6  -2 -10    2.50    1.36
  -6   2  10    2.07    0.74
  -6   2  10    2.37    0.71
  -6   2  10    0.77    0.78
   5  -2 -10   -0.05    1.18
  -5   2  10    1.13    0.81
  -5   2  10    1.00    0.70
  -5   2  10    1.00    0.68
   4  -2 -10   -0.39    0.96
  -4   2  10    0.16    0.74
  -4   2  10   -0.04    0.60
  -4   2  10    1.15    0.62
   3  -2 -10   13.36    1.28
   3  -2 -10   14.95    0.94
  -3   2  10   13.69    1.05
  -3   2  10   13.92    1.15
  -3   2  10   14.50    0.92
   2  -2 -10    4.88    0.78
   2  -2 -10    5.13    0.88
  -2   2  10    6.17    0.85
  -2   2  10    4.25    0.58
   1  -2 -10    5.03    0.77
   1  -2 -10    4.95    1.03
   1  -2 -10    4.44    0.83
  -1   2  10    4.71    0.75
  -1   2  10    4.80    0.77
   0  -2 -10   39.74    2.12
   0  -2 -10   36.88    1.89
   0  -2 -10   36.82    1.64
   0   2  10   35.65    1.62
   0   2  10   39.22    1.49
  -1  -2 -10    4.61    0.71
  -1  -2 -10    4.10    0.77
  -1  -2 -10    4.75    1.00
   1   2  10    3.64    0.75
   1   2  10    5.11    0.59
  -2  -2 -10    1.88    0.73
  -2  -2 -10    2.90    0.52
   2   2  10    2.90    0.66
   2   2  10    3.57    0.51
  -3  -2 -10    3.32    0.91
  -3  -2 -10    3.40    0.56
   3   2  10    4.13    0.58
   3   2  10    3.42    0.66
  -4  -2 -10   -0.60    0.87
  -4  -2 -10    0.00    0.26
   4   2  10   -0.02    0.57
   4   2  10   -0.69    0.57
  -5  -2 -10   -0.56    0.96
   5   2  10   -0.19    0.54
   5   2  10   -0.36    0.73
  -6  -2 -10   -0.53    1.11
   6   2  10    0.14    0.86
   6  -3 -10   -1.84    1.33
  -6   3  10    0.20    0.87
   5  -3 -10   12.43    1.62
  -5   3  10    9.81    1.01
  -5   3  10    8.67    1.32
   4  -3 -10    2.27    1.19
  -4   3  10    2.34    0.69
  -4   3  10    3.56    0.67
  -4   3  10    3.00    0.88
   3  -3 -10   -0.90    0.93
   3  -3 -10    0.55    0.48
  -3   3  10    0.16    0.57
  -3   3  10    0.10    0.73
   2  -3 -10   45.09    2.10
   2  -3 -10   44.87    2.05
  -2   3  10   41.02    1.76
  -2   3  10   46.87    2.02
  -2   3  10   46.04    1.46
   1  -3 -10    7.26    0.98
   1  -3 -10    5.66    0.99
  -1   3  10    6.04    0.92
  -1   3  10    6.24    0.89
  -1   3  10    6.69    0.56
   0  -3 -10    8.66    1.09
   0  -3 -10    6.80    1.06
   0  -3 -10    6.40    0.86
   0   3  10    5.78    0.84
   0   3  10    7.48    0.91
   0   3  10    6.17    0.36
  -1  -3 -10    9.59    1.13
  -1  -3 -10    7.58    1.28
  -1  -3 -10    8.60    0.86
   1   3  10    8.64    0.91
  -2  -3 -10    3.40    0.62
  -2  -3 -10    3.29    0.89
   2   3  10    3.15    0.73
  -3  -3 -10    0.25    0.29
  -3  -3 -10    0.40    0.88
  -3  -3 -10    0.94    0.50
   3   3  10    0.59    0.70
  -4  -3 -10    1.22    1.02
   4   3  10    1.70    0.72
   4   3  10    0.25    0.57
  -5  -3 -10   -0.88    1.08
   5   3  10   -0.26    0.70
   5   3  10   -0.27    0.74
  -6  -3 -10   -0.95    1.20
   6   3  10   -0.02    0.93
   6  -4 -10   -0.15    1.59
  -6   4  10    1.37    1.09
   5  -4 -10   -0.56    1.47
  -5   4  10    0.76    0.87
   4  -4 -10    7.90    1.65
  -4   4  10    8.35    1.30
  -4   4  10    9.03    1.24
  -4   4  10   11.47    1.28
   3  -4 -10    7.70    1.27
   3  -4 -10    5.84    0.99
  -3   4  10    4.78    0.82
  -3   4  10    6.35    0.97
  -3   4  10    5.36    1.10
   2  -4 -10   -0.18    0.57
   2  -4 -10   -0.57    0.89
  -2   4  10   -0.23    0.61
  -2   4  10    0.14    0.48
  -2   4  10   -0.76    0.76
   1  -4 -10   26.22    1.65
   1  -4 -10   27.93    1.62
  -1   4  10   29.02    1.55
  -1   4  10   27.37    1.46
  -1   4  10   28.38    1.03
   0  -4 -10    0.46    0.66
   0  -4 -10    0.37    0.71
   0   4  10    0.50    0.26
   0   4  10    0.02    0.65
   0   4  10    0.23    0.75
  -1  -4 -10    3.45    0.83
  -1  -4 -10    4.46    0.79
   1   4  10    4.61    0.85
  -2  -4 -10    4.78    1.00
  -2  -4 -10    5.59    0.91
   2   4  10    6.36    1.00
  -3  -4 -10    1.41    1.02
   3   4  10    2.29    0.88
  -4  -4 -10    0.38    1.11
   4   4  10    0.53    0.85
  -5  -4 -10   -0.73    1.21
   5   4  10   -0.79    0.72
   5   4  10   -0.39    0.83
  -6  -4 -10   -1.25    1.29
   6   4  10   -0.34    0.94
  -6   5  10    0.90    1.15
   5  -5 -10    0.39    1.59
  -5   5  10    0.83    1.05
  -5   5  10    0.83    0.95
   4  -5 -10   -0.93    1.38
  -4   5  10    0.61    0.91
  -4   5  10    0.10    0.82
  -4   5  10    0.57    0.95
   3  -5 -10    8.30    1.64
  -3   5  10    7.52    1.25
  -3   5  10    9.53    1.30
  -3   5  10   10.15    1.11
   2  -5 -10    1.08    0.68
   2  -5 -10    1.24    1.08
  -2   5  10    0.68    0.89
  -2   5  10    0.84    0.72
  -2   5  10    1.89    0.58
   1  -5 -10    1.56    0.74
   1  -5 -10    1.58    1.03
  -1   5  10    1.62    0.48
  -1   5  10    1.49    0.92
  -1   5  10    0.81    0.70
   0  -5 -10   -0.08    0.77
   0  -5 -10   -0.50    0.86
   0   5  10    0.12    0.32
   0   5  10   -0.54    0.86
   0   5  10   -0.95    0.70
  -1  -5 -10    2.67    0.92
  -1  -5 -10    2.07    0.86
   1   5  10    2.61    0.94
  -2  -5 -10   -0.23    0.89
  -2  -5 -10   -0.38    0.72
   2   5  10    0.16    0.94
  -3  -5 -10    0.49    1.08
   3   5  10    2.60    1.04
  -4  -5 -10   -0.10    1.14
   4   5  10    0.15    1.01
  -5  -5 -10   -1.52    1.26
   5   5  10   -0.95    0.81
   5   5  10   -1.14    1.01
   5  -6 -10   -1.78    1.79
  -5   6  10    1.27    1.00
  -5   6  10   -0.63    1.03
   4  -6 -10    0.93    1.69
  -4   6  10    1.56    0.90
  -4   6  10    1.03    0.97
   3  -6 -10    0.17    1.47
  -3   6  10    0.40    0.74
  -3   6  10    0.55    0.82
  -3   6  10   -0.09    1.02
   2  -6 -10    8.03    1.53
   2  -6 -10    5.01    1.03
  -2   6  10    7.32    1.22
  -2   6  10    4.93    0.99
  -2   6  10    6.55    1.02
   1  -6 -10    0.89    0.86
   1  -6 -10    0.19    1.18
  -1   6  10    0.97    1.05
  -1   6  10    1.42    0.51
  -1   6  10    0.43    0.81
   0  -6 -10   -0.24    0.87
   0  -6 -10    0.45    1.07
   0   6  10    0.42    1.03
   0   6  10    0.35    0.40
  -1  -6 -10   -0.02    0.97
  -1  -6 -10    0.67    0.97
   1   6  10    0.45    1.05
  -2  -6 -10    1.95    1.14
  -2  -6 -10    1.70    0.98
   2   6  10    3.70    1.20
  -3  -6 -10   -0.73    1.12
   3   6  10   -0.45    1.22
  -4  -6 -10    1.17    1.32
   4   6  10    2.26    1.28
  -5  -6 -10   -2.16    1.30
   5   6  10   -0.63    0.87
   5   6  10   -0.27    1.17
   4  -7 -10    0.06    1.83
  -4   7  10    0.93    1.01
  -4   7  10    0.75    0.95
   3  -7 -10    1.39    1.75
  -3   7  10    2.11    0.85
  -3   7  10    0.67    1.21
  -3   7  10    1.29    1.01
   2  -7 -10   -0.61    1.49
   2  -7 -10   -0.52    1.04
  -2   7  10   -0.48    1.16
  -2   7  10   -0.53    0.71
  -2   7  10   -0.28    0.92
   1  -7 -10    1.68    1.03
   1  -7 -10   -0.32    1.35
  -1   7  10   -0.12    0.91
  -1   7  10    1.83    1.27
  -1   7  10    1.97    0.61
   0  -7 -10    1.40    1.30
   0  -7 -10    1.17    1.10
   0   7  10    2.02    1.22
  -1  -7 -10   -0.30    1.09
  -1  -7 -10   -1.16    1.17
   1   7  10   -0.57    1.25
  -2  -7 -10    1.61    1.31
  -2  -7 -10    1.18    1.16
  -3  -7 -10   -0.88    1.30
   3   7  10   -0.76    1.33
  -4  -7 -10   -2.60    1.39
   3  -8 -10    0.05    1.87
  -3   8  10    1.45    1.03
  -3   8  10    0.16    1.07
   2  -8 -10    0.97    1.83
  -2   8  10   -0.47    1.08
  -2   8  10    0.61    1.38
   1  -8 -10   -0.77    1.22
   1  -8 -10   -0.44    1.57
  -1   8  10   -0.04    1.40
   0  -8 -10   -0.16    1.22
   0  -8 -10   -1.01    1.52
   0   8  10   -0.11    1.42
  -1  -8 -10   -1.00    1.20
  -2  -8 -10   -1.20    1.34
   2   8  10   -0.19    1.55
  -3  -8 -10   -0.68    1.44
  -1   9  10   -0.17    1.54
   1   9 -11   -0.81    0.89
   0   9 -11    0.09    0.85
  -1   9 -11    0.48    0.90
  -2   9 -11   -0.81    0.87
  -3   9 -11   -0.02    0.94
  -3   9 -11   -0.67    0.63
   2   8 -11    0.05    0.68
   1   8 -11    0.37    0.83
   0   8 -11   -0.25    0.78
  -1   8 -11    1.03    0.77
  -2   8 -11    0.35    0.78
  -3   8 -11    0.15    0.80
  -4   8 -11   -0.06    0.58
  -4   8 -11    1.34    0.90
   3   7 -11   -0.56    0.54
   2   7 -11    0.29    0.65
   1   7 -11   -0.16    0.58
   1   7 -11   -0.13    0.70
  -1  -7  11    0.17    0.87
   0   7 -11    0.71    0.63
  -1   7 -11    2.80    0.71
  -1   7 -11    3.21    0.68
  -2   7 -11    2.64    0.68
  -3   7 -11    0.41    0.69
  -4   7 -11    0.22    0.81
  -5   7 -11   -0.85    0.92
  -4  -6  11    0.45    1.13
   3   6 -11   -0.65    0.52
  -3  -6  11    0.10    1.06
   2   6 -11    1.65    0.65
  -2  -6  11    4.02    0.93
   1   6 -11    0.03    0.54
   1   6 -11   -0.16    0.51
  -1  -6  11   -0.05    0.94
  -1  -6  11   -0.33    0.77
   0   6 -11    1.60    0.53
   0   6 -11    0.95    0.55
  -1   6 -11    0.40    0.48
  -1   6 -11    0.06    0.52
  -2   6 -11    3.29    0.57
  -3   6 -11    0.72    0.57
  -3   6 -11    0.24    0.57
  -4   6 -11    0.19    0.74
  -5   6 -11    0.31    0.68
   5  -6  11   -0.36    0.67
  -6  -5  11   -0.77    0.88
   5   5 -11    2.69    1.21
   4   5 -11   -0.71    0.45
  -4  -5  11    1.13    0.98
  -4  -5  11   -0.50    0.62
   3   5 -11    1.15    0.87
  -3  -5  11    1.32    0.91
  -3  -5  11    0.90    0.92
   2   5 -11    1.28    0.76
   2   5 -11   -0.03    0.55
  -2  -5  11    1.79    0.85
  -2  -5  11    0.71    0.40
  -2  -5  11    0.93    0.79
   1   5 -11    0.27    0.45
   1   5 -11    1.44    0.70
   1   5 -11    0.34    0.48
  -1  -5  11    1.36    0.72
  -1  -5  11    1.32    0.81
   0   5 -11    1.18    0.63
   0   5 -11    0.58    0.43
   0   5 -11    0.02    0.44
   0  -5  11    0.49    0.73
  -1   5 -11    0.72    0.40
  -1   5 -11    0.22    0.40
   1  -5  11    1.34    0.78
  -2   5 -11    0.35    0.46
  -2   5 -11    0.43    0.56
  -2   5 -11   -0.01    0.41
   2  -5  11    0.70    0.79
  -3   5 -11    1.29    0.51
   3  -5  11    1.07    0.48
  -4   5 -11    0.07    0.53
  -4   5 -11    0.80    0.45
   4  -5  11    0.58    0.60
  -5   5 -11    1.19    0.54
   5  -5  11    0.60    0.77
  -6   5 -11    0.09    0.63
   6  -5  11   -0.32    0.92
   6   4 -11    2.04    1.29
   5   4 -11    0.67    1.08
  -5  -4  11    1.81    0.95
   4   4 -11    2.55    0.97
   4   4 -11    0.31    0.46
  -4  -4  11    2.20    0.90
  -4  -4  11    0.80    0.63
   3   4 -11    2.69    0.84
  -3  -4  11    0.82    0.76
  -3  -4  11    1.72    0.52
  -3  -4  11    2.22    0.84
   2   4 -11   -0.39    0.45
   2   4 -11    0.92    0.64
  -2  -4  11    0.56    0.71
  -2  -4  11    0.08    0.68
  -2  -4  11   -0.29    0.35
   1   4 -11    7.75    0.82
   1   4 -11    7.25    0.73
  -1  -4  11    7.98    0.93
  -1  -4  11    6.55    0.91
  -1  -4  11    6.08    0.42
   0   4 -11    5.43    0.76
   0   4 -11    4.60    0.59
   0  -4  11    4.16    0.82
  -1   4 -11    4.60    0.69
  -1   4 -11    3.55    0.53
   1  -4  11    4.78    0.81
  -2   4 -11    0.28    0.34
  -2   4 -11    0.90    0.47
  -2   4 -11    0.06    0.37
   2  -4  11    0.53    0.32
   2  -4  11    1.02    0.64
  -3   4 -11    0.63    0.44
  -3   4 -11    1.22    0.41
   3  -4  11    2.43    0.68
   3  -4  11    1.16    0.46
  -4   4 -11   -0.09    0.37
  -4   4 -11    0.03    0.46
   4  -4  11    1.81    0.69
   4  -4  11    0.12    0.55
  -5   4 -11    0.34    0.45
   5  -4  11   -0.20    0.68
  -6   4 -11    1.13    0.53
   6  -4  11    1.88    0.88
   6   3 -11    3.07    1.26
  -6  -3  11    0.58    1.09
   5   3 -11    2.87    1.07
  -5  -3  11    1.06    0.77
  -5  -3  11    3.16    0.92
   4   3 -11    0.27    0.83
  -4  -3  11    0.29    0.58
  -4  -3  11    0.70    0.78
   3   3 -11    7.18    0.99
  -3  -3  11    6.15    0.75
  -3  -3  11    6.52    0.98
  -3  -3  11    6.58    1.01
   2   3 -11    7.04    0.86
  -2  -3  11    6.44    0.89
  -2  -3  11    5.47    0.59
  -2  -3  11    6.20    0.92
   1   3 -11    1.21    0.54
   1   3 -11   -0.03    0.35
  -1  -3  11    0.63    0.57
  -1  -3  11    0.69    0.57
  -1  -3  11    0.49    0.27
   0   3 -11    5.38    0.68
   0   3 -11    5.27    0.50
   0  -3  11    5.00    0.74
  -1   3 -11    3.13    0.61
  -1   3 -11    0.92    0.36
  -1   3 -11    1.77    0.27
   1  -3  11    2.98    0.59
  -2   3 -11    2.97    0.57
  -2   3 -11    1.73    0.30
  -2   3 -11    0.81    0.37
   2  -3  11    3.11    0.64
   2  -3  11    2.43    0.53
   2  -3  11    1.53    0.35
  -3   3 -11    0.24    0.38
  -3   3 -11    0.26    0.32
   3  -3  11    0.14    0.42
   3  -3  11    1.19    0.68
  -4   3 -11    4.89    0.81
  -4   3 -11    3.85    0.59
   4  -3  11    5.38    0.73
   4  -3  11    4.49    0.67
  -5   3 -11    2.07    0.42
  -5   3 -11    1.36    0.54
   5  -3  11    2.41    0.72
   6  -3  11   -0.21    0.87
   6   2 -11    2.67    1.21
  -6  -2  11    0.21    0.82
   5   2 -11    2.44    1.06
  -5  -2  11    1.98    0.80
  -5  -2  11    0.43    0.70
  -5  -2  11    1.48    0.85
   4   2 -11    3.91    0.93
  -4  -2  11    2.59    0.63
  -4  -2  11    2.93    0.80
  -4  -2  11    2.87    0.82
   3   2 -11    0.47    0.67
   3   2 -11   -0.19    0.44
  -3  -2  11    0.38    0.46
  -3  -2  11    0.10    0.66
  -3  -2  11    0.28    0.46
  -3  -2  11    0.25    0.62
   2   2 -11    6.55    0.76
   2   2 -11    6.44    0.82
   2   2 -11    6.03    1.38
  -2  -2  11    5.96    0.58
  -2  -2  11    5.76    0.81
  -2  -2  11    5.91    0.63
  -2  -2  11    6.38    0.88
   1   2 -11   11.24    1.37
   1   2 -11   11.37    0.89
   1   2 -11   12.62    0.88
  -1  -2  11   11.68    0.89
  -1  -2  11   11.52    0.88
  -1  -2  11   12.52    0.65
   0   2 -11   -0.10    0.28
   0   2 -11    0.36    0.45
   0  -2  11    0.36    0.29
   0  -2  11    0.09    0.49
  -1   2 -11   12.49    1.25
  -1   2 -11   14.10    0.85
  -1   2 -11   14.30    0.54
  -1   2 -11   13.07    0.52
   1  -2  11   14.41    0.65
   1  -2  11   14.19    0.92
   1  -2  11   13.18    0.86
   1  -2  11   13.90    0.52
  -2   2 -11    6.14    0.61
  -2   2 -11    4.99    1.08
  -2   2 -11    5.57    0.36
  -2   2 -11    5.03    0.40
   2  -2  11    5.45    0.46
   2  -2  11    5.23    0.82
  -3   2 -11    0.04    0.35
  -3   2 -11    0.08    0.23
   3  -2  11    0.25    0.62
   3  -2  11    0.04    0.43
  -4   2 -11    1.35    0.45
  -4   2 -11    1.87    0.33
   4  -2  11    3.23    0.59
   4  -2  11    2.29    0.50
  -5   2 -11    2.49    0.91
  -5   2 -11    2.31    0.44
   5  -2  11    2.60    0.71
  -6   2 -11    3.76    1.06
   6  -2  11    1.91    0.80
  -7   2 -11    3.32    1.18
   6   1 -11    2.56    1.28
  -6  -1  11   -0.17    0.67
  -6  -1  11    0.41    0.80
   5   1 -11    0.66    1.03
  -5  -1  11    1.02    0.79
  -5  -1  11   -0.27    0.60
  -5  -1  11    0.56    0.74
   4   1 -11    6.86    1.07
  -4  -1  11    5.35    0.97
  -4  -1  11    3.39    0.73
  -4  -1  11    5.19    0.76
  -4  -1  11    5.34    0.73
   3   1 -11    8.85    1.43
   3   1 -11    7.85    0.60
   3   1 -11    8.94    1.05
  -3  -1  11    8.32    0.73
  -3  -1  11    8.83    0.99
  -3  -1  11    8.33    0.87
  -3  -1  11    9.03    0.83
   2   1 -11    2.42    0.67
   2   1 -11    1.62    0.47
  -2  -1  11    1.84    0.44
  -2  -1  11    1.59    0.42
  -2  -1  11    2.12    0.67
  -2  -1  11    2.12    0.58
   1   1 -11   18.51    1.16
   1   1 -11   18.27    1.08
   1   1 -11   17.48    0.81
   1   1 -11   19.68    1.56
  -1  -1  11   18.63    0.67
  -1  -1  11   18.76    1.07
  -1  -1  11   19.55    0.81
  -1  -1  11   17.10    0.99
  -1  -1  11   18.90    0.85
   0   1 -11    6.61    1.10
   0   1 -11    7.78    0.74
   0   1 -11    7.83    0.87
   0   1 -11    6.99    0.46
   0  -1  11    7.23    0.51
   0  -1  11    7.28    0.59
   0  -1  11    7.66    0.44
   0  -1  11    7.29    0.77
  -1   1 -11    0.13    0.14
  -1   1 -11    0.03    0.44
  -1   1 -11   -0.13    0.26
  -1   1 -11    0.43    0.21
  -1   1 -11    0.28    0.43
   1  -1  11   -0.35    0.52
   1  -1  11    0.21    0.27
   1  -1  11    0.01    0.22
   1  -1  11   -0.87    0.43
  -2   1 -11    3.13    0.65
  -2   1 -11    3.98    0.38
  -2   1 -11    3.33    0.28
  -2   1 -11    3.72    0.57
   2  -1  11    4.73    0.70
   2  -1  11    3.48    0.57
   2  -1  11    3.05    0.43
  -3   1 -11    1.08    0.62
  -3   1 -11    1.26    0.36
  -3   1 -11    0.50    0.34
  -3   1 -11    0.80    0.21
   3  -1  11   -0.04    0.45
   3  -1  11    0.54    0.58
   3  -1  11    1.22    0.46
  -4   1 -11    0.12    0.25
  -4   1 -11    0.20    0.39
  -4   1 -11    0.49    0.72
   4  -1  11    0.44    0.43
   4  -1  11    0.29    0.54
  -5   1 -11    0.43    0.37
  -5   1 -11    1.61    0.87
   5  -1  11    0.79    0.69
  -6   1 -11    1.72    1.04
   6  -1  11   -0.06    0.81
  -7   1 -11    3.47    1.22
   7  -1  11   -0.58    0.98
   7   0 -11    2.01    1.45
  -7   0  11    0.19    0.88
  -7   0  11   -0.37    0.71
   6   0 -11    6.49    1.44
  -6   0  11    3.74    1.00
  -6   0  11    2.44    0.71
  -6   0  11    2.73    0.83
   5   0 -11    6.03    1.29
  -5   0  11    2.87    0.62
  -5   0  11    5.42    0.95
  -5   0  11    2.46    0.74
  -5   0  11    2.36    0.72
   4   0 -11    1.70    0.94
  -4   0  11    1.43    0.77
  -4   0  11    1.93    0.66
  -4   0  11    1.59    0.63
  -4   0  11    1.78    0.57
   3   0 -11    6.39    0.95
   3   0 -11    3.63    0.57
  -3   0  11    3.84    0.56
  -3   0  11    4.82    0.81
  -3   0  11    5.02    0.83
  -3   0  11    4.33    0.68
   2   0 -11    3.51    0.74
   2   0 -11    4.14    0.82
  -2   0  11    3.72    0.48
  -2   0  11    4.33    0.85
  -2   0  11    4.02    0.68
  -2   0  11    4.32    0.63
   1   0 -11    0.26    0.56
   1   0 -11   -0.14    0.46
   1   0 -11   -0.07    0.31
  -1   0  11    0.25    0.32
  -1   0  11   -0.08    0.56
  -1   0  11    0.33    0.17
  -1   0  11    0.32    0.39
   0   0 -11    9.75    0.57
   0   0 -11    8.88    1.02
   0   0 -11    9.85    0.83
   0   0 -11    9.16    1.16
   0   0  11    9.68    0.73
   0   0  11    9.88    0.85
   0   0  11   10.05    0.40
   0   0  11    9.44    0.56
  -1   0 -11   12.38    0.81
  -1   0 -11   10.82    1.07
  -1   0 -11   11.95    0.57
  -1   0 -11    9.78    1.12
   1   0  11   11.98    0.55
   1   0  11   10.76    0.87
   1   0  11   11.20    0.80
  -2   0 -11   -0.04    0.41
  -2   0 -11    0.02    0.56
  -2   0 -11   -0.09    0.27
   2   0  11   -0.50    0.43
   2   0  11   -0.73    0.59
   2   0  11   -0.19    0.34
  -3   0 -11    3.31    0.48
  -3   0 -11    3.50    0.29
  -3   0 -11    3.03    0.78
   3   0  11    3.80    0.56
   3   0  11    3.44    0.50
   3   0  11    3.39    0.64
  -4   0 -11    1.11    0.26
  -4   0 -11    1.49    0.85
  -4   0 -11    0.50    0.36
   4   0  11    1.15    0.48
   4   0  11    1.11    0.60
  -5   0 -11    0.69    0.42
  -5   0 -11    1.19    0.98
   5   0  11    0.78    0.65
  -6   0 -11    1.38    1.00
   6   0  11   -0.51    0.78
  -7   0 -11    1.64    1.17
   7  -1 -11    0.69    1.56
  -7   1  11   -0.07    0.84
  -7   1  11   -0.10    0.73
   6  -1 -11   -0.12    1.32
  -6   1  11   -0.01    0.74
  -6   1  11    0.03    0.62
  -6   1  11    0.31    0.80
   5  -1 -11    2.10    1.25
  -5   1  11    3.08    0.91
  -5   1  11    1.72    0.73
  -5   1  11    2.37    0.82
  -5   1  11    2.76    0.66
   4  -1 -11    8.13    1.35
  -4   1  11    8.29    0.78
  -4   1  11    8.97    1.09
  -4   1  11    8.33    0.91
  -4   1  11    8.52    1.10
   3  -1 -11    1.84    0.44
   3  -1 -11    2.23    0.86
  -3   1  11    1.65    0.80
  -3   1  11    2.10    0.63
  -3   1  11    1.98    0.57
   2  -1 -11    5.25    0.92
   2  -1 -11    5.30    1.25
   2  -1 -11    5.39    0.80
  -2   1  11    4.93    0.79
  -2   1  11    5.65    0.93
   1  -1 -11   16.46    1.12
   1  -1 -11   17.21    1.54
   1  -1 -11   14.84    1.19
  -1   1  11   16.62    0.96
  -1   1  11   16.02    1.11
   0  -1 -11    0.11    0.31
   0  -1 -11    0.23    0.54
   0  -1 -11    0.03    0.54
   0   1  11    0.03    0.45
   0   1  11    0.26    0.60
  -1  -1 -11   19.45    1.43
  -1  -1 -11   19.60    1.06
  -1  -1 -11   19.33    1.47
   1   1  11   19.50    0.99
   1   1  11   18.27    1.11
  -2  -1 -11    3.44    0.81
  -2  -1 -11    3.39    0.61
   2   1  11    3.15    0.71
   2   1  11    3.63    0.55
   2   1  11    3.70    0.35
  -3  -1 -11    0.22    0.30
  -3  -1 -11    0.71    0.38
  -3  -1 -11    0.88    0.78
  -3  -1 -11    0.59    0.12
   3   1  11    0.19    0.42
   3   1  11   -0.26    0.62
  -4  -1 -11   -0.42    0.83
  -4  -1 -11   -0.05    0.31
   4   1  11    0.16    0.55
   4   1  11   -0.21    0.56
  -5  -1 -11    0.55    0.37
  -5  -1 -11    1.30    1.04
   5   1  11    0.28    0.67
  -6  -1 -11    0.02    1.08
   6   1  11   -0.41    0.85
   6  -2 -11    1.04    1.42
  -6   2  11    0.57    0.64
  -6   2  11    1.34    0.94
   5  -2 -11   -0.26    1.26
  -5   2  11    0.83    0.70
  -5   2  11    0.97    0.80
   4  -2 -11    3.53    1.21
  -4   2  11    3.33    0.72
  -4   2  11    3.44    0.92
  -4   2  11    2.58    0.71
   3  -2 -11    7.11    0.81
   3  -2 -11    8.62    1.15
  -3   2  11    6.08    0.84
  -3   2  11    5.18    1.06
  -3   2  11    5.83    0.98
   2  -2 -11    2.70    0.60
   2  -2 -11    2.85    0.89
  -2   2  11    2.56    0.81
  -2   2  11    2.41    0.59
   1  -2 -11   12.40    1.43
   1  -2 -11   11.73    1.09
   1  -2 -11   11.60    1.14
  -1   2  11   11.59    1.08
  -1   2  11   12.78    0.96
   0  -2 -11   24.75    1.74
   0  -2 -11   22.55    1.55
   0  -2 -11   24.26    1.33
   0   2  11   24.91    1.22
   0   2  11   23.46    1.32
  -1  -2 -11    0.96    0.57
  -1  -2 -11    0.48    0.34
  -1  -2 -11    0.79    0.69
   1   2  11   -0.01    0.67
  -2  -2 -11    8.15    0.79
  -2  -2 -11    7.70    1.18
  -2  -2 -11    9.45    1.39
   2   2  11    6.83    0.91
   2   2  11    8.64    0.67
  -3  -2 -11    4.13    0.63
  -3  -2 -11    4.11    1.03
   3   2  11    4.05    0.76
  -4  -2 -11   -0.44    0.92
  -4  -2 -11    0.21    0.30
   4   2  11    0.01    0.61
   4   2  11   -0.52    0.59
  -5  -2 -11    0.68    1.13
   5   2  11   -0.30    0.77
   5   2  11    1.22    0.61
  -6  -2 -11    0.33    1.22
   6   2  11   -0.43    0.82
   6  -3 -11   -0.17    1.54
  -6   3  11    0.93    0.84
   5  -3 -11    1.88    1.48
  -5   3  11    1.53    0.80
  -5   3  11    3.51    0.77
   4  -3 -11   -0.78    1.20
  -4   3  11   -0.16    0.89
  -4   3  11    0.11    0.68
   3  -3 -11    2.94    0.63
   3  -3 -11    3.09    1.14
  -3   3  11    3.81    0.95
  -3   3  11    1.73    0.67
   2  -3 -11   -1.04    0.87
   2  -3 -11    0.87    0.60
  -2   3  11   -0.07    0.56
  -2   3  11   -0.26    0.79
  -2   3  11    0.44    0.45
   1  -3 -11   10.06    1.11
   1  -3 -11    9.41    1.18
  -1   3  11    9.58    0.61
  -1   3  11   10.15    1.13
  -1   3  11   10.17    1.04
   0  -3 -11   22.82    1.66
   0  -3 -11   25.15    1.42
   0  -3 -11   26.99    1.77
   0   3  11   25.42    1.36
   0   3  11   23.89    1.41
   0   3  11   23.49    0.69
  -1  -3 -11    8.76    1.44
  -1  -3 -11    9.31    1.28
  -1  -3 -11    8.18    0.93
   1   3  11    8.52    1.02
  -2  -3 -11   -0.41    0.81
  -2  -3 -11    0.02    0.32
  -2  -3 -11   -0.13    0.55
   2   3  11   -0.40    0.74
  -3  -3 -11    1.47    1.02
  -3  -3 -11    0.98    0.34
   3   3  11    3.07    0.84
  -4  -3 -11   -0.45    1.05
   4   3  11    0.03    0.77
   4   3  11   -0.08    0.62
  -5  -3 -11   -0.81    1.13
   5   3  11   -0.12    0.74
   5   3  11   -0.75    0.76
  -6  -3 -11   -0.86    1.29
   6   3  11   -1.13    0.93
   6  -4 -11    0.03    1.75
  -6   4  11    1.60    1.13
   5  -4 -11    1.27    1.63
  -5   4  11    2.20    0.95
  -5   4  11    1.54    0.87
   4  -4 -11    8.57    1.63
  -4   4  11    7.42    1.14
  -4   4  11    6.57    1.28
  -4   4  11    4.91    0.89
   3  -4 -11    1.53    0.68
   3  -4 -11    1.46    1.25
  -3   4  11    0.61    0.92
  -3   4  11    2.52    0.64
  -3   4  11    0.79    0.71
   2  -4 -11    8.99    1.43
   2  -4 -11    9.78    1.19
  -2   4  11   10.01    1.26
  -2   4  11   11.93    0.87
  -2   4  11    9.19    1.17
   1  -4 -11    7.72    1.22
   1  -4 -11    6.52    1.23
  -1   4  11    6.90    1.08
  -1   4  11    5.87    1.10
  -1   4  11    8.48    0.65
   0  -4 -11   -0.73    0.77
   0  -4 -11    0.40    0.76
   0   4  11   -0.25    0.83
   0   4  11   -1.07    0.66
   0   4  11   -0.10    0.23
  -1  -4 -11   24.02    1.43
  -1  -4 -11   23.77    1.93
   1   4  11   23.66    1.46
  -2  -4 -11    0.22    0.68
  -2  -4 -11    0.35    0.91
   2   4  11    0.30    0.86
  -3  -4 -11   -0.70    1.04
   3   4  11   -0.37    0.91
  -4  -4 -11   -0.61    1.17
   4   4  11   -0.42    0.88
  -5  -4 -11   -1.17    1.30
   5   4  11   -0.59    0.74
   5   4  11    0.80    0.93
  -6  -4 -11   -1.17    1.37
   6   4  11   -1.46    0.98
   5  -5 -11   -1.03    1.72
  -5   5  11    0.84    1.07
  -5   5  11   -0.38    0.93
   4  -5 -11    1.43    1.58
  -4   5  11    2.50    1.00
  -4   5  11    2.98    0.86
  -4   5  11    2.75    1.09
   3  -5 -11    4.99    0.94
   3  -5 -11    6.46    1.56
  -3   5  11    6.09    1.15
  -3   5  11    6.45    0.79
  -3   5  11    4.52    0.94
   2  -5 -11    0.88    1.21
   2  -5 -11    1.32    0.78
  -2   5  11    2.40    0.58
  -2   5  11    1.31    0.77
  -2   5  11    1.56    1.03
   1  -5 -11    1.53    0.82
   1  -5 -11    2.61    1.12
  -1   5  11    2.13    0.87
  -1   5  11    1.92    0.47
  -1   5  11    2.65    1.05
   0  -5 -11    3.38    0.94
   0  -5 -11    4.53    1.07
   0   5  11    3.85    0.95
   0   5  11    3.92    1.03
   0   5  11    3.46    0.48
  -1  -5 -11   -0.04    0.88
  -1  -5 -11    0.03    0.92
   1   5  11   -0.45    0.95
  -2  -5 -11    5.53    1.11
  -2  -5 -11    4.93    1.24
   2   5  11    4.96    1.10
  -3  -5 -11   -0.98    1.13
   3   5  11    0.31    1.06
  -4  -5 -11   -0.85    1.25
   4   5  11    0.35    1.07
  -5  -5 -11   -1.94    1.36
   5   5  11   -0.34    1.08
   5   5  11   -0.07    0.86
  -5   6  11    1.06    1.02
   4  -6 -11   -1.45    1.74
  -4   6  11   -0.42    0.88
  -4   6  11    0.54    0.94
   3  -6 -11    0.01    1.59
  -3   6  11    1.28    0.75
  -3   6  11    1.09    0.85
  -3   6  11    0.16    1.13
   2  -6 -11    5.81    1.13
   2  -6 -11    5.26    1.55
  -2   6  11    7.19    0.99
  -2   6  11    7.41    1.32
  -2   6  11    4.58    0.99
   1  -6 -11    0.85    1.31
   1  -6 -11    0.38    0.89
  -1   6  11   -0.46    0.94
  -1   6  11   -0.06    1.16
  -1   6  11    0.63    0.51
   0  -6 -11    1.48    1.03
   0  -6 -11    2.86    1.27
   0   6  11    3.43    1.21
  -1  -6 -11   -0.28    1.04
  -1  -6 -11   -0.74    1.01
   1   6  11   -0.87    1.13
  -2  -6 -11   -0.65    1.04
  -2  -6 -11    0.29    0.99
   2   6  11   -0.37    1.20
  -3  -6 -11   -0.04    1.19
   3   6  11    0.48    1.22
  -4  -6 -11   -1.12    1.37
   4   6  11    0.77    1.28
  -4   7  11    0.42    0.94
  -4   7  11    2.37    1.13
   3  -7 -11   -1.46    1.83
  -3   7  11   -0.78    0.82
  -3   7  11    0.06    1.26
  -3   7  11    0.13    1.02
   2  -7 -11   -1.59    1.58
   2  -7 -11   -0.78    1.08
  -2   7  11   -0.16    1.05
  -2   7  11    0.89    1.28
   1  -7 -11    1.25    1.13
   1  -7 -11    1.59    1.57
  -1   7  11    0.24    1.01
  -1   7  11    2.93    1.33
   0  -7 -11   -0.92    1.06
   0  -7 -11   -0.44    1.36
   0   7  11    0.71    1.33
  -1  -7 -11   -0.52    1.27
  -1  -7 -11   -0.90    1.13
   1   7  11   -1.36    1.33
  -2  -7 -11   -0.55    1.29
   2   7  11   -0.24    1.35
  -3  -7 -11   -1.47    1.43
  -4  -7 -11   -2.36    1.50
   2  -8 -11   -1.43    1.90
  -2   8  11   -0.64    1.06
  -2   8  11   -0.66    1.41
   1  -8 -11   -0.20    1.80
   1  -8 -11   -0.59    1.32
  -1   8  11   -0.12    1.46
   0  -8 -11    0.60    1.36
   0   8  11    1.16    1.50
  -1  -8 -11   -1.57    1.36
   1   8  11   -0.73    1.48
  -2  -8 -11   -2.39    1.46
   1   9 -12    1.59    1.00
   0   9 -12    0.03    0.89
  -1   9 -12   -0.22    0.89
  -2   9 -12   -0.68    0.85
   2   8 -12   -0.46    0.72
  -2  -8  12    0.70    1.09
   1   8 -12   -0.45    0.85
   0   8 -12   -0.28    0.78
  -1   8 -12    0.23    0.76
  -2   8 -12   -0.13    0.76
  -3   8 -12   -0.07    0.82
  -4   8 -12   -0.47    0.86
   3   7 -12   -1.08    0.58
   2   7 -12   -0.51    0.68
   1   7 -12   -0.49    0.71
   1   7 -12    0.27    0.65
  -1  -7  12    0.27    0.92
   0   7 -12   -0.22    0.61
  -1   7 -12    0.30    0.62
  -2   7 -12    1.83    0.67
   3   6 -12   -0.90    0.54
  -3  -6  12    0.40    1.04
  -3  -6  12    1.32    1.19
   2   6 -12   -0.49    0.64
  -2  -6  12   -0.22    0.91
   1   6 -12   -0.20    0.55
   1   6 -12   -0.04    0.58
  -1  -6  12    0.45    0.84
   0   6 -12    0.72    0.54
   0   6 -12    1.15    0.55
  -1   6 -12    0.15    0.50
  -2   6 -12    2.09    0.57
  -3   6 -12    0.55    0.63
  -3   6 -12    0.77    0.58
  -4   6 -12    0.35    0.69
   5   5 -12    2.70    1.28
   4   5 -12    0.62    1.09
   4   5 -12   -0.84    0.50
  -4  -5  12    1.06    1.06
  -4  -5  12   -0.21    0.63
   3   5 -12    2.36    0.98
  -3  -5  12    0.88    0.94
  -3  -5  12    1.65    1.03
  -2  -5  12    1.80    0.94
  -2  -5  12    1.71    0.86
   1   5 -12   -0.11    0.50
   1   5 -12   -0.23    0.49
  -1  -5  12    0.56    0.86
  -1  -5  12    0.05    0.77
   0   5 -12   -0.16    0.42
   0   5 -12   -0.33    0.45
  -1   5 -12    2.08    0.44
  -1   5 -12    1.17    0.51
   1  -5  12    2.86    0.86
  -2   5 -12   -0.19    0.41
  -2   5 -12    0.00    0.46
   2  -5  12    0.49    0.85
  -3   5 -12    8.75    0.79
  -3   5 -12    8.05    1.78
   3  -5  12    7.03    0.67
  -4   5 -12    0.35    0.62
   4  -5  12   -0.58    0.59
  -5   5 -12    0.07    0.51
   5  -5  12   -0.78    0.75
   6  -5  12   -0.86    0.94
   5   4 -12    2.70    1.21
  -5  -4  12    3.22    1.05
   4   4 -12    2.10    1.06
   4   4 -12   -0.41    0.50
  -4  -4  12    0.24    0.62
  -4  -4  12    1.72    0.97
   3   4 -12   -0.65    0.51
   3   4 -12    1.57    0.86
  -3  -4  12    0.51    0.87
  -3  -4  12    1.28    0.86
   2   4 -12    0.22    0.48
   2   4 -12    2.82    0.81
  -2  -4  12    1.82    0.82
  -2  -4  12    0.90    0.75
  -2  -4  12    1.29    0.39
   1   4 -12    4.43    0.85
  -1  -4  12    3.08    0.77
  -1  -4  12    3.46    0.82
  -1  -4  12    2.39    0.38
   0   4 -12    0.21    0.36
   0   4 -12   -0.16    0.39
   0   4 -12    0.66    0.59
   0  -4  12    0.67    0.69
  -1   4 -12    0.01    0.40
  -1   4 -12    0.41    0.32
  -1   4 -12    1.01    0.55
   1  -4  12    1.03    0.70
  -2   4 -12    3.50    0.70
  -2   4 -12    1.97    0.37
  -2   4 -12    0.87    0.44
   2  -4  12    3.63    0.81
   2  -4  12    1.94    0.38
  -3   4 -12    0.12    0.47
  -3   4 -12    0.20    0.37
   3  -4  12    1.40    0.76
   3  -4  12    0.04    0.46
  -4   4 -12    0.87    0.54
  -4   4 -12    1.09    0.49
   4  -4  12    1.64    0.62
  -5   4 -12    0.36    0.45
  -5   4 -12    0.56    0.59
   5  -4  12    0.53    0.74
   6  -4  12   -0.48    0.89
   6   3 -12    3.91    1.35
  -6  -3  12    1.08    0.88
   5   3 -12    2.17    1.16
  -5  -3  12    2.69    0.93
   4   3 -12    1.59    0.94
  -4  -3  12    2.02    0.90
  -4  -3  12    0.53    0.89
  -4  -3  12    0.98    0.63
   3   3 -12    4.45    0.89
  -3  -3  12    3.52    0.82
  -3  -3  12    3.79    0.87
  -3  -3  12    2.71    0.55
   2   3 -12    4.38    0.90
   2   3 -12    3.85    0.72
   2   3 -12    1.02    0.51
  -2  -3  12    2.08    0.74
  -2  -3  12    2.98    0.78
  -2  -3  12    2.30    0.42
   1   3 -12    2.55    0.64
   1   3 -12    0.70    0.42
  -1  -3  12    1.54    0.31
  -1  -3  12    1.15    0.68
  -1  -3  12    1.49    0.67
   0   3 -12    6.73    0.77
   0   3 -12    5.18    1.26
   0   3 -12    6.20    0.54
   0  -3  12    6.70    0.86
  -1   3 -12    0.80    0.27
  -1   3 -12    0.42    0.36
  -1   3 -12    2.29    0.56
   1  -3  12    1.21    0.27
   1  -3  12    1.64    0.66
  -2   3 -12    0.69    0.42
  -2   3 -12    1.10    0.28
  -2   3 -12    2.45    0.52
   2  -3  12    1.41    0.37
   2  -3  12    2.64    0.70
  -3   3 -12    0.55    0.32
  -3   3 -12    0.41    0.42
   3  -3  12    1.83    0.79
   3  -3  12    0.39    0.44
  -4   3 -12    1.43    0.35
  -4   3 -12    0.96    0.50
   4  -3  12    1.84    0.60
  -5   3 -12    0.74    0.39
  -5   3 -12    0.54    0.53
   5  -3  12    0.88    0.75
  -6   3 -12    1.96    1.05
   6  -3  12    0.32    0.87
   6   2 -12    2.64    1.29
   5   2 -12    3.41    1.17
  -5  -2  12    0.85    0.74
  -5  -2  12    2.76    0.88
  -5  -2  12    0.80    0.93
   4   2 -12    1.66    0.94
  -4  -2  12    1.42    0.80
  -4  -2  12    1.09    0.85
  -4  -2  12    0.51    0.60
   3   2 -12    0.70    0.39
   3   2 -12    2.54    0.81
   3   2 -12    0.32    0.49
  -3  -2  12    1.81    0.76
  -3  -2  12    1.58    0.69
  -3  -2  12    1.31    0.51
  -3  -2  12    1.41    0.53
   2   2 -12   15.05    1.10
   2   2 -12   15.78    1.79
   2   2 -12   14.41    1.06
  -2  -2  12   14.90    0.81
  -2  -2  12   14.26    1.13
  -2  -2  12   14.27    1.04
   1   2 -12    3.06    0.59
   1   2 -12    3.70    0.69
  -1  -2  12    3.36    0.54
  -1  -2  12    2.67    0.69
  -1  -2  12    2.54    0.65
   0   2 -12    6.04    0.75
   0   2 -12    4.16    0.83
   0  -2  12    4.51    0.79
  -1   2 -12    3.52    0.36
  -1   2 -12    2.68    0.33
  -1   2 -12    4.45    0.71
   1  -2  12    1.64    0.58
   1  -2  12    3.69    0.72
   1  -2  12    3.54    0.49
   1  -2  12    3.04    0.35
  -2   2 -12    0.62    0.38
  -2   2 -12    0.93    0.21
  -2   2 -12    1.11    0.22
  -2   2 -12    1.50    0.46
   2  -2  12    1.36    0.38
   2  -2  12    0.85    0.69
  -3   2 -12    0.87    0.26
  -3   2 -12    0.73    0.42
   3  -2  12    1.44    0.47
   3  -2  12    2.34    0.73
  -4   2 -12    1.01    0.47
  -4   2 -12    1.67    0.77
  -4   2 -12    1.52    0.32
   4  -2  12    1.42    0.59
   4  -2  12    1.24    0.56
  -5   2 -12    1.79    0.94
   5  -2  12    0.10    0.71
  -6   2 -12    1.87    1.01
   6  -2  12   -0.44    0.83
   6   1 -12    3.80    1.37
  -6  -1  12    0.93    0.85
  -6  -1  12    0.28    0.74
   5   1 -12    1.12    1.15
  -5  -1  12    1.41    0.84
  -5  -1  12    0.23    0.80
  -5  -1  12    0.44    0.71
  -5  -1  12   -0.17    0.62
   4   1 -12    3.96    1.07
  -4  -1  12    2.66    0.76
  -4  -1  12    2.59    0.66
  -4  -1  12    2.29    0.66
  -4  -1  12    4.25    0.92
   3   1 -12    3.05    0.87
   3   1 -12    1.84    0.41
   3   1 -12    1.22    0.53
  -3  -1  12    2.70    0.56
  -3  -1  12    2.36    0.73
  -3  -1  12    2.52    0.56
  -3  -1  12    2.67    0.79
   2   1 -12   10.68    1.04
   2   1 -12   11.05    1.61
   2   1 -12   10.93    0.98
  -2  -1  12   10.44    0.97
  -2  -1  12   11.78    0.75
  -2  -1  12   10.94    0.81
  -2  -1  12   10.12    1.00
   1   1 -12   17.19    0.95
   1   1 -12   22.32    1.78
   1   1 -12   21.16    1.19
   1   1 -12   22.07    1.34
  -1  -1  12   23.22    0.97
  -1  -1  12   22.22    0.88
  -1  -1  12   21.19    1.22
   0   1 -12    0.84    0.27
   0   1 -12    1.47    0.58
   0   1 -12    1.61    0.58
   0  -1  12    1.64    0.27
   0  -1  12    1.15    0.39
   0  -1  12    1.35    0.39
   0  -1  12    1.88    0.65
  -1   1 -12    2.39    0.63
  -1   1 -12    3.18    0.65
  -1   1 -12    3.13    0.42
   1  -1  12    2.87    0.38
   1  -1  12    3.74    0.70
   1  -1  12    1.93    0.59
  -2   1 -12    6.31    1.24
  -2   1 -12    7.16    1.06
  -2   1 -12    6.20    0.31
  -2   1 -12    7.45    0.46
  -2   1 -12    7.82    0.69
   2  -1  12    4.50    0.72
   2  -1  12    7.66    0.91
   2  -1  12    7.15    0.55
  -3   1 -12    1.03    0.21
  -3   1 -12    0.37    0.36
  -3   1 -12    1.02    0.66
   3  -1  12    0.65    0.49
   3  -1  12    1.27    0.67
  -4   1 -12    1.35    0.82
  -4   1 -12    0.81    0.43
   4  -1  12    1.47    0.53
   4  -1  12    1.08    0.60
  -5   1 -12    1.35    0.93
  -5   1 -12    0.34    0.47
   5  -1  12    0.07    0.65
  -6   1 -12    0.67    1.03
   6  -1  12   -1.18    0.85
   6   0 -12    3.69    1.41
  -6   0  12    0.67    0.84
  -6   0  12    1.14    0.74
  -6   0  12    1.01    0.83
   5   0 -12    2.69    1.23
  -5   0  12    2.32    0.90
  -5   0  12    1.08    0.77
  -5   0  12    0.85    0.76
  -5   0  12    1.32    0.67
   4   0 -12    0.83    1.01
  -4   0  12    0.42    0.71
  -4   0  12    0.26    0.64
  -4   0  12    0.98    0.81
  -4   0  12    0.24    0.53
   3   0 -12   11.38    1.22
   3   0 -12    9.60    0.81
  -3   0  12   10.58    0.93
  -3   0  12   10.69    0.78
  -3   0  12   10.89    1.08
  -3   0  12   10.47    0.97
   2   0 -12    1.64    0.55
   2   0 -12    2.92    0.81
   2   0 -12    0.67    0.43
  -2   0  12    2.02    0.65
  -2   0  12    1.06    0.73
  -2   0  12    1.51    0.50
  -2   0  12    2.03    0.45
   1   0 -12    8.54    1.38
   1   0 -12    9.10    0.96
   1   0 -12    8.28    1.06
  -1   0  12    7.82    0.41
  -1   0  12    8.68    0.78
  -1   0  12    8.17    0.60
  -1   0  12    8.52    0.91
   0   0 -12   34.31    1.87
   0   0 -12   37.97    1.65
   0   0 -12   35.30    2.17
   0   0  12   36.87    1.65
   0   0  12   35.59    1.20
   0   0  12   38.34    1.37
   0   0  12   36.04    1.02
  -1   0 -12    1.04    0.54
  -1   0 -12    0.97    0.61
  -1   0 -12    0.42    0.32
   1   0  12    0.79    0.67
   1   0  12    1.06    0.33
   1   0  12    0.42    0.50
  -2   0 -12    0.71    0.35
  -2   0 -12    1.78    0.70
  -2   0 -12    1.62    0.51
   2   0  12    1.41    0.52
   2   0  12    1.43    0.71
   2   0  12    1.26    0.39
  -3   0 -12    2.31    0.79
   3   0  12    1.58    0.49
   3   0  12    1.98    0.71
  -4   0 -12   -0.02    0.36
  -4   0 -12   -0.41    0.79
   4   0  12    0.10    0.55
   4   0  12   -0.73    0.58
  -5   0 -12    0.31    0.42
  -5   0 -12    0.63    0.96
   5   0  12   -0.83    0.69
  -6   0 -12    1.11    1.10
   6   0  12   -0.18    0.84
   6  -1 -12    2.27    1.46
  -6   1  12    0.46    0.79
  -6   1  12    0.63    0.71
  -6   1  12    0.30    0.90
   5  -1 -12    8.01    1.45
  -5   1  12    4.64    1.02
  -5   1  12    4.74    0.75
  -5   1  12    4.04    0.81
  -5   1  12    3.41    0.80
   4  -1 -12    3.76    1.17
  -4   1  12    1.47    0.66
  -4   1  12    3.32    0.94
  -4   1  12    2.10    0.71
  -4   1  12    1.45    0.53
   3  -1 -12    0.82    0.46
   3  -1 -12    0.69    0.90
  -3   1  12    1.17    0.80
  -3   1  12    0.59    0.62
  -3   1  12    0.61    0.58
   2  -1 -12   25.39    1.50
   2  -1 -12   23.19    1.39
   2  -1 -12   24.76    1.93
  -2   1  12   24.64    1.46
  -2   1  12   22.75    1.21
   1  -1 -12   25.17    1.38
   1  -1 -12   22.25    1.50
   1  -1 -12   25.01    1.91
  -1   1  12   20.82    0.70
  -1   1  12   24.08    1.15
  -1   1  12   23.60    1.33
   0  -1 -12    1.02    0.64
   0  -1 -12    0.29    0.38
   0  -1 -12    0.65    0.64
   0   1  12    0.09    0.50
   0   1  12    0.03    0.66
  -1  -1 -12    8.74    1.28
  -1  -1 -12    7.82    0.82
  -1  -1 -12    7.52    1.26
   1   1  12    6.75    0.94
  -2  -1 -12    3.12    0.58
  -2  -1 -12    2.46    0.81
   2   1  12    1.89    0.76
   2   1  12    3.82    0.59
   2   1  12    2.55    0.38
  -3  -1 -12    0.37    0.34
  -3  -1 -12    1.33    0.88
   3   1  12    0.59    0.49
   3   1  12    0.75    0.71
  -4  -1 -12    0.59    0.37
  -4  -1 -12    1.06    1.02
   4   1  12    0.96    0.63
   4   1  12    0.08    0.61
  -5  -1 -12    0.39    1.04
   5   1  12   -0.37    0.69
  -6  -1 -12    1.23    1.19
   6   1  12   -0.94    0.86
   6  -2 -12   -0.22    1.48
  -6   2  12   -0.25    0.95
  -6   2  12    0.38    0.69
   5  -2 -12    1.33    1.41
  -5   2  12    0.81    0.58
  -5   2  12    0.85    0.79
  -5   2  12    1.34    0.81
   4  -2 -12    7.87    1.58
  -4   2  12    7.71    1.17
  -4   2  12    8.27    1.23
  -4   2  12    8.17    0.98
   3  -2 -12    3.45    0.63
   3  -2 -12    4.92    1.14
  -3   2  12    3.77    0.96
  -3   2  12    3.22    0.70
   2  -2 -12   -0.17    0.56
   2  -2 -12   -0.49    0.83
  -2   2  12   -0.39    0.55
  -2   2  12   -0.68    0.79
   1  -2 -12   28.71    1.57
   1  -2 -12   28.49    2.06
   1  -2 -12   25.82    1.66
  -1   2  12   26.67    1.54
  -1   2  12   27.71    1.33
   0  -2 -12    2.98    0.80
   0  -2 -12    3.13    0.79
   0   2  12    2.46    0.62
   0   2  12    3.06    0.83
  -1  -2 -12    3.01    0.85
  -1  -2 -12    3.32    0.71
   1   2  12    3.10    0.83
  -2  -2 -12   10.01    1.34
  -2  -2 -12    9.80    1.53
  -2  -2 -12    9.27    0.88
   2   2  12    8.11    1.07
  -3  -2 -12    0.49    0.35
  -3  -2 -12    0.26    0.93
   3   2  12    0.53    0.76
  -4  -2 -12    0.53    0.36
  -4  -2 -12    0.75    1.06
   4   2  12    0.97    0.75
   4   2  12   -0.27    0.63
  -5  -2 -12   -0.52    1.11
   5   2  12   -0.99    0.80
   5   2  12   -0.20    0.65
  -6  -2 -12   -0.40    1.23
   6   2  12   -0.21    0.86
   6  -3 -12    0.10    1.67
  -6   3  12    0.94    0.96
   5  -3 -12    0.35    1.52
  -5   3  12    3.10    0.84
  -5   3  12    2.15    0.93
   4  -3 -12    0.18    1.32
  -4   3  12    0.43    0.82
  -4   3  12    0.68    0.95
   3  -3 -12   12.53    1.59
   3  -3 -12   11.63    1.13
  -3   3  12   11.34    1.29
  -3   3  12    9.73    1.20
   2  -3 -12    0.98    1.02
   2  -3 -12    2.17    0.71
  -2   3  12    2.19    0.70
  -2   3  12    1.88    0.92
  -2   3  12    2.74    0.50
   1  -3 -12   -0.77    0.85
   1  -3 -12   -0.37    0.67
  -1   3  12   -0.63    0.63
  -1   3  12   -0.86    0.85
  -1   3  12    0.16    0.33
   0  -3 -12    0.49    0.76
   0  -3 -12    0.25    0.75
   0  -3 -12    0.22    0.39
   0   3  12    0.65    0.84
   0   3  12    0.14    0.66
  -1  -3 -12    1.39    0.42
  -1  -3 -12    2.51    0.77
  -1  -3 -12    2.74    0.94
   1   3  12    2.37    0.88
  -2  -3 -12    0.21    0.36
  -2  -3 -12    0.64    0.92
  -2  -3 -12    1.38    0.66
   2   3  12    1.00    0.86
  -3  -3 -12    3.50    1.18
   3   3  12    4.73    0.96
  -4  -3 -12    0.29    1.15
   4   3  12   -0.11    0.81
   4   3  12    0.21    0.67
  -5  -3 -12   -0.26    1.25
   5   3  12   -0.85    0.81
   5   3  12   -0.74    0.80
  -6  -3 -12   -1.02    1.35
   6   3  12   -0.37    0.97
  -6   4  12    0.72    1.10
   5  -4 -12    0.94    1.73
  -5   4  12    1.28    0.92
  -5   4  12    1.45    0.95
   4  -4 -12    1.69    1.56
  -4   4  12    3.46    0.83
  -4   4  12    2.09    1.08
  -4   4  12    1.31    0.83
   3  -4 -12    1.21    1.36
   3  -4 -12   -0.11    0.69
  -3   4  12    0.63    1.03
  -3   4  12    0.97    0.63
  -3   4  12    0.26    0.71
   2  -4 -12    9.78    1.37
   2  -4 -12    7.50    1.21
  -2   4  12    6.70    1.19
  -2   4  12    8.88    0.79
  -2   4  12    8.28    1.38
   1  -4 -12    0.92    0.83
   1  -4 -12    2.51    1.08
  -1   4  12    1.74    1.01
  -1   4  12    1.80    0.76
  -1   4  12    1.78    0.40
   0  -4 -12   -0.62    0.85
   0  -4 -12    0.04    0.82
   0   4  12   -0.48    0.72
   0   4  12   -0.82    0.93
  -1  -4 -12    1.76    0.85
  -1  -4 -12    1.52    0.99
   1   4  12    1.59    0.96
  -2  -4 -12    1.39    0.76
  -2  -4 -12    1.29    1.06
   2   4  12    1.71    0.98
  -3  -4 -12    1.07    1.20
   3   4  12    1.21    1.02
  -4  -4 -12    2.16    1.38
   4   4  12    2.90    1.03
  -5  -4 -12   -1.98    1.36
   5   4  12    0.43    0.98
   5   4  12   -0.11    0.74
   5  -5 -12   -1.39    1.84
  -5   5  12    0.49    0.96
  -5   5  12    1.59    1.13
   4  -5 -12    1.43    1.73
  -4   5  12    2.64    1.21
  -4   5  12    1.71    1.03
  -4   5  12    2.32    0.86
   3  -5 -12    1.66    0.92
   3  -5 -12    3.45    1.54
  -3   5  12    4.92    0.74
  -3   5  12    2.49    0.88
  -3   5  12    3.08    1.22
   2  -5 -12    0.78    1.31
   2  -5 -12   -0.07    0.84
  -2   5  12    1.11    0.56
  -2   5  12    0.36    1.09
  -2   5  12    0.62    0.78
   1  -5 -12    8.83    1.43
   1  -5 -12    6.35    1.16
  -1   5  12    4.62    0.87
  -1   5  12    8.55    1.30
   0  -5 -12    2.29    1.06
   0  -5 -12    4.95    1.22
   0   5  12    3.06    1.15
  -1  -5 -12   -0.36    0.97
  -1  -5 -12   -0.85    0.93
   1   5  12   -0.51    1.03
  -2  -5 -12    1.95    1.15
  -2  -5 -12    3.09    0.96
   2   5  12    3.17    1.19
  -3  -5 -12   -1.42    1.15
   3   5  12    0.09    1.15
  -4  -5 -12   -0.77    1.37
   4   5  12    0.07    1.15
  -5  -5 -12   -2.65    1.44
   5   5  12    0.48    1.13
   5   5  12    0.57    0.87
   4  -6 -12   -1.15    1.91
  -4   6  12   -0.69    0.85
  -4   6  12    0.66    0.97
   3  -6 -12    4.11    1.80
  -3   6  12    4.41    1.37
  -3   6  12    2.90    1.04
  -3   6  12    3.64    0.82
   2  -6 -12    2.55    1.60
   2  -6 -12    1.15    0.97
  -2   6  12    0.86    0.90
  -2   6  12    2.20    1.26
   1  -6 -12   -0.15    1.34
   1  -6 -12   -0.71    0.99
  -1   6  12    0.11    1.24
  -1   6  12   -0.25    0.89
   0  -6 -12    1.33    1.17
   0  -6 -12    2.92    1.33
   0   6  12    3.02    1.28
  -1  -6 -12   -0.48    1.17
  -1  -6 -12    0.80    1.19
   1   6  12    0.70    1.26
  -2  -6 -12   -0.38    1.24
   2   6  12    0.00    1.30
  -3  -6 -12    0.09    1.42
   3   6  12    0.21    1.36
   4   6  12   -0.30    1.35
   3  -7 -12   -2.44    1.93
  -3   7  12   -1.45    1.39
  -3   7  12   -0.46    1.00
   2  -7 -12    2.28    1.79
   2  -7 -12    0.29    1.20
  -2   7  12    2.16    1.45
  -2   7  12    0.50    0.97
   1  -7 -12   -0.34    1.11
   1  -7 -12    0.10    1.57
  -1   7  12    1.15    1.41
  -1   7  12   -0.11    1.01
   0  -7 -12   -0.31    1.46
   0  -7 -12   -1.46    1.20
   0   7  12   -0.16    1.37
  -1  -7 -12    0.19    1.39
  -1  -7 -12   -0.87    1.30
   1   7  12    0.07    1.40
  -2  -7 -12   -1.98    1.27
   2   7  12   -1.22    1.41
  -3  -7 -12   -2.20    1.43
  -2   8  12   -1.94    1.47
   1  -8 -12   -0.31    1.41
   1  -8 -12    1.67    1.85
  -1   8  12    1.37    1.59
   0  -8 -12   -1.72    1.34
   0  -8 -12   -0.29    1.65
   0   8  12   -0.48    1.58
  -1  -8 -12   -1.66    1.54
  -1  -8 -12   -2.53    1.45
   1   8  12   -1.92    1.56
   0   9 -13   -0.35    0.93
  -1   9 -13    0.40    0.93
   2   8 -13   -0.51    0.79
   1   8 -13    0.10    0.86
   0   8 -13    0.02    0.79
  -1   8 -13    0.14    0.78
  -2   8 -13    0.78    0.77
  -3   8 -13    0.03    0.81
   2   7 -13   -0.37    0.73
  -2  -7  13    0.83    1.07
   1   7 -13    0.05    0.73
  -1  -7  13   -0.08    0.99
   0   7 -13   -0.39    0.65
  -1   7 -13    0.18    0.64
  -1   7 -13    0.28    0.68
  -2   7 -13    0.17    0.64
  -3   7 -13    0.97    0.71
  -4   7 -13    1.28    0.76
   3   6 -13   -1.00    0.57
   2   6 -13   -0.59    0.71
   1   6 -13    0.73    0.63
   1   6 -13    0.23    0.61
  -1  -6  13    1.17    0.92
   0   6 -13    0.07    0.61
   0   6 -13    0.64    0.57
  -1   6 -13    0.46    0.62
  -1   6 -13    0.53    0.52
  -2   6 -13    0.18    0.64
  -2   6 -13    0.33    0.52
  -3   6 -13    1.06    0.58
   3   5 -13    4.44    1.15
  -3  -5  13    4.25    1.17
   2   5 -13   -0.07    0.56
  -2  -5  13    1.35    1.01
   1   5 -13   -0.18    0.54
  -1  -5  13   -0.07    0.83
   0   5 -13    0.30    0.45
   0   5 -13   -0.16    0.49
   0   5 -13    1.61    0.79
  -1   5 -13    0.21    0.41
  -1   5 -13    0.09    0.47
   1  -5  13    1.61    0.91
  -2   5 -13   -0.15    0.48
  -2   5 -13   -0.10    0.41
   2  -5  13    0.60    0.93
  -3   5 -13    0.40    0.48
  -3   5 -13    0.29    0.58
   3  -5  13    0.32    0.49
  -4   5 -13    0.47    0.63
   4  -5  13    0.08    0.64
   5  -5  13    0.32    0.78
  -5  -4  13    2.57    1.08
   4   4 -13    1.91    1.09
  -4  -4  13    2.00    1.05
   3   4 -13    2.41    0.96
  -3  -4  13    1.02    0.94
  -3  -4  13    1.94    0.98
   2   4 -13    3.62    0.89
   2   4 -13    0.80    0.60
  -2  -4  13    2.97    0.94
  -2  -4  13    1.93    0.42
  -2  -4  13    2.52    0.88
   1   4 -13    4.56    0.85
  -1  -4  13    1.95    0.82
  -1  -4  13    3.69    0.91
   0   4 -13   -0.37    0.45
   0   4 -13   -0.07    0.36
   0   4 -13    0.77    0.65
   0  -4  13    0.23    0.77
  -1   4 -13    4.78    0.60
  -1   4 -13    6.90    0.88
   1  -4  13    7.00    1.09
  -2   4 -13    0.09    0.32
  -2   4 -13   -0.15    0.43
   2  -4  13    0.87    0.83
  -3   4 -13    0.01    0.48
  -3   4 -13   -0.03    0.38
   3  -4  13    0.04    0.47
   3  -4  13    2.14    0.95
   4  -4  13   -0.25    0.62
  -5   4 -13   -0.01    0.61
   5  -4  13   -0.12    0.76
   6  -4  13    0.54    0.95
   5   3 -13    1.92    1.21
  -5  -3  13    2.24    0.95
   4   3 -13    2.56    1.09
  -4  -3  13    1.52    0.97
  -4  -3  13    1.64    0.68
  -4  -3  13    2.93    0.97
   3   3 -13   -0.30    0.57
   3   3 -13    1.28    0.86
  -3  -3  13    1.05    0.86
  -3  -3  13    0.40    0.86
   2   3 -13    4.54    0.83
   2   3 -13    4.53    0.94
  -2  -3  13    2.40    0.45
  -2  -3  13    2.75    0.80
  -2  -3  13    3.71    0.88
   1   3 -13    6.17    0.86
   1   3 -13    6.11    0.87
  -1  -3  13    5.76    1.00
  -1  -3  13    4.44    0.52
  -1  -3  13    3.55    0.81
   0   3 -13    4.03    0.82
   0  -3  13    3.57    0.80
  -1   3 -13    0.80    0.55
  -1   3 -13   -0.04    0.26
  -1   3 -13   -0.19    0.37
   1  -3  13    0.41    0.70
  -2   3 -13    1.90    0.30
  -2   3 -13    0.84    0.44
   2  -3  13    2.18    0.40
   2  -3  13    3.85    0.89
  -3   3 -13    0.18    0.47
  -3   3 -13    0.18    0.30
   3  -3  13    2.26    0.89
   3  -3  13   -0.11    0.45
  -4   3 -13    0.14    0.50
  -4   3 -13    0.21    0.38
   4  -3  13   -0.71    0.57
   4  -3  13    2.31    0.71
  -5   3 -13    0.30    0.57
   5  -3  13   -0.84    0.75
  -6   3 -13    2.67    1.16
   6  -3  13   -0.76    0.89
   6   2 -13    9.23    1.72
  -6  -2  13    1.39    1.12
   5   2 -13    3.23    1.24
  -5  -2  13    1.19    0.98
  -5  -2  13    2.88    0.96
  -5  -2  13    1.27    0.77
   4   2 -13    1.94    1.02
  -4  -2  13    1.84    0.88
  -4  -2  13    0.48    0.64
  -4  -2  13    0.69    0.87
   3   2 -13    1.20    0.85
   3   2 -13   -0.72    0.50
  -3  -2  13   -0.36    0.51
  -3  -2  13    0.24    0.80
  -3  -2  13    0.42    0.81
   2   2 -13    0.98    0.53
   2   2 -13    1.49    0.75
   2   2 -13   -0.13    0.47
  -2  -2  13    0.97    0.77
  -2  -2  13    1.05    0.45
  -2  -2  13    0.60    0.72
   1   2 -13    0.16    0.52
   1   2 -13    0.61    0.64
   1   2 -13    0.07    0.40
  -1  -2  13   -0.15    0.69
  -1  -2  13    0.21    0.37
   0   2 -13    3.41    0.67
   0   2 -13    5.01    0.85
   0  -2  13    4.08    0.81
  -1   2 -13    7.23    1.01
  -1   2 -13    5.90    1.37
  -1   2 -13    7.96    0.79
  -1   2 -13    7.18    0.43
   1  -2  13    6.90    0.56
   1  -2  13    6.74    0.44
   1  -2  13    7.94    0.97
  -2   2 -13    0.16    0.59
  -2   2 -13    0.01    0.19
  -2   2 -13    0.67    0.49
  -2   2 -13   -0.01    0.36
   2  -2  13    0.56    0.77
   2  -2  13   -0.34    0.38
  -3   2 -13    1.21    0.26
  -3   2 -13    0.82    0.45
  -3   2 -13    1.85    0.74
   3  -2  13    3.04    0.79
   3  -2  13    1.67    0.51
  -4   2 -13    0.60    0.50
  -4   2 -13    1.33    0.82
   4  -2  13    0.40    0.61
   4  -2  13    1.08    0.64
  -5   2 -13    1.18    0.96
   5  -2  13   -0.17    0.73
  -6   2 -13    2.03    1.07
   6  -2  13   -0.30    0.89
   6   1 -13    3.92    1.45
  -6  -1  13    0.22    0.94
  -6  -1  13   -0.64    0.72
   5   1 -13    3.24    1.27
  -5  -1  13    3.49    0.98
  -5  -1  13    1.11    0.76
  -5  -1  13    1.32    0.90
  -5  -1  13    1.54    0.71
   4   1 -13    5.14    1.15
  -4  -1  13    2.25    0.62
  -4  -1  13    2.36    0.70
  -4  -1  13    3.98    0.96
   3   1 -13    2.30    0.91
   3   1 -13    0.46    0.45
   3   1 -13    0.09    0.53
  -3  -1  13    1.98    0.83
  -3  -1  13    1.29    0.51
  -3  -1  13    1.37    0.57
  -3  -1  13    1.12    0.72
   2   1 -13    0.16    0.75
   2   1 -13   -0.40    0.48
   2   1 -13   -0.18    0.52
  -2  -1  13    0.16    0.74
  -2  -1  13   -0.19    0.67
  -2  -1  13   -0.03    0.48
  -2  -1  13   -0.08    0.43
   1   1 -13   10.90    0.98
   1   1 -13   10.75    1.56
   1   1 -13   10.47    1.15
  -1  -1  13   10.59    1.05
  -1  -1  13   10.03    0.71
  -1  -1  13   10.43    0.79
   0   1 -13    1.94    0.34
   0   1 -13    2.08    0.66
   0   1 -13    4.20    0.71
   0  -1  13    2.35    0.48
   0  -1  13    3.01    0.43
   0  -1  13    3.07    0.75
  -1   1 -13    7.11    1.10
  -1   1 -13    6.47    1.27
  -1   1 -13    8.34    0.54
  -1   1 -13    8.78    0.81
   1  -1  13    8.21    0.96
   1  -1  13    7.70    0.50
  -2   1 -13    0.90    0.66
  -2   1 -13    1.95    0.53
  -2   1 -13    0.58    0.15
  -2   1 -13    0.39    0.37
   2  -1  13    1.56    0.76
   2  -1  13    1.10    0.43
  -3   1 -13   -0.05    0.37
  -3   1 -13    0.06    0.68
   3  -1  13   -0.01    0.49
   3  -1  13    0.34    0.75
  -4   1 -13    0.10    0.42
  -4   1 -13    0.82    0.84
   4  -1  13   -0.24    0.60
   4  -1  13   -0.24    0.60
  -5   1 -13    1.87    1.02
  -5   1 -13    1.02    0.53
   5  -1  13    0.94    0.69
  -6   1 -13    1.52    1.09
   6  -1  13   -1.14    0.90
   6   0 -13    4.48    1.51
  -6   0  13    0.46    0.76
   5   0 -13    1.45    1.26
  -5   0  13    1.42    0.95
  -5   0  13   -0.51    0.63
  -5   0  13    0.42    0.83
   4   0 -13    4.80    1.19
  -4   0  13    1.88    0.70
  -4   0  13    2.89    0.66
  -4   0  13    4.04    0.97
   3   0 -13    4.78    0.80
   3   0 -13    7.10    1.24
  -3   0  13    6.30    0.93
  -3   0  13    8.09    1.14
  -3   0  13    6.44    0.66
   2   0 -13   -0.14    0.56
   2   0 -13   -0.11    0.45
   2   0 -13    0.28    0.74
  -2   0  13    0.26    0.45
  -2   0  13    0.63    0.78
  -2   0  13   -0.07    0.51
   1   0 -13    5.68    1.46
   1   0 -13    6.65    0.98
   1   0 -13    5.58    1.10
  -1   0  13    5.10    0.58
  -1   0  13    5.75    0.78
  -1   0  13    6.23    0.99
  -1   0  13    4.71    0.38
   0   0 -13   22.78    1.82
   0   0 -13   21.90    1.24
   0   0 -13   20.78    1.50
   0   0  13   19.74    0.66
   0   0  13   21.77    1.27
   0   0  13   20.78    1.04
   0   0  13   19.23    0.84
  -1   0 -13    0.35    0.36
  -1   0 -13    1.17    0.58
  -1   0 -13    0.74    0.67
   1   0  13    1.18    0.75
   1   0  13    0.55    0.35
  -2   0 -13    7.78    1.27
  -2   0 -13    8.12    1.37
  -2   0 -13    9.27    0.82
   2   0  13    9.26    1.03
  -3   0 -13    0.55    0.40
  -3   0 -13    1.64    0.80
   3   0  13    1.02    0.76
   3   0  13    1.60    0.52
  -4   0 -13    0.08    0.40
  -4   0 -13   -0.01    0.86
   4   0  13    0.04    0.62
   4   0  13   -0.36    0.63
  -5   0 -13    2.21    1.05
   5   0  13    1.53    0.75
  -6   0 -13    0.62    1.15
   6   0  13   -0.65    0.88
   6  -1 -13    2.82    1.52
  -6   1  13    0.50    0.72
   5  -1 -13    3.24    1.40
  -5   1  13    2.18    0.71
  -5   1  13    1.80    0.85
  -5   1  13    1.89    0.82
   4  -1 -13    0.25    1.11
  -4   1  13   -0.10    0.71
  -4   1  13   -0.07    0.71
  -4   1  13    0.26    0.90
  -4   1  13    0.06    0.51
   3  -1 -13    2.05    1.01
   3  -1 -13    0.68    0.54
  -3   1  13    1.03    0.63
  -3   1  13    2.16    0.75
  -3   1  13    1.93    0.90
  -3   1  13    1.28    0.53
   2  -1 -13    5.52    1.07
   2  -1 -13    3.94    0.73
  -2   1  13    5.51    1.10
  -2   1  13    4.36    0.64
   1  -1 -13    6.85    1.03
   1  -1 -13    4.79    0.84
  -1   1  13    6.62    0.89
  -1   1  13    5.85    1.05
  -1   1  13    4.60    0.33
   0  -1 -13   17.32    1.78
   0  -1 -13   16.10    1.51
   0  -1 -13   17.13    1.19
   0   1  13   16.28    1.23
   0   1  13   17.75    1.04
  -1  -1 -13    4.88    0.82
  -1  -1 -13    4.41    0.92
   1   1  13    4.64    0.89
   1   1  13    4.55    0.47
  -2  -1 -13    0.23    0.81
  -2  -1 -13    0.03    0.55
  -2  -1 -13   -0.04    0.35
   2   1  13   -0.65    0.79
   2   1  13    0.08    0.30
  -3  -1 -13    3.09    0.99
   3   1  13    2.30    0.57
   3   1  13    2.86    0.83
  -4  -1 -13    0.03    0.96
  -4  -1 -13   -0.02    0.36
   4   1  13   -0.24    0.69
   4   1  13    0.07    0.64
  -5  -1 -13    0.44    1.12
   5   1  13   -0.37    0.71
  -6  -1 -13    1.01    1.25
   6   1  13    0.61    0.92
   6  -2 -13    0.76    1.61
  -6   2  13    0.93    0.88
  -6   2  13   -0.06    0.66
  -6   2  13    1.14    1.01
   5  -2 -13    3.19    1.49
  -5   2  13    1.95    0.68
  -5   2  13    1.80    0.87
  -5   2  13    2.85    0.89
   4  -2 -13    7.49    1.46
  -4   2  13    5.08    1.10
  -4   2  13    5.05    0.88
  -4   2  13    3.41    0.79
   3  -2 -13   -0.68    0.56
   3  -2 -13   -0.11    1.09
  -3   2  13    0.73    0.67
  -3   2  13    0.43    0.94
   2  -2 -13    6.65    1.13
   2  -2 -13    9.70    1.32
  -2   2  13    6.58    1.00
  -2   2  13    7.93    1.16
   1  -2 -13    6.27    1.13
   1  -2 -13    5.63    0.92
  -1   2  13    6.59    1.09
  -1   2  13    7.11    0.51
  -1   2  13    6.19    0.97
   0  -2 -13    1.34    0.79
   0  -2 -13    1.18    0.80
   0  -2 -13    0.49    0.44
   0   2  13    0.68    0.85
   0   2  13    1.13    0.65
  -1  -2 -13   14.34    1.68
  -1  -2 -13   13.15    1.09
  -1  -2 -13   14.49    1.66
   1   2  13   12.87    1.24
  -2  -2 -13    0.31    0.61
  -2  -2 -13   -0.26    0.85
  -2  -2 -13    0.27    0.40
   2   2  13   -0.09    0.84
  -3  -2 -13    0.20    0.96
  -3  -2 -13   -0.17    0.36
   3   2  13   -0.50    0.83
  -4  -2 -13    0.65    1.12
   4   2  13    0.30    0.62
   4   2  13    0.50    0.82
  -5  -2 -13   -0.50    1.21
   5   2  13   -0.08    0.76
   5   2  13   -0.36    0.83
  -6  -2 -13    0.20    1.32
   6   2  13   -0.33    0.88
  -6   3  13    1.96    0.77
   5  -3 -13   -0.70    1.66
  -5   3  13    1.18    1.00
   4  -3 -13    6.14    1.57
  -4   3  13    4.57    0.98
  -4   3  13    5.00    1.17
   3  -3 -13    5.05    1.11
   3  -3 -13    8.56    1.49
  -3   3  13    6.61    0.93
  -3   3  13    8.52    1.27
   2  -3 -13   -0.43    1.05
   2  -3 -13   -0.72    0.71
  -2   3  13   -0.05    0.70
  -2   3  13   -0.39    0.95
  -2   3  13    0.54    0.46
   1  -3 -13    2.31    0.86
   1  -3 -13    4.10    1.09
  -1   3  13    4.03    1.07
  -1   3  13    3.86    0.77
  -1   3  13    3.46    0.51
   0  -3 -13    4.53    1.01
   0  -3 -13    5.90    1.02
   0   3  13    5.67    1.08
   0   3  13    4.73    0.81
  -1  -3 -13   -0.78    0.74
  -1  -3 -13   -0.39    0.41
  -1  -3 -13   -0.39    0.88
   1   3  13   -0.91    0.92
  -2  -3 -13    4.00    0.78
  -2  -3 -13    2.23    0.48
  -2  -3 -13    4.16    1.12
   2   3  13    3.80    1.03
  -3  -3 -13   -0.18    0.39
  -3  -3 -13   -0.01    1.04
   3   3  13    0.22    0.93
  -4  -3 -13   -0.19    1.21
   4   3  13   -0.67    0.89
   4   3  13    0.63    0.67
  -5  -3 -13   -0.62    1.26
   5   3  13   -0.37    0.87
   5   3  13    0.79    0.84
   5  -4 -13    2.04    1.88
  -5   4  13    2.49    1.01
  -5   4  13    3.33    0.97
   4  -4 -13   -2.04    1.57
  -4   4  13   -0.35    1.11
  -4   4  13    0.52    0.77
  -4   4  13    0.55    0.84
   3  -4 -13    1.79    1.45
   3  -4 -13    1.89    0.83
  -3   4  13    3.01    1.21
  -3   4  13    1.70    0.79
  -3   4  13    3.17    0.67
   2  -4 -13    8.87    1.69
   2  -4 -13    8.40    1.42
  -2   4  13    9.18    1.27
  -2   4  13   10.36    1.52
  -2   4  13   11.59    0.84
   1  -4 -13   -0.41    0.84
   1  -4 -13   -0.33    1.06
  -1   4  13   -0.09    1.07
  -1   4  13   -0.72    0.69
   0  -4 -13    4.35    1.12
   0  -4 -13    2.50    0.99
   0   4  13    2.41    0.87
   0   4  13    3.95    1.15
  -1  -4 -13   -0.23    0.87
  -1  -4 -13   -0.53    1.02
   1   4  13   -0.39    1.03
  -2  -4 -13   -0.47    1.06
  -2  -4 -13   -0.16    0.80
   2   4  13   -1.34    1.02
  -3  -4 -13   -0.14    1.24
   3   4  13   -0.08    1.07
  -4  -4 -13   -0.72    1.38
   4   4  13    0.52    1.04
  -5  -4 -13   -1.76    1.49
   5   4  13   -0.99    1.02
   5   4  13    0.68    0.80
  -5   5  13    1.34    0.95
   4  -5 -13    1.45    1.82
  -4   5  13    3.42    1.10
  -4   5  13    2.71    0.86
  -4   5  13    1.75    1.27
   3  -5 -13   -1.51    0.84
   3  -5 -13   -1.69    1.58
  -3   5  13    0.30    0.83
  -3   5  13   -0.62    1.21
   2  -5 -13   -0.33    0.89
   2  -5 -13    0.40    1.38
  -2   5  13    1.34    1.23
  -2   5  13    1.08    0.88
   1  -5 -13    3.49    1.32
   1  -5 -13    2.37    1.08
  -1   5  13    2.70    0.87
  -1   5  13    3.30    1.28
   0  -5 -13   -0.01    1.10
   0  -5 -13   -0.20    1.03
   0   5  13    0.61    1.16
  -1  -5 -13   -0.66    1.04
  -1  -5 -13    0.04    1.03
   1   5  13    0.07    1.15
  -2  -5 -13   -0.81    1.11
   2   5  13   -0.66    1.21
  -3  -5 -13   -1.46    1.23
   3   5  13   -0.66    1.21
  -4  -5 -13   -1.83    1.46
   4   5  13   -1.24    1.20
   4  -6 -13    3.19    2.10
  -4   6  13    3.26    1.03
   3  -6 -13    2.00    1.88
   3  -6 -13   -1.03    1.13
  -3   6  13    1.29    1.38
  -3   6  13    0.71    1.09
   2  -6 -13   -1.06    1.03
   2  -6 -13   -0.66    1.59
  -2   6  13   -0.72    0.93
  -2   6  13   -0.50    1.35
   1  -6 -13    1.82    1.52
   1  -6 -13   -0.43    1.04
  -1   6  13    0.68    1.38
  -1   6  13    1.49    1.07
   0  -6 -13    1.37    1.24
   0  -6 -13    4.02    1.47
   0   6  13    2.45    1.38
  -1  -6 -13   -1.48    1.20
  -1  -6 -13   -0.43    1.21
   1   6  13   -1.63    1.33
  -2  -6 -13   -1.40    1.31
   2   6  13   -0.21    1.36
  -3  -6 -13   -1.72    1.47
   3   6  13   -0.21    1.41
   4   6  13    0.02    1.47
  -3   7  13    2.00    1.59
   2  -7 -13   -0.42    1.86
   2  -7 -13   -1.89    1.16
  -2   7  13   -0.36    1.51
  -2   7  13   -0.17    1.03
   1  -7 -13   -1.72    1.63
   1  -7 -13   -2.30    1.21
  -1   7  13   -0.99    1.07
  -1   7  13   -1.26    1.46
   0  -7 -13    0.35    1.58
   0  -7 -13   -1.55    1.24
   0   7  13   -0.83    1.49
  -1  -7 -13    0.08    1.44
  -1  -7 -13   -1.42    1.35
   1   7  13   -0.21    1.55
  -2  -7 -13   -2.22    1.48
   2   7  13   -0.99    1.52
   1  -8 -13   -1.68    1.83
  -1   8  13   -0.67    1.65
   0  -8 -13   -1.87    1.73
  -2  -8  14    1.41    1.20
   1   8 -14   -0.47    0.85
   0   8 -14   -0.26    0.81
  -1   8 -14   -0.49    0.79
  -2   8 -14   -0.72    0.73
   2   7 -14   -1.00    0.77
   1   7 -14   -0.14    0.74
   0   7 -14    0.24    0.71
   0   7 -14   -0.28    0.68
  -1   7 -14   -0.46    0.66
  -2   7 -14   -0.40    0.63
   3   6 -14   -1.05    0.61
   2   6 -14   -0.42    0.58
  -2  -6  14    1.06    1.09
   1   6 -14   -0.10    0.64
  -1  -6  14    0.38    0.96
   0   6 -14   -0.23    0.58
   0   6 -14   -0.05    0.62
  -1   6 -14   -0.60    0.53
  -2   6 -14    0.25    0.52
  -3   6 -14   -0.08    0.58
  -4  -5  14    2.03    1.24
   3   5 -14   -0.67    0.60
  -3  -5  14    1.49    1.09
   2   5 -14   -0.32    0.57
  -2  -5  14    2.12    1.09
  -2  -5  14    1.01    1.00
  -1  -5  14    1.85    0.96
  -1  -5  14    2.38    1.06
   0   5 -14    0.65    0.61
   0   5 -14    0.91    0.49
   0  -5  14    3.18    1.08
  -1   5 -14    0.18    0.44
  -1   5 -14    1.28    0.72
  -1   5 -14    0.12    0.55
   1  -5  14    1.03    1.05
  -2   5 -14    0.09    0.59
  -2   5 -14   -0.01    0.41
  -3   5 -14    0.71    0.48
  -4   5 -14    0.22    0.67
  -4   5 -14   -0.15    0.53
   4  -5  14   -1.29    0.63
   5  -5  14   -1.64    0.76
   5   4 -14    3.00    1.34
   4   4 -14    2.04    1.17
  -4  -4  14    2.21    1.09
   3   4 -14    1.63    1.04
  -3  -4  14    1.25    1.07
  -3  -4  14    0.51    1.04
   2   4 -14    7.14    1.21
   2   4 -14    6.11    0.91
  -2  -4  14    6.01    1.16
  -2  -4  14    3.84    1.00
   1   4 -14    1.22    0.79
   1   4 -14   -0.17    0.54
  -1  -4  14    1.17    0.92
   0   4 -14    1.53    0.42
   0   4 -14    0.83    0.55
   0   4 -14    3.34    0.80
   0  -4  14    2.68    0.92
  -1   4 -14    1.99    0.71
   1  -4  14    2.33    0.94
  -2   4 -14    0.05    0.33
  -2   4 -14    0.05    0.52
   2  -4  14    1.96    0.93
  -3   4 -14    0.49    0.53
  -3   4 -14    0.62    0.39
   3  -4  14    3.83    1.08
   3  -4  14    0.17    0.51
   5  -4  14    0.12    0.78
   5   3 -14    3.50    1.32
  -5  -3  14    2.95    1.04
   4   3 -14    2.30    1.17
  -4  -3  14    1.80    1.10
  -4  -3  14    1.15    0.68
  -4  -3  14    2.77    1.02
   3   3 -14    2.29    0.99
   3   3 -14   -0.30    0.59
  -3  -3  14    0.97    0.54
  -3  -3  14    2.20    0.97
  -3  -3  14    1.40    0.93
   2   3 -14   10.80    1.20
   2   3 -14   10.96    1.07
  -2  -3  14    9.64    0.75
  -2  -3  14   10.21    1.20
  -2  -3  14    8.69    1.19
   1   3 -14    4.35    0.93
   1   3 -14    5.77    1.00
  -1  -3  14    5.25    1.09
  -1  -3  14    3.37    0.54
   0   3 -14   -0.01    0.43
   0   3 -14    1.11    0.68
   0  -3  14    0.44    0.79
  -1   3 -14    2.10    0.65
   1  -3  14    1.34    0.87
  -2   3 -14    1.44    0.29
  -2   3 -14    0.82    0.47
   2  -3  14    3.87    1.00
   2  -3  14    1.45    0.41
  -3   3 -14   -0.06    0.30
  -3   3 -14    0.11    0.48
   3  -3  14    2.10    0.96
   3  -3  14   -0.68    0.47
  -4   3 -14    1.08    0.59
   4  -3  14    1.59    0.66
  -5   3 -14    1.22    0.99
   5  -3  14   -0.07    0.79
   6  -3  14   -1.22    0.91
   5   2 -14    2.65    1.30
  -5  -2  14    2.76    1.05
   4   2 -14    1.29    1.08
  -4  -2  14    0.55    0.97
  -4  -2  14    0.68    0.68
  -4  -2  14    0.66    0.93
   3   2 -14    6.20    1.09
  -3  -2  14    4.57    0.66
  -3  -2  14    5.53    1.06
  -3  -2  14    3.44    0.95
   2   2 -14    0.35    0.59
   2   2 -14    0.92    0.81
   2   2 -14   -0.23    0.54
  -2  -2  14    0.77    0.86
  -2  -2  14    0.40    0.48
  -2  -2  14   -0.17    0.79
   1   2 -14    6.21    1.60
   1   2 -14    8.42    1.02
   1   2 -14    8.04    1.11
  -1  -2  14    7.17    0.68
  -1  -2  14    7.99    1.12
   0   2 -14   12.08    1.20
   0   2 -14   13.77    1.08
   0   2 -14   12.90    1.64
   0  -2  14   13.20    1.18
  -1   2 -14    0.97    0.60
  -1   2 -14   -0.15    0.41
  -1   2 -14    0.72    0.62
   1  -2  14    0.81    0.81
  -2   2 -14    0.10    0.21
  -2   2 -14   -0.21    0.41
  -2   2 -14    0.72    0.67
   2  -2  14    1.52    0.89
   2  -2  14    0.26    0.40
  -3   2 -14    1.43    0.78
  -3   2 -14    0.57    0.48
   3  -2  14    2.54    0.86
   3  -2  14    0.92    0.51
  -4   2 -14   -0.10    0.50
  -4   2 -14    1.16    0.88
   4  -2  14   -0.18    0.61
   4  -2  14    1.00    0.70
  -5   2 -14    1.09    1.01
   5  -2  14   -0.09    0.76
  -6   2 -14    1.84    1.10
   6  -2  14   -0.69    0.91
   6   1 -14    3.26    1.57
  -6  -1  14    0.65    1.03
   5   1 -14    4.89    1.37
  -5  -1  14    1.49    0.82
  -5  -1  14    1.56    0.80
  -5  -1  14    2.14    1.00
   4   1 -14    2.77    1.17
  -4  -1  14    2.86    0.97
  -4  -1  14    1.76    0.73
  -4  -1  14    0.41    0.67
   3   1 -14    2.07    0.98
   3   1 -14   -0.29    0.58
  -3  -1  14    1.81    0.90
  -3  -1  14    1.08    0.61
  -3  -1  14    0.66    0.78
  -3  -1  14    1.88    0.61
   2   1 -14    4.25    0.74
   2   1 -14    6.14    1.13
  -2  -1  14    2.21    0.78
  -2  -1  14    3.80    0.58
  -2  -1  14    4.43    0.70
  -2  -1  14    5.31    1.10
   1   1 -14   12.86    1.13
   1   1 -14   10.34    1.73
   1   1 -14   11.39    1.27
  -1  -1  14   10.86    0.83
  -1  -1  14   11.13    0.76
  -1  -1  14   11.67    1.16
   0   1 -14    4.38    0.86
   0   1 -14    1.91    0.72
   0  -1  14    2.29    0.48
   0  -1  14    2.90    0.83
  -1   1 -14    7.22    1.48
  -1   1 -14    8.67    0.87
  -1   1 -14    8.51    1.25
   1  -1  14    7.55    0.50
   1  -1  14    8.29    1.07
  -2   1 -14    0.77    0.44
  -2   1 -14    2.43    0.59
  -2   1 -14    1.19    0.73
   2  -1  14    1.27    0.44
   2  -1  14    2.15    0.84
  -3   1 -14   -0.06    0.43
  -3   1 -14    0.22    0.77
   3  -1  14   -0.42    0.50
   3  -1  14    0.31    0.78
  -4   1 -14    0.12    0.50
  -4   1 -14    0.67    0.91
   4  -1  14    0.45    0.68
   4  -1  14   -0.18    0.63
  -5   1 -14    0.81    1.05
  -5   1 -14    0.28    0.53
   5  -1  14   -0.38    0.73
  -6   1 -14    1.20    1.11
   6  -1  14   -0.93    0.91
   6   0 -14    3.28    1.57
  -6   0  14   -0.29    0.96
  -6   0  14   -0.60    0.72
  -6   0  14   -0.01    0.89
   5   0 -14    3.12    1.36
  -5   0  14    0.77    0.73
  -5   0  14    2.65    1.06
  -5   0  14    1.25    0.81
  -4   0  14    2.35    0.64
  -4   0  14    4.71    1.06
  -4   0  14    2.95    0.87
  -4   0  14    2.18    0.76
   3   0 -14    0.86    0.57
   3   0 -14    2.83    1.06
  -3   0  14    1.95    0.66
  -3   0  14    1.33    0.52
  -3   0  14    2.65    0.95
  -3   0  14    2.17    0.79
   2   0 -14   -0.03    0.54
   2   0 -14   -0.64    0.60
   2   0 -14    1.31    0.87
  -2   0  14    0.18    0.49
  -2   0  14    0.78    0.56
  -2   0  14    1.61    0.87
   1   0 -14    9.42    1.78
   1   0 -14   11.00    1.13
   1   0 -14    8.99    1.28
  -1   0  14   11.36    1.16
  -1   0  14    8.77    0.69
  -1   0  14    9.18    0.87
   0   0 -14    6.15    1.27
   0   0 -14    6.43    0.94
   0   0 -14    6.17    1.57
   0   0  14    4.61    0.55
   0   0  14    6.40    1.03
   0   0  14    4.70    0.61
  -1   0 -14    0.24    0.73
  -1   0 -14    1.29    0.63
  -1   0 -14    0.17    0.40
   1   0  14    1.33    0.84
   1   0  14    0.31    0.39
  -2   0 -14    8.28    1.37
  -2   0 -14    7.21    1.41
  -2   0 -14    9.34    0.88
   2   0  14    8.46    1.12
   2   0  14    8.48    0.61
  -3   0 -14    0.27    0.80
  -3   0 -14    0.06    0.39
   3   0  14    0.03    0.81
   3   0  14    0.21    0.54
  -4   0 -14    0.70    0.93
  -4   0 -14    0.25    0.44
   4   0  14    0.25    0.70
   4   0  14   -0.34    0.64
  -5   0 -14    0.50    0.49
  -5   0 -14    0.98    1.06
   5   0  14   -0.01    0.73
  -6   0 -14    1.52    1.22
   6   0  14   -0.69    0.91
  -6   1  14    1.02    0.78
  -6   1  14    0.66    0.92
   5  -1 -14    3.37    1.47
  -5   1  14    0.70    0.68
  -5   1  14    1.38    0.93
   4  -1 -14    2.05    1.27
  -4   1  14    0.90    0.77
  -4   1  14    0.55    0.85
  -4   1  14    0.69    0.60
  -4   1  14    2.30    1.05
   3  -1 -14    6.49    1.01
   3  -1 -14   10.84    1.47
  -3   1  14    7.96    0.78
  -3   1  14    9.42    1.30
  -3   1  14    9.08    1.13
   2  -1 -14    1.94    0.72
   2  -1 -14    5.44    1.04
   2  -1 -14    1.19    0.55
  -2   1  14    2.50    0.65
  -2   1  14    3.57    0.56
  -2   1  14    4.37    0.98
   1  -1 -14   -0.26    0.48
   1  -1 -14   -0.15    0.69
   1  -1 -14   -0.10    0.79
  -1   1  14   -0.23    0.57
  -1   1  14   -0.04    0.43
  -1   1  14    0.15    0.85
   0  -1 -14    4.05    0.92
   0  -1 -14    5.65    0.99
   0   1  14    3.35    0.64
   0   1  14    3.59    0.49
   0   1  14    5.07    0.97
  -1  -1 -14    1.79    0.70
  -1  -1 -14    0.62    0.44
  -1  -1 -14    1.50    0.85
   1   1  14    1.28    0.92
   1   1  14    1.76    0.41
  -2  -1 -14    1.28    0.96
  -2  -1 -14    1.64    0.65
  -2  -1 -14    0.33    0.42
   2   1  14    1.21    0.36
   2   1  14    0.61    0.89
  -3  -1 -14    2.34    0.49
  -3  -1 -14    4.82    1.17
   3   1  14    4.25    0.94
  -4  -1 -14    0.52    0.42
  -4  -1 -14    0.38    1.09
   4   1  14    0.40    0.65
   4   1  14    0.01    0.77
  -5  -1 -14    0.33    1.19
   5   1  14   -0.31    0.73
  -6  -1 -14    0.37    1.29
   6   1  14   -0.09    0.94
  -6   2  14    0.32    0.74
   5  -2 -14    4.56    1.62
  -5   2  14    2.25    0.88
  -5   2  14    2.96    1.02
  -5   2  14    1.82    0.73
   4  -2 -14    2.06    1.40
  -4   2  14    1.72    0.88
  -4   2  14    2.25    1.08
   3  -2 -14   -0.27    0.64
   3  -2 -14    1.69    1.18
  -3   2  14    0.79    0.72
  -3   2  14    0.88    1.01
   2  -2 -14    7.43    1.35
   2  -2 -14    4.53    0.89
  -2   2  14    6.59    1.32
  -2   2  14    5.19    0.76
   1  -2 -14    3.42    0.89
   1  -2 -14    1.92    0.60
   1  -2 -14    5.79    1.07
  -1   2  14    3.03    0.67
  -1   2  14    5.11    1.06
   0  -2 -14   -0.42    0.47
   0  -2 -14    0.01    0.79
   0  -2 -14   -0.38    0.79
   0   2  14   -0.84    0.65
   0   2  14   -0.45    0.92
  -1  -2 -14    3.15    0.99
  -1  -2 -14    4.45    0.86
   1   2  14    4.31    1.05
  -2  -2 -14    0.07    0.66
  -2  -2 -14    0.02    0.98
  -2  -2 -14   -0.15    0.43
   2   2  14   -0.67    0.95
  -3  -2 -14    1.73    1.19
  -3  -2 -14    0.57    0.42
   3   2  14    0.97    0.94
  -4  -2 -14    1.38    1.25
   4   2  14    0.88    0.63
   4   2  14    1.50    0.92
  -5  -2 -14   -0.12    1.29
   5   2  14    0.67    0.84
   5  -3 -14    0.54    1.76
  -5   3  14    0.97    0.95
   4  -3 -14    3.05    1.57
  -4   3  14    3.29    1.22
  -4   3  14    2.07    0.86
   3  -3 -14    4.49    1.45
   3  -3 -14    1.34    0.79
  -3   3  14    3.67    1.19
  -3   3  14    2.84    0.79
   2  -3 -14    1.54    0.86
   2  -3 -14    2.04    1.19
  -2   3  14    2.08    0.55
  -2   3  14    2.28    0.75
  -2   3  14    2.35    1.12
   1  -3 -14    9.26    1.35
   1  -3 -14    7.32    1.53
  -1   3  14    9.18    1.17
  -1   3  14    9.26    1.46
   0  -3 -14    1.53    0.97
   0  -3 -14    0.62    0.51
   0  -3 -14    2.15    0.95
   0   3  14    1.43    0.74
   0   3  14    2.52    1.09
  -1  -3 -14   -0.12    0.46
  -1  -3 -14    0.44    0.81
  -1  -3 -14    0.50    1.01
   1   3  14    0.34    1.04
  -2  -3 -14    1.12    1.14
  -2  -3 -14    0.54    0.46
   2   3  14    2.24    1.10
  -3  -3 -14    0.01    1.18
   3   3  14   -0.73    1.00
  -4  -3 -14    0.02    1.25
   4   3  14    0.31    0.64
   4   3  14   -0.47    0.98
  -5  -3 -14    0.70    1.40
   5   3  14    0.47    0.94
   5   3  14    0.66    0.81
   5  -4 -14   -0.55    1.97
  -5   4  14   -0.57    0.92
  -5   4  14    0.94    0.99
   4  -4 -14   -0.57    1.70
  -4   4  14    1.09    0.87
  -4   4  14    0.36    1.23
  -4   4  14    0.90    0.78
   3  -4 -14    6.07    1.66
   3  -4 -14    2.43    0.94
  -3   4  14    6.11    1.38
  -3   4  14    2.60    0.87
   2  -4 -14    1.93    1.36
   2  -4 -14    0.69    0.89
  -2   4  14    1.75    0.87
  -2   4  14    2.90    1.23
   1  -4 -14    1.22    1.21
   1  -4 -14    0.83    0.98
  -1   4  14    1.22    0.80
  -1   4  14    1.56    1.19
   0  -4 -14    4.41    1.22
   0  -4 -14    3.24    1.16
   0   4  14    5.35    1.28
  -1  -4 -14    0.47    0.96
  -1  -4 -14    0.29    1.18
   1   4  14   -0.57    1.16
  -2  -4 -14   -0.09    1.18
   2   4  14   -0.56    1.13
  -3  -4 -14    0.14    1.31
   3   4  14   -0.19    1.16
  -4  -4 -14   -1.48    1.47
   4   4  14   -0.28    1.11
   5   4  14    0.77    0.87
   5   4  14   -0.45    1.10
   4  -5 -14    1.55    1.91
  -4   5  14    1.31    1.12
  -4   5  14    1.94    1.41
   3  -5 -14   -1.37    0.93
   3  -5 -14   -2.15    1.63
  -3   5  14    0.27    1.36
  -3   5  14    0.22    0.87
   2  -5 -14    6.25    1.69
   2  -5 -14    2.76    1.12
  -2   5  14    5.01    1.46
  -2   5  14    3.56    1.03
   1  -5 -14    1.83    1.34
   1  -5 -14   -0.43    1.08
  -1   5  14    1.34    1.35
  -1   5  14    0.78    0.96
   0  -5 -14   -0.60    1.09
   0  -5 -14   -0.42    1.22
   0   5  14    0.31    1.29
  -1  -5 -14    3.11    1.21
  -1  -5 -14    1.58    1.29
   1   5  14    1.26    1.28
  -2  -5 -14   -1.48    1.19
   2   5  14   -0.25    1.29
  -3  -5 -14   -2.42    1.28
   3   5  14   -0.51    1.33
  -4  -5 -14   -2.56    1.49
   4   5  14   -1.30    1.28
   3  -6 -14   -1.44    1.20
   3  -6 -14    1.36    1.94
  -3   6  14    2.50    1.10
  -3   6  14    1.61    1.46
   2  -6 -14   -1.50    1.71
   2  -6 -14   -1.92    1.06
  -2   6  14    0.01    1.42
  -2   6  14   -0.05    1.08
   1  -6 -14    4.81    1.64
   1  -6 -14    2.04    1.28
  -1   6  14    4.25    1.53
  -1   6  14    1.21    0.96
   0  -6 -14   -1.47    1.25
   0  -6 -14   -0.63    1.38
   0   6  14   -1.70    1.37
  -1  -6 -14   -0.97    1.26
  -1  -6 -14   -2.22    1.26
   1   6  14   -1.09    1.40
  -2  -6 -14   -1.56    1.45
   2   6  14   -0.53    1.45
  -3  -6 -14   -2.42    1.52
   3   6  14   -1.34    1.46
   2  -7 -14   -2.62    1.86
  -2   7  14   -1.12    1.65
   1  -7 -14   -1.87    1.74
  -1   7  14   -0.66    1.66
   0  -7 -14   -1.86    1.34
   0  -7 -14    1.28    1.63
   0   7  14    0.90    1.59
  -1  -7 -14   -2.52    1.41
   1   7  14    0.23    1.60
   0   8 -15   -1.36    0.78
  -2   8 -15   -0.52    0.78
   3   7 -15   -1.28    0.68
   2   7 -15   -0.86    0.68
   0   7 -15   -0.58    0.69
   3   6 -15   -1.15    0.64
   2   6 -15   -0.34    0.63
   1   6 -15   -0.03    0.69
   0   6 -15   -0.55    0.56
   0   6 -15    0.04    0.65
  -1   6 -15    0.86    0.58
  -1   6 -15    0.45    0.70
  -2   6 -15   -0.81    0.54
  -3   6 -15   -0.08    0.57
   3   5 -15   -1.17    0.63
  -3  -5  15    1.29    1.22
   2   5 -15    0.01    0.65
  -2  -5  15    2.46    1.20
   1   5 -15   -0.22    0.64
   0   5 -15    1.09    0.51
   0   5 -15    0.28    0.62
  -1   5 -15   -0.33    0.44
   1  -5  15    1.94    1.13
  -2   5 -15    0.49    0.44
   5  -5  15   -0.58    0.80
  -4  -4  15    2.65    1.20
  -3  -4  15    1.05    1.09
  -3  -4  15    1.46    1.13
   2   4 -15    1.59    0.65
   2   4 -15    1.48    0.96
  -2  -4  15   -0.44    0.99
  -2  -4  15    1.84    1.09
   1   4 -15    0.28    0.59
   1   4 -15    1.33    0.61
   1   4 -15    0.93    0.85
  -1  -4  15    0.74    1.01
   0   4 -15    0.41    0.54
   0  -4  15    2.92    1.06
  -1   4 -15    4.15    0.64
   1  -4  15    7.79    1.22
  -2   4 -15    0.02    0.52
  -2   4 -15   -0.41    0.33
   2  -4  15    2.24    1.19
   3  -4  15    4.40    1.21
   5  -4  15   -0.56    0.77
   5   3 -15    4.48    1.44
   4   3 -15    2.12    1.22
  -4  -3  15    3.05    1.09
   3   3 -15   -0.80    0.60
   3   3 -15    1.72    1.06
  -3  -3  15    0.28    1.00
  -3  -3  15    1.01    1.00
  -3  -3  15    0.02    0.56
   2   3 -15    1.75    0.91
   2   3 -15    1.73    0.64
  -2  -3  15    2.20    1.02
  -2  -3  15    1.63    0.93
   1   3 -15    6.23    1.10
   1   3 -15    6.40    1.09
  -1  -3  15    6.00    1.23
   0   3 -15    3.36    0.76
   0   3 -15    5.94    0.99
   0  -3  15    4.34    1.01
  -1   3 -15    2.53    0.72
  -1   3 -15    1.72    0.72
   1  -3  15    2.87    1.04
   2  -3  15    3.83    1.09
  -3   3 -15    0.74    0.83
  -3   3 -15    0.02    0.52
   3  -3  15   -0.62    0.51
   3  -3  15    2.58    1.06
  -4   3 -15    0.86    0.92
   4  -3  15    2.63    0.81
   4  -3  15   -0.47    0.64
  -5   3 -15    2.53    1.12
   5  -3  15   -0.30    0.79
   5   2 -15    2.93    1.40
  -5  -2  15    0.57    0.81
  -5  -2  15    2.90    1.17
  -5  -2  15    0.81    1.13
   4   2 -15    3.90    1.26
  -4  -2  15    4.24    1.11
   3   2 -15    0.72    0.68
   3   2 -15    5.20    1.14
  -3  -2  15    1.79    0.97
  -3  -2  15    6.23    1.26
  -3  -2  15    2.41    0.63
   2   2 -15    0.17    0.62
   2   2 -15    0.99    0.89
   2   2 -15   -0.58    0.54
  -2  -2  15    0.31    0.91
  -2  -2  15   -1.12    0.86
  -2  -2  15   -0.08    0.48
   1   2 -15    3.13    0.86
   1   2 -15    1.50    0.69
   1   2 -15    0.47    0.56
  -1  -2  15    2.34    0.93
  -1  -2  15    0.54    0.44
   0   2 -15    8.60    1.25
   0   2 -15    7.77    1.68
   0   2 -15   11.35    1.07
   0  -2  15   11.27    1.23
  -1   2 -15    9.78    0.95
  -1   2 -15    6.94    1.25
   1  -2  15    9.48    1.23
  -2   2 -15    2.82    0.84
   2  -2  15    5.92    1.17
   2  -2  15    2.95    0.49
  -3   2 -15    0.81    0.83
  -3   2 -15    0.35    0.51
   3  -2  15    2.44    0.93
   3  -2  15   -0.09    0.53
  -4   2 -15    1.10    0.91
   4  -2  15    1.94    0.80
   4  -2  15    0.30    0.64
  -5   2 -15    2.74    1.17
   5  -2  15    0.45    0.78
   5   1 -15    3.87    1.43
  -5  -1  15    7.56    1.57
   4   1 -15    1.74    1.18
  -4  -1  15   -0.39    0.66
  -4  -1  15    0.32    0.74
  -4  -1  15    2.07    1.05
  -4  -1  15    0.36    0.97
   3   1 -15    2.81    1.04
   3   1 -15    0.35    0.69
  -3  -1  15    1.93    0.59
  -3  -1  15    3.65    1.02
  -3  -1  15    1.81    0.97
  -3  -1  15    1.05    0.65
   2   1 -15    8.57    1.22
   2   1 -15    4.66    0.81
  -2  -1  15    7.17    1.23
  -2  -1  15    6.29    0.85
  -2  -1  15    5.32    0.67
   1   1 -15    2.19    0.81
   1   1 -15    0.79    0.72
   1   1 -15   -0.06    0.50
  -1  -1  15    0.43    0.49
  -1  -1  15    0.92    0.52
  -1  -1  15    1.64    0.91
   0   1 -15    4.30    0.89
   0   1 -15    6.49    0.97
   0  -1  15    5.42    1.09
   0  -1  15    4.19    0.64
  -1   1 -15    5.33    0.84
  -1   1 -15    2.78    0.84
   1  -1  15    4.30    0.95
   1  -1  15    3.23    0.48
  -2   1 -15    1.16    0.81
  -2   1 -15   -0.02    0.44
   2  -1  15    0.92    0.46
   2  -1  15    2.35    0.92
  -3   1 -15    2.32    0.93
   3  -1  15    3.83    0.92
   3  -1  15    2.43    0.58
  -4   1 -15    0.01    0.51
  -4   1 -15    1.15    0.99
   4  -1  15    0.80    0.77
   4  -1  15   -0.80    0.62
  -5   1 -15    0.79    1.11
   5  -1  15    0.00    0.77
   5   0 -15    3.42    1.44
  -5   0  15    0.91    0.96
  -5   0  15    1.02    0.73
   4   0 -15    4.07    1.28
  -4   0  15    4.76    1.14
  -4   0  15    1.91    0.83
  -4   0  15    1.89    0.91
  -4   0  15    2.51    0.71
   3   0 -15   -1.08    0.63
   3   0 -15    1.40    1.03
  -3   0  15    1.41    0.98
  -3   0  15    0.51    0.68
  -3   0  15   -0.06    0.56
  -3   0  15   -0.13    0.83
   2   0 -15    2.43    0.72
   2   0 -15    7.04    1.24
   2   0 -15    4.30    0.84
  -2   0  15    4.53    0.68
  -2   0  15    6.56    1.17
  -2   0  15    4.34    0.70
   1   0 -15    5.09    0.93
   1   0 -15    2.69    0.84
   1   0 -15    1.66    0.63
  -1   0  15    4.74    1.02
  -1   0  15    2.84    0.59
  -1   0  15    3.67    0.58
   0   0 -15    0.50    0.50
   0   0 -15    1.58    0.74
   0   0 -15    1.10    0.82
   0   0  15    0.64    0.44
   0   0  15    1.73    0.91
  -1   0 -15    2.72    0.72
  -1   0 -15    2.74    0.93
   1   0  15    2.55    0.94
   1   0  15    1.48    0.46
  -2   0 -15    0.33    0.45
  -2   0 -15    0.67    0.90
   2   0  15    1.70    0.93
   2   0  15    0.75    0.46
  -3   0 -15    0.06    0.88
  -3   0 -15    0.33    0.46
   3   0  15    0.74    0.90
   3   0  15    0.38    0.55
  -4   0 -15    0.48    0.48
  -4   0 -15    0.23    0.94
   4   0  15    0.42    0.80
   4   0  15    0.18    0.64
  -5   0 -15    1.25    1.21
   5   0  15    0.05    0.72
   5  -1 -15    1.66    1.47
  -5   1  15    0.63    0.64
  -5   1  15    0.77    0.88
  -5   1  15    0.88    0.90
   4  -1 -15    5.54    1.40
  -4   1  15    3.73    0.92
  -4   1  15    3.36    0.72
  -4   1  15    2.92    0.85
  -4   1  15    6.75    1.40
   3  -1 -15    3.52    1.20
   3  -1 -15    0.18    0.67
  -3   1  15    3.29    1.10
  -3   1  15    1.65    0.72
  -3   1  15    1.97    0.60
   2  -1 -15    1.31    0.96
   2  -1 -15   -0.62    0.70
   2  -1 -15   -0.79    0.57
  -2   1  15    0.67    0.64
  -2   1  15    0.06    0.50
  -2   1  15    1.19    1.00
   1  -1 -15    0.97    0.61
   1  -1 -15    2.39    0.88
   1  -1 -15    3.71    0.96
  -1   1  15    2.53    0.53
  -1   1  15    3.26    1.03
  -1   1  15    2.07    0.63
   0  -1 -15    6.27    1.07
   0  -1 -15    5.92    1.06
   0   1  15    6.44    1.19
   0   1  15    5.29    0.60
  -1  -1 -15    0.51    0.71
  -1  -1 -15    0.12    0.87
  -1  -1 -15   -0.32    0.46
   1   1  15    0.30    0.41
   1   1  15    0.21    0.95
  -2  -1 -15    3.09    1.07
   2   1  15    3.48    1.04
   2   1  15    2.67    0.42
  -3  -1 -15    1.46    1.11
  -3  -1 -15    0.32    0.45
   3   1  15    1.10    0.58
   3   1  15   -0.69    0.92
  -4  -1 -15    0.77    1.16
  -4  -1 -15    0.31    0.46
   4   1  15    0.69    0.65
   4   1  15    0.49    0.87
  -5  -1 -15    0.81    1.24
   5   1  15    0.73    0.85
   5  -2 -15    5.06    1.71
  -5   2  15    2.10    0.77
  -5   2  15    2.47    0.96
   4  -2 -15    0.57    1.38
  -4   2  15    0.73    1.14
  -4   2  15   -0.37    0.59
  -4   2  15    0.37    0.83
   3  -2 -15    7.76    1.40
   3  -2 -15    3.72    0.86
  -3   2  15    2.87    0.78
   2  -2 -15    8.73    1.42
   2  -2 -15    4.84    0.96
  -2   2  15    8.56    1.43
  -2   2  15    6.05    1.07
   1  -2 -15    0.29    0.93
   1  -2 -15   -0.13    0.57
   1  -2 -15   -0.32    0.83
  -1   2  15   -0.46    0.64
  -1   2  15   -0.23    1.03
   0  -2 -15    4.71    0.99
   0  -2 -15    3.63    1.05
   0   2  15    4.06    1.11
  -1  -2 -15    1.84    1.06
  -1  -2 -15    2.26    0.85
   1   2  15    0.97    1.05
  -2  -2 -15   -0.19    0.46
  -2  -2 -15   -0.01    1.00
   2   2  15   -0.87    1.05
   2   2  15    0.23    0.36
  -3  -2 -15    0.37    1.08
  -3  -2 -15   -0.11    0.45
   3   2  15   -0.85    0.99
  -4  -2 -15    0.82    1.25
   4   2  15    0.63    0.71
   4   2  15    0.08    0.94
  -5  -2 -15   -0.39    1.33
   5   2  15   -0.07    0.79
  -5   3  15    1.79    1.01
  -5   3  15    1.13    0.66
   4  -3 -15    2.19    1.61
  -4   3  15    2.21    1.30
  -4   3  15    2.14    0.90
   3  -3 -15    0.12    1.37
  -3   3  15   -0.37    1.14
  -3   3  15    0.32    0.78
   2  -3 -15    3.25    1.31
   2  -3 -15    1.11    0.94
  -2   3  15    1.71    0.76
  -2   3  15    2.98    1.27
   1  -3 -15    1.47    1.01
   1  -3 -15    5.17    1.21
  -1   3  15    4.13    1.28
  -1   3  15    3.51    0.84
   0  -3 -15   -0.13    0.98
   0  -3 -15    0.23    0.94
   0  -3 -15   -0.31    0.53
   0   3  15    0.17    1.11
  -1  -3 -15    3.26    0.99
  -1  -3 -15    0.66    1.11
  -1  -3 -15    0.83    0.56
   1   3  15    1.99    1.18
  -2  -3 -15    1.02    1.27
  -2  -3 -15    0.38    0.50
   2   3  15    1.01    1.17
  -3  -3 -15   -0.49    1.26
   3   3  15   -0.98    1.07
  -4  -3 -15    1.48    1.45
   4   3  15    0.66    0.74
   4   3  15    0.07    1.08
  -5  -3 -15   -0.74    1.54
   5   3  15    0.54    0.82
   4  -4 -15    7.44    1.98
  -4   4  15    6.25    1.47
  -4   4  15    4.66    1.11
   3  -4 -15   -2.49    1.56
   3  -4 -15   -1.68    0.87
  -3   4  15    0.55    0.84
  -3   4  15    0.46    1.30
   2  -4 -15   -1.21    0.97
   2  -4 -15   -0.72    1.37
  -2   4  15    0.26    0.86
  -2   4  15   -1.08    1.23
   1  -4 -15    2.48    1.32
   1  -4 -15    1.21    1.08
  -1   4  15    2.26    0.85
  -1   4  15    1.49    1.29
   0  -4 -15    2.07    1.18
   0  -4 -15    3.78    1.24
   0   4  15    3.51    1.35
  -1  -4 -15   -0.21    1.19
  -1  -4 -15   -0.44    1.00
   1   4  15   -1.01    1.22
  -2  -4 -15    0.05    1.24
   2   4  15    0.76    1.25
  -3  -4 -15   -1.57    1.29
   3   4  15   -1.52    1.23
  -4  -4 -15   -0.87    1.50
   4   4  15   -0.61    1.20
  -4   5  15   -0.31    1.57
   3  -5 -15    5.33    1.89
   3  -5 -15    0.22    1.05
  -3   5  15    2.27    0.95
  -3   5  15    3.61    1.52
   2  -5 -15   -0.42    1.57
   2  -5 -15   -0.96    1.07
  -2   5  15    0.11    1.44
  -2   5  15    0.79    1.00
   1  -5 -15   -2.45    1.14
   1  -5 -15   -1.07    1.34
  -1   5  15   -1.33    1.36
  -1   5  15   -0.36    0.95
   0  -5 -15   -1.01    1.16
   0  -5 -15   -0.12    1.28
   0   5  15   -0.20    1.38
  -1  -5 -15   -0.97    1.29
  -1  -5 -15    0.29    1.21
   1   5  15    0.14    1.33
  -2  -5 -15   -1.44    1.29
   2   5  15   -0.46    1.40
  -3  -5 -15   -0.63    1.42
   3   5  15   -0.71    1.42
   3  -6 -15   -0.96    2.08
  -3   6  15   -0.73    1.48
   2  -6 -15   -1.90    1.79
  -2   6  15   -0.01    1.01
  -2   6  15   -0.15    1.53
   1  -6 -15    0.24    1.59
   1  -6 -15   -1.81    1.27
  -1   6  15   -0.32    1.00
  -1   6  15    1.32    1.54
   0  -6 -15   -1.58    1.49
   0  -6 -15   -2.73    1.30
   0   6  15   -0.89    1.49
  -1  -6 -15   -1.71    1.38
   1   6  15   -0.87    1.48
  -2  -6 -15   -3.21    1.47
   2   6  15   -1.55    1.53
   1  -7 -15   -1.34    1.77
  -1   7  15    0.61    1.76
   0  -7 -15   -2.14    1.71
  -1   8 -16   -0.43    0.77
   2   7 -16   -0.46    0.67
   0   7 -16   -0.46    0.72
  -1   7 -16   -0.47    0.66
  -2   7 -16   -0.91    0.66
   3   6 -16   -1.01    0.73
   2   6 -16    0.04    0.71
  -2  -6  16    1.88    1.24
   0   6 -16    0.15    0.62
  -1   6 -16   -0.15    0.60
   3   5 -16   -1.09    0.65
   2   5 -16    0.65    0.70
  -2  -5  16    1.71    1.18
   1   5 -16   -0.41    0.67
  -1  -5  16    2.28    1.28
   0  -5  16    1.75    1.26
  -1   5 -16    0.03    0.46
  -1   5 -16    0.14    0.67
  -2   5 -16    0.13    0.66
  -3  -4  16    2.52    1.27
   2   4 -16   -0.70    0.66
  -2  -4  16    0.61    1.06
  -2  -4  16    0.44    1.16
   1   4 -16    5.05    1.08
   1   4 -16    2.72    0.74
  -1  -4  16    4.30    1.20
   0   4 -16    3.04    0.90
   0  -4  16    2.60    1.14
  -1   4 -16    0.09    0.59
  -1   4 -16    0.02    0.37
  -2   4 -16   -0.05    0.60
  -3   4 -16    0.13    0.62
   4   3 -16    2.75    1.31
  -4  -3  16    3.94    1.19
   3   3 -16    1.76    1.10
  -3  -3  16    1.97    1.14
   2   3 -16    2.02    1.00
   2   3 -16   -0.24    0.61
   2   3 -16    1.73    0.73
  -2  -3  16    0.45    0.99
  -2  -3  16    1.14    1.07
   1   3 -16    0.88    0.69
   1   3 -16   -0.18    0.59
   1   3 -16    1.92    0.88
  -1  -3  16    1.63    1.06
   0   3 -16    3.67    0.89
   0   3 -16    2.38    0.77
   0  -3  16    3.07    1.11
  -1   3 -16    3.65    0.88
  -2   3 -16    0.96    0.85
  -2   3 -16    0.12    0.53
   2  -3  16    3.17    1.17
  -3   3 -16    0.11    0.58
  -3   3 -16    0.75    0.91
   3  -3  16    3.86    1.16
  -4   3 -16    1.79    1.03
   4  -3  16   -0.21    0.63
   5  -3  16   -0.24    0.80
   5   2 -16    4.16    1.50
   4   2 -16    4.09    1.31
  -4  -2  16    0.29    1.11
  -4  -2  16    3.29    1.13
   3   2 -16    2.33    1.15
   3   2 -16   -0.54    0.63
  -3  -2  16    1.05    0.64
  -3  -2  16    2.11    1.08
  -3  -2  16    0.54    1.05
   2   2 -16    0.21    0.70
   2   2 -16    1.44    0.99
   2   2 -16   -0.58    0.65
  -2  -2  16    0.40    0.55
  -2  -2  16    1.68    1.05
   1   2 -16    3.07    0.82
   1   2 -16    4.06    0.97
  -1  -2  16    3.06    1.04
   0   2 -16    2.68    0.80
   0   2 -16    0.35    0.58
   0   2 -16    1.21    0.77
   0  -2  16    2.79    1.00
  -1   2 -16    1.79    0.68
  -1   2 -16    1.18    0.79
   1  -2  16    1.99    1.01
  -2   2 -16    3.17    0.92
  -3   2 -16    0.52    0.88
  -3   2 -16    0.35    0.55
   3  -2  16    0.00    0.55
   3  -2  16    2.59    0.94
  -4   2 -16    0.41    0.98
  -4   2 -16    0.05    0.57
   4  -2  16   -0.41    0.65
   4  -2  16    1.76    0.86
  -5   2 -16    1.30    1.16
   5  -2  16   -0.31    0.77
   5   1 -16    2.78    1.42
  -5  -1  16    0.03    0.81
  -5  -1  16    0.46    1.10
   4   1 -16    3.76    1.28
  -4  -1  16    3.51    1.15
   3   1 -16    5.70    1.20
  -3  -1  16    7.10    1.39
  -3  -1  16    1.77    0.69
  -3  -1  16    3.32    0.73
  -3  -1  16    3.45    1.02
   2   1 -16    1.47    0.75
   2   1 -16    0.60    0.67
   2   1 -16    2.94    0.99
  -2  -1  16    1.61    0.63
  -2  -1  16    3.64    1.07
  -2  -1  16    1.86    0.59
   1   1 -16    2.58    0.91
   1   1 -16    0.47    0.60
   1   1 -16    1.15    0.81
  -1  -1  16    0.64    0.52
  -1  -1  16    2.17    1.01
  -1  -1  16    1.00    0.58
   0   1 -16    1.60    0.58
   0   1 -16    5.92    1.05
   0   1 -16    3.09    0.91
   0  -1  16    5.14    1.04
  -1   1 -16   -0.08    0.48
  -1   1 -16    0.02    0.79
  -1   1 -16    1.46    0.68
   1  -1  16    1.61    0.95
  -2   1 -16    0.93    0.88
  -2   1 -16    0.06    0.49
   2  -1  16    0.48    0.47
   2  -1  16    2.40    0.97
  -3   1 -16    2.48    1.03
   3  -1  16    3.13    0.63
   3  -1  16    4.62    1.00
  -4   1 -16    0.67    1.06
  -4   1 -16    0.29    0.55
   4  -1  16   -0.50    0.63
   4  -1  16    1.13    0.86
  -5   1 -16    1.39    1.20
   5  -1  16    0.14    0.83
   5   0 -16    9.64    1.86
   4   0 -16    3.73    1.37
  -4   0  16    0.40    0.97
  -4   0  16    2.81    1.15
   3   0 -16    2.01    1.13
  -3   0  16    0.87    0.72
  -3   0  16    2.18    1.09
  -3   0  16    0.39    0.61
   2   0 -16    6.60    1.29
   2   0 -16    2.11    0.83
   2   0 -16    1.43    0.68
  -2   0  16    4.46    1.10
  -2   0  16    2.69    0.56
  -2   0  16    3.27    0.67
   1   0 -16    3.10    0.92
   1   0 -16    5.00    0.99
  -1   0  16    2.62    0.61
  -1   0  16    2.99    0.59
  -1   0  16    5.12    1.09
   0   0 -16    0.87    0.88
   0   0 -16    1.47    0.80
   0   0 -16   -0.14    0.57
   0   0  16    1.89    0.98
   0   0  16    0.93    0.50
  -1   0 -16    1.82    0.95
  -1   0 -16    4.61    0.93
  -1   0 -16    1.07    0.55
   1   0  16    4.42    1.04
   1   0  16    2.46    0.51
  -2   0 -16   -0.04    0.48
  -2   0 -16   -0.30    0.96
   2   0  16    0.72    0.48
   2   0  16    1.61    1.01
  -3   0 -16    0.68    1.04
  -3   0 -16    0.31    0.48
   3   0  16    0.67    0.60
   3   0  16    1.09    0.99
  -4   0 -16    0.58    0.51
  -4   0 -16    0.58    1.11
   4   0  16    0.87    0.89
   4   0  16    0.18    0.69
  -5   0 -16    0.91    1.29
   5   0  16   -0.05    0.81
   5  -1 -16    3.28    1.58
  -5   1  16    0.29    0.72
   4  -1 -16    4.52    1.42
  -4   1  16    4.07    1.23
  -4   1  16    1.80    0.69
   3  -1 -16    3.84    1.28
  -3   1  16    1.38    0.57
  -3   1  16    1.64    0.75
  -3   1  16    2.67    1.14
   2  -1 -16    0.33    0.71
   2  -1 -16    2.72    1.10
   2  -1 -16    0.75    0.83
  -2   1  16    1.07    0.69
  -2   1  16    1.98    0.58
  -2   1  16    2.83    1.12
   1  -1 -16    6.25    1.16
   1  -1 -16    3.80    1.00
  -1   1  16    6.09    1.18
  -1   1  16    4.45    0.72
  -1   1  16    4.14    0.66
   0  -1 -16    0.12    0.56
   0  -1 -16    0.17    0.90
   0  -1 -16    1.80    0.88
   0   1  16    2.57    1.07
   0   1  16    0.84    0.46
  -1  -1 -16    0.04    0.53
  -1  -1 -16    0.84    1.00
  -1  -1 -16    0.86    0.77
   1   1  16    1.62    1.07
   1   1  16    0.81    0.43
  -2  -1 -16    1.10    1.05
  -2  -1 -16    0.20    0.50
   2   1  16    0.67    0.43
   2   1  16    1.20    1.08
  -3  -1 -16    0.88    1.13
  -3  -1 -16    0.09    0.47
   3   1  16    0.75    0.59
   3   1  16   -0.61    1.00
  -4  -1 -16    0.35    0.50
  -4  -1 -16    0.20    1.14
   4   1  16    0.16    0.94
   4   1  16    0.83    0.72
  -5  -1 -16    1.10    1.43
   5   1  16    0.30    0.86
  -5   2  16    1.02    0.67
   4  -2 -16    1.70    1.46
  -4   2  16   -0.25    0.65
  -4   2  16    0.71    1.19
   3  -2 -16    2.09    0.91
   3  -2 -16    7.42    1.50
  -3   2  16    6.77    1.33
  -3   2  16    4.31    0.91
  -3   2  16    3.00    0.66
   2  -2 -16    2.31    1.15
   2  -2 -16   -0.27    0.88
  -2   2  16    2.10    1.17
  -2   2  16    0.44    0.75
   1  -2 -16    0.45    0.64
   1  -2 -16    2.29    1.06
   1  -2 -16    0.58    0.97
  -1   2  16    2.48    1.16
  -1   2  16    1.57    0.75
   0  -2 -16    3.37    0.99
   0  -2 -16    2.03    1.07
   0   2  16    3.96    1.21
  -1  -2 -16    0.03    0.54
  -1  -2 -16    0.24    1.01
  -1  -2 -16    0.96    0.86
   1   2  16    0.93    1.15
   1   2  16    0.60    0.45
  -2  -2 -16    0.57    1.16
  -2  -2 -16   -0.33    0.51
   2   2  16   -0.01    1.15
  -3  -2 -16    0.20    0.51
  -3  -2 -16    0.34    1.22
   3   2  16   -0.32    1.11
   3   2  16    0.98    0.57
  -4  -2 -16    1.01    1.38
   4   2  16    0.83    0.70
   4   2  16   -1.20    1.02
   5   2  16   -0.17    0.89
   4  -3 -16    2.46    1.77
  -4   3  16    1.68    1.04
  -4   3  16    1.70    1.37
   3  -3 -16    1.03    1.47
   3  -3 -16   -1.83    0.85
  -3   3  16    0.24    0.88
  -3   3  16    0.20    1.32
   2  -3 -16    2.90    1.06
  -2   3  16    3.83    0.85
  -2   3  16    7.26    1.44
   1  -3 -16   -0.32    1.03
   1  -3 -16    2.22    1.21
  -1   3  16    2.95    1.30
  -1   3  16    1.91    0.84
   0  -3 -16   -0.80    0.59
   0  -3 -16    1.47    1.06
   0  -3 -16    0.03    1.10
   0   3  16    0.46    1.24
  -1  -3 -16    2.27    1.01
  -1  -3 -16    0.83    0.60
  -1  -3 -16    1.53    1.25
   1   3  16    2.09    1.28
  -2  -3 -16   -0.36    0.51
  -2  -3 -16   -0.32    1.19
   2   3  16   -0.35    1.23
  -3  -3 -16   -0.49    1.20
   3   3  16   -1.20    1.18
  -4  -3 -16   -0.03    1.42
   4   3  16   -0.66    1.13
   4   3  16    0.51    0.70
   4  -4 -16    0.19    2.07
  -4   4  16   -0.68    1.35
  -4   4  16    0.30    1.09
   3  -4 -16   -0.85    1.03
   3  -4 -16    3.19    1.73
  -3   4  16    1.72    0.93
  -3   4  16    2.42    1.41
   2  -4 -16    0.72    1.44
   2  -4 -16   -1.62    1.07
  -2   4  16    1.27    1.41
  -2   4  16    0.92    0.89
   1  -4 -16    7.35    1.53
   1  -4 -16    1.57    1.19
  -1   4  16    6.26    1.49
  -1   4  16    3.64    0.93
   0  -4 -16    0.42    1.20
   0  -4 -16   -1.47    1.12
   0   4  16   -0.73    1.35
  -1  -4 -16   -1.39    1.20
  -1  -4 -16   -0.69    1.06
   1   4  16   -1.36    1.28
  -2  -4 -16   -1.04    1.37
   2   4  16   -0.11    1.32
  -3  -4 -16   -1.09    1.47
   3   4  16   -0.79    1.38
   4   4  16   -0.55    1.28
   4   4  16    1.06    0.78
   3  -5 -16    0.55    1.89
  -3   5  16    0.94    0.98
  -3   5  16    0.71    1.55
   2  -5 -16   -0.31    1.63
  -2   5  16   -1.38    1.00
  -2   5  16    0.09    1.52
   1  -5 -16   -1.67    1.40
  -1   5  16    0.03    0.93
  -1   5  16   -0.39    1.50
   0  -5 -16    4.06    1.46
   0  -5 -16    0.08    1.30
   0   5  16    3.84    1.55
  -1  -5 -16   -2.03    1.31
   1   5  16   -0.60    1.43
  -2  -5 -16   -2.15    1.39
   2   5  16   -1.49    1.45
   3   5  16   -2.08    1.55
   2  -6 -16   -1.44    1.34
   2  -6 -16    2.46    1.91
  -2   6  16    1.44    1.64
   1  -6 -16   -1.05    1.66
  -1   6  16   -1.03    1.57
   0  -6 -16   -1.39    1.55
   0   6  16   -1.68    1.60
  -1  -6 -16   -2.54    1.46
   1   6  16    0.03    1.68
   2   6 -17   -0.49    0.73
   0   6 -17    0.50    0.81
   2   5 -17   -0.56    0.67
   1   5 -17    2.09    0.81
   1   5 -17    0.08    0.75
   0   5 -17    0.34    0.67
   3   4 -17   -1.24    0.74
   2   4 -17   -0.51    0.63
  -2  -4  17    2.36    1.31
   1   4 -17    1.52    0.98
   1   4 -17    1.18    0.75
  -1  -4  17    1.61    1.24
   0   4 -17    2.54    0.88
   0  -4  17    4.30    1.29
  -1   4 -17    1.75    0.69
   2  -4  17    4.53    1.44
   4   3 -17    2.86    1.35
  -4  -3  17    4.20    1.24
   3   3 -17    4.04    1.26
  -3  -3  17    0.77    1.19
  -3  -3  17    2.55    1.21
   2   3 -17    2.67    1.14
  -2  -3  17    2.37    1.21
   1   3 -17    1.44    0.94
   1   3 -17   -0.18    0.63
   1   3 -17    0.57    0.76
  -1  -3  17    1.17    1.15
   0   3 -17    1.48    0.80
   0   3 -17    2.63    0.94
   0  -3  17    2.33    1.19
  -1   3 -17    0.78    0.62
  -1   3 -17    2.26    0.89
   1  -3  17    5.63    1.30
  -2   3 -17    0.30    0.62
  -2   3 -17    0.85    0.93
   2  -3  17    4.50    1.30
  -3   3 -17    1.86    1.04
   3  -3  17    4.08    1.08
  -4   3 -17    1.14    1.12
  -4   3 -17    0.28    0.67
   4  -3  17   -0.44    0.67
   4   2 -17    4.03    1.37
  -4  -2  17    0.62    1.16
  -4  -2  17    7.07    1.46
   3   2 -17    2.43    1.18
   3   2 -17   -0.65    0.67
  -3  -2  17    0.28    1.12
  -3  -2  17    1.94    1.17
   2   2 -17    4.32    1.13
  -2  -2  17    3.27    1.14
   1   2 -17    2.85    0.95
   1   2 -17   -0.08    0.60
   1   2 -17    1.44    0.81
  -1  -2  17    2.68    1.08
   0   2 -17    2.21    0.83
   0   2 -17   -0.44    0.59
   0   2 -17    0.47    0.83
   0  -2  17    1.26    1.05
  -1   2 -17   -0.04    0.54
  -1   2 -17    0.68    0.86
   1  -2  17    2.55    1.11
  -2   2 -17    0.80    0.88
  -2   2 -17    0.18    0.56
   2  -2  17    2.95    1.06
  -3   2 -17    0.25    0.56
  -3   2 -17    0.85    0.99
   3  -2  17    3.32    1.01
   3  -2  17   -0.05    0.57
  -4   2 -17    0.57    1.07
   4  -2  17    2.78    0.93
   4  -2  17   -0.04    0.68
  -5  -1  17    0.45    0.81
   4   1 -17    3.82    1.35
  -4  -1  17    1.36    1.14
  -4  -1  17    0.27    0.72
  -4  -1  17    4.59    1.21
   3   1 -17    2.35    1.15
   3   1 -17   -0.74    0.70
  -3  -1  17    0.00    0.67
  -3  -1  17    3.14    1.20
  -3  -1  17    0.98    0.68
   2   1 -17   -0.53    0.64
   2   1 -17    2.33    1.02
   2   1 -17   -0.70    0.76
  -2  -1  17    0.23    0.58
  -2  -1  17    1.64    1.08
  -2  -1  17   -0.08    0.62
   1   1 -17    1.43    0.88
   1   1 -17    2.38    0.94
  -1  -1  17    0.27    0.55
  -1  -1  17    2.38    1.09
  -1  -1  17    0.23    0.58
   0   1 -17    5.95    1.11
   0   1 -17    3.34    0.99
   0  -1  17    4.80    1.11
  -1   1 -17    0.63    0.91
  -1   1 -17   -0.28    0.56
   1  -1  17    1.12    1.03
  -2   1 -17    0.93    0.58
  -2   1 -17    1.85    1.00
   2  -1  17    1.75    0.51
   2  -1  17    3.93    1.06
  -3   1 -17    0.32    1.03
  -3   1 -17   -0.02    0.55
   3  -1  17    2.43    1.00
   3  -1  17    0.36    0.58
  -4   1 -17    1.04    1.16
   4  -1  17    0.04    0.70
   4  -1  17    1.34    0.95
   5  -1  17    0.30    0.82
  -5   0  17    1.96    0.75
   4   0 -17    2.81    1.35
  -4   0  17    3.48    1.22
   3   0 -17    6.74    1.34
  -3   0  17    2.64    0.64
  -3   0  17    3.13    0.80
   2   0 -17    4.21    1.10
   2   0 -17    0.48    0.70
   2   0 -17    1.03    0.84
  -2   0  17    1.68    0.66
  -2   0  17    1.91    0.60
  -2   0  17    3.75    1.17
   1   0 -17   -0.29    0.83
   1   0 -17    1.13    0.92
   1   0 -17   -0.26    0.63
  -1   0  17    0.14    0.56
  -1   0  17    0.00    0.59
  -1   0  17    1.03    1.06
   0   0 -17    3.23    1.05
   0   0  17    3.47    0.58
   0   0  17    6.25    1.18
  -1   0 -17    1.73    1.01
  -1   0 -17    0.46    0.57
  -1   0 -17    3.06    0.83
   1   0  17    3.13    1.09
   1   0  17    1.12    0.52
  -2   0 -17    0.62    1.05
  -2   0 -17    0.02    0.55
   2   0  17    1.89    1.08
   2   0  17    0.51    0.51
  -3   0 -17    0.40    1.08
  -3   0 -17    0.22    0.54
   3   0  17    1.17    0.60
   3   0  17    1.60    1.05
  -4   0 -17    1.15    1.19
  -4   0 -17    0.70    0.57
   4   0  17    0.50    0.71
   4   0  17   -0.85    0.95
  -5   1  17    1.78    1.01
   4  -1 -17    4.47    1.50
  -4   1  17    3.30    1.27
  -4   1  17    0.85    0.86
   3  -1 -17    1.40    1.22
  -3   1  17    0.06    0.55
  -3   1  17    1.69    1.16
  -3   1  17    0.47    0.76
   2  -1 -17    1.61    0.95
   2  -1 -17    5.22    1.21
  -2   1  17    5.83    1.27
  -2   1  17    3.27    0.65
  -2   1  17    3.03    0.76
   1  -1 -17    2.69    1.03
   1  -1 -17    0.43    0.95
   1  -1 -17    0.28    0.69
  -1   1  17    3.51    1.18
  -1   1  17    1.52    0.56
  -1   1  17    0.77    0.68
   0  -1 -17   -0.45    0.96
   0  -1 -17   -0.30    0.61
   0  -1 -17    0.58    0.89
   0   1  17    1.32    1.10
   0   1  17    0.39    0.49
  -1  -1 -17    2.30    1.10
  -1  -1 -17    1.11    0.62
  -1  -1 -17    3.54    0.93
   1   1  17    4.57    1.20
   1   1  17    2.37    0.51
  -2  -1 -17    0.58    0.55
  -2  -1 -17    1.28    1.16
   2   1  17    2.37    1.18
  -3  -1 -17    0.04    0.53
  -3  -1 -17    0.42    1.13
   3   1  17    0.13    1.10
   3   1  17    0.91    0.63
  -4  -1 -17    0.42    1.23
   4   1  17    0.63    0.72
   4   1  17    0.11    1.00
   4  -2 -17    5.96    1.64
  -4   2  17    4.40    1.36
  -4   2  17    1.38    0.90
  -4   2  17    2.54    0.76
   3  -2 -17    1.32    1.34
  -3   2  17    0.92    1.25
  -3   2  17    0.72    0.80
  -3   2  17   -0.65    0.61
   2  -2 -17    0.45    1.18
   2  -2 -17   -1.82    0.92
  -2   2  17   -0.14    0.77
  -2   2  17    0.60    0.59
  -2   2  17    0.72    1.23
   1  -2 -17    4.38    1.14
   1  -2 -17    0.80    0.71
   1  -2 -17    1.26    1.06
  -1   2  17    1.96    0.78
  -1   2  17    4.77    1.31
  -1   2  17    2.30    0.60
   0  -2 -17    0.39    1.06
   0  -2 -17    2.78    1.04
   0  -2 -17    0.28    0.65
   0   2  17    1.34    0.53
   0   2  17    2.74    1.26
  -1  -2 -17   -0.13    0.59
  -1  -2 -17    0.67    1.17
   1   2  17    0.72    0.46
   1   2  17    0.43    1.19
  -2  -2 -17    0.32    1.13
  -2  -2 -17   -0.13    0.56
   2   2  17    0.63    1.22
  -3  -2 -17    0.61    1.25
   3   2  17    1.19    0.62
   3   2  17    0.02    1.20
  -4  -2 -17    0.48    1.30
   4   2  17    0.65    0.74
   4   2  17   -0.11    1.09
  -4   3  17    0.92    1.36
  -4   3  17   -0.08    0.66
  -4   3  17    0.12    0.90
   3  -3 -17    5.57    1.70
  -3   3  17    2.75    0.94
  -3   3  17    3.78    1.45
   2  -3 -17    1.54    1.37
   2  -3 -17   -1.94    1.01
  -2   3  17    1.69    1.36
  -2   3  17    0.42    0.82
   1  -3 -17    1.55    1.23
   1  -3 -17   -0.87    1.06
  -1   3  17   -0.58    0.81
  -1   3  17    1.04    1.31
   0  -3 -17    0.80    1.08
   0  -3 -17   -1.42    1.13
   0   3  17    0.51    1.33
  -1  -3 -17   -0.72    0.61
  -1  -3 -17   -0.67    1.23
   1   3  17    0.46    1.31
  -2  -3 -17   -0.86    0.57
  -2  -3 -17   -0.24    1.37
   2   3  17   -1.20    1.30
  -3  -3 -17    0.43    1.46
   3   3  17   -0.61    1.24
   4   3  17    1.33    0.78
   4   3  17    0.14    1.23
   3  -4 -17   -0.09    1.66
  -3   4  17    0.69    1.42
  -3   4  17    0.14    1.02
   2  -4 -17   -0.26    1.52
  -2   4  17    0.63    1.50
  -2   4  17    0.10    0.90
   1  -4 -17    3.94    1.42
   1  -4 -17   -0.53    1.18
  -1   4  17    1.16    0.92
  -1   4  17    3.01    1.54
   0  -4 -17    1.30    1.30
   0  -4 -17   -2.00    1.21
   0   4  17   -0.08    1.44
  -1  -4 -17   -1.60    1.30
   1   4  17   -1.33    1.35
  -2  -4 -17   -1.29    1.49
   2   4  17   -1.71    1.38
  -3  -4 -17   -0.33    1.59
   3   4  17   -0.73    1.44
   2  -5 -17    0.14    1.64
  -2   5  17    1.12    1.65
  -2   5  17   -0.89    1.02
   1  -5 -17    1.29    1.53
   1  -5 -17   -2.87    1.32
  -1   5  17    0.54    1.58
  -1   5  17   -0.37    1.00
   0  -5 -17    0.82    1.43
   0  -5 -17   -2.39    1.37
   0   5  17    1.53    1.57
  -1  -5 -17   -2.18    1.36
   1   5  17   -0.75    1.50
   1  -6 -17   -3.06    1.51
   0  -6 -17   -0.41    1.66
   2   6 -18   -0.62    0.73
   1   6 -18   -0.05    0.82
   2   5 -18   -0.52    0.73
   1   5 -18   -0.27    0.77
  -3  -4  18    4.03    1.46
   2   4 -18   -0.59    0.69
   1   4 -18    0.24    0.67
   0   4 -18    0.05    0.68
  -1   4 -18    1.85    1.00
   1  -4  18    4.41    1.42
  -2   4 -18    0.55    0.73
  -3   4 -18    0.25    0.71
  -4  -3  18    4.56    1.38
  -3  -3  18    3.88    1.35
   2   3 -18    1.54    1.16
  -2  -3  18    2.38    1.31
   1   3 -18    0.21    0.67
   1   3 -18    4.22    1.13
   1   3 -18    1.87    0.88
  -1  -3  18    3.49    1.33
   0   3 -18    1.51    0.91
   0   3 -18    3.07    0.96
   0   3 -18   -0.15    0.65
   0  -3  18    3.77    1.32
  -1   3 -18    0.64    0.90
  -1   3 -18    0.07    0.67
   1  -3  18    2.83    1.26
  -2   3 -18    1.18    1.02
  -2   3 -18    0.28    0.63
  -3   3 -18    1.60    1.11
   3  -3  18    8.35    1.36
   4   2 -18    3.34    1.42
   3   2 -18    3.30    1.28
  -3  -2  18    3.81    1.29
   2   2 -18    3.50    1.15
  -2  -2  18    3.17    1.25
   1   2 -18   -0.47    0.63
   1   2 -18    0.56    0.85
   1   2 -18    1.94    0.96
  -1  -2  18    2.64    1.18
   0   2 -18    1.94    0.96
   0   2 -18    0.25    0.66
   0  -2  18    4.61    1.20
  -1   2 -18    1.15    0.96
  -1   2 -18    0.41    0.63
   1  -2  18    3.40    1.22
  -2   2 -18    0.88    1.03
  -2   2 -18   -0.07    0.60
  -3   2 -18    0.31    1.06
  -3   2 -18    0.66    0.64
   3  -2  18    3.81    1.08
   4  -2  18    0.71    0.69
   4  -2  18    3.17    1.03
   4   1 -18    9.01    1.72
  -4  -1  18    8.35    1.56
   3   1 -18    3.23    1.22
  -3  -1  18    2.87    1.25
   2   1 -18    2.39    1.08
  -2  -1  18    1.94    1.16
  -2  -1  18   -0.16    0.59
   1   1 -18    2.94    1.01
   1   1 -18    0.32    0.67
   1   1 -18    0.77    0.92
  -1  -1  18    0.61    0.62
  -1  -1  18    3.11    1.18
   0   1 -18   -0.02    0.64
   0   1 -18    0.36    0.94
   0   1 -18    2.59    0.88
   0  -1  18    1.54    1.10
  -1   1 -18    0.26    0.63
  -1   1 -18    1.05    1.01
   1  -1  18    2.44    1.14
  -2   1 -18    0.34    0.59
  -2   1 -18    0.74    1.03
  -3   1 -18    0.45    0.58
  -3   1 -18    0.84    1.12
   3  -1  18    0.35    0.60
   3  -1  18    2.77    1.08
  -4   1 -18    0.82    1.17
   4  -1  18   -0.56    0.69
   4  -1  18    1.97    0.99
   4   0 -18    3.45    1.46
  -4   0  18    2.42    1.22
  -4   0  18   -0.02    0.73
   3   0 -18    9.42    1.63
  -3   0  18    8.62    1.60
   2   0 -18   -0.93    0.73
   2   0 -18   -0.57    0.88
   2   0 -18    2.50    1.09
  -2   0  18    0.50    0.68
  -2   0  18    2.72    1.24
  -2   0  18   -0.10    0.60
   1   0 -18   -0.22    0.93
   1   0 -18   -0.88    0.65
   1   0 -18    2.08    1.02
  -1   0  18   -0.41    0.62
  -1   0  18    1.82    1.16
  -1   0  18   -0.01    0.58
   0   0 -18    0.38    0.97
   0   0 -18    2.26    0.93
   0   0 -18   -0.31    0.63
   0   0  18    0.29    0.55
   0   0  18    1.68    1.11
  -1   0 -18    0.28    1.04
  -1   0 -18    0.01    0.61
   1   0  18    2.14    1.14
  -2   0 -18    0.44    1.13
  -2   0 -18   -0.02    0.57
   2   0  18    3.53    1.19
   2   0  18    0.79    0.53
  -3   0 -18    0.53    0.63
  -3   0 -18    1.44    1.27
   3   0  18    1.68    0.65
   3   0  18    3.45    1.16
  -4   0 -18    0.43    0.60
  -4   0 -18   -0.01    1.30
   4   0  18   -0.36    0.72
   4   0  18    0.95    1.04
   4  -1 -18    3.11    1.48
  -4   1  18    2.94    1.28
  -4   1  18    0.50    0.68
   3  -1 -18    3.07    1.35
  -3   1  18    2.29    1.26
  -3   1  18    0.12    0.76
   2  -1 -18    7.95    1.52
   2  -1 -18    2.89    1.05
   2  -1 -18    1.37    0.83
  -2   1  18    3.47    0.80
  -2   1  18    4.17    0.71
   1  -1 -18    0.64    0.99
   1  -1 -18    2.83    1.09
   1  -1 -18   -0.14    0.71
  -1   1  18    0.24    0.69
  -1   1  18    2.91    1.26
  -1   1  18    0.77    0.58
   0  -1 -18   -0.55    0.65
   0  -1 -18    0.11    1.05
   0  -1 -18    1.42    0.97
   0   1  18    2.07    1.21
   0   1  18    0.33    0.53
  -1  -1 -18    0.39    0.64
  -1  -1 -18    1.41    1.12
   1   1  18    4.33    1.28
   1   1  18    1.17    0.53
  -2  -1 -18   -0.45    0.57
  -2  -1 -18    0.43    1.22
   2   1  18    1.66    1.23
   2   1  18    1.33    0.53
  -3  -1 -18    1.15    1.27
  -3  -1 -18    0.46    0.58
   3   1  18    2.12    1.21
   3   1  18    1.65    0.65
   4   1  18    0.46    0.77
   4   1  18    0.16    1.08
  -4   2  18    1.23    0.74
  -4   2  18    2.39    1.32
   3  -2 -18    1.94    1.41
  -3   2  18    0.70    0.68
  -3   2  18    2.61    1.34
  -3   2  18    0.52    0.88
   2  -2 -18    2.81    1.25
   2  -2 -18   -1.07    1.02
  -2   2  18    3.33    1.34
  -2   2  18    0.58    0.61
  -2   2  18    0.57    0.80
   1  -2 -18    5.00    1.22
   1  -2 -18    2.26    1.15
   1  -2 -18    0.69    0.77
  -1   2  18    1.68    0.81
  -1   2  18    2.78    0.63
  -1   2  18    4.71    1.38
   0  -2 -18    0.59    1.15
   0  -2 -18    1.73    1.06
   0  -2 -18   -0.61    0.68
   0   2  18    0.34    0.52
   0   2  18    0.87    1.27
  -1  -2 -18    0.21    1.18
  -1  -2 -18   -0.57    0.61
   1   2  18    1.08    1.30
   1   2  18    0.74    0.52
  -2  -2 -18    1.17    1.31
   2   2  18    1.74    1.33
  -3  -2 -18    0.51    1.31
   3   2  18    0.61    1.29
   3   2  18    1.49    0.67
   3  -3 -18    2.85    1.62
  -3   3  18    2.19    1.43
  -3   3  18    0.32    0.60
  -3   3  18    0.24    0.89
   2  -3 -18    0.31    1.44
   2  -3 -18   -2.36    1.08
  -2   3  18   -0.87    0.89
  -2   3  18    0.43    1.45
   1  -3 -18    1.45    1.27
   1  -3 -18   -1.44    1.14
  -1   3  18    1.23    1.42
  -1   3  18   -1.09    0.83
   0  -3 -18    8.29    1.61
   0   3  18    7.06    1.54
  -1  -3 -18   -1.76    1.30
   1   3  18   -0.02    0.50
   1   3  18    0.50    1.41
  -2  -3 -18   -0.70    1.34
   2   3  18    0.28    1.41
   3   3  18   -0.59    1.33
   2  -4 -18    1.98    1.55
  -2   4  18    2.31    1.55
  -2   4  18   -0.29    0.93
   1  -4 -18    0.64    1.40
   1  -4 -18   -2.16    1.24
  -1   4  18   -0.13    1.52
  -1   4  18   -1.30    0.92
   0  -4 -18   -1.49    1.31
   0  -4 -18    0.65    1.27
   0   4  18   -0.25    1.46
  -1  -4 -18   -0.63    1.39
   1   4  18    0.33    1.49
   2   4  18   -0.46    1.50
   1  -5 -18   -3.12    1.41
   1  -5 -18    0.94    1.62
   2   5 -19   -0.65    0.80
   1   5 -19    0.03    0.75
   0   5 -19   -0.17    0.77
   2   4 -19   -0.37    0.81
   1   4 -19   -0.29    0.72
   0   4 -19    1.12    0.92
   0   4 -19   -0.13    0.74
  -1   4 -19    0.06    0.75
   3   3 -19   -1.36    0.80
   2   3 -19    3.48    1.27
  -2  -3  19    2.32    1.35
   1   3 -19    0.02    0.69
   1   3 -19    1.06    0.91
   0   3 -19    0.03    0.69
   0   3 -19    1.24    0.96
   0  -3  19    4.29    1.34
  -1   3 -19    0.66    1.00
  -1   3 -19    0.01    0.69
   1  -3  19    3.50    1.34
   3  -3  19    8.70    1.49
   3   2 -19    4.15    1.37
   2   2 -19    3.83    1.24
  -2  -2  19    3.64    1.30
   1   2 -19    2.72    1.05
   1   2 -19    0.32    0.91
  -1  -2  19    2.91    1.28
   0   2 -19    0.47    0.73
   0   2 -19    1.16    0.99
   0  -2  19    3.96    1.26
  -1   2 -19   -0.65    0.65
  -1   2 -19    0.65    1.03
   1  -2  19    4.58    1.28
  -2   2 -19    0.35    0.65
  -2   2 -19    0.74    1.13
  -3   2 -19    0.62    0.68
  -4  -1  19    3.92    1.41
   3   1 -19    3.77    1.29
  -3  -1  19    0.20    0.74
  -3  -1  19    3.80    1.33
   2   1 -19    4.73    1.21
   2   1 -19   -0.19    0.77
  -2  -1  19    1.31    0.71
  -2  -1  19    4.64    1.32
   1   1 -19    2.85    1.04
   1   1 -19    0.20    0.96
  -1  -1  19    3.25    1.25
   0   1 -19    2.18    0.96
   0   1 -19    0.30    0.98
   0   1 -19   -0.59    0.68
   0  -1  19    2.39    1.19
  -1   1 -19   -0.19    0.64
  -1   1 -19    0.90    1.11
   1  -1  19    3.71    1.19
  -2   1 -19    0.05    0.62
  -2   1 -19   -0.06    1.11
   2  -1  19    3.94    1.18
  -3   1 -19    0.25    1.22
  -3   1 -19    0.29    0.65
   3  -1  19    3.77    1.15
   3   0 -19    3.33    1.34
  -3   0  19    2.85    1.26
   2   0 -19    3.08    1.21
  -2   0  19    2.55    1.25
  -2   0  19    0.26    0.67
   1   0 -19    1.12    1.05
   1   0 -19    0.03    0.73
   1   0 -19    4.08    1.10
  -1   0  19    3.68    1.28
  -1   0  19    1.16    0.64
   0   0 -19   -0.49    0.67
   0   0 -19    0.56    1.04
   0   0 -19    1.67    0.94
   0   0  19    0.13    0.58
   0   0  19    3.00    1.24
  -1   0 -19    1.03    1.16
  -1   0 -19   -0.24    0.66
   1   0  19    2.87    1.24
  -2   0 -19    0.91    1.17
  -2   0 -19   -0.28    0.60
   2   0  19    2.09    1.22
   2   0  19    0.66    0.55
  -3   0 -19    0.42    1.28
  -3   0 -19    0.36    0.62
   3   0  19    2.72    1.19
   3   0  19    1.05    0.64
   3  -1 -19    4.66    1.44
  -3   1  19    1.12    0.85
  -3   1  19    3.10    1.33
   2  -1 -19    2.98    1.24
  -2   1  19   -0.12    0.80
  -2   1  19    0.36    0.64
  -2   1  19    2.38    1.34
   1  -1 -19   -0.77    0.76
   1  -1 -19    2.26    1.13
   1  -1 -19   -0.93    1.03
  -1   1  19   -1.04    0.74
  -1   1  19    0.27    0.61
  -1   1  19    1.85    1.27
   0  -1 -19    1.65    0.99
   0  -1 -19   -0.47    1.09
   0  -1 -19   -0.91    0.68
   0   1  19    1.57    1.27
   0   1  19   -0.11    0.58
  -1  -1 -19    0.62    1.19
  -1  -1 -19   -0.28    0.67
   1   1  19    0.11    0.53
   1   1  19    3.35    1.31
  -2  -1 -19   -0.59    1.24
  -2  -1 -19   -0.66    0.62
   2   1  19    2.02    1.27
   2   1  19    1.21    0.56
  -3  -1 -19    0.46    1.40
  -3  -1 -19    0.21    0.65
   3   1  19    0.86    0.64
   3   1  19    2.38    1.29
   3  -2 -19    2.12    1.43
  -3   2  19    2.13    1.41
  -3   2  19   -0.11    0.85
  -3   2  19    0.44    0.72
   2  -2 -19    1.64    1.26
  -2   2  19   -0.87    0.84
  -2   2  19    2.57    1.40
  -2   2  19    0.56    0.61
   1  -2 -19    3.11    1.22
   1  -2 -19   -1.16    1.13
  -1   2  19    1.49    0.65
  -1   2  19   -0.20    0.82
  -1   2  19    3.18    1.44
   0  -2 -19   -0.40    1.17
   0  -2 -19    1.63    1.15
   0  -2 -19   -0.96    0.71
   0   2  19    2.28    1.36
   0   2  19    0.69    0.58
  -1  -2 -19   -1.09    0.67
  -1  -2 -19   -0.14    1.24
   1   2  19    2.00    1.38
   1   2  19   -0.01    0.52
  -2  -2 -19    1.57    1.41
   2   2  19    2.52    1.41
   3   2  19    0.43    1.33
   3   2  19    1.57    0.68
   2  -3 -19    0.75    1.45
  -2   3  19    1.68    1.50
  -2   3  19    0.22    0.68
  -2   3  19   -1.13    0.89
   1  -3 -19   -2.24    1.22
   1  -3 -19    2.89    1.35
  -1   3  19    2.41    1.49
  -1   3  19    0.71    0.65
  -1   3  19   -0.66    0.89
   0  -3 -19   -0.98    1.28
   0   3  19    2.49    1.46
   0   3  19    1.38    0.62
  -1  -3 -19   -2.03    1.33
   1   3  19    1.11    1.45
  -2  -3 -19   -1.09    1.53
   2   3  19    1.56    1.53
   1  -4 -19    0.74    1.41
   0  -4 -19   -2.24    1.39
   0   4 -20    0.10    0.83
   2   3 -20    7.94    1.63
   1   3 -20   -0.59    0.73
   0  -3  20    3.46    1.35
  -1   3 -20    0.17    0.70
   2  -3  20    9.29    1.62
   2   2 -20    3.46    1.22
  -2  -2  20    3.47    1.41
   1   2 -20   -0.54    0.79
  -1  -2  20    3.14    1.31
   0   2 -20    0.09    1.03
   0   2 -20   -0.04    0.77
   0  -2  20    4.11    1.30
  -1   2 -20   -0.09    0.71
  -1   2 -20    1.29    1.14
   1  -2  20    3.78    1.30
  -2   2 -20    1.06    1.18
  -2   2 -20    0.74    0.74
   3  -2  20    7.52    1.40
   3   1 -20    3.58    1.35
  -3  -1  20    4.28    1.39
   2   1 -20    8.89    1.54
  -2  -1  20    8.63    1.69
   1   1 -20    3.36    1.10
   1   1 -20    0.07    1.01
  -1  -1  20    3.77    1.33
   0   1 -20   -0.09    1.05
   0   1 -20   -0.25    0.74
   0  -1  20    3.14    1.27
  -1   1 -20    0.02    0.70
  -1   1 -20    1.08    1.17
   1  -1  20    3.72    1.26
  -2   1 -20   -0.01    0.72
  -2   1 -20    0.51    1.25
   2  -1  20    3.93    1.26
   3   0 -20    4.17    1.42
  -3   0  20    3.54    1.37
   2   0 -20    3.11    1.21
   2   0 -20   -1.44    0.87
  -2   0  20    0.39    0.71
  -2   0  20    3.53    1.36
   1   0 -20   -0.25    0.82
   1   0 -20    0.62    1.08
  -1   0  20    4.88    1.36
  -1   0  20    1.70    0.70
   0   0 -20   -0.42    1.08
   0   0 -20   -0.52    0.72
   0   0  20    2.55    1.29
   0   0  20   -0.38    0.60
  -1   0 -20   -0.14    1.18
  -1   0 -20   -0.55    0.70
   1   0  20    3.19    1.31
  -2   0 -20   -0.43    0.67
  -2   0 -20    0.07    1.19
   2   0  20    3.08    1.32
  -3   0 -20    0.16    0.68
   3   0  20    1.24    0.71
   3   0  20    3.66    1.30
   2  -1 -20    1.92    1.25
  -2   1  20    1.28    1.34
  -2   1  20    0.01    0.68
   1  -1 -20    2.19    1.18
   1  -1 -20   -0.66    1.09
   1  -1 -20   -1.16    0.79
  -1   1  20   -0.03    0.65
  -1   1  20    1.88    1.37
   0  -1 -20    2.30    1.22
   0  -1 -20    0.31    0.78
   0   1  20    1.89    0.65
  -1  -1 -20   -1.22    0.69
  -1  -1 -20    0.33    1.25
   1   1  20    2.87    1.36
  -2  -1 -20   -0.48    1.25
   2   1  20    2.93    1.40
   2   1  20    0.99    0.60
   2  -2 -20    3.31    1.41
  -2   2  20    2.55    1.45
  -2   2  20    0.58    0.68
  -2   2  20   -0.31    0.87
   1  -2 -20    2.27    1.27
   1  -2 -20   -2.21    1.16
  -1   2  20    0.28    0.65
  -1   2  20    1.12    1.45
   0  -2 -20   -0.17    1.27
   0   2  20    0.19    0.62
   0   2  20    2.23    1.45
  -1  -2 -20    0.19    1.36
  -1  -2 -20   -0.65    0.73
   1   2  20    3.82    1.48
   1  -3 -20   -2.42    1.28
   1  -3 -20    2.20    1.45
  -1   3  20    0.74    0.66
   0  -3 -20   -2.60    1.31
   0   3  20    0.66    0.61
   0   3 -21    0.88    1.16
   0   2 -21    0.31    1.14
   1  -2  21    4.56    1.37
   2   1 -21    3.43    1.31
  -1  -1  21    3.20    1.40
   0   1 -21   -1.07    0.77
   0   1 -21   -0.74    1.10
   0  -1  21    2.55    1.33
  -1   1 -21    0.84    1.21
  -1   1 -21   -0.22    0.74
   2   0 -21    3.77    1.28
  -2   0  21   -0.56    0.74
   1   0 -21    4.07    1.23
   1   0 -21   -0.28    1.13
  -1   0  21   -0.04    0.71
  -1   0  21    3.91    1.54
   0   0 -21   -0.78    0.78
   0   0 -21   -0.10    1.16
   0   0  21    3.91    1.49
  -1   0 -21   -0.92    0.74
  -1   0 -21   -1.29    1.21
   1  -1 -21    3.13    1.23
   1  -1 -21   -0.90    1.16
  -1   1  21    0.51    0.71
   0  -1 -21    0.01    1.19
   0  -1 -21   -0.49    0.81
   0   1  21   -0.19    0.61
  -1  -1 -21   -1.20    0.73
  -1  -1 -21   -0.21    1.31
   0   0   0    0.00    0.00
;
_shelx_hkl_checksum              34303
_shelx_res_file
;
TITL a2cg
CELL  0.71073   5.8714   7.8616  15.5954   95.007   90.218   92.179
ZERR     2.00   0.0005   0.0007   0.0013    0.005    0.005    0.005
LATT   1
SFAC  C    H    O    BR
UNIT  38   26   2    2
MERG   2
OMIT -2  53.1
OMIT   0   0   1
TEMP 23.0
SIZE 0.30 0.28 0.27
FMAP   2
PLAN    20
ACTA
BOND $H
CONF
HTAB
L.S.   20
MPLA C31 > C36
MPLA C11 > C20
MPLA C1 C2 C3
MPLA C31 > C36
WGHT    0.016400    0.649200
FVAR       0.16071
C1    1    0.506763    0.237472    0.477420    11.00000    0.04128    0.04897 =
         0.03566    0.00784    0.00436    0.01123
O1    3    0.711070    0.260637    0.491056    11.00000    0.04240    0.08299 =
         0.04342   -0.00142    0.00131    0.00661
C2    1    0.338668    0.304904    0.540186    11.00000    0.04034    0.05693 =
         0.04047   -0.00012    0.00150    0.00994
AFIX  43
H2    2    0.189739    0.317669    0.521998    11.00000   -1.20000
AFIX   0
C3    1    0.393523    0.347492    0.621174    11.00000    0.03593    0.04794 =
         0.03883    0.00609    0.00248    0.00352
AFIX  43
H3    2    0.542243    0.326791    0.636857    11.00000   -1.20000
AFIX   0
C11   1    0.564965    0.129575    0.326513    11.00000    0.02907    0.03226 =
         0.04138    0.00472    0.00020    0.00143
AFIX  43
H11   2    0.710334    0.180883    0.331351    11.00000   -1.20000
AFIX   0
C12   1    0.423895    0.143812    0.395744    11.00000    0.03292    0.03880 =
         0.03334    0.00521    0.00259    0.00620
C13   1    0.204766    0.063078    0.388496    11.00000    0.03813    0.04953 =
         0.04745    0.01317    0.01399    0.00551
AFIX  43
H13   2    0.105454    0.073354    0.434814    11.00000   -1.20000
AFIX   0
C14   1    0.138041   -0.029203    0.314641    11.00000    0.03295    0.03950 =
         0.06449    0.00847    0.00386   -0.00002
AFIX  43
H14   2   -0.005243   -0.084127    0.311816    11.00000   -1.20000
AFIX   0
C15   1    0.216236   -0.138273    0.163918    11.00000    0.04194    0.03484 =
         0.06595   -0.00057   -0.01671    0.00205
AFIX  43
H15   2    0.073829   -0.194364    0.159100    11.00000   -1.20000
AFIX   0
C16   1    0.358263   -0.148380    0.096049    11.00000    0.06876    0.04423 =
         0.04857   -0.00470   -0.01164    0.01374
AFIX  43
H16   2    0.312743   -0.210922    0.045093    11.00000   -1.20000
AFIX   0
C17   1    0.574488   -0.065106    0.101775    11.00000    0.05789    0.05065 =
         0.04031    0.00282    0.00627    0.01781
AFIX  43
H17   2    0.671156   -0.072702    0.054607    11.00000   -1.20000
AFIX   0
C18   1    0.643013    0.026499    0.175937    11.00000    0.03988    0.04100 =
         0.03973    0.00058    0.00282    0.00519
AFIX  43
H18   2    0.786674    0.080815    0.179203    11.00000   -1.20000
AFIX   0
C19   1    0.497945    0.039991    0.248162    11.00000    0.03625    0.03062 =
         0.03417    0.00438   -0.00224    0.00731
C20   1    0.279818   -0.044035    0.242207    11.00000    0.03461    0.02972 =
         0.04866    0.00344   -0.00564    0.00265
C31   1    0.251206    0.422974    0.689528    11.00000    0.03629    0.03231 =
         0.03512    0.00394    0.00198    0.00042
C32   1    0.328997    0.432816    0.774026    11.00000    0.03213    0.04534 =
         0.04283    0.00765   -0.00023    0.00450
AFIX  43
H32   2    0.469350    0.388509    0.785636    11.00000   -1.20000
AFIX   0
C33   1    0.204799    0.506095    0.841070    11.00000    0.04051    0.04409 =
         0.03563    0.00188   -0.00354    0.00114
AFIX  43
H33   2    0.259635    0.510735    0.897283    11.00000   -1.20000
AFIX   0
C34   1   -0.001590    0.572296    0.823576    11.00000    0.03570    0.03072 =
         0.04085    0.00021    0.00272   -0.00259
BR34  4   -0.173236    0.673621    0.915260    11.00000    0.06479    0.06757 =
         0.05617   -0.01008    0.01485    0.01445
C35   1   -0.084058    0.565765    0.740647    11.00000    0.02836    0.04113 =
         0.04768    0.00924   -0.00003    0.00267
AFIX  43
H35   2   -0.223806    0.611496    0.729513    11.00000   -1.20000
AFIX   0
C36   1    0.041478    0.491185    0.674333    11.00000    0.03774    0.04636 =
         0.03538    0.00614   -0.00162    0.00164
AFIX  43
H36   2   -0.014946    0.486301    0.618334    11.00000   -1.20000
AFIX   0
HKLF 4
REM  a2cg
REM R1 =  0.0489 for    1842 Fo > 4sig(Fo)  and  0.1039 for all    2941 data
REM    190 parameters refined using      0 restraints
END
WGHT      0.0164      0.6492
REM No hydrogen bonds found for HTAB generation
REM Highest difference peak  0.441,  deepest hole -0.466,  1-sigma level  0.071
Q1    1  -0.0514  0.6012  0.9268  11.00000  0.05    0.44
Q2    1  -0.1435  0.7203  0.9226  11.00000  0.05    0.44
Q3    1  -0.1456  0.6726  0.8579  11.00000  0.05    0.38
Q4    1  -0.3633  0.6403  0.9210  11.00000  0.05    0.34
Q5    1  -0.2680  0.5197  0.9398  11.00000  0.05    0.32
Q6    1  -0.1832  0.8194  0.8577  11.00000  0.05    0.31
Q7    1  -0.0646  0.8487  0.8947  11.00000  0.05    0.31
Q8    1  -0.2149  0.5430  0.9581  11.00000  0.05    0.31
Q9    1  -0.1422  0.8203  0.9731  11.00000  0.05    0.30
Q10   1  -0.2191  0.6649  0.9767  11.00000  0.05    0.29
Q11   1  -0.3125  0.7541  0.8980  11.00000  0.05    0.29
Q12   1   0.0044  0.7352  0.9831  11.00000  0.05    0.28
Q13   1  -0.1635  0.5620  0.9737  11.00000  0.05    0.26
Q14   1   0.1885  0.4041  0.8996  11.00000  0.05    0.26
Q15   1   0.4255 -0.0193  0.2421  11.00000  0.05    0.25
Q16   1   0.5059 -0.1385  0.2793  11.00000  0.05    0.25
Q17   1   0.5856  0.1921  0.3220  11.00000  0.05    0.24
Q18   1  -0.2107  0.5417  0.8429  11.00000  0.05    0.24
Q19   1   0.1622  0.3481  0.9633  11.00000  0.05    0.24
Q20   1  -0.2040  0.6249  0.9065  11.00000  0.05    0.24
;
_shelx_res_checksum              11975
_shelxl_version_number           2.014
loop_
_space_group_symop_operation_xyz
'x, y, z'
'-x, -y, -z'
loop_
_atom_site_type_symbol
_atom_site_label
_atom_site_fract_x
_atom_site_fract_y
_atom_site_fract_z
_atom_site_U_iso_or_equiv
_atom_site_adp_type
_atom_site_calc_flag
_atom_site_occupancy
C C1 0.5068(6) 0.2375(4) 0.4774(2) 0.0415(9) Uani d 1
O O1 0.7111(4) 0.2606(3) 0.49106(15) 0.0566(7) Uani d 1
C C2 0.3387(6) 0.3049(5) 0.5402(2) 0.0460(9) Uani d 1
H H2 0.1897 0.3177 0.5220 0.055 Uiso calc 1
C C3 0.3935(6) 0.3475(4) 0.6212(2) 0.0407(9) Uani d 1
H H3 0.5422 0.3268 0.6369 0.049 Uiso calc 1
C C11 0.5650(5) 0.1296(4) 0.3265(2) 0.0341(8) Uani d 1
H H11 0.7103 0.1809 0.3314 0.041 Uiso calc 1
C C12 0.4239(5) 0.1438(4) 0.3957(2) 0.0348(8) Uani d 1
C C13 0.2048(6) 0.0631(5) 0.3885(2) 0.0444(9) Uani d 1
H H13 0.1055 0.0734 0.4348 0.053 Uiso calc 1
C C14 0.1380(6) -0.0292(4) 0.3146(2) 0.0454(9) Uani d 1
H H14 -0.0052 -0.0841 0.3118 0.055 Uiso calc 1
C C15 0.2162(6) -0.1383(4) 0.1639(3) 0.0479(10) Uani d 1
H H15 0.0738 -0.1944 0.1591 0.057 Uiso calc 1
C C16 0.3583(7) -0.1484(5) 0.0960(3) 0.0541(11) Uani d 1
H H16 0.3127 -0.2109 0.0451 0.065 Uiso calc 1
C C17 0.5745(7) -0.0651(5) 0.1018(2) 0.0493(10) Uani d 1
H H17 0.6712 -0.0727 0.0546 0.059 Uiso calc 1
C C18 0.6430(6) 0.0265(4) 0.1759(2) 0.0403(9) Uani d 1
H H18 0.7867 0.0808 0.1792 0.048 Uiso calc 1
C C19 0.4979(5) 0.0400(4) 0.2482(2) 0.0334(8) Uani d 1
C C20 0.2798(6) -0.0440(4) 0.2422(2) 0.0376(8) Uani d 1
C C31 0.2512(5) 0.4230(4) 0.6895(2) 0.0345(8) Uani d 1
C C32 0.3290(5) 0.4328(4) 0.7740(2) 0.0398(9) Uani d 1
H H32 0.4694 0.3885 0.7856 0.048 Uiso calc 1
C C33 0.2048(5) 0.5061(4) 0.8411(2) 0.0402(9) Uani d 1
H H33 0.2596 0.5107 0.8973 0.048 Uiso calc 1
C C34 -0.0016(5) 0.5723(4) 0.8236(2) 0.0360(8) Uani d 1
Br Br34 -0.17324(8) 0.67362(6) 0.91526(3) 0.06341(18) Uani d 1
C C35 -0.0841(5) 0.5658(4) 0.7406(2) 0.0387(9) Uani d 1
H H35 -0.2238 0.6115 0.7295 0.046 Uiso calc 1
C C36 0.0415(5) 0.4912(4) 0.6743(2) 0.0397(9) Uani d 1
H H36 -0.0149 0.4863 0.6183 0.048 Uiso calc 1
loop_
_atom_site_aniso_label
_atom_site_aniso_U_11
_atom_site_aniso_U_22
_atom_site_aniso_U_33
_atom_site_aniso_U_12
_atom_site_aniso_U_13
_atom_site_aniso_U_23
C1 0.041(2) 0.049(2) 0.036(2) 0.0112(19) 0.0044(17) 0.0078(18)
O1 0.0424(16) 0.083(2) 0.0434(15) 0.0066(14) 0.0013(12) -0.0014(14)
C2 0.040(2) 0.057(3) 0.040(2) 0.0099(18) 0.0015(17) -0.0001(19)
C3 0.036(2) 0.048(2) 0.039(2) 0.0035(17) 0.0025(17) 0.0061(18)
C11 0.0291(18) 0.032(2) 0.041(2) 0.0014(15) 0.0002(16) 0.0047(17)
C12 0.0329(19) 0.039(2) 0.033(2) 0.0062(16) 0.0026(16) 0.0052(17)
C13 0.038(2) 0.050(2) 0.047(2) 0.0055(18) 0.0140(18) 0.013(2)
C14 0.033(2) 0.039(2) 0.064(3) 0.0000(17) 0.0039(19) 0.008(2)
C15 0.042(2) 0.035(2) 0.066(3) 0.0021(17) -0.017(2) -0.001(2)
C16 0.069(3) 0.044(2) 0.049(3) 0.014(2) -0.012(2) -0.005(2)
C17 0.058(3) 0.051(2) 0.040(2) 0.018(2) 0.0063(19) 0.003(2)
C18 0.040(2) 0.041(2) 0.040(2) 0.0052(17) 0.0028(17) 0.0006(18)
C19 0.036(2) 0.0306(19) 0.034(2) 0.0073(16) -0.0022(16) 0.0044(16)
C20 0.035(2) 0.030(2) 0.049(2) 0.0027(16) -0.0056(17) 0.0034(18)
C31 0.0363(19) 0.032(2) 0.035(2) 0.0004(16) 0.0020(16) 0.0039(16)
C32 0.0321(19) 0.045(2) 0.043(2) 0.0045(16) -0.0002(17) 0.0077(18)
C33 0.041(2) 0.044(2) 0.036(2) 0.0011(17) -0.0035(17) 0.0019(17)
C34 0.0357(19) 0.031(2) 0.041(2) -0.0026(16) 0.0027(16) 0.0002(17)
Br34 0.0648(3) 0.0676(3) 0.0562(3) 0.0145(2) 0.0149(2) -0.0101(2)
C35 0.0284(18) 0.041(2) 0.048(2) 0.0027(16) 0.0000(17) 0.0092(18)
C36 0.038(2) 0.046(2) 0.035(2) 0.0016(17) -0.0016(16) 0.0061(18)
loop_
_atom_type_symbol
_atom_type_description
_atom_type_scat_dispersion_real
_atom_type_scat_dispersion_imag
_atom_type_scat_source
C C 0.0033 0.0016 'International Tables Vol C Tables 4.2.6.8 and 6.1.1.4'
H H 0.0000 0.0000 'International Tables Vol C Tables 4.2.6.8 and 6.1.1.4'
O O 0.0106 0.0060 'International Tables Vol C Tables 4.2.6.8 and 6.1.1.4'
Br Br -0.2901 2.4595 'International Tables Vol C Tables 4.2.6.8 and 6.1.1.4'
loop_
_geom_angle_atom_site_label_1
_geom_angle_atom_site_label_2
_geom_angle_atom_site_label_3
_geom_angle
O1 C1 C2 121.0(3)
O1 C1 C12 120.2(3)
C2 C1 C12 118.9(3)
C3 C2 C1 121.8(3)
C3 C2 H2 119.1
C1 C2 H2 119.1
C2 C3 C31 128.3(3)
C2 C3 H3 115.9
C31 C3 H3 115.9
C12 C11 C19 122.1(3)
C12 C11 H11 118.9
C19 C11 H11 118.9
C11 C12 C13 118.7(3)
C11 C12 C1 119.5(3)
C13 C12 C1 121.8(3)
C14 C13 C12 120.6(3)
C14 C13 H13 119.7
C12 C13 H13 119.7
C13 C14 C20 121.7(3)
C13 C14 H14 119.2
C20 C14 H14 119.2
C16 C15 C20 121.2(4)
C16 C15 H15 119.4
C20 C15 H15 119.4
C15 C16 C17 120.5(4)
C15 C16 H16 119.8
C17 C16 H16 119.8
C18 C17 C16 120.3(3)
C18 C17 H17 119.9
C16 C17 H17 119.9
C17 C18 C19 120.6(3)
C17 C18 H18 119.7
C19 C18 H18 119.7
C11 C19 C18 122.3(3)
C11 C19 C20 118.7(3)
C18 C19 C20 119.0(3)
C14 C20 C15 123.4(3)
C14 C20 C19 118.2(3)
C15 C20 C19 118.4(3)
C32 C31 C36 117.6(3)
C32 C31 C3 119.3(3)
C36 C31 C3 123.1(3)
C33 C32 C31 122.0(3)
C33 C32 H32 119.0
C31 C32 H32 119.0
C34 C33 C32 118.8(3)
C34 C33 H33 120.6
C32 C33 H33 120.6
C33 C34 C35 121.0(3)
C33 C34 Br34 119.1(3)
C35 C34 Br34 119.9(2)
C36 C35 C34 119.5(3)
C36 C35 H35 120.2
C34 C35 H35 120.2
C35 C36 C31 121.1(3)
C35 C36 H36 119.4
C31 C36 H36 119.4
loop_
_geom_bond_atom_site_label_1
_geom_bond_atom_site_label_2
_geom_bond_distance
C1 O1 1.221(4)
C1 C2 1.473(5)
C1 C12 1.485(5)
C2 C3 1.314(4)
C2 H2 0.9300
C3 C31 1.456(4)
C3 H3 0.9300
C11 C12 1.363(4)
C11 C19 1.403(4)
C11 H11 0.9300
C12 C13 1.413(5)
C13 C14 1.355(5)
C13 H13 0.9300
C14 C20 1.405(5)
C14 H14 0.9300
C15 C16 1.349(5)
C15 C20 1.413(5)
C15 H15 0.9300
C16 C17 1.405(5)
C16 H16 0.9300
C17 C18 1.359(5)
C17 H17 0.9300
C18 C19 1.414(4)
C18 H18 0.9300
C19 C20 1.417(4)
C31 C32 1.388(4)
C31 C36 1.389(4)
C32 C33 1.375(4)
C32 H32 0.9300
C33 C34 1.373(4)
C33 H33 0.9300
C34 C35 1.375(4)
C34 Br34 1.889(3)
C35 C36 1.375(4)
C35 H35 0.9300
C36 H36 0.9300
loop_
_geom_hbond_atom_site_label_D
_geom_hbond_atom_site_label_H
_geom_hbond_atom_site_label_A
_geom_hbond_site_symmetry_A
_geom_hbond_distance_DH
_geom_hbond_distance_HA
_geom_hbond_distance_DA
_geom_hbond_angle_DHA
_geom_hbond_publ_flag
C32 H32 Cg4 2_656 0.93 2.85 3.513(3) 129 no
loop_
_geom_torsion_atom_site_label_1
_geom_torsion_atom_site_label_2
_geom_torsion_atom_site_label_3
_geom_torsion_atom_site_label_4
_geom_torsion
O1 C1 C2 C3 -19.8(6)
C12 C1 C2 C3 161.6(3)
C1 C2 C3 C31 176.8(3)
C19 C11 C12 C13 1.1(5)
C19 C11 C12 C1 178.8(3)
O1 C1 C12 C11 -19.9(5)
C2 C1 C12 C11 158.6(3)
O1 C1 C12 C13 157.7(3)
C2 C1 C12 C13 -23.7(5)
C11 C12 C13 C14 1.2(5)
C1 C12 C13 C14 -176.4(3)
C12 C13 C14 C20 -1.9(5)
C20 C15 C16 C17 0.1(5)
C15 C16 C17 C18 0.1(5)
C16 C17 C18 C19 -0.3(5)
C12 C11 C19 C18 179.3(3)
C12 C11 C19 C20 -2.6(5)
C17 C18 C19 C11 178.3(3)
C17 C18 C19 C20 0.2(5)
C13 C14 C20 C15 -179.7(3)
C13 C14 C20 C19 0.3(5)
C16 C15 C20 C14 179.8(3)
C16 C15 C20 C19 -0.2(5)
C11 C19 C20 C14 1.9(4)
C18 C19 C20 C14 180.0(3)
C11 C19 C20 C15 -178.1(3)
C18 C19 C20 C15 0.0(5)
C2 C3 C31 C32 169.5(4)
C2 C3 C31 C36 -12.4(6)
C36 C31 C32 C33 0.3(5)
C3 C31 C32 C33 178.5(3)
C31 C32 C33 C34 -0.4(5)
C32 C33 C34 C35 0.1(5)
C32 C33 C34 Br34 -179.9(2)
C33 C34 C35 C36 0.3(5)
Br34 C34 C35 C36 -179.7(2)
C34 C35 C36 C31 -0.4(5)
C32 C31 C36 C35 0.0(5)
C3 C31 C36 C35 -178.0(3)

_cod_database_fobs_code 2020724
